MODEL 1
REMARK VINA RESULT:     -11.1      0.000      0.000
REMARK SMILES CCc1ccsc1C(=O)N(CC(=O)OCCOCCOC(=O)c1ccc(-c2c3nc(c(-c4cccc(S(=O)(=O)[O-])c4F)c4ccc([nH]4)c(-c4cccc(S(=O)(=O)[O-])c4F)c4nc(c(-c5cccc(S(=O)(=O)[O-])c5F)c5ccc2[nH]5)C=C4)C=C3)cc1)c1ccccc1N
REMARK SMILES IDX 16 1 15 2 14 3 12 4 13 5 11 6 10 7 8 8 9 9 7 10 3 11 4 12
REMARK SMILES IDX 5 13 6 14 2 15 1 16 86 17 87 18 91 19 88 20 90 21 89 22
REMARK SMILES IDX 92 23 17 26 18 27 19 28 20 29 21 30 22 31 23 32 24 33 85 34
REMARK SMILES IDX 25 35 84 36 26 37 27 38 28 39 78 40 29 41 83 42 77 43 79 44
REMARK SMILES IDX 30 45 82 46 76 47 75 48 31 50 63 51 43 52 62 53 44 54 47 55
REMARK SMILES IDX 61 56 80 57 45 58 46 59 60 61 81 62 48 63 32 64 33 65 41 66
REMARK SMILES IDX 34 67 36 68 42 69 35 70 37 71 38 72 39 73 40 74 64 75 65 76
REMARK SMILES IDX 73 77 66 78 68 79 74 80 67 81 69 82 70 83 71 84 72 85 49 86
REMARK SMILES IDX 50 87 58 88 51 89 53 90 59 91 52 92 54 93 55 94 56 95 57 96
REMARK H PARENT 92 24 92 25 79 49 47 60
REMARK Flexibility Score: inf
ROOT
ATOM      1  C   UNL A   1      33.810  22.363  23.595  1.00  0.00     0.202 C 
ENDROOT
BRANCH   1   2
ATOM      2  C   UNL A   1      33.511  23.415  22.511  1.00  0.00     0.261 C 
BRANCH   2   3
ATOM      3  O   UNL A   1      32.489  24.385  22.820  1.00  0.00    -0.462 OA
BRANCH   3   4
ATOM      4  C   UNL A   1      32.737  25.633  22.340  1.00  0.00     0.326 C 
ATOM      5  O   UNL A   1      33.788  25.957  21.787  1.00  0.00    -0.250 OA
BRANCH   4   6
ATOM      6  C   UNL A   1      31.550  26.585  22.343  1.00  0.00     0.248 C 
BRANCH   6   7
ATOM      7  N   UNL A   1      30.728  26.926  23.503  1.00  0.00    -0.294 N 
BRANCH   7   8
ATOM      8  C   UNL A   1      31.116  26.839  24.863  1.00  0.00     0.269 C 
ATOM      9  O   UNL A   1      30.436  26.085  25.579  1.00  0.00    -0.268 OA
BRANCH   8  10
ATOM     10  C   UNL A   1      32.272  27.529  25.506  1.00  0.00     0.096 A 
ATOM     11  C   UNL A   1      33.640  27.370  25.780  1.00  0.00    -0.025 A 
ATOM     12  C   UNL A   1      34.215  28.581  26.346  1.00  0.00     0.016 A 
ATOM     13  C   UNL A   1      33.328  29.602  26.520  1.00  0.00     0.066 A 
ATOM     14  S   UNL A   1      31.776  29.141  26.057  1.00  0.00    -0.138 S 
BRANCH  11  15
ATOM     15  C   UNL A   1      34.613  26.245  25.568  1.00  0.00     0.034 C 
ATOM     16  C   UNL A   1      34.005  24.901  25.949  1.00  0.00     0.009 C 
ENDBRANCH  11  15
ENDBRANCH   8  10
ENDBRANCH   7   8
BRANCH   7  17
ATOM     17  C   UNL A   1      29.650  27.831  23.143  1.00  0.00     0.068 A 
ATOM     18  C   UNL A   1      30.000  29.111  22.692  1.00  0.00     0.028 A 
ATOM     19  C   UNL A   1      28.285  27.534  23.381  1.00  0.00     0.056 A 
ATOM     20  C   UNL A   1      29.035  30.106  22.534  1.00  0.00     0.002 A 
ATOM     21  C   UNL A   1      27.341  28.568  23.285  1.00  0.00     0.028 A 
ATOM     22  C   UNL A   1      27.709  29.842  22.856  1.00  0.00     0.002 A 
BRANCH  19  23
ATOM     23  N   UNL A   1      27.860  26.299  23.896  1.00  0.00    -0.397 N 
ATOM     24  H   UNL A   1      27.625  26.217  24.849  1.00  0.00     0.156 HD
ATOM     25  H   UNL A   1      27.798  25.513  23.305  1.00  0.00     0.156 HD
ENDBRANCH  19  23
ENDBRANCH   7  17
ENDBRANCH   6   7
ENDBRANCH   4   6
ENDBRANCH   3   4
ENDBRANCH   2   3
ENDBRANCH   1   2
BRANCH   1  26
ATOM     26  O   UNL A   1      35.167  22.171  23.983  1.00  0.00    -0.374 OA
BRANCH  26  27
ATOM     27  C   UNL A   1      35.460  21.109  24.892  1.00  0.00     0.202 C 
BRANCH  27  28
ATOM     28  C   UNL A   1      36.892  20.569  24.869  1.00  0.00     0.261 C 
BRANCH  28  29
ATOM     29  O   UNL A   1      37.831  21.648  25.025  1.00  0.00    -0.460 OA
BRANCH  29  30
ATOM     30  C   UNL A   1      38.892  21.349  25.803  1.00  0.00     0.338 C 
ATOM     31  O   UNL A   1      39.546  20.314  25.778  1.00  0.00    -0.246 OA
BRANCH  30  32
ATOM     32  C   UNL A   1      39.286  22.538  26.575  1.00  0.00     0.060 A 
ATOM     33  C   UNL A   1      38.645  23.747  26.280  1.00  0.00     0.016 A 
ATOM     34  C   UNL A   1      40.348  22.499  27.480  1.00  0.00     0.016 A 
ATOM     35  C   UNL A   1      39.119  24.937  26.832  1.00  0.00     0.010 A 
ATOM     36  C   UNL A   1      40.819  23.698  28.035  1.00  0.00     0.010 A 
ATOM     37  C   UNL A   1      40.242  24.929  27.673  1.00  0.00    -0.014 A 
BRANCH  37  38
ATOM     38  C   UNL A   1      40.886  26.223  28.027  1.00  0.00     0.031 A 
ATOM     39  C   UNL A   1      42.287  26.509  27.548  1.00  0.00     0.074 A 
ATOM     40  C   UNL A   1      40.221  27.162  28.727  1.00  0.00     0.049 A 
ATOM     41  N   UNL A   1      42.988  27.609  27.659  1.00  0.00    -0.248 NA
ATOM     42  C   UNL A   1      42.989  25.420  26.851  1.00  0.00     0.031 C 
ATOM     43  C   UNL A   1      38.873  27.013  29.273  1.00  0.00     0.029 A 
ATOM     44  N   UNL A   1      40.601  28.426  29.109  1.00  0.00    -0.354 N 
ATOM     45  C   UNL A   1      44.218  27.339  27.069  1.00  0.00     0.074 A 
ATOM     46  C   UNL A   1      44.173  25.966  26.612  1.00  0.00     0.031 C 
ATOM     47  C   UNL A   1      38.547  28.135  29.939  1.00  0.00     0.029 A 
ATOM     48  C   UNL A   1      39.663  29.079  29.871  1.00  0.00     0.049 A 
ATOM     49  H   UNL A   1      41.465  28.827  28.858  1.00  0.00     0.167 HD
ATOM     50  C   UNL A   1      45.279  28.161  26.897  1.00  0.00     0.034 A 
ATOM     51  C   UNL A   1      39.698  30.295  30.456  1.00  0.00     0.034 A 
ATOM     52  C   UNL A   1      45.322  29.537  27.313  1.00  0.00     0.049 A 
ATOM     53  C   UNL A   1      40.892  31.192  30.244  1.00  0.00     0.074 A 
ATOM     54  C   UNL A   1      46.325  30.467  27.100  1.00  0.00     0.029 A 
ATOM     55  N   UNL A   1      44.333  30.176  28.040  1.00  0.00    -0.354 N 
ATOM     56  N   UNL A   1      41.967  30.980  29.524  1.00  0.00    -0.248 NA
ATOM     57  C   UNL A   1      40.859  32.512  30.893  1.00  0.00     0.031 C 
ATOM     58  C   UNL A   1      45.953  31.663  27.722  1.00  0.00     0.029 A 
ATOM     59  C   UNL A   1      44.709  31.482  28.303  1.00  0.00     0.049 A 
ATOM     60  H   UNL A   1      43.486  29.764  28.327  1.00  0.00     0.167 HD
ATOM     61  C   UNL A   1      42.718  32.150  29.606  1.00  0.00     0.074 A 
ATOM     62  C   UNL A   1      41.965  33.076  30.425  1.00  0.00     0.031 C 
ATOM     63  C   UNL A   1      43.932  32.423  29.067  1.00  0.00     0.034 A 
BRANCH  50  64
ATOM     64  C   UNL A   1      46.487  27.613  26.186  1.00  0.00     0.023 A 
ATOM     65  C   UNL A   1      46.634  27.831  24.801  1.00  0.00     0.012 A 
ATOM     66  C   UNL A   1      47.517  26.971  26.901  1.00  0.00     0.148 A 
ATOM     67  C   UNL A   1      47.781  27.403  24.135  1.00  0.00     0.002 A 
ATOM     68  C   UNL A   1      48.674  26.581  26.237  1.00  0.00     0.091 A 
ATOM     69  F   UNL A   1      47.345  26.756  28.213  1.00  0.00    -0.205 F 
ATOM     70  C   UNL A   1      48.805  26.790  24.854  1.00  0.00     0.022 A 
BRANCH  68  71
ATOM     71  S   UNL A   1      50.079  25.854  27.087  1.00  0.00     0.127 S 
ATOM     72  O   UNL A   1      49.678  24.449  27.169  1.00  0.00    -0.237 OA
ATOM     73  O   UNL A   1      51.174  26.121  26.155  1.00  0.00    -0.237 OA
ATOM     74  O   UNL A   1      50.182  26.550  28.361  1.00  0.00    -0.744 OA
ENDBRANCH  68  71
ENDBRANCH  50  64
BRANCH  51  75
ATOM     75  C   UNL A   1      38.542  30.760  31.274  1.00  0.00     0.023 A 
ATOM     76  C   UNL A   1      38.533  30.539  32.664  1.00  0.00     0.012 A 
ATOM     77  C   UNL A   1      37.452  31.423  30.677  1.00  0.00     0.148 A 
ATOM     78  C   UNL A   1      37.444  30.939  33.440  1.00  0.00     0.002 A 
ATOM     79  C   UNL A   1      36.398  31.870  31.465  1.00  0.00     0.091 A 
ATOM     80  F   UNL A   1      37.465  31.602  29.349  1.00  0.00    -0.205 F 
ATOM     81  C   UNL A   1      36.383  31.614  32.843  1.00  0.00     0.022 A 
BRANCH  79  82
ATOM     82  S   UNL A   1      35.061  32.863  30.792  1.00  0.00     0.127 S 
ATOM     83  O   UNL A   1      34.655  32.075  29.632  1.00  0.00    -0.237 OA
ATOM     84  O   UNL A   1      34.101  32.874  31.897  1.00  0.00    -0.237 OA
ATOM     85  O   UNL A   1      35.652  34.163  30.505  1.00  0.00    -0.744 OA
ENDBRANCH  79  82
ENDBRANCH  51  75
BRANCH  63  86
ATOM     86  C   UNL A   1      44.527  33.786  29.315  1.00  0.00     0.023 A 
ATOM     87  C   UNL A   1      45.426  33.970  30.383  1.00  0.00     0.012 A 
ATOM     88  C   UNL A   1      44.262  34.862  28.442  1.00  0.00     0.148 A 
ATOM     89  C   UNL A   1      46.030  35.210  30.598  1.00  0.00     0.002 A 
ATOM     90  C   UNL A   1      44.903  36.081  28.636  1.00  0.00     0.091 A 
ATOM     91  F   UNL A   1      43.391  34.674  27.441  1.00  0.00    -0.205 F 
ATOM     92  C   UNL A   1      45.777  36.260  29.718  1.00  0.00     0.022 A 
BRANCH  90  93
ATOM     93  S   UNL A   1      44.709  37.459  27.498  1.00  0.00     0.127 S 
ATOM     94  O   UNL A   1      43.256  37.615  27.462  1.00  0.00    -0.237 OA
ATOM     95  O   UNL A   1      45.421  38.537  28.187  1.00  0.00    -0.237 OA
ATOM     96  O   UNL A   1      45.326  37.034  26.248  1.00  0.00    -0.744 OA
ENDBRANCH  90  93
ENDBRANCH  63  86
ENDBRANCH  37  38
ENDBRANCH  30  32
ENDBRANCH  29  30
ENDBRANCH  28  29
ENDBRANCH  27  28
ENDBRANCH  26  27
ENDBRANCH   1  26
TORSDOF 23
ENDMDL
MODEL 2
REMARK VINA RESULT:     -11.1      1.612      7.598
REMARK SMILES CCc1ccsc1C(=O)N(CC(=O)OCCOCCOC(=O)c1ccc(-c2c3nc(c(-c4cccc(S(=O)(=O)[O-])c4F)c4ccc([nH]4)c(-c4cccc(S(=O)(=O)[O-])c4F)c4nc(c(-c5cccc(S(=O)(=O)[O-])c5F)c5ccc2[nH]5)C=C4)C=C3)cc1)c1ccccc1N
REMARK SMILES IDX 16 1 15 2 14 3 12 4 13 5 11 6 10 7 8 8 9 9 7 10 3 11 4 12
REMARK SMILES IDX 5 13 6 14 2 15 1 16 86 17 87 18 91 19 88 20 90 21 89 22
REMARK SMILES IDX 92 23 17 26 18 27 19 28 20 29 21 30 22 31 23 32 24 33 85 34
REMARK SMILES IDX 25 35 84 36 26 37 27 38 28 39 78 40 29 41 83 42 77 43 79 44
REMARK SMILES IDX 30 45 82 46 76 47 75 48 31 50 63 51 43 52 62 53 44 54 47 55
REMARK SMILES IDX 61 56 80 57 45 58 46 59 60 61 81 62 48 63 32 64 33 65 41 66
REMARK SMILES IDX 34 67 36 68 42 69 35 70 37 71 38 72 39 73 40 74 64 75 65 76
REMARK SMILES IDX 73 77 66 78 68 79 74 80 67 81 69 82 70 83 71 84 72 85 49 86
REMARK SMILES IDX 50 87 58 88 51 89 53 90 59 91 52 92 54 93 55 94 56 95 57 96
REMARK H PARENT 92 24 92 25 79 49 47 60
REMARK Flexibility Score: inf
ROOT
ATOM      1  C   UNL A   1      33.794  22.366  24.038  1.00  0.00     0.202 C 
ENDROOT
BRANCH   1   2
ATOM      2  C   UNL A   1      33.508  23.458  22.991  1.00  0.00     0.261 C 
BRANCH   2   3
ATOM      3  O   UNL A   1      33.118  24.751  23.500  1.00  0.00    -0.462 OA
BRANCH   3   4
ATOM      4  C   UNL A   1      32.899  25.689  22.540  1.00  0.00     0.326 C 
ATOM      5  O   UNL A   1      33.725  25.993  21.680  1.00  0.00    -0.250 OA
BRANCH   4   6
ATOM      6  C   UNL A   1      31.477  26.222  22.455  1.00  0.00     0.248 C 
BRANCH   6   7
ATOM      7  N   UNL A   1      30.721  26.827  23.551  1.00  0.00    -0.294 N 
BRANCH   7   8
ATOM      8  C   UNL A   1      31.146  26.950  24.897  1.00  0.00     0.269 C 
ATOM      9  O   UNL A   1      30.718  26.092  25.687  1.00  0.00    -0.268 OA
BRANCH   8  10
ATOM     10  C   UNL A   1      32.078  27.977  25.448  1.00  0.00     0.096 A 
ATOM     11  C   UNL A   1      32.176  29.355  25.707  1.00  0.00    -0.025 A 
ATOM     12  C   UNL A   1      33.390  29.673  26.443  1.00  0.00     0.016 A 
ATOM     13  C   UNL A   1      34.190  28.601  26.710  1.00  0.00     0.066 A 
ATOM     14  S   UNL A   1      33.546  27.189  26.058  1.00  0.00    -0.138 S 
BRANCH  11  15
ATOM     15  C   UNL A   1      31.280  30.526  25.424  1.00  0.00     0.034 C 
ATOM     16  C   UNL A   1      31.366  31.575  26.526  1.00  0.00     0.009 C 
ENDBRANCH  11  15
ENDBRANCH   8  10
ENDBRANCH   7   8
BRANCH   7  17
ATOM     17  C   UNL A   1      29.705  27.740  23.056  1.00  0.00     0.068 A 
ATOM     18  C   UNL A   1      30.137  28.911  22.422  1.00  0.00     0.028 A 
ATOM     19  C   UNL A   1      28.324  27.573  23.330  1.00  0.00     0.056 A 
ATOM     20  C   UNL A   1      29.240  29.935  22.113  1.00  0.00     0.002 A 
ATOM     21  C   UNL A   1      27.451  28.642  23.077  1.00  0.00     0.028 A 
ATOM     22  C   UNL A   1      27.901  29.811  22.465  1.00  0.00     0.002 A 
BRANCH  19  23
ATOM     23  N   UNL A   1      27.821  26.459  24.021  1.00  0.00    -0.397 N 
ATOM     24  H   UNL A   1      27.155  26.582  24.735  1.00  0.00     0.156 HD
ATOM     25  H   UNL A   1      28.135  25.554  23.791  1.00  0.00     0.156 HD
ENDBRANCH  19  23
ENDBRANCH   7  17
ENDBRANCH   6   7
ENDBRANCH   4   6
ENDBRANCH   3   4
ENDBRANCH   2   3
ENDBRANCH   1   2
BRANCH   1  26
ATOM     26  O   UNL A   1      35.102  21.801  24.074  1.00  0.00    -0.374 OA
BRANCH  26  27
ATOM     27  C   UNL A   1      35.338  20.718  24.974  1.00  0.00     0.202 C 
BRANCH  27  28
ATOM     28  C   UNL A   1      36.757  20.144  24.987  1.00  0.00     0.261 C 
BRANCH  28  29
ATOM     29  O   UNL A   1      37.722  21.207  25.073  1.00  0.00    -0.460 OA
BRANCH  29  30
ATOM     30  C   UNL A   1      38.828  20.895  25.780  1.00  0.00     0.338 C 
ATOM     31  O   UNL A   1      39.431  19.828  25.758  1.00  0.00    -0.246 OA
BRANCH  30  32
ATOM     32  C   UNL A   1      39.336  22.099  26.456  1.00  0.00     0.060 A 
ATOM     33  C   UNL A   1      38.742  23.324  26.135  1.00  0.00     0.016 A 
ATOM     34  C   UNL A   1      40.453  22.048  27.292  1.00  0.00     0.016 A 
ATOM     35  C   UNL A   1      39.315  24.514  26.586  1.00  0.00     0.010 A 
ATOM     36  C   UNL A   1      41.023  23.246  27.746  1.00  0.00     0.010 A 
ATOM     37  C   UNL A   1      40.489  24.487  27.352  1.00  0.00    -0.014 A 
BRANCH  37  38
ATOM     38  C   UNL A   1      41.223  25.759  27.590  1.00  0.00     0.031 A 
ATOM     39  C   UNL A   1      40.549  26.873  28.350  1.00  0.00     0.074 A 
ATOM     40  C   UNL A   1      42.497  25.914  27.180  1.00  0.00     0.049 A 
ATOM     41  N   UNL A   1      41.044  28.017  28.751  1.00  0.00    -0.248 NA
ATOM     42  C   UNL A   1      39.135  26.675  28.709  1.00  0.00     0.031 C 
ATOM     43  C   UNL A   1      43.264  24.933  26.415  1.00  0.00     0.029 A 
ATOM     44  N   UNL A   1      43.364  26.968  27.341  1.00  0.00    -0.354 N 
ATOM     45  C   UNL A   1      40.002  28.682  29.387  1.00  0.00     0.074 A 
ATOM     46  C   UNL A   1      38.842  27.821  29.308  1.00  0.00     0.031 C 
ATOM     47  C   UNL A   1      44.482  25.440  26.155  1.00  0.00     0.029 A 
ATOM     48  C   UNL A   1      44.580  26.783  26.729  1.00  0.00     0.049 A 
ATOM     49  H   UNL A   1      43.135  27.780  27.849  1.00  0.00     0.167 HD
ATOM     50  C   UNL A   1      40.012  29.887  30.004  1.00  0.00     0.034 A 
ATOM     51  C   UNL A   1      45.649  27.601  26.632  1.00  0.00     0.034 A 
ATOM     52  C   UNL A   1      41.168  30.735  30.121  1.00  0.00     0.049 A 
ATOM     53  C   UNL A   1      45.633  28.936  27.334  1.00  0.00     0.074 A 
ATOM     54  C   UNL A   1      41.287  31.932  30.806  1.00  0.00     0.029 A 
ATOM     55  N   UNL A   1      42.395  30.490  29.529  1.00  0.00    -0.354 N 
ATOM     56  N   UNL A   1      44.699  29.463  28.087  1.00  0.00    -0.248 NA
ATOM     57  C   UNL A   1      46.838  29.772  27.205  1.00  0.00     0.031 C 
ATOM     58  C   UNL A   1      42.580  32.425  30.606  1.00  0.00     0.029 A 
ATOM     59  C   UNL A   1      43.271  31.523  29.814  1.00  0.00     0.049 A 
ATOM     60  H   UNL A   1      42.612  29.698  28.986  1.00  0.00     0.167 HD
ATOM     61  C   UNL A   1      45.215  30.672  28.547  1.00  0.00     0.074 A 
ATOM     62  C   UNL A   1      46.553  30.788  28.009  1.00  0.00     0.031 C 
ATOM     63  C   UNL A   1      44.624  31.609  29.328  1.00  0.00     0.034 A 
BRANCH  50  64
ATOM     64  C   UNL A   1      38.737  30.359  30.649  1.00  0.00     0.023 A 
ATOM     65  C   UNL A   1      38.530  30.131  32.024  1.00  0.00     0.012 A 
ATOM     66  C   UNL A   1      37.793  31.108  29.919  1.00  0.00     0.148 A 
ATOM     67  C   UNL A   1      37.394  30.628  32.661  1.00  0.00     0.002 A 
ATOM     68  C   UNL A   1      36.682  31.632  30.569  1.00  0.00     0.091 A 
ATOM     69  F   UNL A   1      38.000  31.293  28.608  1.00  0.00    -0.205 F 
ATOM     70  C   UNL A   1      36.477  31.387  31.938  1.00  0.00     0.022 A 
BRANCH  68  71
ATOM     71  S   UNL A   1      35.485  32.685  29.743  1.00  0.00     0.127 S 
ATOM     72  O   UNL A   1      35.049  31.828  28.641  1.00  0.00    -0.237 OA
ATOM     73  O   UNL A   1      34.482  32.891  30.788  1.00  0.00    -0.237 OA
ATOM     74  O   UNL A   1      36.209  33.886  29.352  1.00  0.00    -0.744 OA
ENDBRANCH  68  71
ENDBRANCH  50  64
BRANCH  51  75
ATOM     75  C   UNL A   1      46.852  27.165  25.867  1.00  0.00     0.023 A 
ATOM     76  C   UNL A   1      47.786  26.299  26.466  1.00  0.00     0.012 A 
ATOM     77  C   UNL A   1      47.071  27.607  24.548  1.00  0.00     0.148 A 
ATOM     78  C   UNL A   1      48.935  25.907  25.777  1.00  0.00     0.002 A 
ATOM     79  C   UNL A   1      48.188  27.165  23.847  1.00  0.00     0.091 A 
ATOM     80  F   UNL A   1      46.185  28.451  24.003  1.00  0.00    -0.205 F 
ATOM     81  C   UNL A   1      49.130  26.331  24.465  1.00  0.00     0.022 A 
BRANCH  79  82
ATOM     82  S   UNL A   1      48.439  27.557  22.112  1.00  0.00     0.127 S 
ATOM     83  O   UNL A   1      49.533  28.521  22.177  1.00  0.00    -0.237 OA
ATOM     84  O   UNL A   1      48.798  26.253  21.553  1.00  0.00    -0.237 OA
ATOM     85  O   UNL A   1      47.159  28.072  21.643  1.00  0.00    -0.744 OA
ENDBRANCH  79  82
ENDBRANCH  51  75
BRANCH  63  86
ATOM     86  C   UNL A   1      45.418  32.841  29.681  1.00  0.00     0.023 A 
ATOM     87  C   UNL A   1      46.354  32.789  30.732  1.00  0.00     0.012 A 
ATOM     88  C   UNL A   1      45.299  34.022  28.921  1.00  0.00     0.148 A 
ATOM     89  C   UNL A   1      47.139  33.900  31.041  1.00  0.00     0.002 A 
ATOM     90  C   UNL A   1      46.117  35.111  29.205  1.00  0.00     0.091 A 
ATOM     91  F   UNL A   1      44.391  34.061  27.935  1.00  0.00    -0.205 F 
ATOM     92  C   UNL A   1      47.028  35.056  30.271  1.00  0.00     0.022 A 
BRANCH  90  93
ATOM     93  S   UNL A   1      46.108  36.605  28.207  1.00  0.00     0.127 S 
ATOM     94  O   UNL A   1      47.010  37.474  28.960  1.00  0.00    -0.237 OA
ATOM     95  O   UNL A   1      46.642  36.132  26.929  1.00  0.00    -0.237 OA
ATOM     96  O   UNL A   1      44.718  37.040  28.153  1.00  0.00    -0.744 OA
ENDBRANCH  90  93
ENDBRANCH  63  86
ENDBRANCH  37  38
ENDBRANCH  30  32
ENDBRANCH  29  30
ENDBRANCH  28  29
ENDBRANCH  27  28
ENDBRANCH  26  27
ENDBRANCH   1  26
TORSDOF 23
ENDMDL
MODEL 3
REMARK VINA RESULT:     -10.4      1.641      2.650
REMARK SMILES CCc1ccsc1C(=O)N(CC(=O)OCCOCCOC(=O)c1ccc(-c2c3nc(c(-c4cccc(S(=O)(=O)[O-])c4F)c4ccc([nH]4)c(-c4cccc(S(=O)(=O)[O-])c4F)c4nc(c(-c5cccc(S(=O)(=O)[O-])c5F)c5ccc2[nH]5)C=C4)C=C3)cc1)c1ccccc1N
REMARK SMILES IDX 16 1 15 2 14 3 12 4 13 5 11 6 10 7 8 8 9 9 7 10 3 11 4 12
REMARK SMILES IDX 5 13 6 14 2 15 1 16 86 17 87 18 91 19 88 20 90 21 89 22
REMARK SMILES IDX 92 23 17 26 18 27 19 28 20 29 21 30 22 31 23 32 24 33 85 34
REMARK SMILES IDX 25 35 84 36 26 37 27 38 28 39 78 40 29 41 83 42 77 43 79 44
REMARK SMILES IDX 30 45 82 46 76 47 75 48 31 50 63 51 43 52 62 53 44 54 47 55
REMARK SMILES IDX 61 56 80 57 45 58 46 59 60 61 81 62 48 63 32 64 33 65 41 66
REMARK SMILES IDX 34 67 36 68 42 69 35 70 37 71 38 72 39 73 40 74 64 75 65 76
REMARK SMILES IDX 73 77 66 78 68 79 74 80 67 81 69 82 70 83 71 84 72 85 49 86
REMARK SMILES IDX 50 87 58 88 51 89 53 90 59 91 52 92 54 93 55 94 56 95 57 96
REMARK H PARENT 92 24 92 25 79 49 47 60
REMARK Flexibility Score: inf
ROOT
ATOM      1  C   UNL A   1      33.632  20.350  24.926  1.00  0.00     0.202 C 
ENDROOT
BRANCH   1   2
ATOM      2  C   UNL A   1      32.386  20.915  24.218  1.00  0.00     0.261 C 
BRANCH   2   3
ATOM      3  O   UNL A   1      32.625  21.765  23.077  1.00  0.00    -0.462 OA
BRANCH   3   4
ATOM      4  C   UNL A   1      31.911  22.923  23.081  1.00  0.00     0.326 C 
ATOM      5  O   UNL A   1      30.686  22.971  22.981  1.00  0.00    -0.250 OA
BRANCH   4   6
ATOM      6  C   UNL A   1      32.701  24.179  23.419  1.00  0.00     0.248 C 
BRANCH   6   7
ATOM      7  N   UNL A   1      32.561  24.978  24.634  1.00  0.00    -0.294 N 
BRANCH   7   8
ATOM      8  C   UNL A   1      31.683  26.074  24.823  1.00  0.00     0.269 C 
ATOM      9  O   UNL A   1      30.477  25.850  24.624  1.00  0.00    -0.268 OA
BRANCH   8  10
ATOM     10  C   UNL A   1      32.055  27.449  25.267  1.00  0.00     0.096 A 
ATOM     11  C   UNL A   1      32.518  28.682  24.777  1.00  0.00    -0.025 A 
ATOM     12  C   UNL A   1      32.517  29.702  25.814  1.00  0.00     0.016 A 
ATOM     13  C   UNL A   1      32.101  29.267  27.038  1.00  0.00     0.066 A 
ATOM     14  S   UNL A   1      31.739  27.623  27.005  1.00  0.00    -0.138 S 
BRANCH  11  15
ATOM     15  C   UNL A   1      32.958  29.155  23.421  1.00  0.00     0.034 C 
ATOM     16  C   UNL A   1      33.875  28.143  22.746  1.00  0.00     0.009 C 
ENDBRANCH  11  15
ENDBRANCH   8  10
ENDBRANCH   7   8
BRANCH   7  17
ATOM     17  C   UNL A   1      33.034  24.258  25.803  1.00  0.00     0.068 A 
ATOM     18  C   UNL A   1      34.420  24.127  25.969  1.00  0.00     0.028 A 
ATOM     19  C   UNL A   1      32.167  23.556  26.677  1.00  0.00     0.056 A 
ATOM     20  C   UNL A   1      34.950  23.273  26.937  1.00  0.00     0.002 A 
ATOM     21  C   UNL A   1      32.719  22.650  27.595  1.00  0.00     0.028 A 
ATOM     22  C   UNL A   1      34.100  22.515  27.732  1.00  0.00     0.002 A 
BRANCH  19  23
ATOM     23  N   UNL A   1      30.770  23.583  26.535  1.00  0.00    -0.397 N 
ATOM     24  H   UNL A   1      30.298  22.805  26.159  1.00  0.00     0.156 HD
ATOM     25  H   UNL A   1      30.262  24.381  26.810  1.00  0.00     0.156 HD
ENDBRANCH  19  23
ENDBRANCH   7  17
ENDBRANCH   6   7
ENDBRANCH   4   6
ENDBRANCH   3   4
ENDBRANCH   2   3
ENDBRANCH   1   2
BRANCH   1  26
ATOM     26  O   UNL A   1      34.906  20.858  24.543  1.00  0.00    -0.374 OA
BRANCH  26  27
ATOM     27  C   UNL A   1      36.069  20.187  25.030  1.00  0.00     0.202 C 
BRANCH  27  28
ATOM     28  C   UNL A   1      37.418  20.769  24.605  1.00  0.00     0.261 C 
BRANCH  28  29
ATOM     29  O   UNL A   1      37.861  21.747  25.563  1.00  0.00    -0.460 OA
BRANCH  29  30
ATOM     30  C   UNL A   1      39.084  21.504  26.077  1.00  0.00     0.338 C 
ATOM     31  O   UNL A   1      39.782  20.520  25.864  1.00  0.00    -0.246 OA
BRANCH  30  32
ATOM     32  C   UNL A   1      39.562  22.696  26.795  1.00  0.00     0.060 A 
ATOM     33  C   UNL A   1      38.983  23.928  26.468  1.00  0.00     0.016 A 
ATOM     34  C   UNL A   1      40.640  22.631  27.678  1.00  0.00     0.016 A 
ATOM     35  C   UNL A   1      39.535  25.109  26.965  1.00  0.00     0.010 A 
ATOM     36  C   UNL A   1      41.189  23.821  28.178  1.00  0.00     0.010 A 
ATOM     37  C   UNL A   1      40.674  25.068  27.782  1.00  0.00    -0.014 A 
BRANCH  37  38
ATOM     38  C   UNL A   1      41.397  26.335  28.074  1.00  0.00     0.031 A 
ATOM     39  C   UNL A   1      42.802  26.523  27.558  1.00  0.00     0.074 A 
ATOM     40  C   UNL A   1      40.801  27.337  28.748  1.00  0.00     0.049 A 
ATOM     41  N   UNL A   1      43.566  27.584  27.614  1.00  0.00    -0.248 NA
ATOM     42  C   UNL A   1      43.427  25.369  26.892  1.00  0.00     0.031 C 
ATOM     43  C   UNL A   1      39.458  27.286  29.324  1.00  0.00     0.029 A 
ATOM     44  N   UNL A   1      41.259  28.591  29.073  1.00  0.00    -0.354 N 
ATOM     45  C   UNL A   1      44.767  27.222  27.012  1.00  0.00     0.074 A 
ATOM     46  C   UNL A   1      44.635  25.838  26.611  1.00  0.00     0.031 C 
ATOM     47  C   UNL A   1      39.209  28.449  29.951  1.00  0.00     0.029 A 
ATOM     48  C   UNL A   1      40.374  29.325  29.827  1.00  0.00     0.049 A 
ATOM     49  H   UNL A   1      42.139  28.932  28.792  1.00  0.00     0.167 HD
ATOM     50  C   UNL A   1      45.869  27.975  26.790  1.00  0.00     0.034 A 
ATOM     51  C   UNL A   1      40.490  30.558  30.363  1.00  0.00     0.034 A 
ATOM     52  C   UNL A   1      45.998  29.361  27.151  1.00  0.00     0.049 A 
ATOM     53  C   UNL A   1      41.728  31.377  30.094  1.00  0.00     0.074 A 
ATOM     54  C   UNL A   1      47.047  30.223  26.883  1.00  0.00     0.029 A 
ATOM     55  N   UNL A   1      45.061  30.083  27.870  1.00  0.00    -0.354 N 
ATOM     56  N   UNL A   1      42.775  31.077  29.363  1.00  0.00    -0.248 NA
ATOM     57  C   UNL A   1      41.783  32.721  30.691  1.00  0.00     0.031 C 
ATOM     58  C   UNL A   1      46.756  31.461  27.465  1.00  0.00     0.029 A 
ATOM     59  C   UNL A   1      45.516  31.375  28.074  1.00  0.00     0.049 A 
ATOM     60  H   UNL A   1      44.198  29.731  28.188  1.00  0.00     0.167 HD
ATOM     61  C   UNL A   1      43.592  32.204  29.386  1.00  0.00     0.074 A 
ATOM     62  C   UNL A   1      42.909  33.201  30.182  1.00  0.00     0.031 C 
ATOM     63  C   UNL A   1      44.809  32.387  28.815  1.00  0.00     0.034 A 
BRANCH  50  64
ATOM     64  C   UNL A   1      47.030  27.333  26.078  1.00  0.00     0.023 A 
ATOM     65  C   UNL A   1      47.122  27.429  24.675  1.00  0.00     0.012 A 
ATOM     66  C   UNL A   1      48.072  26.722  26.803  1.00  0.00     0.148 A 
ATOM     67  C   UNL A   1      48.227  26.911  24.001  1.00  0.00     0.002 A 
ATOM     68  C   UNL A   1      49.187  26.242  26.127  1.00  0.00     0.091 A 
ATOM     69  F   UNL A   1      47.952  26.622  28.134  1.00  0.00    -0.205 F 
ATOM     70  C   UNL A   1      49.264  26.329  24.727  1.00  0.00     0.022 A 
BRANCH  68  71
ATOM     71  S   UNL A   1      50.608  25.546  26.978  1.00  0.00     0.127 S 
ATOM     72  O   UNL A   1      50.033  24.339  27.571  1.00  0.00    -0.237 OA
ATOM     73  O   UNL A   1      51.537  25.299  25.875  1.00  0.00    -0.237 OA
ATOM     74  O   UNL A   1      51.046  26.560  27.925  1.00  0.00    -0.744 OA
ENDBRANCH  68  71
ENDBRANCH  50  64
BRANCH  51  75
ATOM     75  C   UNL A   1      39.379  31.119  31.183  1.00  0.00     0.023 A 
ATOM     76  C   UNL A   1      39.405  30.985  32.584  1.00  0.00     0.012 A 
ATOM     77  C   UNL A   1      38.297  31.787  30.576  1.00  0.00     0.148 A 
ATOM     78  C   UNL A   1      38.357  31.476  33.364  1.00  0.00     0.002 A 
ATOM     79  C   UNL A   1      37.286  32.324  31.364  1.00  0.00     0.091 A 
ATOM     80  F   UNL A   1      38.276  31.883  29.240  1.00  0.00    -0.205 F 
ATOM     81  C   UNL A   1      37.304  32.155  32.756  1.00  0.00     0.022 A 
BRANCH  79  82
ATOM     82  S   UNL A   1      35.968  33.327  30.669  1.00  0.00     0.127 S 
ATOM     83  O   UNL A   1      35.573  34.141  31.815  1.00  0.00    -0.237 OA
ATOM     84  O   UNL A   1      36.664  34.054  29.607  1.00  0.00    -0.237 OA
ATOM     85  O   UNL A   1      34.974  32.378  30.186  1.00  0.00    -0.744 OA
ENDBRANCH  79  82
ENDBRANCH  51  75
BRANCH  63  86
ATOM     86  C   UNL A   1      45.484  33.722  28.999  1.00  0.00     0.023 A 
ATOM     87  C   UNL A   1      46.432  33.887  30.027  1.00  0.00     0.012 A 
ATOM     88  C   UNL A   1      45.244  34.785  28.104  1.00  0.00     0.148 A 
ATOM     89  C   UNL A   1      47.109  35.098  30.181  1.00  0.00     0.002 A 
ATOM     90  C   UNL A   1      45.955  35.972  28.236  1.00  0.00     0.091 A 
ATOM     91  F   UNL A   1      44.326  34.616  27.141  1.00  0.00    -0.205 F 
ATOM     92  C   UNL A   1      46.879  36.135  29.280  1.00  0.00     0.022 A 
BRANCH  90  93
ATOM     93  S   UNL A   1      45.791  37.325  27.065  1.00  0.00     0.127 S 
ATOM     94  O   UNL A   1      44.361  37.291  26.766  1.00  0.00    -0.237 OA
ATOM     95  O   UNL A   1      46.222  38.479  27.856  1.00  0.00    -0.237 OA
ATOM     96  O   UNL A   1      46.673  36.998  25.951  1.00  0.00    -0.744 OA
ENDBRANCH  90  93
ENDBRANCH  63  86
ENDBRANCH  37  38
ENDBRANCH  30  32
ENDBRANCH  29  30
ENDBRANCH  28  29
ENDBRANCH  27  28
ENDBRANCH  26  27
ENDBRANCH   1  26
TORSDOF 23
ENDMDL
