MODEL 1
REMARK VINA RESULT:     -11.4      0.000      0.000
REMARK SMILES CS(=O)(=O)N1C[C@@H]2CN(C(=O)c3ccco3)C[C@]2(C(=O)OCCOCCOC(=O)c2ccc(-c3c4nc(c(-c5cccc(S(=O)(=O)[O-])c5F)c5ccc([nH]5)c(-c5cccc(S(=O)(=O)[O-])c5F)c5nc(c(-c6cccc(S(=O)(=O)[O-])c6F)c6ccc3[nH]6)C=C5)C=C4)cc2)C1
REMARK SMILES IDX 25 1 24 2 23 3 22 4 21 5 19 6 20 7 18 8 5 9 6 10 93 11 7 12
REMARK SMILES IDX 8 13 17 14 9 15 2 16 1 17 3 18 4 19 10 20 11 21 12 22 13 23
REMARK SMILES IDX 16 24 14 25 15 26 26 27 27 28 28 29 29 30 30 31 31 32 92 33
REMARK SMILES IDX 32 34 91 35 33 36 34 37 35 38 85 39 36 40 90 41 84 42 86 43
REMARK SMILES IDX 37 44 89 45 83 46 82 47 38 49 70 50 50 51 69 52 51 53 54 54
REMARK SMILES IDX 68 55 87 56 52 57 53 58 67 60 88 61 55 62 39 63 40 64 48 65
REMARK SMILES IDX 41 66 43 67 49 68 42 69 44 70 45 71 46 72 47 73 71 74 72 75
REMARK SMILES IDX 80 76 73 77 75 78 81 79 74 80 76 81 77 82 78 83 79 84 56 85
REMARK SMILES IDX 57 86 65 87 58 88 60 89 66 90 59 91 61 92 62 93 63 94 64 95
REMARK H PARENT 86 48 54 59
REMARK Flexibility Score: inf
ROOT
ATOM      1  C   UNL A   1      37.778  20.139  25.306  1.00  0.00     0.202 C 
ENDROOT
BRANCH   1   2
ATOM      2  O   UNL A   1      37.685  21.561  25.221  1.00  0.00    -0.374 OA
BRANCH   2   3
ATOM      3  C   UNL A   1      36.860  22.053  24.167  1.00  0.00     0.202 C 
BRANCH   3   4
ATOM      4  C   UNL A   1      36.368  23.474  24.405  1.00  0.00     0.261 C 
BRANCH   4   5
ATOM      5  O   UNL A   1      34.940  23.518  24.578  1.00  0.00    -0.463 OA
BRANCH   5   6
ATOM      6  C   UNL A   1      34.086  23.250  23.545  1.00  0.00     0.315 C 
ATOM      7  O   UNL A   1      34.274  23.534  22.374  1.00  0.00    -0.251 OA
BRANCH   6   8
ATOM      8  C   UNL A   1      32.774  22.767  24.135  1.00  0.00     0.105 C 
ATOM      9  N   UNL A   1      32.147  20.386  24.303  1.00  0.00    -0.201 NA
ATOM     10  C   UNL A   1      31.774  21.080  25.551  1.00  0.00     0.109 C 
ATOM     11  C   UNL A   1      32.646  21.435  23.369  1.00  0.00     0.123 C 
ATOM     12  C   UNL A   1      32.650  22.332  25.600  1.00  0.00     0.044 C 
ATOM     13  C   UNL A   1      31.885  23.404  26.356  1.00  0.00     0.126 C 
ATOM     14  C   UNL A   1      31.737  23.909  24.012  1.00  0.00     0.140 C 
ATOM     15  N   UNL A   1      31.489  24.381  25.376  1.00  0.00    -0.334 N 
BRANCH   9  16
ATOM     16  S   UNL A   1      33.090  18.999  24.592  1.00  0.00     0.211 S 
ATOM     17  C   UNL A   1      32.873  18.009  23.129  1.00  0.00     0.176 C 
ATOM     18  O   UNL A   1      32.481  18.305  25.708  1.00  0.00    -0.213 OA
ATOM     19  O   UNL A   1      34.474  19.416  24.656  1.00  0.00    -0.213 OA
ENDBRANCH   9  16
BRANCH  15  20
ATOM     20  C   UNL A   1      30.998  25.600  25.857  1.00  0.00     0.289 C 
ATOM     21  O   UNL A   1      29.774  25.743  25.937  1.00  0.00    -0.265 OA
BRANCH  20  22
ATOM     22  C   UNL A   1      31.900  26.632  26.330  1.00  0.00     0.191 A 
ATOM     23  C   UNL A   1      33.188  27.041  26.035  1.00  0.00     0.056 A 
ATOM     24  O   UNL A   1      31.396  27.458  27.310  1.00  0.00    -0.459 OA
ATOM     25  C   UNL A   1      33.470  28.159  26.860  1.00  0.00     0.043 A 
ATOM     26  C   UNL A   1      32.344  28.373  27.614  1.00  0.00     0.196 A 
ENDBRANCH  20  22
ENDBRANCH  15  20
ENDBRANCH   6   8
ENDBRANCH   5   6
ENDBRANCH   4   5
ENDBRANCH   3   4
ENDBRANCH   2   3
ENDBRANCH   1   2
BRANCH   1  27
ATOM     27  C   UNL A   1      39.201  19.606  25.444  1.00  0.00     0.261 C 
BRANCH  27  28
ATOM     28  O   UNL A   1      40.120  20.673  25.724  1.00  0.00    -0.460 OA
BRANCH  28  29
ATOM     29  C   UNL A   1      40.565  20.730  26.999  1.00  0.00     0.338 C 
ATOM     30  O   UNL A   1      40.850  19.792  27.733  1.00  0.00    -0.246 OA
BRANCH  29  31
ATOM     31  C   UNL A   1      40.838  22.135  27.338  1.00  0.00     0.060 A 
ATOM     32  C   UNL A   1      40.212  23.144  26.595  1.00  0.00     0.016 A 
ATOM     33  C   UNL A   1      41.708  22.460  28.377  1.00  0.00     0.016 A 
ATOM     34  C   UNL A   1      40.465  24.486  26.883  1.00  0.00     0.010 A 
ATOM     35  C   UNL A   1      41.953  23.804  28.665  1.00  0.00     0.010 A 
ATOM     36  C   UNL A   1      41.353  24.830  27.910  1.00  0.00    -0.014 A 
BRANCH  36  37
ATOM     37  C   UNL A   1      41.755  26.245  28.134  1.00  0.00     0.031 A 
ATOM     38  C   UNL A   1      43.138  26.683  27.724  1.00  0.00     0.074 A 
ATOM     39  C   UNL A   1      40.928  27.126  28.733  1.00  0.00     0.049 A 
ATOM     40  N   UNL A   1      43.730  27.833  27.906  1.00  0.00    -0.248 NA
ATOM     41  C   UNL A   1      43.976  25.679  27.045  1.00  0.00     0.031 C 
ATOM     42  C   UNL A   1      39.578  26.835  29.215  1.00  0.00     0.029 A 
ATOM     43  N   UNL A   1      41.119  28.448  29.060  1.00  0.00    -0.354 N 
ATOM     44  C   UNL A   1      45.024  27.672  27.427  1.00  0.00     0.074 A 
ATOM     45  C   UNL A   1      45.140  26.303  26.974  1.00  0.00     0.031 C 
ATOM     46  C   UNL A   1      39.066  27.940  29.783  1.00  0.00     0.029 A 
ATOM     47  C   UNL A   1      40.060  29.011  29.734  1.00  0.00     0.049 A 
ATOM     48  H   UNL A   1      41.937  28.945  28.832  1.00  0.00     0.167 HD
ATOM     49  C   UNL A   1      46.021  28.583  27.339  1.00  0.00     0.034 A 
ATOM     50  C   UNL A   1      39.914  30.243  30.266  1.00  0.00     0.034 A 
ATOM     51  C   UNL A   1      45.891  29.961  27.718  1.00  0.00     0.049 A 
ATOM     52  C   UNL A   1      41.029  31.250  30.127  1.00  0.00     0.074 A 
ATOM     53  C   UNL A   1      46.812  30.982  27.569  1.00  0.00     0.029 A 
ATOM     54  N   UNL A   1      44.777  30.512  28.328  1.00  0.00    -0.354 N 
ATOM     55  N   UNL A   1      42.191  31.119  29.535  1.00  0.00    -0.248 NA
ATOM     56  C   UNL A   1      40.799  32.585  30.702  1.00  0.00     0.031 C 
ATOM     57  C   UNL A   1      46.267  32.145  28.122  1.00  0.00     0.029 A 
ATOM     58  C   UNL A   1      44.992  31.855  28.579  1.00  0.00     0.049 A 
ATOM     59  H   UNL A   1      43.953  30.020  28.552  1.00  0.00     0.167 HD
ATOM     60  C   UNL A   1      42.813  32.360  29.637  1.00  0.00     0.074 A 
ATOM     61  C   UNL A   1      41.890  33.237  30.324  1.00  0.00     0.031 C 
ATOM     62  C   UNL A   1      44.045  32.736  29.213  1.00  0.00     0.034 A 
BRANCH  49  63
ATOM     63  C   UNL A   1      47.341  28.121  26.776  1.00  0.00     0.023 A 
ATOM     64  C   UNL A   1      48.411  27.822  27.645  1.00  0.00     0.012 A 
ATOM     65  C   UNL A   1      47.502  27.938  25.390  1.00  0.00     0.148 A 
ATOM     66  C   UNL A   1      49.636  27.392  27.137  1.00  0.00     0.002 A 
ATOM     67  C   UNL A   1      48.707  27.456  24.897  1.00  0.00     0.091 A 
ATOM     68  F   UNL A   1      46.478  28.246  24.581  1.00  0.00    -0.205 F 
ATOM     69  C   UNL A   1      49.779  27.198  25.766  1.00  0.00     0.022 A 
BRANCH  67  70
ATOM     70  S   UNL A   1      48.965  27.087  23.158  1.00  0.00     0.127 S 
ATOM     71  O   UNL A   1      48.288  25.797  23.028  1.00  0.00    -0.237 OA
ATOM     72  O   UNL A   1      48.282  28.203  22.505  1.00  0.00    -0.237 OA
ATOM     73  O   UNL A   1      50.407  27.056  22.962  1.00  0.00    -0.744 OA
ENDBRANCH  67  70
ENDBRANCH  49  63
BRANCH  50  74
ATOM     74  C   UNL A   1      38.647  30.618  30.961  1.00  0.00     0.023 A 
ATOM     75  C   UNL A   1      38.457  30.255  32.309  1.00  0.00     0.012 A 
ATOM     76  C   UNL A   1      37.626  31.318  30.290  1.00  0.00     0.148 A 
ATOM     77  C   UNL A   1      37.258  30.544  32.963  1.00  0.00     0.002 A 
ATOM     78  C   UNL A   1      36.458  31.656  30.965  1.00  0.00     0.091 A 
ATOM     79  F   UNL A   1      37.819  31.646  29.005  1.00  0.00    -0.205 F 
ATOM     80  C   UNL A   1      36.263  31.251  32.295  1.00  0.00     0.022 A 
BRANCH  78  81
ATOM     81  S   UNL A   1      35.183  32.684  30.230  1.00  0.00     0.127 S 
ATOM     82  O   UNL A   1      34.295  32.918  31.365  1.00  0.00    -0.237 OA
ATOM     83  O   UNL A   1      35.952  33.850  29.795  1.00  0.00    -0.237 OA
ATOM     84  O   UNL A   1      34.623  31.895  29.140  1.00  0.00    -0.744 OA
ENDBRANCH  78  81
ENDBRANCH  50  74
BRANCH  62  85
ATOM     85  C   UNL A   1      44.468  34.166  29.433  1.00  0.00     0.023 A 
ATOM     86  C   UNL A   1      45.049  34.550  30.657  1.00  0.00     0.012 A 
ATOM     87  C   UNL A   1      44.373  35.108  28.388  1.00  0.00     0.148 A 
ATOM     88  C   UNL A   1      45.501  35.855  30.849  1.00  0.00     0.002 A 
ATOM     89  C   UNL A   1      44.873  36.392  28.568  1.00  0.00     0.091 A 
ATOM     90  F   UNL A   1      43.803  34.728  27.235  1.00  0.00    -0.205 F 
ATOM     91  C   UNL A   1      45.425  36.771  29.803  1.00  0.00     0.022 A 
BRANCH  89  92
ATOM     92  S   UNL A   1      44.913  37.607  27.246  1.00  0.00     0.127 S 
ATOM     93  O   UNL A   1      43.500  37.695  26.881  1.00  0.00    -0.237 OA
ATOM     94  O   UNL A   1      45.443  38.788  27.928  1.00  0.00    -0.237 OA
ATOM     95  O   UNL A   1      45.787  37.058  26.219  1.00  0.00    -0.744 OA
ENDBRANCH  89  92
ENDBRANCH  62  85
ENDBRANCH  36  37
ENDBRANCH  29  31
ENDBRANCH  28  29
ENDBRANCH  27  28
ENDBRANCH   1  27
TORSDOF 20
ENDMDL
MODEL 2
REMARK VINA RESULT:     -11.1      1.870      3.880
REMARK SMILES CS(=O)(=O)N1C[C@@H]2CN(C(=O)c3ccco3)C[C@]2(C(=O)OCCOCCOC(=O)c2ccc(-c3c4nc(c(-c5cccc(S(=O)(=O)[O-])c5F)c5ccc([nH]5)c(-c5cccc(S(=O)(=O)[O-])c5F)c5nc(c(-c6cccc(S(=O)(=O)[O-])c6F)c6ccc3[nH]6)C=C5)C=C4)cc2)C1
REMARK SMILES IDX 25 1 24 2 23 3 22 4 21 5 19 6 20 7 18 8 5 9 6 10 93 11 7 12
REMARK SMILES IDX 8 13 17 14 9 15 2 16 1 17 3 18 4 19 10 20 11 21 12 22 13 23
REMARK SMILES IDX 16 24 14 25 15 26 26 27 27 28 28 29 29 30 30 31 31 32 92 33
REMARK SMILES IDX 32 34 91 35 33 36 34 37 35 38 85 39 36 40 90 41 84 42 86 43
REMARK SMILES IDX 37 44 89 45 83 46 82 47 38 49 70 50 50 51 69 52 51 53 54 54
REMARK SMILES IDX 68 55 87 56 52 57 53 58 67 60 88 61 55 62 39 63 40 64 48 65
REMARK SMILES IDX 41 66 43 67 49 68 42 69 44 70 45 71 46 72 47 73 71 74 72 75
REMARK SMILES IDX 80 76 73 77 75 78 81 79 74 80 76 81 77 82 78 83 79 84 56 85
REMARK SMILES IDX 57 86 65 87 58 88 60 89 66 90 59 91 61 92 62 93 63 94 64 95
REMARK H PARENT 86 48 54 59
REMARK Flexibility Score: inf
ROOT
ATOM      1  C   UNL A   1      35.815  21.847  26.426  1.00  0.00     0.202 C 
ENDROOT
BRANCH   1   2
ATOM      2  O   UNL A   1      34.472  21.429  26.670  1.00  0.00    -0.374 OA
BRANCH   2   3
ATOM      3  C   UNL A   1      33.766  22.197  27.643  1.00  0.00     0.202 C 
BRANCH   3   4
ATOM      4  C   UNL A   1      32.313  22.452  27.265  1.00  0.00     0.261 C 
BRANCH   4   5
ATOM      5  O   UNL A   1      31.953  23.833  27.447  1.00  0.00    -0.463 OA
BRANCH   5   6
ATOM      6  C   UNL A   1      31.069  24.457  26.613  1.00  0.00     0.315 C 
ATOM      7  O   UNL A   1      29.871  24.235  26.549  1.00  0.00    -0.251 OA
BRANCH   6   8
ATOM      8  C   UNL A   1      31.864  25.285  25.620  1.00  0.00     0.105 C 
ATOM      9  N   UNL A   1      32.185  27.723  25.825  1.00  0.00    -0.201 NA
ATOM     10  C   UNL A   1      33.459  27.094  25.423  1.00  0.00     0.109 C 
ATOM     11  C   UNL A   1      31.160  26.641  25.825  1.00  0.00     0.123 C 
ATOM     12  C   UNL A   1      33.341  25.629  25.845  1.00  0.00     0.044 C 
ATOM     13  C   UNL A   1      34.178  24.801  24.886  1.00  0.00     0.126 C 
ATOM     14  C   UNL A   1      31.872  24.541  24.263  1.00  0.00     0.140 C 
ATOM     15  N   UNL A   1      33.246  24.073  24.066  1.00  0.00    -0.334 N 
BRANCH   9  16
ATOM     16  S   UNL A   1      32.362  28.717  27.196  1.00  0.00     0.211 S 
ATOM     17  C   UNL A   1      31.888  30.336  26.626  1.00  0.00     0.176 C 
ATOM     18  O   UNL A   1      33.774  28.741  27.515  1.00  0.00    -0.213 OA
ATOM     19  O   UNL A   1      31.395  28.282  28.180  1.00  0.00    -0.213 OA
ENDBRANCH   9  16
BRANCH  15  20
ATOM     20  C   UNL A   1      33.766  23.040  23.278  1.00  0.00     0.289 C 
ATOM     21  O   UNL A   1      34.868  23.212  22.746  1.00  0.00    -0.265 OA
BRANCH  20  22
ATOM     22  C   UNL A   1      33.074  21.771  23.161  1.00  0.00     0.191 A 
ATOM     23  C   UNL A   1      32.193  21.196  22.263  1.00  0.00     0.056 A 
ATOM     24  O   UNL A   1      33.331  20.859  24.161  1.00  0.00    -0.459 OA
ATOM     25  C   UNL A   1      31.916  19.887  22.731  1.00  0.00     0.043 A 
ATOM     26  C   UNL A   1      32.637  19.732  23.887  1.00  0.00     0.196 A 
ENDBRANCH  20  22
ENDBRANCH  15  20
ENDBRANCH   6   8
ENDBRANCH   5   6
ENDBRANCH   4   5
ENDBRANCH   3   4
ENDBRANCH   2   3
ENDBRANCH   1   2
BRANCH   1  27
ATOM     27  C   UNL A   1      36.582  20.967  25.443  1.00  0.00     0.261 C 
BRANCH  27  28
ATOM     28  O   UNL A   1      37.834  21.571  25.087  1.00  0.00    -0.460 OA
BRANCH  28  29
ATOM     29  C   UNL A   1      38.857  21.322  25.936  1.00  0.00     0.338 C 
ATOM     30  O   UNL A   1      39.390  20.245  26.166  1.00  0.00    -0.246 OA
BRANCH  29  31
ATOM     31  C   UNL A   1      39.375  22.606  26.433  1.00  0.00     0.060 A 
ATOM     32  C   UNL A   1      38.751  23.791  26.024  1.00  0.00     0.016 A 
ATOM     33  C   UNL A   1      40.471  22.645  27.292  1.00  0.00     0.016 A 
ATOM     34  C   UNL A   1      39.232  25.025  26.466  1.00  0.00     0.010 A 
ATOM     35  C   UNL A   1      40.945  23.881  27.737  1.00  0.00     0.010 A 
ATOM     36  C   UNL A   1      40.346  25.083  27.314  1.00  0.00    -0.014 A 
BRANCH  36  37
ATOM     37  C   UNL A   1      40.969  26.386  27.673  1.00  0.00     0.031 A 
ATOM     38  C   UNL A   1      42.375  26.673  27.214  1.00  0.00     0.074 A 
ATOM     39  C   UNL A   1      40.319  27.291  28.434  1.00  0.00     0.049 A 
ATOM     40  N   UNL A   1      43.144  27.694  27.487  1.00  0.00    -0.248 NA
ATOM     41  C   UNL A   1      43.012  25.656  26.358  1.00  0.00     0.031 C 
ATOM     42  C   UNL A   1      38.971  27.134  28.980  1.00  0.00     0.029 A 
ATOM     43  N   UNL A   1      40.725  28.518  28.901  1.00  0.00    -0.354 N 
ATOM     44  C   UNL A   1      44.369  27.415  26.894  1.00  0.00     0.074 A 
ATOM     45  C   UNL A   1      44.251  26.113  26.273  1.00  0.00     0.031 C 
ATOM     46  C   UNL A   1      38.665  28.218  29.714  1.00  0.00     0.029 A 
ATOM     47  C   UNL A   1      39.804  29.134  29.717  1.00  0.00     0.049 A 
ATOM     48  H   UNL A   1      41.595  28.920  28.673  1.00  0.00     0.167 HD
ATOM     49  C   UNL A   1      45.484  28.178  26.839  1.00  0.00     0.034 A 
ATOM     50  C   UNL A   1      39.875  30.295  30.402  1.00  0.00     0.034 A 
ATOM     51  C   UNL A   1      45.584  29.501  27.389  1.00  0.00     0.049 A 
ATOM     52  C   UNL A   1      41.119  31.143  30.299  1.00  0.00     0.074 A 
ATOM     53  C   UNL A   1      46.638  30.391  27.292  1.00  0.00     0.029 A 
ATOM     54  N   UNL A   1      44.603  30.120  28.144  1.00  0.00    -0.354 N 
ATOM     55  N   UNL A   1      42.212  30.926  29.608  1.00  0.00    -0.248 NA
ATOM     56  C   UNL A   1      41.126  32.412  31.045  1.00  0.00     0.031 C 
ATOM     57  C   UNL A   1      46.307  31.538  28.020  1.00  0.00     0.029 A 
ATOM     58  C   UNL A   1      45.031  31.375  28.536  1.00  0.00     0.049 A 
ATOM     59  H   UNL A   1      43.729  29.725  28.369  1.00  0.00     0.167 HD
ATOM     60  C   UNL A   1      43.019  32.044  29.810  1.00  0.00     0.074 A 
ATOM     61  C   UNL A   1      42.279  32.946  30.665  1.00  0.00     0.031 C 
ATOM     62  C   UNL A   1      44.267  32.292  29.341  1.00  0.00     0.034 A 
BRANCH  49  63
ATOM     63  C   UNL A   1      46.684  27.611  26.127  1.00  0.00     0.023 A 
ATOM     64  C   UNL A   1      46.853  27.833  24.744  1.00  0.00     0.012 A 
ATOM     65  C   UNL A   1      47.669  26.901  26.839  1.00  0.00     0.148 A 
ATOM     66  C   UNL A   1      47.959  27.317  24.073  1.00  0.00     0.002 A 
ATOM     67  C   UNL A   1      48.796  26.437  26.174  1.00  0.00     0.091 A 
ATOM     68  F   UNL A   1      47.480  26.685  28.148  1.00  0.00    -0.205 F 
ATOM     69  C   UNL A   1      48.936  26.630  24.790  1.00  0.00     0.022 A 
BRANCH  67  70
ATOM     70  S   UNL A   1      50.153  25.620  27.020  1.00  0.00     0.127 S 
ATOM     71  O   UNL A   1      51.114  25.442  25.931  1.00  0.00    -0.237 OA
ATOM     72  O   UNL A   1      50.538  26.619  28.016  1.00  0.00    -0.237 OA
ATOM     73  O   UNL A   1      49.603  24.390  27.571  1.00  0.00    -0.744 OA
ENDBRANCH  67  70
ENDBRANCH  49  63
BRANCH  50  74
ATOM     74  C   UNL A   1      38.722  30.753  31.231  1.00  0.00     0.023 A 
ATOM     75  C   UNL A   1      38.756  30.580  32.629  1.00  0.00     0.012 A 
ATOM     76  C   UNL A   1      37.588  31.344  30.642  1.00  0.00     0.148 A 
ATOM     77  C   UNL A   1      37.666  30.948  33.419  1.00  0.00     0.002 A 
ATOM     78  C   UNL A   1      36.530  31.763  31.441  1.00  0.00     0.091 A 
ATOM     79  F   UNL A   1      37.568  31.491  29.310  1.00  0.00    -0.205 F 
ATOM     80  C   UNL A   1      36.558  31.546  32.827  1.00  0.00     0.022 A 
BRANCH  78  81
ATOM     81  S   UNL A   1      35.125  32.668  30.784  1.00  0.00     0.127 S 
ATOM     82  O   UNL A   1      34.165  32.566  31.879  1.00  0.00    -0.237 OA
ATOM     83  O   UNL A   1      35.695  34.000  30.582  1.00  0.00    -0.237 OA
ATOM     84  O   UNL A   1      34.757  31.981  29.553  1.00  0.00    -0.744 OA
ENDBRANCH  78  81
ENDBRANCH  50  74
BRANCH  62  85
ATOM     85  C   UNL A   1      44.911  33.608  29.697  1.00  0.00     0.023 A 
ATOM     86  C   UNL A   1      45.742  33.702  30.830  1.00  0.00     0.012 A 
ATOM     87  C   UNL A   1      44.765  34.727  28.852  1.00  0.00     0.148 A 
ATOM     88  C   UNL A   1      46.393  34.898  31.134  1.00  0.00     0.002 A 
ATOM     89  C   UNL A   1      45.459  35.898  29.131  1.00  0.00     0.091 A 
ATOM     90  F   UNL A   1      43.958  34.622  27.786  1.00  0.00    -0.205 F 
ATOM     91  C   UNL A   1      46.263  35.989  30.279  1.00  0.00     0.022 A 
BRANCH  89  92
ATOM     92  S   UNL A   1      45.434  37.320  28.035  1.00  0.00     0.127 S 
ATOM     93  O   UNL A   1      45.953  36.747  26.793  1.00  0.00    -0.237 OA
ATOM     94  O   UNL A   1      44.012  37.661  28.003  1.00  0.00    -0.237 OA
ATOM     95  O   UNL A   1      46.285  38.325  28.658  1.00  0.00    -0.744 OA
ENDBRANCH  89  92
ENDBRANCH  62  85
ENDBRANCH  36  37
ENDBRANCH  29  31
ENDBRANCH  28  29
ENDBRANCH  27  28
ENDBRANCH   1  27
TORSDOF 20
ENDMDL
MODEL 3
REMARK VINA RESULT:     -11.1      2.307      8.502
REMARK SMILES CS(=O)(=O)N1C[C@@H]2CN(C(=O)c3ccco3)C[C@]2(C(=O)OCCOCCOC(=O)c2ccc(-c3c4nc(c(-c5cccc(S(=O)(=O)[O-])c5F)c5ccc([nH]5)c(-c5cccc(S(=O)(=O)[O-])c5F)c5nc(c(-c6cccc(S(=O)(=O)[O-])c6F)c6ccc3[nH]6)C=C5)C=C4)cc2)C1
REMARK SMILES IDX 25 1 24 2 23 3 22 4 21 5 19 6 20 7 18 8 5 9 6 10 93 11 7 12
REMARK SMILES IDX 8 13 17 14 9 15 2 16 1 17 3 18 4 19 10 20 11 21 12 22 13 23
REMARK SMILES IDX 16 24 14 25 15 26 26 27 27 28 28 29 29 30 30 31 31 32 92 33
REMARK SMILES IDX 32 34 91 35 33 36 34 37 35 38 85 39 36 40 90 41 84 42 86 43
REMARK SMILES IDX 37 44 89 45 83 46 82 47 38 49 70 50 50 51 69 52 51 53 54 54
REMARK SMILES IDX 68 55 87 56 52 57 53 58 67 60 88 61 55 62 39 63 40 64 48 65
REMARK SMILES IDX 41 66 43 67 49 68 42 69 44 70 45 71 46 72 47 73 71 74 72 75
REMARK SMILES IDX 80 76 73 77 75 78 81 79 74 80 76 81 77 82 78 83 79 84 56 85
REMARK SMILES IDX 57 86 65 87 58 88 60 89 66 90 59 91 61 92 62 93 63 94 64 95
REMARK H PARENT 86 48 54 59
REMARK Flexibility Score: inf
ROOT
ATOM      1  C   UNL A   1      38.754  21.388  25.753  1.00  0.00     0.202 C 
ENDROOT
BRANCH   1   2
ATOM      2  O   UNL A   1      37.475  21.569  25.144  1.00  0.00    -0.374 OA
BRANCH   2   3
ATOM      3  C   UNL A   1      37.127  22.921  24.856  1.00  0.00     0.202 C 
BRANCH   3   4
ATOM      4  C   UNL A   1      36.125  23.505  25.845  1.00  0.00     0.261 C 
BRANCH   4   5
ATOM      5  O   UNL A   1      34.773  23.164  25.492  1.00  0.00    -0.463 OA
BRANCH   5   6
ATOM      6  C   UNL A   1      34.055  22.251  26.211  1.00  0.00     0.315 C 
ATOM      7  O   UNL A   1      34.498  21.526  27.086  1.00  0.00    -0.251 OA
BRANCH   6   8
ATOM      8  C   UNL A   1      32.685  22.120  25.570  1.00  0.00     0.105 C 
ATOM      9  N   UNL A   1      31.002  23.925  25.571  1.00  0.00    -0.201 NA
ATOM     10  C   UNL A   1      31.034  23.286  24.240  1.00  0.00     0.109 C 
ATOM     11  C   UNL A   1      31.919  23.136  26.441  1.00  0.00     0.123 C 
ATOM     12  C   UNL A   1      32.403  22.610  24.145  1.00  0.00     0.044 C 
ATOM     13  C   UNL A   1      32.260  21.399  23.240  1.00  0.00     0.126 C 
ATOM     14  C   UNL A   1      32.316  20.619  25.512  1.00  0.00     0.140 C 
ATOM     15  N   UNL A   1      32.356  20.246  24.096  1.00  0.00    -0.334 N 
BRANCH   9  16
ATOM     16  S   UNL A   1      31.174  25.616  25.478  1.00  0.00     0.211 S 
ATOM     17  C   UNL A   1      32.863  25.911  25.959  1.00  0.00     0.176 C 
ATOM     18  O   UNL A   1      30.306  26.180  26.491  1.00  0.00    -0.213 OA
ATOM     19  O   UNL A   1      31.025  25.995  24.090  1.00  0.00    -0.213 OA
ENDBRANCH   9  16
BRANCH  15  20
ATOM     20  C   UNL A   1      32.519  19.004  23.472  1.00  0.00     0.289 C 
ATOM     21  O   UNL A   1      32.148  18.890  22.299  1.00  0.00    -0.265 OA
BRANCH  20  22
ATOM     22  C   UNL A   1      33.183  17.909  24.152  1.00  0.00     0.191 A 
ATOM     23  C   UNL A   1      34.456  17.368  24.161  1.00  0.00     0.056 A 
ATOM     24  O   UNL A   1      32.403  17.199  25.038  1.00  0.00    -0.459 OA
ATOM     25  C   UNL A   1      34.448  16.300  25.093  1.00  0.00     0.043 A 
ATOM     26  C   UNL A   1      33.175  16.243  25.601  1.00  0.00     0.196 A 
ENDBRANCH  20  22
ENDBRANCH  15  20
ENDBRANCH   6   8
ENDBRANCH   5   6
ENDBRANCH   4   5
ENDBRANCH   3   4
ENDBRANCH   2   3
ENDBRANCH   1   2
BRANCH   1  27
ATOM     27  C   UNL A   1      39.317  19.975  25.631  1.00  0.00     0.261 C 
BRANCH  27  28
ATOM     28  O   UNL A   1      40.298  19.727  26.650  1.00  0.00    -0.460 OA
BRANCH  28  29
ATOM     29  C   UNL A   1      41.573  19.632  26.212  1.00  0.00     0.338 C 
ATOM     30  O   UNL A   1      42.082  18.707  25.591  1.00  0.00    -0.246 OA
BRANCH  29  31
ATOM     31  C   UNL A   1      42.244  20.922  26.440  1.00  0.00     0.060 A 
ATOM     32  C   UNL A   1      42.644  21.255  27.740  1.00  0.00     0.016 A 
ATOM     33  C   UNL A   1      42.476  21.799  25.382  1.00  0.00     0.016 A 
ATOM     34  C   UNL A   1      43.267  22.479  27.989  1.00  0.00     0.010 A 
ATOM     35  C   UNL A   1      43.106  23.019  25.636  1.00  0.00     0.010 A 
ATOM     36  C   UNL A   1      43.489  23.382  26.941  1.00  0.00    -0.014 A 
BRANCH  36  37
ATOM     37  C   UNL A   1      44.010  24.750  27.205  1.00  0.00     0.031 A 
ATOM     38  C   UNL A   1      43.077  25.787  27.777  1.00  0.00     0.074 A 
ATOM     39  C   UNL A   1      45.280  25.090  26.905  1.00  0.00     0.049 A 
ATOM     40  N   UNL A   1      43.288  27.058  28.000  1.00  0.00    -0.248 NA
ATOM     41  C   UNL A   1      41.715  25.338  28.114  1.00  0.00     0.031 C 
ATOM     42  C   UNL A   1      46.282  24.204  26.314  1.00  0.00     0.029 A 
ATOM     43  N   UNL A   1      45.936  26.292  27.035  1.00  0.00    -0.354 N 
ATOM     44  C   UNL A   1      42.074  27.571  28.438  1.00  0.00     0.074 A 
ATOM     45  C   UNL A   1      41.123  26.481  28.420  1.00  0.00     0.031 C 
ATOM     46  C   UNL A   1      47.421  24.892  26.124  1.00  0.00     0.029 A 
ATOM     47  C   UNL A   1      47.224  26.276  26.552  1.00  0.00     0.049 A 
ATOM     48  H   UNL A   1      45.522  27.089  27.437  1.00  0.00     0.167 HD
ATOM     49  C   UNL A   1      41.776  28.825  28.849  1.00  0.00     0.034 A 
ATOM     50  C   UNL A   1      48.135  27.267  26.449  1.00  0.00     0.034 A 
ATOM     51  C   UNL A   1      42.732  29.893  28.939  1.00  0.00     0.049 A 
ATOM     52  C   UNL A   1      47.788  28.649  26.943  1.00  0.00     0.074 A 
ATOM     53  C   UNL A   1      42.547  31.168  29.442  1.00  0.00     0.029 A 
ATOM     54  N   UNL A   1      44.045  29.817  28.511  1.00  0.00    -0.354 N 
ATOM     55  N   UNL A   1      46.678  29.075  27.494  1.00  0.00    -0.248 NA
ATOM     56  C   UNL A   1      48.833  29.680  26.831  1.00  0.00     0.031 C 
ATOM     57  C   UNL A   1      43.742  31.875  29.285  1.00  0.00     0.029 A 
ATOM     58  C   UNL A   1      44.681  31.027  28.721  1.00  0.00     0.049 A 
ATOM     59  H   UNL A   1      44.466  29.019  28.114  1.00  0.00     0.167 HD
ATOM     60  C   UNL A   1      46.902  30.410  27.823  1.00  0.00     0.074 A 
ATOM     61  C   UNL A   1      48.262  30.714  27.434  1.00  0.00     0.031 C 
ATOM     62  C   UNL A   1      46.053  31.306  28.383  1.00  0.00     0.034 A 
BRANCH  49  63
ATOM     63  C   UNL A   1      40.356  29.104  29.268  1.00  0.00     0.023 A 
ATOM     64  C   UNL A   1      39.394  29.467  28.302  1.00  0.00     0.012 A 
ATOM     65  C   UNL A   1      39.965  28.957  30.613  1.00  0.00     0.148 A 
ATOM     66  C   UNL A   1      38.077  29.725  28.676  1.00  0.00     0.002 A 
ATOM     67  C   UNL A   1      38.639  29.162  30.968  1.00  0.00     0.091 A 
ATOM     68  F   UNL A   1      40.899  28.629  31.517  1.00  0.00    -0.205 F 
ATOM     69  C   UNL A   1      37.697  29.561  30.006  1.00  0.00     0.022 A 
BRANCH  67  70
ATOM     70  S   UNL A   1      38.029  28.890  32.636  1.00  0.00     0.127 S 
ATOM     71  O   UNL A   1      36.656  29.382  32.530  1.00  0.00    -0.237 OA
ATOM     72  O   UNL A   1      38.149  27.439  32.771  1.00  0.00    -0.237 OA
ATOM     73  O   UNL A   1      38.900  29.658  33.514  1.00  0.00    -0.744 OA
ENDBRANCH  67  70
ENDBRANCH  49  63
BRANCH  50  74
ATOM     74  C   UNL A   1      49.486  26.991  25.878  1.00  0.00     0.023 A 
ATOM     75  C   UNL A   1      50.491  26.444  26.699  1.00  0.00     0.012 A 
ATOM     76  C   UNL A   1      49.784  27.281  24.533  1.00  0.00     0.148 A 
ATOM     77  C   UNL A   1      51.779  26.230  26.204  1.00  0.00     0.002 A 
ATOM     78  C   UNL A   1      51.051  27.010  24.029  1.00  0.00     0.091 A 
ATOM     79  F   UNL A   1      48.819  27.812  23.769  1.00  0.00    -0.205 F 
ATOM     80  C   UNL A   1      52.057  26.506  24.869  1.00  0.00     0.022 A 
BRANCH  78  81
ATOM     81  S   UNL A   1      51.459  27.201  22.291  1.00  0.00     0.127 S 
ATOM     82  O   UNL A   1      51.541  28.653  22.160  1.00  0.00    -0.237 OA
ATOM     83  O   UNL A   1      52.740  26.499  22.206  1.00  0.00    -0.237 OA
ATOM     84  O   UNL A   1      50.375  26.559  21.560  1.00  0.00    -0.744 OA
ENDBRANCH  78  81
ENDBRANCH  50  74
BRANCH  62  85
ATOM     85  C   UNL A   1      46.566  32.697  28.657  1.00  0.00     0.023 A 
ATOM     86  C   UNL A   1      47.134  33.005  29.909  1.00  0.00     0.012 A 
ATOM     87  C   UNL A   1      46.568  33.672  27.639  1.00  0.00     0.148 A 
ATOM     88  C   UNL A   1      47.669  34.270  30.152  1.00  0.00     0.002 A 
ATOM     89  C   UNL A   1      47.151  34.912  27.871  1.00  0.00     0.091 A 
ATOM     90  F   UNL A   1      46.010  33.364  26.459  1.00  0.00    -0.205 F 
ATOM     91  C   UNL A   1      47.689  35.217  29.131  1.00  0.00     0.022 A 
BRANCH  89  92
ATOM     92  S   UNL A   1      47.315  36.157  26.588  1.00  0.00     0.127 S 
ATOM     93  O   UNL A   1      45.953  36.685  26.510  1.00  0.00    -0.237 OA
ATOM     94  O   UNL A   1      48.294  37.075  27.171  1.00  0.00    -0.237 OA
ATOM     95  O   UNL A   1      47.777  35.454  25.399  1.00  0.00    -0.744 OA
ENDBRANCH  89  92
ENDBRANCH  62  85
ENDBRANCH  36  37
ENDBRANCH  29  31
ENDBRANCH  28  29
ENDBRANCH  27  28
ENDBRANCH   1  27
TORSDOF 20
ENDMDL
