MODEL 1
REMARK VINA RESULT:     -11.0      0.000      0.000
REMARK SMILES Cc1cs/c(=N\S(=O)(=O)c2ccc(/C=C/C(=O)OCCOCCOC(=O)c3ccc(-c4c5nc(c(-c6cccc(S(=O)(=O)[O-])c6F)c6ccc([nH]6)c(-c6cccc(S(=O)(=O)[O-])c6F)c6nc(c(-c7cccc(S(=O)(=O)[O-])c7F)c7ccc4[nH]7)C=C6)C=C5)cc3)cc2)[nH]1
REMARK SMILES IDX 21 1 20 2 19 3 18 4 16 5 17 6 15 7 14 8 13 9 10 10 11 11
REMARK SMILES IDX 91 12 12 13 90 14 7 15 8 16 9 17 6 18 1 19 2 20 3 21 92 22
REMARK SMILES IDX 4 23 5 24 22 26 23 27 24 28 25 29 26 30 27 31 28 32 89 33
REMARK SMILES IDX 29 34 88 35 30 36 31 37 32 38 82 39 33 40 87 41 81 42 83 43
REMARK SMILES IDX 34 44 86 45 80 46 79 47 35 49 67 50 47 51 66 52 48 53 51 54
REMARK SMILES IDX 65 55 84 56 49 57 50 58 64 60 85 61 52 62 36 63 37 64 45 65
REMARK SMILES IDX 38 66 40 67 46 68 39 69 41 70 42 71 43 72 44 73 68 74 69 75
REMARK SMILES IDX 77 76 70 77 72 78 78 79 71 80 73 81 74 82 75 83 76 84 53 85
REMARK SMILES IDX 54 86 62 87 55 88 57 89 63 90 56 91 58 92 59 93 60 94 61 95
REMARK H PARENT 92 25 83 48 51 59
REMARK Flexibility Score: inf
ROOT
ATOM      1  O   UNL A   1      45.174  20.984  24.265  1.00  0.00    -0.374 OA
ENDROOT
BRANCH   1   2
ATOM      2  C   UNL A   1      45.102  19.687  24.857  1.00  0.00     0.202 C 
BRANCH   2   3
ATOM      3  C   UNL A   1      43.746  19.290  25.445  1.00  0.00     0.261 C 
BRANCH   3   4
ATOM      4  O   UNL A   1      42.834  20.400  25.468  1.00  0.00    -0.460 OA
BRANCH   4   5
ATOM      5  C   UNL A   1      41.878  20.334  26.423  1.00  0.00     0.330 C 
ATOM      6  O   UNL A   1      42.027  19.977  27.583  1.00  0.00    -0.247 OA
BRANCH   5   7
ATOM      7  C   UNL A   1      40.570  20.829  25.954  1.00  0.00     0.094 C 
ATOM      8  C   UNL A   1      39.817  21.800  26.497  1.00  0.00     0.015 C 
BRANCH   8   9
ATOM      9  C   UNL A   1      38.519  22.183  25.908  1.00  0.00    -0.025 A 
ATOM     10  C   UNL A   1      35.968  22.833  24.941  1.00  0.00     0.089 A 
ATOM     11  C   UNL A   1      36.740  23.809  25.575  1.00  0.00     0.023 A 
ATOM     12  C   UNL A   1      36.482  21.553  24.725  1.00  0.00     0.023 A 
ATOM     13  C   UNL A   1      38.013  23.485  26.043  1.00  0.00     0.009 A 
ATOM     14  C   UNL A   1      37.760  21.235  25.206  1.00  0.00     0.009 A 
BRANCH  10  15
ATOM     15  S   UNL A   1      34.310  23.286  24.463  1.00  0.00     0.285 S 
ATOM     16  O   UNL A   1      33.448  22.699  25.463  1.00  0.00    -0.199 OA
ATOM     17  O   UNL A   1      34.211  22.895  23.063  1.00  0.00    -0.199 OA
BRANCH  15  18
ATOM     18  N   UNL A   1      34.242  24.894  24.575  1.00  0.00    -0.130 NA
ATOM     19  C   UNL A   1      31.707  28.898  23.545  1.00  0.00     0.065 C 
ATOM     20  C   UNL A   1      31.967  27.431  23.526  1.00  0.00     0.024 A 
ATOM     21  C   UNL A   1      31.174  26.500  22.972  1.00  0.00     0.089 A 
ATOM     22  N   UNL A   1      33.099  26.902  24.115  1.00  0.00    -0.334 N 
ATOM     23  S   UNL A   1      31.835  24.893  23.178  1.00  0.00    -0.104 S 
ATOM     24  C   UNL A   1      33.251  25.537  24.064  1.00  0.00     0.199 A 
ATOM     25  H   UNL A   1      33.767  27.478  24.553  1.00  0.00     0.169 HD
ENDBRANCH  15  18
ENDBRANCH  10  15
ENDBRANCH   8   9
ENDBRANCH   5   7
ENDBRANCH   4   5
ENDBRANCH   3   4
ENDBRANCH   2   3
ENDBRANCH   1   2
BRANCH   1  26
ATOM     26  C   UNL A   1      45.931  21.971  24.967  1.00  0.00     0.202 C 
BRANCH  26  27
ATOM     27  C   UNL A   1      45.819  23.410  24.444  1.00  0.00     0.261 C 
BRANCH  27  28
ATOM     28  O   UNL A   1      45.065  24.253  25.334  1.00  0.00    -0.460 OA
BRANCH  28  29
ATOM     29  C   UNL A   1      43.732  24.291  25.094  1.00  0.00     0.338 C 
ATOM     30  O   UNL A   1      43.110  23.627  24.276  1.00  0.00    -0.246 OA
BRANCH  29  31
ATOM     31  C   UNL A   1      43.064  25.135  26.103  1.00  0.00     0.060 A 
ATOM     32  C   UNL A   1      43.608  26.402  26.350  1.00  0.00     0.016 A 
ATOM     33  C   UNL A   1      41.963  24.682  26.833  1.00  0.00     0.016 A 
ATOM     34  C   UNL A   1      43.081  27.205  27.360  1.00  0.00     0.010 A 
ATOM     35  C   UNL A   1      41.440  25.486  27.851  1.00  0.00     0.010 A 
ATOM     36  C   UNL A   1      42.017  26.736  28.141  1.00  0.00    -0.014 A 
BRANCH  36  37
ATOM     37  C   UNL A   1      41.585  27.505  29.334  1.00  0.00     0.031 A 
ATOM     38  C   UNL A   1      40.375  28.393  29.238  1.00  0.00     0.074 A 
ATOM     39  C   UNL A   1      42.267  27.416  30.489  1.00  0.00     0.049 A 
ATOM     40  N   UNL A   1      39.841  29.164  30.149  1.00  0.00    -0.248 NA
ATOM     41  C   UNL A   1      39.679  28.419  27.942  1.00  0.00     0.031 C 
ATOM     42  C   UNL A   1      43.458  26.596  30.704  1.00  0.00     0.029 A 
ATOM     43  N   UNL A   1      42.069  28.047  31.692  1.00  0.00    -0.354 N 
ATOM     44  C   UNL A   1      38.762  29.786  29.533  1.00  0.00     0.074 A 
ATOM     45  C   UNL A   1      38.727  29.315  28.165  1.00  0.00     0.031 C 
ATOM     46  C   UNL A   1      43.905  26.798  31.955  1.00  0.00     0.029 A 
ATOM     47  C   UNL A   1      43.045  27.776  32.620  1.00  0.00     0.049 A 
ATOM     48  H   UNL A   1      41.301  28.636  31.872  1.00  0.00     0.167 HD
ATOM     49  C   UNL A   1      37.868  30.655  30.062  1.00  0.00     0.034 A 
ATOM     50  C   UNL A   1      43.236  28.275  33.857  1.00  0.00     0.034 A 
ATOM     51  C   UNL A   1      37.894  31.110  31.427  1.00  0.00     0.049 A 
ATOM     52  C   UNL A   1      42.240  29.256  34.420  1.00  0.00     0.074 A 
ATOM     53  C   UNL A   1      37.001  31.949  32.072  1.00  0.00     0.029 A 
ATOM     54  N   UNL A   1      38.870  30.778  32.354  1.00  0.00    -0.354 N 
ATOM     55  N   UNL A   1      41.152  29.734  33.868  1.00  0.00    -0.248 NA
ATOM     56  C   UNL A   1      42.481  29.740  35.787  1.00  0.00     0.031 C 
ATOM     57  C   UNL A   1      37.453  32.143  33.381  1.00  0.00     0.029 A 
ATOM     58  C   UNL A   1      38.612  31.405  33.560  1.00  0.00     0.049 A 
ATOM     59  H   UNL A   1      39.634  30.182  32.179  1.00  0.00     0.167 HD
ATOM     60  C   UNL A   1      40.562  30.550  34.828  1.00  0.00     0.074 A 
ATOM     61  C   UNL A   1      41.404  30.482  36.005  1.00  0.00     0.031 C 
ATOM     62  C   UNL A   1      39.433  31.296  34.740  1.00  0.00     0.034 A 
BRANCH  49  63
ATOM     63  C   UNL A   1      36.765  31.151  29.164  1.00  0.00     0.023 A 
ATOM     64  C   UNL A   1      36.721  32.513  28.802  1.00  0.00     0.012 A 
ATOM     65  C   UNL A   1      35.799  30.268  28.647  1.00  0.00     0.148 A 
ATOM     66  C   UNL A   1      35.713  32.995  27.968  1.00  0.00     0.002 A 
ATOM     67  C   UNL A   1      34.821  30.747  27.782  1.00  0.00     0.091 A 
ATOM     68  F   UNL A   1      35.841  28.981  29.022  1.00  0.00    -0.205 F 
ATOM     69  C   UNL A   1      34.770  32.111  27.451  1.00  0.00     0.022 A 
BRANCH  67  70
ATOM     70  S   UNL A   1      33.609  29.672  27.007  1.00  0.00     0.127 S 
ATOM     71  O   UNL A   1      32.601  30.635  26.565  1.00  0.00    -0.237 OA
ATOM     72  O   UNL A   1      34.382  29.060  25.925  1.00  0.00    -0.237 OA
ATOM     73  O   UNL A   1      33.179  28.744  28.043  1.00  0.00    -0.744 OA
ENDBRANCH  67  70
ENDBRANCH  49  63
BRANCH  50  74
ATOM     74  C   UNL A   1      44.408  27.826  34.660  1.00  0.00     0.023 A 
ATOM     75  C   UNL A   1      45.597  28.581  34.642  1.00  0.00     0.012 A 
ATOM     76  C   UNL A   1      44.336  26.677  35.470  1.00  0.00     0.148 A 
ATOM     77  C   UNL A   1      46.700  28.186  35.398  1.00  0.00     0.002 A 
ATOM     78  C   UNL A   1      45.420  26.319  36.263  1.00  0.00     0.091 A 
ATOM     79  F   UNL A   1      43.201  25.962  35.459  1.00  0.00    -0.205 F 
ATOM     80  C   UNL A   1      46.608  27.064  36.218  1.00  0.00     0.022 A 
BRANCH  78  81
ATOM     81  S   UNL A   1      45.343  24.969  37.447  1.00  0.00     0.127 S 
ATOM     82  O   UNL A   1      46.697  24.975  37.995  1.00  0.00    -0.237 OA
ATOM     83  O   UNL A   1      44.303  25.432  38.365  1.00  0.00    -0.237 OA
ATOM     84  O   UNL A   1      44.980  23.788  36.674  1.00  0.00    -0.744 OA
ENDBRANCH  78  81
ENDBRANCH  50  74
BRANCH  62  85
ATOM     85  C   UNL A   1      39.021  32.090  35.954  1.00  0.00     0.023 A 
ATOM     86  C   UNL A   1      39.321  33.464  36.026  1.00  0.00     0.012 A 
ATOM     87  C   UNL A   1      38.270  31.491  36.986  1.00  0.00     0.148 A 
ATOM     88  C   UNL A   1      38.909  34.224  37.121  1.00  0.00     0.002 A 
ATOM     89  C   UNL A   1      37.822  32.265  38.051  1.00  0.00     0.091 A 
ATOM     90  F   UNL A   1      38.009  30.179  36.909  1.00  0.00    -0.205 F 
ATOM     91  C   UNL A   1      38.150  33.628  38.126  1.00  0.00     0.022 A 
BRANCH  89  92
ATOM     92  S   UNL A   1      36.761  31.605  39.342  1.00  0.00     0.127 S 
ATOM     93  O   UNL A   1      35.776  32.675  39.493  1.00  0.00    -0.237 OA
ATOM     94  O   UNL A   1      36.243  30.383  38.726  1.00  0.00    -0.237 OA
ATOM     95  O   UNL A   1      37.624  31.381  40.494  1.00  0.00    -0.744 OA
ENDBRANCH  89  92
ENDBRANCH  62  85
ENDBRANCH  36  37
ENDBRANCH  29  31
ENDBRANCH  28  29
ENDBRANCH  27  28
ENDBRANCH  26  27
ENDBRANCH   1  26
TORSDOF 20
ENDMDL
MODEL 2
REMARK VINA RESULT:     -10.5      1.998      2.242
REMARK SMILES Cc1cs/c(=N\S(=O)(=O)c2ccc(/C=C/C(=O)OCCOCCOC(=O)c3ccc(-c4c5nc(c(-c6cccc(S(=O)(=O)[O-])c6F)c6ccc([nH]6)c(-c6cccc(S(=O)(=O)[O-])c6F)c6nc(c(-c7cccc(S(=O)(=O)[O-])c7F)c7ccc4[nH]7)C=C6)C=C5)cc3)cc2)[nH]1
REMARK SMILES IDX 21 1 20 2 19 3 18 4 16 5 17 6 15 7 14 8 13 9 10 10 11 11
REMARK SMILES IDX 91 12 12 13 90 14 7 15 8 16 9 17 6 18 1 19 2 20 3 21 92 22
REMARK SMILES IDX 4 23 5 24 22 26 23 27 24 28 25 29 26 30 27 31 28 32 89 33
REMARK SMILES IDX 29 34 88 35 30 36 31 37 32 38 82 39 33 40 87 41 81 42 83 43
REMARK SMILES IDX 34 44 86 45 80 46 79 47 35 49 67 50 47 51 66 52 48 53 51 54
REMARK SMILES IDX 65 55 84 56 49 57 50 58 64 60 85 61 52 62 36 63 37 64 45 65
REMARK SMILES IDX 38 66 40 67 46 68 39 69 41 70 42 71 43 72 44 73 68 74 69 75
REMARK SMILES IDX 77 76 70 77 72 78 78 79 71 80 73 81 74 82 75 83 76 84 53 85
REMARK SMILES IDX 54 86 62 87 55 88 57 89 63 90 56 91 58 92 59 93 60 94 61 95
REMARK H PARENT 92 25 83 48 51 59
REMARK Flexibility Score: inf
ROOT
ATOM      1  O   UNL A   1      45.239  20.875  24.138  1.00  0.00    -0.374 OA
ENDROOT
BRANCH   1   2
ATOM      2  C   UNL A   1      45.242  19.504  24.535  1.00  0.00     0.202 C 
BRANCH   2   3
ATOM      3  C   UNL A   1      43.938  18.974  25.134  1.00  0.00     0.261 C 
BRANCH   3   4
ATOM      4  O   UNL A   1      42.969  20.022  25.306  1.00  0.00    -0.460 OA
BRANCH   4   5
ATOM      5  C   UNL A   1      42.064  19.808  26.288  1.00  0.00     0.330 C 
ATOM      6  O   UNL A   1      42.263  19.242  27.354  1.00  0.00    -0.247 OA
BRANCH   5   7
ATOM      7  C   UNL A   1      40.752  20.414  25.995  1.00  0.00     0.094 C 
ATOM      8  C   UNL A   1      40.264  21.578  26.456  1.00  0.00     0.015 C 
BRANCH   8   9
ATOM      9  C   UNL A   1      38.921  22.052  26.070  1.00  0.00    -0.025 A 
ATOM     10  C   UNL A   1      36.302  22.878  25.500  1.00  0.00     0.089 A 
ATOM     11  C   UNL A   1      37.223  23.794  26.013  1.00  0.00     0.023 A 
ATOM     12  C   UNL A   1      36.691  21.570  25.206  1.00  0.00     0.023 A 
ATOM     13  C   UNL A   1      38.527  23.382  26.282  1.00  0.00     0.009 A 
ATOM     14  C   UNL A   1      38.004  21.163  25.488  1.00  0.00     0.009 A 
BRANCH  10  15
ATOM     15  S   UNL A   1      34.624  23.443  25.278  1.00  0.00     0.285 S 
ATOM     16  O   UNL A   1      34.021  23.380  26.590  1.00  0.00    -0.199 OA
ATOM     17  O   UNL A   1      34.109  22.643  24.176  1.00  0.00    -0.199 OA
BRANCH  15  18
ATOM     18  N   UNL A   1      34.736  24.985  24.815  1.00  0.00    -0.130 NA
ATOM     19  C   UNL A   1      32.385  28.830  23.023  1.00  0.00     0.065 C 
ATOM     20  C   UNL A   1      32.497  27.415  23.476  1.00  0.00     0.024 A 
ATOM     21  C   UNL A   1      31.499  26.515  23.494  1.00  0.00     0.089 A 
ATOM     22  N   UNL A   1      33.696  26.908  23.938  1.00  0.00    -0.334 N 
ATOM     23  S   UNL A   1      32.044  24.970  24.108  1.00  0.00    -0.104 S 
ATOM     24  C   UNL A   1      33.703  25.597  24.349  1.00  0.00     0.199 A 
ATOM     25  H   UNL A   1      34.508  27.462  23.971  1.00  0.00     0.169 HD
ENDBRANCH  15  18
ENDBRANCH  10  15
ENDBRANCH   8   9
ENDBRANCH   5   7
ENDBRANCH   4   5
ENDBRANCH   3   4
ENDBRANCH   2   3
ENDBRANCH   1   2
BRANCH   1  26
ATOM     26  C   UNL A   1      45.890  21.800  25.010  1.00  0.00     0.202 C 
BRANCH  26  27
ATOM     27  C   UNL A   1      45.740  23.286  24.656  1.00  0.00     0.261 C 
BRANCH  27  28
ATOM     28  O   UNL A   1      44.973  24.002  25.640  1.00  0.00    -0.460 OA
BRANCH  28  29
ATOM     29  C   UNL A   1      43.641  24.063  25.395  1.00  0.00     0.338 C 
ATOM     30  O   UNL A   1      43.005  23.378  24.605  1.00  0.00    -0.246 OA
BRANCH  29  31
ATOM     31  C   UNL A   1      42.992  24.965  26.364  1.00  0.00     0.060 A 
ATOM     32  C   UNL A   1      43.508  26.263  26.485  1.00  0.00     0.016 A 
ATOM     33  C   UNL A   1      41.938  24.543  27.176  1.00  0.00     0.016 A 
ATOM     34  C   UNL A   1      43.001  27.129  27.453  1.00  0.00     0.010 A 
ATOM     35  C   UNL A   1      41.435  25.412  28.150  1.00  0.00     0.010 A 
ATOM     36  C   UNL A   1      41.985  26.695  28.316  1.00  0.00    -0.014 A 
BRANCH  36  37
ATOM     37  C   UNL A   1      41.582  27.545  29.463  1.00  0.00     0.031 A 
ATOM     38  C   UNL A   1      40.364  28.417  29.340  1.00  0.00     0.074 A 
ATOM     39  C   UNL A   1      42.299  27.543  30.600  1.00  0.00     0.049 A 
ATOM     40  N   UNL A   1      39.850  29.248  30.208  1.00  0.00    -0.248 NA
ATOM     41  C   UNL A   1      39.630  28.347  28.066  1.00  0.00     0.031 C 
ATOM     42  C   UNL A   1      43.501  26.747  30.838  1.00  0.00     0.029 A 
ATOM     43  N   UNL A   1      42.130  28.257  31.761  1.00  0.00    -0.354 N 
ATOM     44  C   UNL A   1      38.749  29.819  29.582  1.00  0.00     0.074 A 
ATOM     45  C   UNL A   1      38.679  29.252  28.252  1.00  0.00     0.031 C 
ATOM     46  C   UNL A   1      43.983  27.040  32.058  1.00  0.00     0.029 A 
ATOM     47  C   UNL A   1      43.135  28.057  32.677  1.00  0.00     0.049 A 
ATOM     48  H   UNL A   1      41.364  28.853  31.921  1.00  0.00     0.167 HD
ATOM     49  C   UNL A   1      37.864  30.719  30.074  1.00  0.00     0.034 A 
ATOM     50  C   UNL A   1      43.358  28.645  33.869  1.00  0.00     0.034 A 
ATOM     51  C   UNL A   1      37.926  31.270  31.401  1.00  0.00     0.049 A 
ATOM     52  C   UNL A   1      42.371  29.658  34.390  1.00  0.00     0.074 A 
ATOM     53  C   UNL A   1      37.046  32.148  32.011  1.00  0.00     0.029 A 
ATOM     54  N   UNL A   1      38.931  31.010  32.320  1.00  0.00    -0.354 N 
ATOM     55  N   UNL A   1      41.264  30.089  33.838  1.00  0.00    -0.248 NA
ATOM     56  C   UNL A   1      42.648  30.239  35.712  1.00  0.00     0.031 C 
ATOM     57  C   UNL A   1      37.534  32.437  33.289  1.00  0.00     0.029 A 
ATOM     58  C   UNL A   1      38.703  31.720  33.486  1.00  0.00     0.049 A 
ATOM     59  H   UNL A   1      39.694  30.407  32.166  1.00  0.00     0.167 HD
ATOM     60  C   UNL A   1      40.695  30.968  34.754  1.00  0.00     0.074 A 
ATOM     61  C   UNL A   1      41.571  30.989  35.908  1.00  0.00     0.031 C 
ATOM     62  C   UNL A   1      39.559  31.700  34.646  1.00  0.00     0.034 A 
BRANCH  49  63
ATOM     63  C   UNL A   1      36.733  31.143  29.175  1.00  0.00     0.023 A 
ATOM     64  C   UNL A   1      36.589  32.503  28.831  1.00  0.00     0.012 A 
ATOM     65  C   UNL A   1      35.839  30.197  28.639  1.00  0.00     0.148 A 
ATOM     66  C   UNL A   1      35.552  32.920  27.998  1.00  0.00     0.002 A 
ATOM     67  C   UNL A   1      34.832  30.614  27.775  1.00  0.00     0.091 A 
ATOM     68  F   UNL A   1      35.974  28.912  28.997  1.00  0.00    -0.205 F 
ATOM     69  C   UNL A   1      34.681  31.975  27.462  1.00  0.00     0.022 A 
BRANCH  67  70
ATOM     70  S   UNL A   1      33.708  29.463  26.978  1.00  0.00     0.127 S 
ATOM     71  O   UNL A   1      32.898  30.362  26.157  1.00  0.00    -0.237 OA
ATOM     72  O   UNL A   1      34.624  28.607  26.222  1.00  0.00    -0.237 OA
ATOM     73  O   UNL A   1      32.999  28.786  28.055  1.00  0.00    -0.744 OA
ENDBRANCH  67  70
ENDBRANCH  49  63
BRANCH  50  74
ATOM     74  C   UNL A   1      44.555  28.261  34.667  1.00  0.00     0.023 A 
ATOM     75  C   UNL A   1      44.421  27.347  35.731  1.00  0.00     0.012 A 
ATOM     76  C   UNL A   1      45.832  28.767  34.352  1.00  0.00     0.148 A 
ATOM     77  C   UNL A   1      45.533  26.964  36.481  1.00  0.00     0.002 A 
ATOM     78  C   UNL A   1      46.943  28.337  35.068  1.00  0.00     0.091 A 
ATOM     79  F   UNL A   1      45.934  29.648  33.347  1.00  0.00    -0.205 F 
ATOM     80  C   UNL A   1      46.794  27.447  36.143  1.00  0.00     0.022 A 
BRANCH  78  81
ATOM     81  S   UNL A   1      48.618  28.805  34.616  1.00  0.00     0.127 S 
ATOM     82  O   UNL A   1      48.691  28.353  33.229  1.00  0.00    -0.237 OA
ATOM     83  O   UNL A   1      48.583  30.257  34.792  1.00  0.00    -0.237 OA
ATOM     84  O   UNL A   1      49.488  28.108  35.554  1.00  0.00    -0.744 OA
ENDBRANCH  78  81
ENDBRANCH  50  74
BRANCH  62  85
ATOM     85  C   UNL A   1      39.176  32.576  35.812  1.00  0.00     0.023 A 
ATOM     86  C   UNL A   1      38.359  32.059  36.836  1.00  0.00     0.012 A 
ATOM     87  C   UNL A   1      39.688  33.884  35.931  1.00  0.00     0.148 A 
ATOM     88  C   UNL A   1      38.030  32.840  37.944  1.00  0.00     0.002 A 
ATOM     89  C   UNL A   1      39.395  34.639  37.060  1.00  0.00     0.091 A 
ATOM     90  F   UNL A   1      40.450  34.365  34.938  1.00  0.00    -0.205 F 
ATOM     91  C   UNL A   1      38.558  34.124  38.063  1.00  0.00     0.022 A 
BRANCH  89  92
ATOM     92  S   UNL A   1      40.105  36.266  37.343  1.00  0.00     0.127 S 
ATOM     93  O   UNL A   1      39.951  36.890  36.030  1.00  0.00    -0.237 OA
ATOM     94  O   UNL A   1      39.232  36.811  38.383  1.00  0.00    -0.237 OA
ATOM     95  O   UNL A   1      41.479  36.034  37.769  1.00  0.00    -0.744 OA
ENDBRANCH  89  92
ENDBRANCH  62  85
ENDBRANCH  36  37
ENDBRANCH  29  31
ENDBRANCH  28  29
ENDBRANCH  27  28
ENDBRANCH  26  27
ENDBRANCH   1  26
TORSDOF 20
ENDMDL
MODEL 3
REMARK VINA RESULT:     -10.3      4.283     11.781
REMARK SMILES Cc1cs/c(=N\S(=O)(=O)c2ccc(/C=C/C(=O)OCCOCCOC(=O)c3ccc(-c4c5nc(c(-c6cccc(S(=O)(=O)[O-])c6F)c6ccc([nH]6)c(-c6cccc(S(=O)(=O)[O-])c6F)c6nc(c(-c7cccc(S(=O)(=O)[O-])c7F)c7ccc4[nH]7)C=C6)C=C5)cc3)cc2)[nH]1
REMARK SMILES IDX 21 1 20 2 19 3 18 4 16 5 17 6 15 7 14 8 13 9 10 10 11 11
REMARK SMILES IDX 91 12 12 13 90 14 7 15 8 16 9 17 6 18 1 19 2 20 3 21 92 22
REMARK SMILES IDX 4 23 5 24 22 26 23 27 24 28 25 29 26 30 27 31 28 32 89 33
REMARK SMILES IDX 29 34 88 35 30 36 31 37 32 38 82 39 33 40 87 41 81 42 83 43
REMARK SMILES IDX 34 44 86 45 80 46 79 47 35 49 67 50 47 51 66 52 48 53 51 54
REMARK SMILES IDX 65 55 84 56 49 57 50 58 64 60 85 61 52 62 36 63 37 64 45 65
REMARK SMILES IDX 38 66 40 67 46 68 39 69 41 70 42 71 43 72 44 73 68 74 69 75
REMARK SMILES IDX 77 76 70 77 72 78 78 79 71 80 73 81 74 82 75 83 76 84 53 85
REMARK SMILES IDX 54 86 62 87 55 88 57 89 63 90 56 91 58 92 59 93 60 94 61 95
REMARK H PARENT 92 25 83 48 51 59
REMARK Flexibility Score: inf
ROOT
ATOM      1  O   UNL A   1      33.960  34.432  30.505  1.00  0.00    -0.374 OA
ENDROOT
BRANCH   1   2
ATOM      2  C   UNL A   1      34.430  33.174  30.989  1.00  0.00     0.202 C 
BRANCH   2   3
ATOM      3  C   UNL A   1      34.496  33.020  32.510  1.00  0.00     0.261 C 
BRANCH   3   4
ATOM      4  O   UNL A   1      35.838  33.174  33.000  1.00  0.00    -0.460 OA
BRANCH   4   5
ATOM      5  C   UNL A   1      36.295  34.447  33.027  1.00  0.00     0.330 C 
ATOM      6  O   UNL A   1      35.712  35.422  33.480  1.00  0.00    -0.247 OA
BRANCH   5   7
ATOM      7  C   UNL A   1      37.669  34.570  32.507  1.00  0.00     0.094 C 
ATOM      8  C   UNL A   1      38.092  34.368  31.248  1.00  0.00     0.015 C 
BRANCH   8   9
ATOM      9  C   UNL A   1      39.513  34.529  30.882  1.00  0.00    -0.025 A 
ATOM     10  C   UNL A   1      42.226  34.646  30.183  1.00  0.00     0.089 A 
ATOM     11  C   UNL A   1      41.249  34.822  29.202  1.00  0.00     0.023 A 
ATOM     12  C   UNL A   1      41.866  34.478  31.521  1.00  0.00     0.023 A 
ATOM     13  C   UNL A   1      39.901  34.776  29.556  1.00  0.00     0.009 A 
ATOM     14  C   UNL A   1      40.507  34.426  31.866  1.00  0.00     0.009 A 
BRANCH  10  15
ATOM     15  S   UNL A   1      43.927  34.610  29.645  1.00  0.00     0.285 S 
ATOM     16  O   UNL A   1      44.672  34.077  30.763  1.00  0.00    -0.199 OA
ATOM     17  O   UNL A   1      44.183  35.953  29.144  1.00  0.00    -0.199 OA
BRANCH  15  18
ATOM     18  N   UNL A   1      43.979  33.561  28.419  1.00  0.00    -0.130 NA
ATOM     19  C   UNL A   1      44.020  28.890  27.118  1.00  0.00     0.065 C 
ATOM     20  C   UNL A   1      44.002  30.010  28.100  1.00  0.00     0.024 A 
ATOM     21  C   UNL A   1      43.966  29.883  29.437  1.00  0.00     0.089 A 
ATOM     22  N   UNL A   1      44.016  31.325  27.678  1.00  0.00    -0.334 N 
ATOM     23  S   UNL A   1      43.945  31.445  30.226  1.00  0.00    -0.104 S 
ATOM     24  C   UNL A   1      43.983  32.295  28.651  1.00  0.00     0.199 A 
ATOM     25  H   UNL A   1      44.049  31.558  26.722  1.00  0.00     0.169 HD
ENDBRANCH  15  18
ENDBRANCH  10  15
ENDBRANCH   8   9
ENDBRANCH   5   7
ENDBRANCH   4   5
ENDBRANCH   3   4
ENDBRANCH   2   3
ENDBRANCH   1   2
BRANCH   1  26
ATOM     26  C   UNL A   1      34.187  34.715  29.123  1.00  0.00     0.202 C 
BRANCH  26  27
ATOM     27  C   UNL A   1      33.803  33.606  28.133  1.00  0.00     0.261 C 
BRANCH  27  28
ATOM     28  O   UNL A   1      34.954  32.891  27.648  1.00  0.00    -0.460 OA
BRANCH  28  29
ATOM     29  C   UNL A   1      34.847  31.540  27.688  1.00  0.00     0.338 C 
ATOM     30  O   UNL A   1      34.037  30.847  27.086  1.00  0.00    -0.246 OA
BRANCH  29  31
ATOM     31  C   UNL A   1      35.984  30.967  28.432  1.00  0.00     0.060 A 
ATOM     32  C   UNL A   1      37.160  31.726  28.499  1.00  0.00     0.016 A 
ATOM     33  C   UNL A   1      35.926  29.696  29.006  1.00  0.00     0.016 A 
ATOM     34  C   UNL A   1      38.299  31.196  29.104  1.00  0.00     0.010 A 
ATOM     35  C   UNL A   1      37.072  29.165  29.606  1.00  0.00     0.010 A 
ATOM     36  C   UNL A   1      38.273  29.898  29.629  1.00  0.00    -0.014 A 
BRANCH  36  37
ATOM     37  C   UNL A   1      39.531  29.266  30.095  1.00  0.00     0.031 A 
ATOM     38  C   UNL A   1      40.207  29.798  31.329  1.00  0.00     0.074 A 
ATOM     39  C   UNL A   1      40.069  28.234  29.423  1.00  0.00     0.049 A 
ATOM     40  N   UNL A   1      41.319  29.409  31.895  1.00  0.00    -0.248 NA
ATOM     41  C   UNL A   1      39.543  30.920  32.012  1.00  0.00     0.031 C 
ATOM     42  C   UNL A   1      39.512  27.635  28.211  1.00  0.00     0.029 A 
ATOM     43  N   UNL A   1      41.222  27.524  29.653  1.00  0.00    -0.354 N 
ATOM     44  C   UNL A   1      41.505  30.251  32.984  1.00  0.00     0.074 A 
ATOM     45  C   UNL A   1      40.397  31.183  32.991  1.00  0.00     0.031 C 
ATOM     46  C   UNL A   1      40.341  26.668  27.784  1.00  0.00     0.029 A 
ATOM     47  C   UNL A   1      41.495  26.593  28.679  1.00  0.00     0.049 A 
ATOM     48  H   UNL A   1      41.796  27.668  30.438  1.00  0.00     0.167 HD
ATOM     49  C   UNL A   1      42.495  30.239  33.909  1.00  0.00     0.034 A 
ATOM     50  C   UNL A   1      42.564  25.790  28.516  1.00  0.00     0.034 A 
ATOM     51  C   UNL A   1      43.586  29.301  33.911  1.00  0.00     0.049 A 
ATOM     52  C   UNL A   1      43.663  25.805  29.545  1.00  0.00     0.074 A 
ATOM     53  C   UNL A   1      44.609  29.173  34.834  1.00  0.00     0.029 A 
ATOM     54  N   UNL A   1      43.806  28.341  32.936  1.00  0.00    -0.354 N 
ATOM     55  N   UNL A   1      43.757  26.518  30.641  1.00  0.00    -0.248 NA
ATOM     56  C   UNL A   1      44.787  24.881  29.333  1.00  0.00     0.031 C 
ATOM     57  C   UNL A   1      45.462  28.152  34.402  1.00  0.00     0.029 A 
ATOM     58  C   UNL A   1      44.956  27.626  33.225  1.00  0.00     0.049 A 
ATOM     59  H   UNL A   1      43.229  28.189  32.153  1.00  0.00     0.167 HD
ATOM     60  C   UNL A   1      44.932  26.109  31.265  1.00  0.00     0.074 A 
ATOM     61  C   UNL A   1      45.504  25.069  30.434  1.00  0.00     0.031 C 
ATOM     62  C   UNL A   1      45.493  26.562  32.413  1.00  0.00     0.034 A 
BRANCH  49  63
ATOM     63  C   UNL A   1      42.425  31.258  35.015  1.00  0.00     0.023 A 
ATOM     64  C   UNL A   1      41.784  30.927  36.227  1.00  0.00     0.012 A 
ATOM     65  C   UNL A   1      43.025  32.523  34.875  1.00  0.00     0.148 A 
ATOM     66  C   UNL A   1      41.710  31.851  37.268  1.00  0.00     0.002 A 
ATOM     67  C   UNL A   1      42.984  33.425  35.933  1.00  0.00     0.091 A 
ATOM     68  F   UNL A   1      43.607  32.831  33.707  1.00  0.00    -0.205 F 
ATOM     69  C   UNL A   1      42.318  33.095  37.125  1.00  0.00     0.022 A 
BRANCH  67  70
ATOM     70  S   UNL A   1      43.801  35.024  35.869  1.00  0.00     0.127 S 
ATOM     71  O   UNL A   1      45.127  34.657  35.373  1.00  0.00    -0.237 OA
ATOM     72  O   UNL A   1      42.974  35.757  34.909  1.00  0.00    -0.237 OA
ATOM     73  O   UNL A   1      43.760  35.548  37.227  1.00  0.00    -0.744 OA
ENDBRANCH  67  70
ENDBRANCH  49  63
BRANCH  50  74
ATOM     74  C   UNL A   1      42.626  24.877  27.340  1.00  0.00     0.023 A 
ATOM     75  C   UNL A   1      43.234  25.315  26.148  1.00  0.00     0.012 A 
ATOM     76  C   UNL A   1      42.121  23.564  27.412  1.00  0.00     0.148 A 
ATOM     77  C   UNL A   1      43.315  24.470  25.041  1.00  0.00     0.002 A 
ATOM     78  C   UNL A   1      42.255  22.709  26.325  1.00  0.00     0.091 A 
ATOM     79  F   UNL A   1      41.531  23.173  28.551  1.00  0.00    -0.205 F 
ATOM     80  C   UNL A   1      42.839  23.165  25.132  1.00  0.00     0.022 A 
BRANCH  78  81
ATOM     81  S   UNL A   1      41.790  20.975  26.399  1.00  0.00     0.127 S 
ATOM     82  O   UNL A   1      42.617  20.398  25.342  1.00  0.00    -0.237 OA
ATOM     83  O   UNL A   1      42.188  20.616  27.760  1.00  0.00    -0.237 OA
ATOM     84  O   UNL A   1      40.353  20.942  26.166  1.00  0.00    -0.744 OA
ENDBRANCH  78  81
ENDBRANCH  50  74
BRANCH  62  85
ATOM     85  C   UNL A   1      46.784  25.925  32.861  1.00  0.00     0.023 A 
ATOM     86  C   UNL A   1      48.014  26.472  32.446  1.00  0.00     0.012 A 
ATOM     87  C   UNL A   1      46.779  24.834  33.754  1.00  0.00     0.148 A 
ATOM     88  C   UNL A   1      49.219  25.924  32.886  1.00  0.00     0.002 A 
ATOM     89  C   UNL A   1      47.982  24.323  34.225  1.00  0.00     0.091 A 
ATOM     90  F   UNL A   1      45.599  24.317  34.125  1.00  0.00    -0.205 F 
ATOM     91  C   UNL A   1      49.203  24.859  33.785  1.00  0.00     0.022 A 
BRANCH  89  92
ATOM     92  S   UNL A   1      48.058  23.015  35.455  1.00  0.00     0.127 S 
ATOM     93  O   UNL A   1      49.049  23.544  36.391  1.00  0.00    -0.237 OA
ATOM     94  O   UNL A   1      46.688  22.989  35.968  1.00  0.00    -0.237 OA
ATOM     95  O   UNL A   1      48.455  21.812  34.736  1.00  0.00    -0.744 OA
ENDBRANCH  89  92
ENDBRANCH  62  85
ENDBRANCH  36  37
ENDBRANCH  29  31
ENDBRANCH  28  29
ENDBRANCH  27  28
ENDBRANCH  26  27
ENDBRANCH   1  26
TORSDOF 20
ENDMDL
