MODEL 1
REMARK VINA RESULT:     -12.5      0.000      0.000
REMARK SMILES O=C(CC1(NC(=O)C2(c3ccccc3)CC2)CCC1)OCCOCCOC(=O)c1ccc(-c2c3nc(c(-c4cccc(S(=O)(=O)[O-])c4F)c4ccc([nH]4)c(-c4cccc(S(=O)(=O)[O-])c4F)c4nc(c(-c5cccc(S(=O)(=O)[O-])c5F)c5ccc2[nH]5)C=C4)C=C3)cc1
REMARK SMILES IDX 22 1 21 2 20 3 2 4 1 5 3 6 4 7 17 8 19 9 18 10 5 11 6 12
REMARK SMILES IDX 7 14 8 15 15 16 16 17 9 18 10 19 14 20 11 21 13 22 12 23
REMARK SMILES IDX 23 24 24 25 25 26 26 27 27 28 28 29 29 30 30 31 91 32 31 33
REMARK SMILES IDX 90 34 32 35 33 36 34 37 84 38 35 39 89 40 83 41 85 42 36 43
REMARK SMILES IDX 88 44 82 45 81 46 37 48 69 49 49 50 68 51 50 52 53 53 67 54
REMARK SMILES IDX 86 55 51 56 52 57 66 59 87 60 54 61 38 62 39 63 47 64 40 65
REMARK SMILES IDX 42 66 48 67 41 68 43 69 44 70 45 71 46 72 70 73 71 74 79 75
REMARK SMILES IDX 72 76 74 77 80 78 73 79 75 80 76 81 77 82 78 83 55 84 56 85
REMARK SMILES IDX 64 86 57 87 59 88 65 89 58 90 60 91 61 92 62 93 63 94
REMARK H PARENT 5 13 85 47 53 58
REMARK Flexibility Score: inf
ROOT
ATOM      1  C   UNL A   1      33.567  21.074  24.658  1.00  0.00     0.202 C 
ENDROOT
BRANCH   1   2
ATOM      2  C   UNL A   1      32.455  21.949  25.248  1.00  0.00     0.261 C 
BRANCH   2   3
ATOM      3  O   UNL A   1      32.862  22.578  26.472  1.00  0.00    -0.463 OA
BRANCH   3   4
ATOM      4  C   UNL A   1      32.381  23.852  26.672  1.00  0.00     0.308 C 
ATOM      5  O   UNL A   1      31.262  24.013  27.151  1.00  0.00    -0.252 OA
BRANCH   4   6
ATOM      6  C   UNL A   1      33.295  24.990  25.804  1.00  0.00     0.151 C 
BRANCH   6   7
ATOM      7  C   UNL A   1      33.298  27.164  25.674  1.00  0.00     0.051 C 
ATOM      8  C   UNL A   1      32.011  28.434  26.114  1.00  0.00     0.029 C 
ATOM      9  C   UNL A   1      34.179  28.478  26.649  1.00  0.00     0.029 C 
ATOM     10  C   UNL A   1      32.868  28.966  27.263  1.00  0.00     0.005 C 
BRANCH   7  11
ATOM     11  N   UNL A   1      33.710  28.112  24.139  1.00  0.00    -0.349 N 
ATOM     12  C   UNL A   1      33.588  27.714  22.809  1.00  0.00     0.231 C 
ATOM     13  H   UNL A   1      34.064  29.020  24.281  1.00  0.00     0.164 HD
ATOM     14  O   UNL A   1      34.185  28.239  21.880  1.00  0.00    -0.274 OA
BRANCH  12  15
ATOM     15  C   UNL A   1      32.555  26.686  22.657  1.00  0.00     0.074 C 
ATOM     16  C   UNL A   1      32.483  25.858  21.398  1.00  0.00     0.023 C 
ATOM     17  C   UNL A   1      32.768  25.208  22.725  1.00  0.00     0.023 C 
BRANCH  15  18
ATOM     18  C   UNL A   1      31.363  27.363  23.172  1.00  0.00    -0.032 A 
ATOM     19  C   UNL A   1      30.162  26.263  23.981  1.00  0.00     0.005 A 
ATOM     20  C   UNL A   1      30.785  28.859  22.341  1.00  0.00     0.005 A 
ATOM     21  C   UNL A   1      28.426  26.666  23.969  1.00  0.00     0.000 A 
ATOM     22  C   UNL A   1      29.035  29.263  22.356  1.00  0.00     0.000 A 
ATOM     23  C   UNL A   1      27.866  28.163  23.166  1.00  0.00     0.000 A 
ENDBRANCH  15  18
ENDBRANCH  12  15
ENDBRANCH   7  11
ENDBRANCH   6   7
ENDBRANCH   4   6
ENDBRANCH   3   4
ENDBRANCH   2   3
ENDBRANCH   1   2
BRANCH   1  24
ATOM     24  O   UNL A   1      34.603  20.764  25.596  1.00  0.00    -0.374 OA
BRANCH  24  25
ATOM     25  C   UNL A   1      35.727  20.111  24.985  1.00  0.00     0.202 C 
BRANCH  25  26
ATOM     26  C   UNL A   1      36.786  21.145  24.599  1.00  0.00     0.261 C 
BRANCH  26  27
ATOM     27  O   UNL A   1      37.360  21.674  25.803  1.00  0.00    -0.460 OA
BRANCH  27  28
ATOM     28  C   UNL A   1      38.663  21.349  25.999  1.00  0.00     0.338 C 
ATOM     29  O   UNL A   1      39.215  20.312  25.670  1.00  0.00    -0.246 OA
BRANCH  28  30
ATOM     30  C   UNL A   1      39.384  22.526  26.541  1.00  0.00     0.060 A 
ATOM     31  C   UNL A   1      38.972  23.803  26.128  1.00  0.00     0.016 A 
ATOM     32  C   UNL A   1      40.413  22.391  27.478  1.00  0.00     0.016 A 
ATOM     33  C   UNL A   1      39.596  24.943  26.640  1.00  0.00     0.010 A 
ATOM     34  C   UNL A   1      41.033  23.528  27.989  1.00  0.00     0.010 A 
ATOM     35  C   UNL A   1      40.639  24.806  27.561  1.00  0.00    -0.014 A 
BRANCH  35  36
ATOM     36  C   UNL A   1      41.420  25.969  28.032  1.00  0.00     0.031 A 
ATOM     37  C   UNL A   1      40.703  27.064  28.763  1.00  0.00     0.074 A 
ATOM     38  C   UNL A   1      42.711  26.104  27.680  1.00  0.00     0.049 A 
ATOM     39  N   UNL A   1      41.127  28.256  29.088  1.00  0.00    -0.248 NA
ATOM     40  C   UNL A   1      39.312  26.785  29.163  1.00  0.00     0.031 C 
ATOM     41  C   UNL A   1      43.495  25.111  26.946  1.00  0.00     0.029 A 
ATOM     42  N   UNL A   1      43.570  27.162  27.839  1.00  0.00    -0.354 N 
ATOM     43  C   UNL A   1      40.047  28.884  29.691  1.00  0.00     0.074 A 
ATOM     44  C   UNL A   1      38.949  27.941  29.699  1.00  0.00     0.031 C 
ATOM     45  C   UNL A   1      44.703  25.630  26.667  1.00  0.00     0.029 A 
ATOM     46  C   UNL A   1      44.765  26.997  27.180  1.00  0.00     0.049 A 
ATOM     47  H   UNL A   1      43.353  27.960  28.372  1.00  0.00     0.167 HD
ATOM     48  C   UNL A   1      39.979  30.135  30.202  1.00  0.00     0.034 A 
ATOM     49  C   UNL A   1      45.775  27.867  26.979  1.00  0.00     0.034 A 
ATOM     50  C   UNL A   1      41.082  31.053  30.225  1.00  0.00     0.049 A 
ATOM     51  C   UNL A   1      45.670  29.257  27.548  1.00  0.00     0.074 A 
ATOM     52  C   UNL A   1      41.151  32.303  30.812  1.00  0.00     0.029 A 
ATOM     53  N   UNL A   1      42.307  30.823  29.619  1.00  0.00    -0.354 N 
ATOM     54  N   UNL A   1      44.705  29.783  28.264  1.00  0.00    -0.248 NA
ATOM     55  C   UNL A   1      46.796  30.169  27.297  1.00  0.00     0.031 C 
ATOM     56  C   UNL A   1      42.420  32.834  30.554  1.00  0.00     0.029 A 
ATOM     57  C   UNL A   1      43.134  31.916  29.799  1.00  0.00     0.049 A 
ATOM     58  H   UNL A   1      42.552  30.004  29.133  1.00  0.00     0.167 HD
ATOM     59  C   UNL A   1      45.115  31.078  28.564  1.00  0.00     0.074 A 
ATOM     60  C   UNL A   1      46.425  31.250  27.971  1.00  0.00     0.031 C 
ATOM     61  C   UNL A   1      44.457  32.045  29.248  1.00  0.00     0.034 A 
BRANCH  48  62
ATOM     62  C   UNL A   1      38.680  30.561  30.819  1.00  0.00     0.023 A 
ATOM     63  C   UNL A   1      38.459  30.317  32.189  1.00  0.00     0.012 A 
ATOM     64  C   UNL A   1      37.696  31.223  30.062  1.00  0.00     0.148 A 
ATOM     65  C   UNL A   1      37.271  30.716  32.796  1.00  0.00     0.002 A 
ATOM     66  C   UNL A   1      36.522  31.638  30.679  1.00  0.00     0.091 A 
ATOM     67  F   UNL A   1      37.917  31.414  28.754  1.00  0.00    -0.205 F 
ATOM     68  C   UNL A   1      36.307  31.382  32.043  1.00  0.00     0.022 A 
BRANCH  66  69
ATOM     69  S   UNL A   1      35.234  32.535  29.805  1.00  0.00     0.127 S 
ATOM     70  O   UNL A   1      35.969  33.701  29.315  1.00  0.00    -0.237 OA
ATOM     71  O   UNL A   1      34.842  31.580  28.767  1.00  0.00    -0.237 OA
ATOM     72  O   UNL A   1      34.201  32.816  30.792  1.00  0.00    -0.744 OA
ENDBRANCH  66  69
ENDBRANCH  48  62
BRANCH  49  73
ATOM     73  C   UNL A   1      46.983  27.442  26.219  1.00  0.00     0.023 A 
ATOM     74  C   UNL A   1      47.082  27.756  24.851  1.00  0.00     0.012 A 
ATOM     75  C   UNL A   1      48.043  26.756  26.842  1.00  0.00     0.148 A 
ATOM     76  C   UNL A   1      48.205  27.378  24.112  1.00  0.00     0.002 A 
ATOM     77  C   UNL A   1      49.180  26.424  26.112  1.00  0.00     0.091 A 
ATOM     78  F   UNL A   1      47.930  26.438  28.140  1.00  0.00    -0.205 F 
ATOM     79  C   UNL A   1      49.259  26.722  24.744  1.00  0.00     0.022 A 
BRANCH  77  80
ATOM     80  S   UNL A   1      50.610  25.705  26.925  1.00  0.00     0.127 S 
ATOM     81  O   UNL A   1      50.903  26.691  27.962  1.00  0.00    -0.237 OA
ATOM     82  O   UNL A   1      50.094  24.428  27.421  1.00  0.00    -0.237 OA
ATOM     83  O   UNL A   1      51.596  25.568  25.858  1.00  0.00    -0.744 OA
ENDBRANCH  77  80
ENDBRANCH  49  73
BRANCH  61  84
ATOM     84  C   UNL A   1      45.134  33.378  29.397  1.00  0.00     0.023 A 
ATOM     85  C   UNL A   1      45.941  33.613  30.527  1.00  0.00     0.012 A 
ATOM     86  C   UNL A   1      45.057  34.352  28.384  1.00  0.00     0.148 A 
ATOM     87  C   UNL A   1      46.657  34.802  30.649  1.00  0.00     0.002 A 
ATOM     88  C   UNL A   1      45.801  35.521  28.495  1.00  0.00     0.091 A 
ATOM     89  F   UNL A   1      44.261  34.120  27.329  1.00  0.00    -0.205 F 
ATOM     90  C   UNL A   1      46.598  35.750  29.628  1.00  0.00     0.022 A 
BRANCH  88  91
ATOM     91  S   UNL A   1      45.839  36.744  27.179  1.00  0.00     0.127 S 
ATOM     92  O   UNL A   1      46.821  37.700  27.686  1.00  0.00    -0.237 OA
ATOM     93  O   UNL A   1      46.288  35.960  26.027  1.00  0.00    -0.237 OA
ATOM     94  O   UNL A   1      44.471  37.236  27.068  1.00  0.00    -0.744 OA
ENDBRANCH  88  91
ENDBRANCH  61  84
ENDBRANCH  35  36
ENDBRANCH  28  30
ENDBRANCH  27  28
ENDBRANCH  26  27
ENDBRANCH  25  26
ENDBRANCH  24  25
ENDBRANCH   1  24
TORSDOF 21
ENDMDL
MODEL 2
REMARK VINA RESULT:     -11.9      4.751      9.993
REMARK SMILES O=C(CC1(NC(=O)C2(c3ccccc3)CC2)CCC1)OCCOCCOC(=O)c1ccc(-c2c3nc(c(-c4cccc(S(=O)(=O)[O-])c4F)c4ccc([nH]4)c(-c4cccc(S(=O)(=O)[O-])c4F)c4nc(c(-c5cccc(S(=O)(=O)[O-])c5F)c5ccc2[nH]5)C=C4)C=C3)cc1
REMARK SMILES IDX 22 1 21 2 20 3 2 4 1 5 3 6 4 7 17 8 19 9 18 10 5 11 6 12
REMARK SMILES IDX 7 14 8 15 15 16 16 17 9 18 10 19 14 20 11 21 13 22 12 23
REMARK SMILES IDX 23 24 24 25 25 26 26 27 27 28 28 29 29 30 30 31 91 32 31 33
REMARK SMILES IDX 90 34 32 35 33 36 34 37 84 38 35 39 89 40 83 41 85 42 36 43
REMARK SMILES IDX 88 44 82 45 81 46 37 48 69 49 49 50 68 51 50 52 53 53 67 54
REMARK SMILES IDX 86 55 51 56 52 57 66 59 87 60 54 61 38 62 39 63 47 64 40 65
REMARK SMILES IDX 42 66 48 67 41 68 43 69 44 70 45 71 46 72 70 73 71 74 79 75
REMARK SMILES IDX 72 76 74 77 80 78 73 79 75 80 76 81 77 82 78 83 55 84 56 85
REMARK SMILES IDX 64 86 57 87 59 88 65 89 58 90 60 91 61 92 62 93 63 94
REMARK H PARENT 5 13 85 47 53 58
REMARK Flexibility Score: inf
ROOT
ATOM      1  C   UNL A   1      30.345  27.899  23.024  1.00  0.00     0.202 C 
ENDROOT
BRANCH   1   2
ATOM      2  C   UNL A   1      31.273  27.003  22.196  1.00  0.00     0.261 C 
BRANCH   2   3
ATOM      3  O   UNL A   1      31.962  26.046  23.012  1.00  0.00    -0.463 OA
BRANCH   3   4
ATOM      4  C   UNL A   1      33.187  25.633  22.538  1.00  0.00     0.308 C 
ATOM      5  O   UNL A   1      33.726  26.250  21.624  1.00  0.00    -0.252 OA
BRANCH   4   6
ATOM      6  C   UNL A   1      33.533  24.051  23.048  1.00  0.00     0.151 C 
BRANCH   6   7
ATOM      7  C   UNL A   1      34.843  23.189  24.559  1.00  0.00     0.051 C 
ATOM      8  C   UNL A   1      35.956  21.698  24.531  1.00  0.00     0.029 C 
ATOM      9  C   UNL A   1      36.467  23.741  25.274  1.00  0.00     0.029 C 
ATOM     10  C   UNL A   1      37.205  22.576  24.617  1.00  0.00     0.005 C 
BRANCH   7  11
ATOM     11  N   UNL A   1      34.304  22.756  26.276  1.00  0.00    -0.349 N 
ATOM     12  C   UNL A   1      33.014  22.553  26.760  1.00  0.00     0.231 C 
ATOM     13  H   UNL A   1      35.028  22.654  26.937  1.00  0.00     0.164 HD
ATOM     14  O   UNL A   1      32.709  22.611  27.943  1.00  0.00    -0.274 OA
BRANCH  12  15
ATOM     15  C   UNL A   1      32.106  22.132  25.689  1.00  0.00     0.074 C 
ATOM     16  C   UNL A   1      30.613  22.192  25.887  1.00  0.00     0.023 C 
ATOM     17  C   UNL A   1      31.278  23.033  24.831  1.00  0.00     0.023 C 
BRANCH  15  18
ATOM     18  C   UNL A   1      32.744  20.905  25.205  1.00  0.00    -0.032 A 
ATOM     19  C   UNL A   1      32.550  20.607  23.423  1.00  0.00     0.005 A 
ATOM     20  C   UNL A   1      32.901  19.503  26.334  1.00  0.00     0.005 A 
ATOM     21  C   UNL A   1      32.530  18.941  22.788  1.00  0.00     0.000 A 
ATOM     22  C   UNL A   1      32.900  17.832  25.677  1.00  0.00     0.000 A 
ATOM     23  C   UNL A   1      32.711  17.560  23.910  1.00  0.00     0.000 A 
ENDBRANCH  15  18
ENDBRANCH  12  15
ENDBRANCH   7  11
ENDBRANCH   6   7
ENDBRANCH   4   6
ENDBRANCH   3   4
ENDBRANCH   2   3
ENDBRANCH   1   2
BRANCH   1  24
ATOM     24  O   UNL A   1      30.909  29.181  23.319  1.00  0.00    -0.374 OA
BRANCH  24  25
ATOM     25  C   UNL A   1      31.099  29.392  24.727  1.00  0.00     0.202 C 
BRANCH  25  26
ATOM     26  C   UNL A   1      32.572  29.683  25.018  1.00  0.00     0.261 C 
BRANCH  26  27
ATOM     27  O   UNL A   1      32.758  29.690  26.441  1.00  0.00    -0.460 OA
BRANCH  27  28
ATOM     28  C   UNL A   1      33.135  30.888  26.957  1.00  0.00     0.338 C 
ATOM     29  O   UNL A   1      32.466  31.907  27.002  1.00  0.00    -0.246 OA
BRANCH  28  30
ATOM     30  C   UNL A   1      34.453  30.742  27.619  1.00  0.00     0.060 A 
ATOM     31  C   UNL A   1      34.847  29.460  28.033  1.00  0.00     0.016 A 
ATOM     32  C   UNL A   1      35.315  31.829  27.790  1.00  0.00     0.016 A 
ATOM     33  C   UNL A   1      36.096  29.266  28.629  1.00  0.00     0.010 A 
ATOM     34  C   UNL A   1      36.561  31.634  28.382  1.00  0.00     0.010 A 
ATOM     35  C   UNL A   1      36.949  30.358  28.818  1.00  0.00    -0.014 A 
BRANCH  35  36
ATOM     36  C   UNL A   1      38.221  30.233  29.560  1.00  0.00     0.031 A 
ATOM     37  C   UNL A   1      39.243  29.251  29.069  1.00  0.00     0.074 A 
ATOM     38  C   UNL A   1      38.388  30.878  30.729  1.00  0.00     0.049 A 
ATOM     39  N   UNL A   1      40.328  28.825  29.658  1.00  0.00    -0.248 NA
ATOM     40  C   UNL A   1      38.997  28.654  27.744  1.00  0.00     0.031 C 
ATOM     41  C   UNL A   1      37.445  31.833  31.309  1.00  0.00     0.029 A 
ATOM     42  N   UNL A   1      39.385  30.775  31.666  1.00  0.00    -0.354 N 
ATOM     43  C   UNL A   1      40.871  27.880  28.798  1.00  0.00     0.074 A 
ATOM     44  C   UNL A   1      40.005  27.802  27.642  1.00  0.00     0.031 C 
ATOM     45  C   UNL A   1      37.879  32.185  32.531  1.00  0.00     0.029 A 
ATOM     46  C   UNL A   1      39.115  31.463  32.826  1.00  0.00     0.049 A 
ATOM     47  H   UNL A   1      40.212  30.261  31.523  1.00  0.00     0.167 HD
ATOM     48  C   UNL A   1      41.999  27.150  28.956  1.00  0.00     0.034 A 
ATOM     49  C   UNL A   1      39.769  31.471  34.004  1.00  0.00     0.034 A 
ATOM     50  C   UNL A   1      42.874  27.260  30.088  1.00  0.00     0.049 A 
ATOM     51  C   UNL A   1      41.015  30.640  34.157  1.00  0.00     0.074 A 
ATOM     52  C   UNL A   1      44.095  26.644  30.297  1.00  0.00     0.029 A 
ATOM     53  N   UNL A   1      42.611  28.027  31.211  1.00  0.00    -0.354 N 
ATOM     54  N   UNL A   1      41.611  29.877  33.272  1.00  0.00    -0.248 NA
ATOM     55  C   UNL A   1      41.689  30.680  35.464  1.00  0.00     0.031 C 
ATOM     56  C   UNL A   1      44.568  27.035  31.554  1.00  0.00     0.029 A 
ATOM     57  C   UNL A   1      43.637  27.886  32.128  1.00  0.00     0.049 A 
ATOM     58  H   UNL A   1      41.814  28.589  31.338  1.00  0.00     0.167 HD
ATOM     59  C   UNL A   1      42.737  29.363  33.906  1.00  0.00     0.074 A 
ATOM     60  C   UNL A   1      42.753  29.918  35.244  1.00  0.00     0.031 C 
ATOM     61  C   UNL A   1      43.661  28.492  33.433  1.00  0.00     0.034 A 
BRANCH  48  62
ATOM     62  C   UNL A   1      42.370  26.203  27.853  1.00  0.00     0.023 A 
ATOM     63  C   UNL A   1      43.289  26.623  26.870  1.00  0.00     0.012 A 
ATOM     64  C   UNL A   1      41.841  24.901  27.801  1.00  0.00     0.148 A 
ATOM     65  C   UNL A   1      43.667  25.762  25.843  1.00  0.00     0.002 A 
ATOM     66  C   UNL A   1      42.240  24.040  26.787  1.00  0.00     0.091 A 
ATOM     67  F   UNL A   1      40.945  24.538  28.730  1.00  0.00    -0.205 F 
ATOM     68  C   UNL A   1      43.149  24.469  25.806  1.00  0.00     0.022 A 
BRANCH  66  69
ATOM     69  S   UNL A   1      41.657  22.344  26.671  1.00  0.00     0.127 S 
ATOM     70  O   UNL A   1      42.302  21.732  27.833  1.00  0.00    -0.237 OA
ATOM     71  O   UNL A   1      40.208  22.506  26.792  1.00  0.00    -0.237 OA
ATOM     72  O   UNL A   1      42.107  21.854  25.376  1.00  0.00    -0.744 OA
ENDBRANCH  66  69
ENDBRANCH  48  62
BRANCH  49  73
ATOM     73  C   UNL A   1      39.268  32.311  35.127  1.00  0.00     0.023 A 
ATOM     74  C   UNL A   1      38.322  31.774  36.020  1.00  0.00     0.012 A 
ATOM     75  C   UNL A   1      39.737  33.621  35.335  1.00  0.00     0.148 A 
ATOM     76  C   UNL A   1      37.837  32.533  37.086  1.00  0.00     0.002 A 
ATOM     77  C   UNL A   1      39.287  34.355  36.428  1.00  0.00     0.091 A 
ATOM     78  F   UNL A   1      40.620  34.135  34.465  1.00  0.00    -0.205 F 
ATOM     79  C   UNL A   1      38.327  33.819  37.298  1.00  0.00     0.022 A 
BRANCH  77  80
ATOM     80  S   UNL A   1      40.001  35.959  36.807  1.00  0.00     0.127 S 
ATOM     81  O   UNL A   1      39.303  36.323  38.037  1.00  0.00    -0.237 OA
ATOM     82  O   UNL A   1      41.422  35.650  36.975  1.00  0.00    -0.237 OA
ATOM     83  O   UNL A   1      39.710  36.766  35.628  1.00  0.00    -0.744 OA
ENDBRANCH  77  80
ENDBRANCH  49  73
BRANCH  61  84
ATOM     84  C   UNL A   1      44.770  28.079  34.359  1.00  0.00     0.023 A 
ATOM     85  C   UNL A   1      45.999  28.763  34.302  1.00  0.00     0.012 A 
ATOM     86  C   UNL A   1      44.567  27.097  35.346  1.00  0.00     0.148 A 
ATOM     87  C   UNL A   1      47.015  28.469  35.209  1.00  0.00     0.002 A 
ATOM     88  C   UNL A   1      45.572  26.832  36.270  1.00  0.00     0.091 A 
ATOM     89  F   UNL A   1      43.398  26.438  35.367  1.00  0.00    -0.205 F 
ATOM     90  C   UNL A   1      46.797  27.514  36.201  1.00  0.00     0.022 A 
BRANCH  88  91
ATOM     91  S   UNL A   1      45.327  25.677  37.625  1.00  0.00     0.127 S 
ATOM     92  O   UNL A   1      46.286  24.624  37.299  1.00  0.00    -0.237 OA
ATOM     93  O   UNL A   1      45.678  26.481  38.798  1.00  0.00    -0.237 OA
ATOM     94  O   UNL A   1      43.921  25.299  37.562  1.00  0.00    -0.744 OA
ENDBRANCH  88  91
ENDBRANCH  61  84
ENDBRANCH  35  36
ENDBRANCH  28  30
ENDBRANCH  27  28
ENDBRANCH  26  27
ENDBRANCH  25  26
ENDBRANCH  24  25
ENDBRANCH   1  24
TORSDOF 21
ENDMDL
MODEL 3
REMARK VINA RESULT:     -11.7      1.405      7.644
REMARK SMILES O=C(CC1(NC(=O)C2(c3ccccc3)CC2)CCC1)OCCOCCOC(=O)c1ccc(-c2c3nc(c(-c4cccc(S(=O)(=O)[O-])c4F)c4ccc([nH]4)c(-c4cccc(S(=O)(=O)[O-])c4F)c4nc(c(-c5cccc(S(=O)(=O)[O-])c5F)c5ccc2[nH]5)C=C4)C=C3)cc1
REMARK SMILES IDX 22 1 21 2 20 3 2 4 1 5 3 6 4 7 17 8 19 9 18 10 5 11 6 12
REMARK SMILES IDX 7 14 8 15 15 16 16 17 9 18 10 19 14 20 11 21 13 22 12 23
REMARK SMILES IDX 23 24 24 25 25 26 26 27 27 28 28 29 29 30 30 31 91 32 31 33
REMARK SMILES IDX 90 34 32 35 33 36 34 37 84 38 35 39 89 40 83 41 85 42 36 43
REMARK SMILES IDX 88 44 82 45 81 46 37 48 69 49 49 50 68 51 50 52 53 53 67 54
REMARK SMILES IDX 86 55 51 56 52 57 66 59 87 60 54 61 38 62 39 63 47 64 40 65
REMARK SMILES IDX 42 66 48 67 41 68 43 69 44 70 45 71 46 72 70 73 71 74 79 75
REMARK SMILES IDX 72 76 74 77 80 78 73 79 75 80 76 81 77 82 78 83 55 84 56 85
REMARK SMILES IDX 64 86 57 87 59 88 65 89 58 90 60 91 61 92 62 93 63 94
REMARK H PARENT 5 13 85 47 53 58
REMARK Flexibility Score: inf
ROOT
ATOM      1  C   UNL A   1      35.179  21.351  25.296  1.00  0.00     0.202 C 
ENDROOT
BRANCH   1   2
ATOM      2  C   UNL A   1      34.659  21.532  26.726  1.00  0.00     0.261 C 
BRANCH   2   3
ATOM      3  O   UNL A   1      34.553  22.917  27.085  1.00  0.00    -0.463 OA
BRANCH   3   4
ATOM      4  C   UNL A   1      33.536  23.613  26.472  1.00  0.00     0.308 C 
ATOM      5  O   UNL A   1      32.427  23.098  26.358  1.00  0.00    -0.252 OA
BRANCH   4   6
ATOM      6  C   UNL A   1      34.146  24.932  25.594  1.00  0.00     0.151 C 
BRANCH   6   7
ATOM      7  C   UNL A   1      33.734  27.071  25.573  1.00  0.00     0.051 C 
ATOM      8  C   UNL A   1      32.251  28.053  26.120  1.00  0.00     0.029 C 
ATOM      9  C   UNL A   1      34.393  28.486  26.581  1.00  0.00     0.029 C 
ATOM     10  C   UNL A   1      33.042  28.689  27.264  1.00  0.00     0.005 C 
BRANCH   7  11
ATOM     11  N   UNL A   1      33.893  28.144  24.073  1.00  0.00    -0.349 N 
ATOM     12  C   UNL A   1      33.606  27.835  22.746  1.00  0.00     0.231 C 
ATOM     13  H   UNL A   1      34.226  29.057  24.237  1.00  0.00     0.164 HD
ATOM     14  O   UNL A   1      34.050  28.454  21.788  1.00  0.00    -0.274 OA
BRANCH  12  15
ATOM     15  C   UNL A   1      32.606  26.769  22.654  1.00  0.00     0.074 C 
ATOM     16  C   UNL A   1      32.534  25.895  21.427  1.00  0.00     0.023 C 
ATOM     17  C   UNL A   1      32.870  25.302  22.769  1.00  0.00     0.023 C 
BRANCH  15  18
ATOM     18  C   UNL A   1      31.403  27.424  23.173  1.00  0.00    -0.032 A 
ATOM     19  C   UNL A   1      30.206  26.298  23.949  1.00  0.00     0.005 A 
ATOM     20  C   UNL A   1      30.819  28.932  22.368  1.00  0.00     0.005 A 
ATOM     21  C   UNL A   1      28.467  26.685  23.931  1.00  0.00     0.000 A 
ATOM     22  C   UNL A   1      29.066  29.320  22.377  1.00  0.00     0.000 A 
ATOM     23  C   UNL A   1      27.900  28.193  23.154  1.00  0.00     0.000 A 
ENDBRANCH  15  18
ENDBRANCH  12  15
ENDBRANCH   7  11
ENDBRANCH   6   7
ENDBRANCH   4   6
ENDBRANCH   3   4
ENDBRANCH   2   3
ENDBRANCH   1   2
BRANCH   1  24
ATOM     24  O   UNL A   1      36.221  20.375  25.190  1.00  0.00    -0.374 OA
BRANCH  24  25
ATOM     25  C   UNL A   1      37.530  20.964  25.149  1.00  0.00     0.202 C 
BRANCH  25  26
ATOM     26  C   UNL A   1      38.550  20.018  25.784  1.00  0.00     0.261 C 
BRANCH  26  27
ATOM     27  O   UNL A   1      39.834  20.656  25.759  1.00  0.00    -0.460 OA
BRANCH  27  28
ATOM     28  C   UNL A   1      40.418  20.805  26.976  1.00  0.00     0.338 C 
ATOM     29  O   UNL A   1      40.753  19.913  27.739  1.00  0.00    -0.246 OA
BRANCH  28  30
ATOM     30  C   UNL A   1      40.745  22.234  27.190  1.00  0.00     0.060 A 
ATOM     31  C   UNL A   1      40.103  23.189  26.386  1.00  0.00     0.016 A 
ATOM     32  C   UNL A   1      41.627  22.644  28.194  1.00  0.00     0.016 A 
ATOM     33  C   UNL A   1      40.352  24.550  26.576  1.00  0.00     0.010 A 
ATOM     34  C   UNL A   1      41.873  24.002  28.384  1.00  0.00     0.010 A 
ATOM     35  C   UNL A   1      41.250  24.958  27.567  1.00  0.00    -0.014 A 
BRANCH  35  36
ATOM     36  C   UNL A   1      41.650  26.373  27.722  1.00  0.00     0.031 A 
ATOM     37  C   UNL A   1      43.059  26.759  27.383  1.00  0.00     0.074 A 
ATOM     38  C   UNL A   1      40.810  27.254  28.293  1.00  0.00     0.049 A 
ATOM     39  N   UNL A   1      43.689  27.876  27.626  1.00  0.00    -0.248 NA
ATOM     40  C   UNL A   1      43.872  25.741  26.695  1.00  0.00     0.031 C 
ATOM     41  C   UNL A   1      39.429  26.973  28.684  1.00  0.00     0.029 A 
ATOM     42  N   UNL A   1      41.020  28.547  28.700  1.00  0.00    -0.354 N 
ATOM     43  C   UNL A   1      44.983  27.683  27.163  1.00  0.00     0.074 A 
ATOM     44  C   UNL A   1      45.047  26.346  26.613  1.00  0.00     0.031 C 
ATOM     45  C   UNL A   1      38.933  28.043  29.329  1.00  0.00     0.029 A 
ATOM     46  C   UNL A   1      39.969  29.070  29.415  1.00  0.00     0.049 A 
ATOM     47  H   UNL A   1      41.841  29.051  28.500  1.00  0.00     0.167 HD
ATOM     48  C   UNL A   1      46.023  28.548  27.185  1.00  0.00     0.034 A 
ATOM     49  C   UNL A   1      39.873  30.229  30.097  1.00  0.00     0.034 A 
ATOM     50  C   UNL A   1      45.942  29.886  27.698  1.00  0.00     0.049 A 
ATOM     51  C   UNL A   1      41.049  31.169  30.117  1.00  0.00     0.074 A 
ATOM     52  C   UNL A   1      46.904  30.878  27.672  1.00  0.00     0.029 A 
ATOM     53  N   UNL A   1      44.836  30.413  28.344  1.00  0.00    -0.354 N 
ATOM     54  N   UNL A   1      42.214  31.042  29.528  1.00  0.00    -0.248 NA
ATOM     55  C   UNL A   1      40.894  32.417  30.879  1.00  0.00     0.031 C 
ATOM     56  C   UNL A   1      46.381  32.007  28.312  1.00  0.00     0.029 A 
ATOM     57  C   UNL A   1      45.096  31.711  28.741  1.00  0.00     0.049 A 
ATOM     58  H   UNL A   1      43.990  29.936  28.497  1.00  0.00     0.167 HD
ATOM     59  C   UNL A   1      42.923  32.199  29.833  1.00  0.00     0.074 A 
ATOM     60  C   UNL A   1      42.049  33.026  30.640  1.00  0.00     0.031 C 
ATOM     61  C   UNL A   1      44.191  32.538  29.496  1.00  0.00     0.034 A 
BRANCH  48  62
ATOM     62  C   UNL A   1      47.321  28.084  26.595  1.00  0.00     0.023 A 
ATOM     63  C   UNL A   1      48.384  27.746  27.457  1.00  0.00     0.012 A 
ATOM     64  C   UNL A   1      47.483  27.950  25.204  1.00  0.00     0.148 A 
ATOM     65  C   UNL A   1      49.596  27.295  26.941  1.00  0.00     0.002 A 
ATOM     66  C   UNL A   1      48.688  27.478  24.698  1.00  0.00     0.091 A 
ATOM     67  F   UNL A   1      46.468  28.308  24.405  1.00  0.00    -0.205 F 
ATOM     68  C   UNL A   1      49.745  27.154  25.564  1.00  0.00     0.022 A 
BRANCH  66  69
ATOM     69  S   UNL A   1      48.967  27.228  22.941  1.00  0.00     0.127 S 
ATOM     70  O   UNL A   1      48.260  25.969  22.707  1.00  0.00    -0.237 OA
ATOM     71  O   UNL A   1      48.326  28.406  22.354  1.00  0.00    -0.237 OA
ATOM     72  O   UNL A   1      50.412  27.176  22.769  1.00  0.00    -0.744 OA
ENDBRANCH  66  69
ENDBRANCH  48  62
BRANCH  49  73
ATOM     73  C   UNL A   1      38.607  30.574  30.803  1.00  0.00     0.023 A 
ATOM     74  C   UNL A   1      38.458  30.226  32.159  1.00  0.00     0.012 A 
ATOM     75  C   UNL A   1      37.565  31.263  30.155  1.00  0.00     0.148 A 
ATOM     76  C   UNL A   1      37.287  30.541  32.850  1.00  0.00     0.002 A 
ATOM     77  C   UNL A   1      36.421  31.617  30.863  1.00  0.00     0.091 A 
ATOM     78  F   UNL A   1      37.705  31.568  28.857  1.00  0.00    -0.205 F 
ATOM     79  C   UNL A   1      36.273  31.246  32.207  1.00  0.00     0.022 A 
BRANCH  77  80
ATOM     80  S   UNL A   1      35.159  32.645  30.104  1.00  0.00     0.127 S 
ATOM     81  O   UNL A   1      34.214  32.832  31.201  1.00  0.00    -0.237 OA
ATOM     82  O   UNL A   1      35.904  33.846  29.723  1.00  0.00    -0.237 OA
ATOM     83  O   UNL A   1      34.693  31.856  28.968  1.00  0.00    -0.744 OA
ENDBRANCH  77  80
ENDBRANCH  49  73
BRANCH  61  84
ATOM     84  C   UNL A   1      44.719  33.854  29.993  1.00  0.00     0.023 A 
ATOM     85  C   UNL A   1      45.470  33.885  31.183  1.00  0.00     0.012 A 
ATOM     86  C   UNL A   1      44.563  35.032  29.239  1.00  0.00     0.148 A 
ATOM     87  C   UNL A   1      46.052  35.073  31.621  1.00  0.00     0.002 A 
ATOM     88  C   UNL A   1      45.175  36.206  29.663  1.00  0.00     0.091 A 
ATOM     89  F   UNL A   1      43.821  34.987  28.122  1.00  0.00    -0.205 F 
ATOM     90  C   UNL A   1      45.916  36.230  30.855  1.00  0.00     0.022 A 
BRANCH  88  91
ATOM     91  S   UNL A   1      45.113  37.710  28.681  1.00  0.00     0.127 S 
ATOM     92  O   UNL A   1      43.713  38.103  28.823  1.00  0.00    -0.237 OA
ATOM     93  O   UNL A   1      46.065  38.583  29.372  1.00  0.00    -0.237 OA
ATOM     94  O   UNL A   1      45.530  37.316  27.342  1.00  0.00    -0.744 OA
ENDBRANCH  88  91
ENDBRANCH  61  84
ENDBRANCH  35  36
ENDBRANCH  28  30
ENDBRANCH  27  28
ENDBRANCH  26  27
ENDBRANCH  25  26
ENDBRANCH  24  25
ENDBRANCH   1  24
TORSDOF 21
ENDMDL
