MODEL 1
REMARK VINA RESULT:      -9.7      0.000      0.000
REMARK SMILES O=C(CCC[NH2+][C@H]1CCOC2(CCOCC2)C1)OCCOCCOC(=O)c1ccc(-c2c3nc(c(-c4cccc(S(=O)(=O)[O-])c4F)c4ccc([nH]4)c(-c4cccc(S(=O)(=O)[O-])c4F)c4nc(c(-c5cccc(S(=O)(=O)[O-])c5F)c5ccc2[nH]5)C=C4)C=C3)cc1
REMARK SMILES IDX 20 1 19 2 18 3 2 4 1 5 3 6 4 7 5 8 6 9 7 12 8 13 17 14 9 15
REMARK SMILES IDX 11 16 10 17 12 18 16 19 13 20 15 21 14 22 21 23 22 24 23 25
REMARK SMILES IDX 24 26 25 27 26 28 27 29 28 30 89 31 29 32 88 33 30 34 31 35
REMARK SMILES IDX 32 36 82 37 33 38 87 39 81 40 83 41 34 42 86 43 80 44 79 45
REMARK SMILES IDX 35 47 67 48 47 49 66 50 48 51 51 52 65 53 84 54 49 55 50 56
REMARK SMILES IDX 64 58 85 59 52 60 36 61 37 62 45 63 38 64 40 65 46 66 39 67
REMARK SMILES IDX 41 68 42 69 43 70 44 71 68 72 69 73 77 74 70 75 72 76 78 77
REMARK SMILES IDX 71 78 73 79 74 80 75 81 76 82 53 83 54 84 62 85 55 86 57 87
REMARK SMILES IDX 63 88 56 89 58 90 59 91 60 92 61 93
REMARK H PARENT 6 10 6 11 83 46 51 57
REMARK Flexibility Score: inf
ROOT
ATOM      1  C   UNL A   1      35.538  33.441  28.907  1.00  0.00     0.202 C 
ENDROOT
BRANCH   1   2
ATOM      2  C   UNL A   1      35.173  32.376  27.889  1.00  0.00     0.261 C 
BRANCH   2   3
ATOM      3  O   UNL A   1      34.191  31.452  28.360  1.00  0.00    -0.463 OA
BRANCH   3   4
ATOM      4  C   UNL A   1      33.490  30.669  27.507  1.00  0.00     0.306 C 
ATOM      5  O   UNL A   1      32.402  31.055  27.081  1.00  0.00    -0.252 OA
BRANCH   4   6
ATOM      6  C   UNL A   1      33.982  29.265  27.202  1.00  0.00     0.128 C 
BRANCH   6   7
ATOM      7  C   UNL A   1      33.676  28.676  25.824  1.00  0.00     0.073 C 
BRANCH   7   8
ATOM      8  C   UNL A   1      32.324  27.967  25.593  1.00  0.00     0.261 C 
BRANCH   8   9
ATOM      9  N   UNL A   1      32.135  27.355  24.272  1.00  0.00    -0.344 N 
ATOM     10  H   UNL A   1      32.025  26.349  24.401  1.00  0.00     0.346 HD
ATOM     11  H   UNL A   1      32.957  27.601  23.721  1.00  0.00     0.346 HD
BRANCH   9  12
ATOM     12  C   UNL A   1      30.957  27.857  23.518  1.00  0.00     0.187 C 
ATOM     13  C   UNL A   1      29.670  27.054  23.768  1.00  0.00     0.093 C 
ATOM     14  C   UNL A   1      30.710  29.351  23.858  1.00  0.00     0.100 C 
ATOM     15  C   UNL A   1      28.470  27.695  23.100  1.00  0.00     0.167 C 
ATOM     16  C   UNL A   1      29.411  29.917  23.226  1.00  0.00     0.078 C 
ATOM     17  O   UNL A   1      28.318  29.039  23.532  1.00  0.00    -0.374 OA
ATOM     18  C   UNL A   1      29.545  30.136  21.706  1.00  0.00     0.064 C 
ATOM     19  C   UNL A   1      29.037  31.286  23.841  1.00  0.00     0.064 C 
ATOM     20  C   UNL A   1      28.271  30.760  21.141  1.00  0.00     0.163 C 
ATOM     21  C   UNL A   1      27.784  31.853  23.173  1.00  0.00     0.163 C 
ATOM     22  O   UNL A   1      28.008  32.013  21.773  1.00  0.00    -0.381 OA
ENDBRANCH   9  12
ENDBRANCH   8   9
ENDBRANCH   7   8
ENDBRANCH   6   7
ENDBRANCH   4   6
ENDBRANCH   3   4
ENDBRANCH   2   3
ENDBRANCH   1   2
BRANCH   1  23
ATOM     23  O   UNL A   1      34.936  34.713  28.678  1.00  0.00    -0.374 OA
BRANCH  23  24
ATOM     24  C   UNL A   1      33.505  34.665  28.705  1.00  0.00     0.202 C 
BRANCH  24  25
ATOM     25  C   UNL A   1      32.860  35.945  29.260  1.00  0.00     0.261 C 
BRANCH  25  26
ATOM     26  O   UNL A   1      33.453  36.352  30.508  1.00  0.00    -0.460 OA
BRANCH  26  27
ATOM     27  C   UNL A   1      32.939  35.723  31.600  1.00  0.00     0.338 C 
ATOM     28  O   UNL A   1      31.765  35.629  31.896  1.00  0.00    -0.246 OA
BRANCH  27  29
ATOM     29  C   UNL A   1      34.002  34.951  32.289  1.00  0.00     0.060 A 
ATOM     30  C   UNL A   1      35.308  35.424  32.137  1.00  0.00     0.016 A 
ATOM     31  C   UNL A   1      33.769  33.811  33.055  1.00  0.00     0.016 A 
ATOM     32  C   UNL A   1      36.391  34.744  32.684  1.00  0.00     0.010 A 
ATOM     33  C   UNL A   1      34.859  33.119  33.607  1.00  0.00     0.010 A 
ATOM     34  C   UNL A   1      36.179  33.563  33.394  1.00  0.00    -0.014 A 
BRANCH  34  35
ATOM     35  C   UNL A   1      37.347  32.720  33.751  1.00  0.00     0.031 A 
ATOM     36  C   UNL A   1      38.113  33.051  35.003  1.00  0.00     0.074 A 
ATOM     37  C   UNL A   1      37.691  31.641  33.021  1.00  0.00     0.049 A 
ATOM     38  N   UNL A   1      39.223  32.533  35.458  1.00  0.00    -0.248 NA
ATOM     39  C   UNL A   1      37.543  34.105  35.860  1.00  0.00     0.031 C 
ATOM     40  C   UNL A   1      36.979  31.153  31.842  1.00  0.00     0.029 A 
ATOM     41  N   UNL A   1      38.746  30.772  33.160  1.00  0.00    -0.354 N 
ATOM     42  C   UNL A   1      39.515  33.233  36.623  1.00  0.00     0.074 A 
ATOM     43  C   UNL A   1      38.460  34.204  36.812  1.00  0.00     0.031 C 
ATOM     44  C   UNL A   1      37.638  30.092  31.342  1.00  0.00     0.029 A 
ATOM     45  C   UNL A   1      38.843  29.859  32.135  1.00  0.00     0.049 A 
ATOM     46  H   UNL A   1      39.373  30.798  33.919  1.00  0.00     0.167 HD
ATOM     47  C   UNL A   1      40.569  33.083  37.458  1.00  0.00     0.034 A 
ATOM     48  C   UNL A   1      39.818  28.974  31.843  1.00  0.00     0.034 A 
ATOM     49  C   UNL A   1      41.598  32.096  37.287  1.00  0.00     0.049 A 
ATOM     50  C   UNL A   1      41.017  28.873  32.753  1.00  0.00     0.074 A 
ATOM     51  C   UNL A   1      42.701  31.856  38.088  1.00  0.00     0.029 A 
ATOM     52  N   UNL A   1      41.661  31.190  36.240  1.00  0.00    -0.354 N 
ATOM     53  N   UNL A   1      41.263  29.511  33.873  1.00  0.00    -0.248 NA
ATOM     54  C   UNL A   1      42.066  27.915  32.370  1.00  0.00     0.031 C 
ATOM     55  C   UNL A   1      43.450  30.832  37.505  1.00  0.00     0.029 A 
ATOM     56  C   UNL A   1      42.791  30.401  36.365  1.00  0.00     0.049 A 
ATOM     57  H   UNL A   1      40.998  31.118  35.514  1.00  0.00     0.167 HD
ATOM     58  C   UNL A   1      42.471  29.006  34.344  1.00  0.00     0.074 A 
ATOM     59  C   UNL A   1      42.897  27.994  33.400  1.00  0.00     0.031 C 
ATOM     60  C   UNL A   1      43.174  29.358  35.449  1.00  0.00     0.034 A 
BRANCH  47  61
ATOM     61  C   UNL A   1      40.676  34.022  38.629  1.00  0.00     0.023 A 
ATOM     62  C   UNL A   1      41.415  35.216  38.517  1.00  0.00     0.012 A 
ATOM     63  C   UNL A   1      39.987  33.741  39.825  1.00  0.00     0.148 A 
ATOM     64  C   UNL A   1      41.487  36.105  39.589  1.00  0.00     0.002 A 
ATOM     65  C   UNL A   1      40.025  34.654  40.871  1.00  0.00     0.091 A 
ATOM     66  F   UNL A   1      39.310  32.587  39.916  1.00  0.00    -0.205 F 
ATOM     67  C   UNL A   1      40.784  35.830  40.759  1.00  0.00     0.022 A 
BRANCH  65  68
ATOM     68  S   UNL A   1      39.090  34.428  42.387  1.00  0.00     0.127 S 
ATOM     69  O   UNL A   1      38.812  35.812  42.771  1.00  0.00    -0.237 OA
ATOM     70  O   UNL A   1      37.924  33.680  41.918  1.00  0.00    -0.237 OA
ATOM     71  O   UNL A   1      39.961  33.696  43.295  1.00  0.00    -0.744 OA
ENDBRANCH  65  68
ENDBRANCH  47  61
BRANCH  48  72
ATOM     72  C   UNL A   1      39.727  28.124  30.619  1.00  0.00     0.023 A 
ATOM     73  C   UNL A   1      38.920  26.969  30.622  1.00  0.00     0.012 A 
ATOM     74  C   UNL A   1      40.463  28.440  29.460  1.00  0.00     0.148 A 
ATOM     75  C   UNL A   1      38.877  26.128  29.508  1.00  0.00     0.002 A 
ATOM     76  C   UNL A   1      40.366  27.633  28.333  1.00  0.00     0.091 A 
ATOM     77  F   UNL A   1      41.247  29.528  29.482  1.00  0.00    -0.205 F 
ATOM     78  C   UNL A   1      39.591  26.465  28.362  1.00  0.00     0.022 A 
BRANCH  76  79
ATOM     79  S   UNL A   1      41.145  28.064  26.773  1.00  0.00     0.127 S 
ATOM     80  O   UNL A   1      40.379  29.239  26.370  1.00  0.00    -0.237 OA
ATOM     81  O   UNL A   1      42.521  28.336  27.192  1.00  0.00    -0.237 OA
ATOM     82  O   UNL A   1      41.000  26.889  25.925  1.00  0.00    -0.744 OA
ENDBRANCH  76  79
ENDBRANCH  48  72
BRANCH  60  83
ATOM     83  C   UNL A   1      44.451  28.612  35.740  1.00  0.00     0.023 A 
ATOM     84  C   UNL A   1      45.683  29.111  35.273  1.00  0.00     0.012 A 
ATOM     85  C   UNL A   1      44.433  27.455  36.544  1.00  0.00     0.148 A 
ATOM     86  C   UNL A   1      46.873  28.450  35.573  1.00  0.00     0.002 A 
ATOM     87  C   UNL A   1      45.628  26.831  36.881  1.00  0.00     0.091 A 
ATOM     88  F   UNL A   1      43.250  26.987  36.965  1.00  0.00    -0.205 F 
ATOM     89  C   UNL A   1      46.848  27.319  36.385  1.00  0.00     0.022 A 
BRANCH  87  90
ATOM     90  S   UNL A   1      45.701  25.430  38.004  1.00  0.00     0.127 S 
ATOM     91  O   UNL A   1      45.088  25.983  39.210  1.00  0.00    -0.237 OA
ATOM     92  O   UNL A   1      44.888  24.433  37.307  1.00  0.00    -0.237 OA
ATOM     93  O   UNL A   1      47.111  25.084  38.124  1.00  0.00    -0.744 OA
ENDBRANCH  87  90
ENDBRANCH  60  83
ENDBRANCH  34  35
ENDBRANCH  27  29
ENDBRANCH  26  27
ENDBRANCH  25  26
ENDBRANCH  24  25
ENDBRANCH  23  24
ENDBRANCH   1  23
TORSDOF 21
ENDMDL
MODEL 2
REMARK VINA RESULT:      -9.7      4.752     10.174
REMARK SMILES O=C(CCC[NH2+][C@H]1CCOC2(CCOCC2)C1)OCCOCCOC(=O)c1ccc(-c2c3nc(c(-c4cccc(S(=O)(=O)[O-])c4F)c4ccc([nH]4)c(-c4cccc(S(=O)(=O)[O-])c4F)c4nc(c(-c5cccc(S(=O)(=O)[O-])c5F)c5ccc2[nH]5)C=C4)C=C3)cc1
REMARK SMILES IDX 20 1 19 2 18 3 2 4 1 5 3 6 4 7 5 8 6 9 7 12 8 13 17 14 9 15
REMARK SMILES IDX 11 16 10 17 12 18 16 19 13 20 15 21 14 22 21 23 22 24 23 25
REMARK SMILES IDX 24 26 25 27 26 28 27 29 28 30 89 31 29 32 88 33 30 34 31 35
REMARK SMILES IDX 32 36 82 37 33 38 87 39 81 40 83 41 34 42 86 43 80 44 79 45
REMARK SMILES IDX 35 47 67 48 47 49 66 50 48 51 51 52 65 53 84 54 49 55 50 56
REMARK SMILES IDX 64 58 85 59 52 60 36 61 37 62 45 63 38 64 40 65 46 66 39 67
REMARK SMILES IDX 41 68 42 69 43 70 44 71 68 72 69 73 77 74 70 75 72 76 78 77
REMARK SMILES IDX 71 78 73 79 74 80 75 81 76 82 53 83 54 84 62 85 55 86 57 87
REMARK SMILES IDX 63 88 56 89 58 90 59 91 60 92 61 93
REMARK H PARENT 6 10 6 11 83 46 51 57
REMARK Flexibility Score: inf
ROOT
ATOM      1  C   UNL A   1      41.551  22.111  25.752  1.00  0.00     0.202 C 
ENDROOT
BRANCH   1   2
ATOM      2  C   UNL A   1      40.696  21.496  26.846  1.00  0.00     0.261 C 
BRANCH   2   3
ATOM      3  O   UNL A   1      39.679  20.625  26.351  1.00  0.00    -0.463 OA
BRANCH   3   4
ATOM      4  C   UNL A   1      38.599  21.103  25.691  1.00  0.00     0.306 C 
ATOM      5  O   UNL A   1      37.985  20.369  24.917  1.00  0.00    -0.252 OA
BRANCH   4   6
ATOM      6  C   UNL A   1      38.245  22.576  25.798  1.00  0.00     0.128 C 
BRANCH   6   7
ATOM      7  C   UNL A   1      36.773  22.955  25.969  1.00  0.00     0.073 C 
BRANCH   7   8
ATOM      8  C   UNL A   1      35.776  22.624  24.837  1.00  0.00     0.261 C 
BRANCH   8   9
ATOM      9  N   UNL A   1      34.353  22.708  25.188  1.00  0.00    -0.344 N 
ATOM     10  H   UNL A   1      33.933  23.455  24.634  1.00  0.00     0.346 HD
ATOM     11  H   UNL A   1      34.314  22.884  26.192  1.00  0.00     0.346 HD
BRANCH   9  12
ATOM     12  C   UNL A   1      33.581  21.461  24.949  1.00  0.00     0.187 C 
ATOM     13  C   UNL A   1      32.767  21.474  23.644  1.00  0.00     0.093 C 
ATOM     14  C   UNL A   1      34.537  20.240  24.952  1.00  0.00     0.100 C 
ATOM     15  C   UNL A   1      32.123  20.130  23.371  1.00  0.00     0.167 C 
ATOM     16  C   UNL A   1      33.834  18.911  24.564  1.00  0.00     0.078 C 
ATOM     17  O   UNL A   1      33.104  19.104  23.344  1.00  0.00    -0.374 OA
ATOM     18  C   UNL A   1      32.921  18.380  25.686  1.00  0.00     0.064 C 
ATOM     19  C   UNL A   1      34.865  17.796  24.267  1.00  0.00     0.064 C 
ATOM     20  C   UNL A   1      32.309  17.039  25.290  1.00  0.00     0.163 C 
ATOM     21  C   UNL A   1      34.158  16.482  23.935  1.00  0.00     0.163 C 
ATOM     22  O   UNL A   1      33.336  16.081  25.032  1.00  0.00    -0.381 OA
ENDBRANCH   9  12
ENDBRANCH   8   9
ENDBRANCH   7   8
ENDBRANCH   6   7
ENDBRANCH   4   6
ENDBRANCH   3   4
ENDBRANCH   2   3
ENDBRANCH   1   2
BRANCH   1  23
ATOM     23  O   UNL A   1      42.676  21.326  25.364  1.00  0.00    -0.374 OA
BRANCH  23  24
ATOM     24  C   UNL A   1      43.902  21.781  25.948  1.00  0.00     0.202 C 
BRANCH  24  25
ATOM     25  C   UNL A   1      44.771  22.603  24.982  1.00  0.00     0.261 C 
BRANCH  25  26
ATOM     26  O   UNL A   1      44.129  23.831  24.588  1.00  0.00    -0.460 OA
BRANCH  26  27
ATOM     27  C   UNL A   1      44.764  24.955  25.018  1.00  0.00     0.338 C 
ATOM     28  O   UNL A   1      45.802  25.413  24.583  1.00  0.00    -0.246 OA
BRANCH  27  29
ATOM     29  C   UNL A   1      43.897  25.699  25.963  1.00  0.00     0.060 A 
ATOM     30  C   UNL A   1      44.028  27.091  25.959  1.00  0.00     0.016 A 
ATOM     31  C   UNL A   1      42.988  25.098  26.830  1.00  0.00     0.016 A 
ATOM     32  C   UNL A   1      43.314  27.887  26.848  1.00  0.00     0.010 A 
ATOM     33  C   UNL A   1      42.266  25.897  27.732  1.00  0.00     0.010 A 
ATOM     34  C   UNL A   1      42.453  27.294  27.769  1.00  0.00    -0.014 A 
BRANCH  34  35
ATOM     35  C   UNL A   1      41.895  28.121  28.868  1.00  0.00     0.031 A 
ATOM     36  C   UNL A   1      42.712  28.292  30.119  1.00  0.00     0.074 A 
ATOM     37  C   UNL A   1      40.718  28.764  28.743  1.00  0.00     0.049 A 
ATOM     38  N   UNL A   1      42.391  28.870  31.247  1.00  0.00    -0.248 NA
ATOM     39  C   UNL A   1      44.078  27.741  30.091  1.00  0.00     0.031 C 
ATOM     40  C   UNL A   1      39.872  28.761  27.551  1.00  0.00     0.029 A 
ATOM     41  N   UNL A   1      40.022  29.530  29.646  1.00  0.00    -0.354 N 
ATOM     42  C   UNL A   1      43.492  28.706  32.080  1.00  0.00     0.074 A 
ATOM     43  C   UNL A   1      44.494  27.986  31.326  1.00  0.00     0.031 C 
ATOM     44  C   UNL A   1      38.753  29.461  27.807  1.00  0.00     0.029 A 
ATOM     45  C   UNL A   1      38.781  29.917  29.196  1.00  0.00     0.049 A 
ATOM     46  H   UNL A   1      40.376  29.780  30.531  1.00  0.00     0.167 HD
ATOM     47  C   UNL A   1      43.652  29.116  33.360  1.00  0.00     0.034 A 
ATOM     48  C   UNL A   1      37.765  30.522  29.846  1.00  0.00     0.034 A 
ATOM     49  C   UNL A   1      42.668  29.860  34.096  1.00  0.00     0.049 A 
ATOM     50  C   UNL A   1      37.944  30.908  31.293  1.00  0.00     0.074 A 
ATOM     51  C   UNL A   1      42.744  30.333  35.395  1.00  0.00     0.029 A 
ATOM     52  N   UNL A   1      41.427  30.234  33.607  1.00  0.00    -0.354 N 
ATOM     53  N   UNL A   1      39.002  30.785  32.058  1.00  0.00    -0.248 NA
ATOM     54  C   UNL A   1      36.794  31.536  31.963  1.00  0.00     0.031 C 
ATOM     55  C   UNL A   1      41.534  30.959  35.702  1.00  0.00     0.029 A 
ATOM     56  C   UNL A   1      40.721  30.917  34.581  1.00  0.00     0.049 A 
ATOM     57  H   UNL A   1      41.097  30.042  32.699  1.00  0.00     0.167 HD
ATOM     58  C   UNL A   1      38.657  31.351  33.282  1.00  0.00     0.074 A 
ATOM     59  C   UNL A   1      37.301  31.838  33.150  1.00  0.00     0.031 C 
ATOM     60  C   UNL A   1      39.392  31.446  34.419  1.00  0.00     0.034 A 
BRANCH  47  61
ATOM     61  C   UNL A   1      44.934  28.752  34.058  1.00  0.00     0.023 A 
ATOM     62  C   UNL A   1      46.076  29.563  33.913  1.00  0.00     0.012 A 
ATOM     63  C   UNL A   1      44.982  27.630  34.908  1.00  0.00     0.148 A 
ATOM     64  C   UNL A   1      47.256  29.248  34.587  1.00  0.00     0.002 A 
ATOM     65  C   UNL A   1      46.145  27.349  35.612  1.00  0.00     0.091 A 
ATOM     66  F   UNL A   1      43.889  26.859  35.010  1.00  0.00    -0.205 F 
ATOM     67  C   UNL A   1      47.287  28.150  35.444  1.00  0.00     0.022 A 
BRANCH  65  68
ATOM     68  S   UNL A   1      46.259  26.006  36.798  1.00  0.00     0.127 S 
ATOM     69  O   UNL A   1      46.365  24.843  35.917  1.00  0.00    -0.237 OA
ATOM     70  O   UNL A   1      47.488  26.338  37.519  1.00  0.00    -0.237 OA
ATOM     71  O   UNL A   1      45.045  26.069  37.598  1.00  0.00    -0.744 OA
ENDBRANCH  65  68
ENDBRANCH  47  61
BRANCH  48  72
ATOM     72  C   UNL A   1      36.470  30.783  29.151  1.00  0.00     0.023 A 
ATOM     73  C   UNL A   1      35.729  29.710  28.616  1.00  0.00     0.012 A 
ATOM     74  C   UNL A   1      35.982  32.095  28.993  1.00  0.00     0.148 A 
ATOM     75  C   UNL A   1      34.551  29.943  27.905  1.00  0.00     0.002 A 
ATOM     76  C   UNL A   1      34.776  32.315  28.339  1.00  0.00     0.091 A 
ATOM     77  F   UNL A   1      36.712  33.107  29.485  1.00  0.00    -0.205 F 
ATOM     78  C   UNL A   1      34.069  31.243  27.775  1.00  0.00     0.022 A 
BRANCH  76  79
ATOM     79  S   UNL A   1      34.017  33.940  28.244  1.00  0.00     0.127 S 
ATOM     80  O   UNL A   1      34.136  34.407  29.622  1.00  0.00    -0.237 OA
ATOM     81  O   UNL A   1      34.887  34.620  27.283  1.00  0.00    -0.237 OA
ATOM     82  O   UNL A   1      32.661  33.712  27.766  1.00  0.00    -0.744 OA
ENDBRANCH  76  79
ENDBRANCH  48  72
BRANCH  60  83
ATOM     83  C   UNL A   1      38.774  32.149  35.600  1.00  0.00     0.023 A 
ATOM     84  C   UNL A   1      38.679  33.554  35.617  1.00  0.00     0.012 A 
ATOM     85  C   UNL A   1      38.215  31.406  36.659  1.00  0.00     0.148 A 
ATOM     86  C   UNL A   1      38.071  34.210  36.687  1.00  0.00     0.002 A 
ATOM     87  C   UNL A   1      37.565  32.063  37.696  1.00  0.00     0.091 A 
ATOM     88  F   UNL A   1      38.328  30.070  36.633  1.00  0.00    -0.205 F 
ATOM     89  C   UNL A   1      37.504  33.466  37.718  1.00  0.00     0.022 A 
BRANCH  87  90
ATOM     90  S   UNL A   1      36.717  31.185  39.014  1.00  0.00     0.127 S 
ATOM     91  O   UNL A   1      35.518  32.003  39.194  1.00  0.00    -0.237 OA
ATOM     92  O   UNL A   1      36.476  29.875  38.408  1.00  0.00    -0.237 OA
ATOM     93  O   UNL A   1      37.636  31.170  40.144  1.00  0.00    -0.744 OA
ENDBRANCH  87  90
ENDBRANCH  60  83
ENDBRANCH  34  35
ENDBRANCH  27  29
ENDBRANCH  26  27
ENDBRANCH  25  26
ENDBRANCH  24  25
ENDBRANCH  23  24
ENDBRANCH   1  23
TORSDOF 21
ENDMDL
MODEL 3
REMARK VINA RESULT:      -9.7      1.735      2.472
REMARK SMILES O=C(CCC[NH2+][C@H]1CCOC2(CCOCC2)C1)OCCOCCOC(=O)c1ccc(-c2c3nc(c(-c4cccc(S(=O)(=O)[O-])c4F)c4ccc([nH]4)c(-c4cccc(S(=O)(=O)[O-])c4F)c4nc(c(-c5cccc(S(=O)(=O)[O-])c5F)c5ccc2[nH]5)C=C4)C=C3)cc1
REMARK SMILES IDX 20 1 19 2 18 3 2 4 1 5 3 6 4 7 5 8 6 9 7 12 8 13 17 14 9 15
REMARK SMILES IDX 11 16 10 17 12 18 16 19 13 20 15 21 14 22 21 23 22 24 23 25
REMARK SMILES IDX 24 26 25 27 26 28 27 29 28 30 89 31 29 32 88 33 30 34 31 35
REMARK SMILES IDX 32 36 82 37 33 38 87 39 81 40 83 41 34 42 86 43 80 44 79 45
REMARK SMILES IDX 35 47 67 48 47 49 66 50 48 51 51 52 65 53 84 54 49 55 50 56
REMARK SMILES IDX 64 58 85 59 52 60 36 61 37 62 45 63 38 64 40 65 46 66 39 67
REMARK SMILES IDX 41 68 42 69 43 70 44 71 68 72 69 73 77 74 70 75 72 76 78 77
REMARK SMILES IDX 71 78 73 79 74 80 75 81 76 82 53 83 54 84 62 85 55 86 57 87
REMARK SMILES IDX 63 88 56 89 58 90 59 91 60 92 61 93
REMARK H PARENT 6 10 6 11 83 46 51 57
REMARK Flexibility Score: inf
ROOT
ATOM      1  C   UNL A   1      35.525  33.951  29.180  1.00  0.00     0.202 C 
ENDROOT
BRANCH   1   2
ATOM      2  C   UNL A   1      35.617  32.866  28.122  1.00  0.00     0.261 C 
BRANCH   2   3
ATOM      3  O   UNL A   1      34.928  31.666  28.475  1.00  0.00    -0.463 OA
BRANCH   3   4
ATOM      4  C   UNL A   1      35.129  30.511  27.800  1.00  0.00     0.306 C 
ATOM      5  O   UNL A   1      36.277  30.145  27.548  1.00  0.00    -0.252 OA
BRANCH   4   6
ATOM      6  C   UNL A   1      33.939  29.756  27.233  1.00  0.00     0.128 C 
BRANCH   6   7
ATOM      7  C   UNL A   1      32.730  30.565  26.761  1.00  0.00     0.073 C 
BRANCH   7   8
ATOM      8  C   UNL A   1      31.696  29.896  25.828  1.00  0.00     0.261 C 
BRANCH   8   9
ATOM      9  N   UNL A   1      32.149  29.621  24.459  1.00  0.00    -0.344 N 
ATOM     10  H   UNL A   1      33.087  30.008  24.351  1.00  0.00     0.346 HD
ATOM     11  H   UNL A   1      31.465  30.050  23.837  1.00  0.00     0.346 HD
BRANCH   9  12
ATOM     12  C   UNL A   1      32.199  28.180  24.101  1.00  0.00     0.187 C 
ATOM     13  C   UNL A   1      33.598  27.685  23.700  1.00  0.00     0.093 C 
ATOM     14  C   UNL A   1      31.665  27.324  25.279  1.00  0.00     0.100 C 
ATOM     15  C   UNL A   1      33.626  26.184  23.493  1.00  0.00     0.167 C 
ATOM     16  C   UNL A   1      31.816  25.797  25.046  1.00  0.00     0.078 C 
ATOM     17  O   UNL A   1      33.168  25.513  24.657  1.00  0.00    -0.374 OA
ATOM     18  C   UNL A   1      30.809  25.258  24.011  1.00  0.00     0.064 C 
ATOM     19  C   UNL A   1      31.577  25.003  26.352  1.00  0.00     0.064 C 
ATOM     20  C   UNL A   1      30.946  23.744  23.868  1.00  0.00     0.163 C 
ATOM     21  C   UNL A   1      31.681  23.499  26.096  1.00  0.00     0.163 C 
ATOM     22  O   UNL A   1      30.715  23.104  25.123  1.00  0.00    -0.381 OA
ENDBRANCH   9  12
ENDBRANCH   8   9
ENDBRANCH   7   8
ENDBRANCH   6   7
ENDBRANCH   4   6
ENDBRANCH   3   4
ENDBRANCH   2   3
ENDBRANCH   1   2
BRANCH   1  23
ATOM     23  O   UNL A   1      34.873  35.144  28.753  1.00  0.00    -0.374 OA
BRANCH  23  24
ATOM     24  C   UNL A   1      33.446  35.020  28.724  1.00  0.00     0.202 C 
BRANCH  24  25
ATOM     25  C   UNL A   1      32.717  36.180  29.421  1.00  0.00     0.261 C 
BRANCH  25  26
ATOM     26  O   UNL A   1      33.302  36.497  30.699  1.00  0.00    -0.460 OA
BRANCH  26  27
ATOM     27  C   UNL A   1      32.759  35.815  31.744  1.00  0.00     0.338 C 
ATOM     28  O   UNL A   1      31.577  35.693  31.994  1.00  0.00    -0.246 OA
BRANCH  27  29
ATOM     29  C   UNL A   1      33.808  35.029  32.438  1.00  0.00     0.060 A 
ATOM     30  C   UNL A   1      35.100  35.563  32.414  1.00  0.00     0.016 A 
ATOM     31  C   UNL A   1      33.576  33.821  33.091  1.00  0.00     0.016 A 
ATOM     32  C   UNL A   1      36.173  34.881  32.976  1.00  0.00     0.010 A 
ATOM     33  C   UNL A   1      34.658  33.127  33.657  1.00  0.00     0.010 A 
ATOM     34  C   UNL A   1      35.969  33.637  33.571  1.00  0.00    -0.014 A 
BRANCH  34  35
ATOM     35  C   UNL A   1      37.147  32.812  33.937  1.00  0.00     0.031 A 
ATOM     36  C   UNL A   1      37.890  33.146  35.202  1.00  0.00     0.074 A 
ATOM     37  C   UNL A   1      37.520  31.747  33.202  1.00  0.00     0.049 A 
ATOM     38  N   UNL A   1      39.003  32.645  35.667  1.00  0.00    -0.248 NA
ATOM     39  C   UNL A   1      37.290  34.183  36.059  1.00  0.00     0.031 C 
ATOM     40  C   UNL A   1      36.833  31.256  32.009  1.00  0.00     0.029 A 
ATOM     41  N   UNL A   1      38.589  30.895  33.348  1.00  0.00    -0.354 N 
ATOM     42  C   UNL A   1      39.267  33.340  36.841  1.00  0.00     0.074 A 
ATOM     43  C   UNL A   1      38.192  34.290  37.025  1.00  0.00     0.031 C 
ATOM     44  C   UNL A   1      37.517  30.211  31.509  1.00  0.00     0.029 A 
ATOM     45  C   UNL A   1      38.716  29.994  32.316  1.00  0.00     0.049 A 
ATOM     46  H   UNL A   1      39.205  30.927  34.116  1.00  0.00     0.167 HD
ATOM     47  C   UNL A   1      40.312  33.202  37.690  1.00  0.00     0.034 A 
ATOM     48  C   UNL A   1      39.711  29.129  32.030  1.00  0.00     0.034 A 
ATOM     49  C   UNL A   1      41.362  32.235  37.523  1.00  0.00     0.049 A 
ATOM     50  C   UNL A   1      40.899  29.043  32.955  1.00  0.00     0.074 A 
ATOM     51  C   UNL A   1      42.458  32.009  38.337  1.00  0.00     0.029 A 
ATOM     52  N   UNL A   1      41.455  31.340  36.470  1.00  0.00    -0.354 N 
ATOM     53  N   UNL A   1      41.119  29.674  34.083  1.00  0.00    -0.248 NA
ATOM     54  C   UNL A   1      41.971  28.107  32.578  1.00  0.00     0.031 C 
ATOM     55  C   UNL A   1      43.233  31.003  37.755  1.00  0.00     0.029 A 
ATOM     56  C   UNL A   1      42.597  30.570  36.603  1.00  0.00     0.049 A 
ATOM     57  H   UNL A   1      40.803  31.262  35.735  1.00  0.00     0.167 HD
ATOM     58  C   UNL A   1      42.330  29.187  34.566  1.00  0.00     0.074 A 
ATOM     59  C   UNL A   1      42.786  28.191  33.620  1.00  0.00     0.031 C 
ATOM     60  C   UNL A   1      43.011  29.543  35.684  1.00  0.00     0.034 A 
BRANCH  47  61
ATOM     61  C   UNL A   1      40.386  34.132  38.869  1.00  0.00     0.023 A 
ATOM     62  C   UNL A   1      41.259  35.237  38.849  1.00  0.00     0.012 A 
ATOM     63  C   UNL A   1      39.540  33.937  39.977  1.00  0.00     0.148 A 
ATOM     64  C   UNL A   1      41.305  36.122  39.926  1.00  0.00     0.002 A 
ATOM     65  C   UNL A   1      39.557  34.848  41.025  1.00  0.00     0.091 A 
ATOM     66  F   UNL A   1      38.735  32.865  39.985  1.00  0.00    -0.205 F 
ATOM     67  C   UNL A   1      40.447  35.934  41.007  1.00  0.00     0.022 A 
BRANCH  65  68
ATOM     68  S   UNL A   1      38.436  34.737  42.423  1.00  0.00     0.127 S 
ATOM     69  O   UNL A   1      38.842  33.468  43.027  1.00  0.00    -0.237 OA
ATOM     70  O   UNL A   1      38.795  35.924  43.199  1.00  0.00    -0.237 OA
ATOM     71  O   UNL A   1      37.091  34.755  41.866  1.00  0.00    -0.744 OA
ENDBRANCH  65  68
ENDBRANCH  47  61
BRANCH  48  72
ATOM     72  C   UNL A   1      39.652  28.288  30.798  1.00  0.00     0.023 A 
ATOM     73  C   UNL A   1      38.965  27.058  30.817  1.00  0.00     0.012 A 
ATOM     74  C   UNL A   1      40.299  28.691  29.613  1.00  0.00     0.148 A 
ATOM     75  C   UNL A   1      38.958  26.230  29.693  1.00  0.00     0.002 A 
ATOM     76  C   UNL A   1      40.235  27.891  28.478  1.00  0.00     0.091 A 
ATOM     77  F   UNL A   1      40.970  29.852  29.618  1.00  0.00    -0.205 F 
ATOM     78  C   UNL A   1      39.583  26.650  28.522  1.00  0.00     0.022 A 
BRANCH  76  79
ATOM     79  S   UNL A   1      40.896  28.417  26.894  1.00  0.00     0.127 S 
ATOM     80  O   UNL A   1      40.963  27.155  26.163  1.00  0.00    -0.237 OA
ATOM     81  O   UNL A   1      39.862  29.345  26.432  1.00  0.00    -0.237 OA
ATOM     82  O   UNL A   1      42.175  29.047  27.192  1.00  0.00    -0.744 OA
ENDBRANCH  76  79
ENDBRANCH  48  72
BRANCH  60  83
ATOM     83  C   UNL A   1      44.298  28.818  35.984  1.00  0.00     0.023 A 
ATOM     84  C   UNL A   1      45.531  29.372  35.590  1.00  0.00     0.012 A 
ATOM     85  C   UNL A   1      44.284  27.621  36.729  1.00  0.00     0.148 A 
ATOM     86  C   UNL A   1      46.728  28.729  35.901  1.00  0.00     0.002 A 
ATOM     87  C   UNL A   1      45.483  27.013  37.080  1.00  0.00     0.091 A 
ATOM     88  F   UNL A   1      43.100  27.100  37.082  1.00  0.00    -0.205 F 
ATOM     89  C   UNL A   1      46.706  27.558  36.655  1.00  0.00     0.022 A 
BRANCH  87  90
ATOM     90  S   UNL A   1      45.556  25.560  38.134  1.00  0.00     0.127 S 
ATOM     91  O   UNL A   1      45.146  26.108  39.426  1.00  0.00    -0.237 OA
ATOM     92  O   UNL A   1      44.574  24.674  37.507  1.00  0.00    -0.237 OA
ATOM     93  O   UNL A   1      46.931  25.083  38.068  1.00  0.00    -0.744 OA
ENDBRANCH  87  90
ENDBRANCH  60  83
ENDBRANCH  34  35
ENDBRANCH  27  29
ENDBRANCH  26  27
ENDBRANCH  25  26
ENDBRANCH  24  25
ENDBRANCH  23  24
ENDBRANCH   1  23
TORSDOF 21
ENDMDL
