MODEL 1
REMARK VINA RESULT:     -11.2      0.000      0.000
REMARK SMILES O=C(OCCOCCOC(=O)c1ccccc1Nc1cccc(C(F)(F)F)c1)c1ccc(-c2c3nc(c(-c4cccc(S(=O)(=O)[O-])c4F)c4ccc([nH]4)c(-c4cccc(S(=O)(=O)[O-])c4F)c4nc(c(-c5cccc(S(=O)(=O)[O-])c5F)c5ccc2[nH]5)C=C4)C=C3)cc1
REMARK SMILES IDX 6 1 5 2 4 3 3 4 2 5 1 6 29 7 30 8 91 9 31 10 90 11 32 12
REMARK SMILES IDX 33 13 34 14 84 15 35 16 89 17 83 18 85 19 36 20 88 21 82 22
REMARK SMILES IDX 81 23 37 25 69 26 49 27 68 28 50 29 53 30 67 31 86 32 51 33
REMARK SMILES IDX 52 34 66 36 87 37 54 38 38 39 39 40 47 41 40 42 42 43 48 44
REMARK SMILES IDX 41 45 43 46 44 47 45 48 46 49 70 50 71 51 79 52 72 53 74 54
REMARK SMILES IDX 80 55 73 56 75 57 76 58 77 59 78 60 55 61 56 62 64 63 57 64
REMARK SMILES IDX 59 65 65 66 58 67 60 68 61 69 62 70 63 71 7 72 8 73 9 74
REMARK SMILES IDX 10 75 11 76 12 77 13 78 17 79 14 80 16 81 15 82 18 83 19 85
REMARK SMILES IDX 20 86 28 87 21 88 23 89 22 90 24 91 25 92 26 93 27 94
REMARK H PARENT 85 24 53 35 18 84
REMARK Flexibility Score: inf
ROOT
ATOM      1  O   UNL A   1      33.004  30.732  26.554  1.00  0.00    -0.374 OA
ENDROOT
BRANCH   1   2
ATOM      2  C   UNL A   1      31.745  31.393  26.477  1.00  0.00     0.202 C 
BRANCH   2   3
ATOM      3  C   UNL A   1      31.733  32.784  27.113  1.00  0.00     0.261 C 
BRANCH   3   4
ATOM      4  O   UNL A   1      33.023  33.397  26.980  1.00  0.00    -0.460 OA
BRANCH   4   5
ATOM      5  C   UNL A   1      33.834  33.866  27.956  1.00  0.00     0.338 C 
ATOM      6  O   UNL A   1      33.676  35.028  28.328  1.00  0.00    -0.246 OA
BRANCH   5   7
ATOM      7  C   UNL A   1      34.911  33.061  28.612  1.00  0.00     0.060 A 
ATOM      8  C   UNL A   1      34.710  31.917  29.392  1.00  0.00     0.016 A 
ATOM      9  C   UNL A   1      36.235  33.433  28.326  1.00  0.00     0.016 A 
ATOM     10  C   UNL A   1      35.763  31.158  29.870  1.00  0.00     0.010 A 
ATOM     11  C   UNL A   1      37.307  32.681  28.806  1.00  0.00     0.010 A 
ATOM     12  C   UNL A   1      37.062  31.544  29.584  1.00  0.00    -0.014 A 
BRANCH  12  13
ATOM     13  C   UNL A   1      38.147  30.818  30.246  1.00  0.00     0.031 A 
ATOM     14  C   UNL A   1      38.439  31.168  31.665  1.00  0.00     0.074 A 
ATOM     15  C   UNL A   1      38.781  29.830  29.596  1.00  0.00     0.049 A 
ATOM     16  N   UNL A   1      39.414  30.769  32.429  1.00  0.00    -0.248 NA
ATOM     17  C   UNL A   1      37.495  32.094  32.316  1.00  0.00     0.031 C 
ATOM     18  C   UNL A   1      38.452  29.365  28.248  1.00  0.00     0.029 A 
ATOM     19  N   UNL A   1      39.842  29.056  29.973  1.00  0.00    -0.354 N 
ATOM     20  C   UNL A   1      39.246  31.451  33.625  1.00  0.00     0.074 A 
ATOM     21  C   UNL A   1      38.056  32.260  33.502  1.00  0.00     0.031 C 
ATOM     22  C   UNL A   1      39.327  28.411  27.891  1.00  0.00     0.029 A 
ATOM     23  C   UNL A   1      40.309  28.255  28.959  1.00  0.00     0.049 A 
ATOM     24  H   UNL A   1      40.231  29.070  30.878  1.00  0.00     0.167 HD
ATOM     25  C   UNL A   1      40.043  31.414  34.715  1.00  0.00     0.034 A 
ATOM     26  C   UNL A   1      41.444  27.537  28.889  1.00  0.00     0.034 A 
ATOM     27  C   UNL A   1      41.223  30.600  34.780  1.00  0.00     0.049 A 
ATOM     28  C   UNL A   1      42.347  27.548  30.092  1.00  0.00     0.074 A 
ATOM     29  C   UNL A   1      42.135  30.478  35.806  1.00  0.00     0.029 A 
ATOM     30  N   UNL A   1      41.659  29.778  33.746  1.00  0.00    -0.354 N 
ATOM     31  N   UNL A   1      42.188  28.181  31.232  1.00  0.00    -0.248 NA
ATOM     32  C   UNL A   1      43.572  26.743  30.018  1.00  0.00     0.031 C 
ATOM     33  C   UNL A   1      43.147  29.612  35.377  1.00  0.00     0.029 A 
ATOM     34  C   UNL A   1      42.837  29.156  34.102  1.00  0.00     0.049 A 
ATOM     35  H   UNL A   1      41.195  29.659  32.886  1.00  0.00     0.167 HD
ATOM     36  C   UNL A   1      43.270  27.829  32.025  1.00  0.00     0.074 A 
ATOM     37  C   UNL A   1      44.079  26.920  31.232  1.00  0.00     0.031 C 
ATOM     38  C   UNL A   1      43.576  28.219  33.287  1.00  0.00     0.034 A 
BRANCH  25  39
ATOM     39  C   UNL A   1      39.687  32.334  35.849  1.00  0.00     0.023 A 
ATOM     40  C   UNL A   1      38.852  31.893  36.898  1.00  0.00     0.012 A 
ATOM     41  C   UNL A   1      40.132  33.671  35.838  1.00  0.00     0.148 A 
ATOM     42  C   UNL A   1      38.418  32.783  37.881  1.00  0.00     0.002 A 
ATOM     43  C   UNL A   1      39.736  34.538  36.849  1.00  0.00     0.091 A 
ATOM     44  F   UNL A   1      40.896  34.083  34.817  1.00  0.00    -0.205 F 
ATOM     45  C   UNL A   1      38.864  34.102  37.859  1.00  0.00     0.022 A 
BRANCH  43  46
ATOM     46  S   UNL A   1      40.309  36.236  36.939  1.00  0.00     0.127 S 
ATOM     47  O   UNL A   1      39.834  36.778  35.667  1.00  0.00    -0.237 OA
ATOM     48  O   UNL A   1      39.600  36.737  38.117  1.00  0.00    -0.237 OA
ATOM     49  O   UNL A   1      41.756  36.164  37.088  1.00  0.00    -0.744 OA
ENDBRANCH  43  46
ENDBRANCH  25  39
BRANCH  26  50
ATOM     50  C   UNL A   1      41.775  26.800  27.638  1.00  0.00     0.023 A 
ATOM     51  C   UNL A   1      42.357  27.480  26.553  1.00  0.00     0.012 A 
ATOM     52  C   UNL A   1      41.591  25.403  27.554  1.00  0.00     0.148 A 
ATOM     53  C   UNL A   1      42.740  26.785  25.403  1.00  0.00     0.002 A 
ATOM     54  C   UNL A   1      42.024  24.710  26.431  1.00  0.00     0.091 A 
ATOM     55  F   UNL A   1      41.025  24.775  28.595  1.00  0.00    -0.205 F 
ATOM     56  C   UNL A   1      42.587  25.401  25.347  1.00  0.00     0.022 A 
BRANCH  54  57
ATOM     57  S   UNL A   1      41.991  22.917  26.326  1.00  0.00     0.127 S 
ATOM     58  O   UNL A   1      40.557  22.640  26.376  1.00  0.00    -0.237 OA
ATOM     59  O   UNL A   1      42.619  22.680  25.026  1.00  0.00    -0.237 OA
ATOM     60  O   UNL A   1      42.763  22.437  27.464  1.00  0.00    -0.744 OA
ENDBRANCH  54  57
ENDBRANCH  26  50
BRANCH  38  61
ATOM     61  C   UNL A   1      44.802  27.624  33.920  1.00  0.00     0.023 A 
ATOM     62  C   UNL A   1      46.029  28.309  33.861  1.00  0.00     0.012 A 
ATOM     63  C   UNL A   1      44.683  26.460  34.703  1.00  0.00     0.148 A 
ATOM     64  C   UNL A   1      47.128  27.836  34.573  1.00  0.00     0.002 A 
ATOM     65  C   UNL A   1      45.765  26.028  35.454  1.00  0.00     0.091 A 
ATOM     66  F   UNL A   1      43.504  25.822  34.724  1.00  0.00    -0.205 F 
ATOM     67  C   UNL A   1      46.992  26.708  35.382  1.00  0.00     0.022 A 
BRANCH  65  68
ATOM     68  S   UNL A   1      45.644  24.663  36.613  1.00  0.00     0.127 S 
ATOM     69  O   UNL A   1      46.289  23.583  35.869  1.00  0.00    -0.237 OA
ATOM     70  O   UNL A   1      46.413  25.162  37.754  1.00  0.00    -0.237 OA
ATOM     71  O   UNL A   1      44.223  24.476  36.873  1.00  0.00    -0.744 OA
ENDBRANCH  65  68
ENDBRANCH  38  61
ENDBRANCH  12  13
ENDBRANCH   5   7
ENDBRANCH   4   5
ENDBRANCH   3   4
ENDBRANCH   2   3
ENDBRANCH   1   2
BRANCH   1  72
ATOM     72  C   UNL A   1      33.054  29.518  27.310  1.00  0.00     0.202 C 
BRANCH  72  73
ATOM     73  C   UNL A   1      33.455  28.383  26.369  1.00  0.00     0.261 C 
BRANCH  73  74
ATOM     74  O   UNL A   1      32.278  27.976  25.652  1.00  0.00    -0.460 OA
BRANCH  74  75
ATOM     75  C   UNL A   1      31.480  27.076  26.295  1.00  0.00     0.340 C 
ATOM     76  O   UNL A   1      30.930  27.227  27.363  1.00  0.00    -0.246 OA
BRANCH  75  77
ATOM     77  C   UNL A   1      31.248  25.908  25.392  1.00  0.00     0.083 A 
ATOM     78  C   UNL A   1      31.454  24.641  25.968  1.00  0.00     0.018 A 
ATOM     79  C   UNL A   1      30.826  26.036  24.046  1.00  0.00     0.053 A 
ATOM     80  C   UNL A   1      31.248  23.486  25.220  1.00  0.00     0.001 A 
ATOM     81  C   UNL A   1      30.686  24.854  23.304  1.00  0.00     0.027 A 
ATOM     82  C   UNL A   1      30.878  23.595  23.885  1.00  0.00     0.002 A 
BRANCH  79  83
ATOM     83  N   UNL A   1      30.646  27.312  23.476  1.00  0.00    -0.355 N 
ATOM     84  H   UNL A   1      31.478  27.664  23.083  1.00  0.00     0.167 HD
BRANCH  83  85
ATOM     85  C   UNL A   1      29.578  28.201  23.332  1.00  0.00     0.039 A 
ATOM     86  C   UNL A   1      28.285  27.657  23.329  1.00  0.00     0.026 A 
ATOM     87  C   UNL A   1      29.718  29.585  23.251  1.00  0.00     0.039 A 
ATOM     88  C   UNL A   1      27.158  28.472  23.286  1.00  0.00     0.003 A 
ATOM     89  C   UNL A   1      28.593  30.424  23.200  1.00  0.00     0.058 A 
ATOM     90  C   UNL A   1      27.311  29.853  23.233  1.00  0.00     0.013 A 
BRANCH  89  91
ATOM     91  C   UNL A   1      28.748  31.921  23.145  1.00  0.00     0.416 C 
ATOM     92  F   UNL A   1      29.491  32.412  24.175  1.00  0.00    -0.166 F 
ATOM     93  F   UNL A   1      29.375  32.333  22.007  1.00  0.00    -0.166 F 
ATOM     94  F   UNL A   1      27.567  32.599  23.181  1.00  0.00    -0.166 F 
ENDBRANCH  89  91
ENDBRANCH  83  85
ENDBRANCH  79  83
ENDBRANCH  75  77
ENDBRANCH  74  75
ENDBRANCH  73  74
ENDBRANCH  72  73
ENDBRANCH   1  72
TORSDOF 20
ENDMDL
MODEL 2
REMARK VINA RESULT:     -11.1      2.187      7.766
REMARK SMILES O=C(OCCOCCOC(=O)c1ccccc1Nc1cccc(C(F)(F)F)c1)c1ccc(-c2c3nc(c(-c4cccc(S(=O)(=O)[O-])c4F)c4ccc([nH]4)c(-c4cccc(S(=O)(=O)[O-])c4F)c4nc(c(-c5cccc(S(=O)(=O)[O-])c5F)c5ccc2[nH]5)C=C4)C=C3)cc1
REMARK SMILES IDX 6 1 5 2 4 3 3 4 2 5 1 6 29 7 30 8 91 9 31 10 90 11 32 12
REMARK SMILES IDX 33 13 34 14 84 15 35 16 89 17 83 18 85 19 36 20 88 21 82 22
REMARK SMILES IDX 81 23 37 25 69 26 49 27 68 28 50 29 53 30 67 31 86 32 51 33
REMARK SMILES IDX 52 34 66 36 87 37 54 38 38 39 39 40 47 41 40 42 42 43 48 44
REMARK SMILES IDX 41 45 43 46 44 47 45 48 46 49 70 50 71 51 79 52 72 53 74 54
REMARK SMILES IDX 80 55 73 56 75 57 76 58 77 59 78 60 55 61 56 62 64 63 57 64
REMARK SMILES IDX 59 65 65 66 58 67 60 68 61 69 62 70 63 71 7 72 8 73 9 74
REMARK SMILES IDX 10 75 11 76 12 77 13 78 17 79 14 80 16 81 15 82 18 83 19 85
REMARK SMILES IDX 20 86 28 87 21 88 23 89 22 90 24 91 25 92 26 93 27 94
REMARK H PARENT 85 24 53 35 18 84
REMARK Flexibility Score: inf
ROOT
ATOM      1  O   UNL A   1      33.171  30.875  26.534  1.00  0.00    -0.374 OA
ENDROOT
BRANCH   1   2
ATOM      2  C   UNL A   1      31.894  31.312  26.988  1.00  0.00     0.202 C 
BRANCH   2   3
ATOM      3  C   UNL A   1      31.710  32.830  26.958  1.00  0.00     0.261 C 
BRANCH   3   4
ATOM      4  O   UNL A   1      32.945  33.483  27.284  1.00  0.00    -0.460 OA
BRANCH   4   5
ATOM      5  C   UNL A   1      33.348  33.969  28.480  1.00  0.00     0.338 C 
ATOM      6  O   UNL A   1      32.635  34.808  29.030  1.00  0.00    -0.246 OA
BRANCH   5   7
ATOM      7  C   UNL A   1      34.604  33.552  29.177  1.00  0.00     0.060 A 
ATOM      8  C   UNL A   1      35.859  34.147  29.014  1.00  0.00     0.016 A 
ATOM      9  C   UNL A   1      34.477  32.550  30.152  1.00  0.00     0.016 A 
ATOM     10  C   UNL A   1      36.952  33.783  29.780  1.00  0.00     0.010 A 
ATOM     11  C   UNL A   1      35.572  32.167  30.929  1.00  0.00     0.010 A 
ATOM     12  C   UNL A   1      36.810  32.787  30.733  1.00  0.00    -0.014 A 
BRANCH  12  13
ATOM     13  C   UNL A   1      38.022  32.311  31.402  1.00  0.00     0.031 A 
ATOM     14  C   UNL A   1      38.809  31.246  30.719  1.00  0.00     0.074 A 
ATOM     15  C   UNL A   1      38.420  32.887  32.547  1.00  0.00     0.049 A 
ATOM     16  N   UNL A   1      39.835  30.573  31.151  1.00  0.00    -0.248 NA
ATOM     17  C   UNL A   1      38.381  30.894  29.353  1.00  0.00     0.031 C 
ATOM     18  C   UNL A   1      37.753  34.017  33.195  1.00  0.00     0.029 A 
ATOM     19  N   UNL A   1      39.466  32.590  33.374  1.00  0.00    -0.354 N 
ATOM     20  C   UNL A   1      40.130  29.667  30.143  1.00  0.00     0.074 A 
ATOM     21  C   UNL A   1      39.202  29.899  29.062  1.00  0.00     0.031 C 
ATOM     22  C   UNL A   1      38.383  34.290  34.349  1.00  0.00     0.029 A 
ATOM     23  C   UNL A   1      39.447  33.313  34.543  1.00  0.00     0.049 A 
ATOM     24  H   UNL A   1      40.161  31.927  33.155  1.00  0.00     0.167 HD
ATOM     25  C   UNL A   1      41.084  28.710  30.147  1.00  0.00     0.034 A 
ATOM     26  C   UNL A   1      40.170  33.143  35.665  1.00  0.00     0.034 A 
ATOM     27  C   UNL A   1      41.974  28.514  31.255  1.00  0.00     0.049 A 
ATOM     28  C   UNL A   1      41.192  32.039  35.673  1.00  0.00     0.074 A 
ATOM     29  C   UNL A   1      42.971  27.574  31.409  1.00  0.00     0.029 A 
ATOM     30  N   UNL A   1      41.950  29.277  32.418  1.00  0.00    -0.354 N 
ATOM     31  N   UNL A   1      41.485  31.186  34.718  1.00  0.00    -0.248 NA
ATOM     32  C   UNL A   1      41.992  31.876  36.891  1.00  0.00     0.031 C 
ATOM     33  C   UNL A   1      43.523  27.743  32.684  1.00  0.00     0.029 A 
ATOM     34  C   UNL A   1      42.904  28.821  33.303  1.00  0.00     0.049 A 
ATOM     35  H   UNL A   1      41.340  30.032  32.584  1.00  0.00     0.167 HD
ATOM     36  C   UNL A   1      42.524  30.405  35.202  1.00  0.00     0.074 A 
ATOM     37  C   UNL A   1      42.812  30.893  36.540  1.00  0.00     0.031 C 
ATOM     38  C   UNL A   1      43.180  29.379  34.607  1.00  0.00     0.034 A 
BRANCH  25  39
ATOM     39  C   UNL A   1      41.127  27.787  28.961  1.00  0.00     0.023 A 
ATOM     40  C   UNL A   1      40.329  26.624  28.928  1.00  0.00     0.012 A 
ATOM     41  C   UNL A   1      42.017  28.044  27.900  1.00  0.00     0.148 A 
ATOM     42  C   UNL A   1      40.462  25.702  27.888  1.00  0.00     0.002 A 
ATOM     43  C   UNL A   1      42.107  27.147  26.843  1.00  0.00     0.091 A 
ATOM     44  F   UNL A   1      42.792  29.136  27.964  1.00  0.00    -0.205 F 
ATOM     45  C   UNL A   1      41.346  25.966  26.845  1.00  0.00     0.022 A 
BRANCH  43  46
ATOM     46  S   UNL A   1      43.170  27.433  25.426  1.00  0.00     0.127 S 
ATOM     47  O   UNL A   1      43.400  26.070  24.948  1.00  0.00    -0.237 OA
ATOM     48  O   UNL A   1      42.315  28.245  24.560  1.00  0.00    -0.237 OA
ATOM     49  O   UNL A   1      44.345  28.124  25.939  1.00  0.00    -0.744 OA
ENDBRANCH  43  46
ENDBRANCH  25  39
BRANCH  26  50
ATOM     50  C   UNL A   1      39.914  34.015  36.845  1.00  0.00     0.023 A 
ATOM     51  C   UNL A   1      40.202  35.390  36.778  1.00  0.00     0.012 A 
ATOM     52  C   UNL A   1      39.304  33.497  38.007  1.00  0.00     0.148 A 
ATOM     53  C   UNL A   1      39.897  36.232  37.852  1.00  0.00     0.002 A 
ATOM     54  C   UNL A   1      38.952  34.348  39.047  1.00  0.00     0.091 A 
ATOM     55  F   UNL A   1      39.046  32.182  38.054  1.00  0.00    -0.205 F 
ATOM     56  C   UNL A   1      39.261  35.715  38.978  1.00  0.00     0.022 A 
BRANCH  54  57
ATOM     57  S   UNL A   1      38.011  33.795  40.475  1.00  0.00     0.127 S 
ATOM     58  O   UNL A   1      37.726  35.057  41.152  1.00  0.00    -0.237 OA
ATOM     59  O   UNL A   1      36.854  33.158  39.844  1.00  0.00    -0.237 OA
ATOM     60  O   UNL A   1      38.884  32.879  41.196  1.00  0.00    -0.744 OA
ENDBRANCH  54  57
ENDBRANCH  26  50
BRANCH  38  61
ATOM     61  C   UNL A   1      44.314  28.747  35.363  1.00  0.00     0.023 A 
ATOM     62  C   UNL A   1      45.594  29.330  35.331  1.00  0.00     0.012 A 
ATOM     63  C   UNL A   1      44.056  27.665  36.226  1.00  0.00     0.148 A 
ATOM     64  C   UNL A   1      46.608  28.836  36.149  1.00  0.00     0.002 A 
ATOM     65  C   UNL A   1      45.054  27.217  37.077  1.00  0.00     0.091 A 
ATOM     66  F   UNL A   1      42.830  27.122  36.219  1.00  0.00    -0.205 F 
ATOM     67  C   UNL A   1      46.333  27.794  37.033  1.00  0.00     0.022 A 
BRANCH  65  68
ATOM     68  S   UNL A   1      44.754  25.967  38.330  1.00  0.00     0.127 S 
ATOM     69  O   UNL A   1      46.116  25.582  38.698  1.00  0.00    -0.237 OA
ATOM     70  O   UNL A   1      44.036  26.726  39.355  1.00  0.00    -0.237 OA
ATOM     71  O   UNL A   1      43.968  24.924  37.685  1.00  0.00    -0.744 OA
ENDBRANCH  65  68
ENDBRANCH  38  61
ENDBRANCH  12  13
ENDBRANCH   5   7
ENDBRANCH   4   5
ENDBRANCH   3   4
ENDBRANCH   2   3
ENDBRANCH   1   2
BRANCH   1  72
ATOM     72  C   UNL A   1      33.988  30.172  27.475  1.00  0.00     0.202 C 
BRANCH  72  73
ATOM     73  C   UNL A   1      34.657  29.004  26.751  1.00  0.00     0.261 C 
BRANCH  73  74
ATOM     74  O   UNL A   1      33.738  28.525  25.755  1.00  0.00    -0.460 OA
BRANCH  74  75
ATOM     75  C   UNL A   1      33.103  27.356  26.054  1.00  0.00     0.340 C 
ATOM     76  O   UNL A   1      32.229  27.194  26.876  1.00  0.00    -0.246 OA
BRANCH  75  77
ATOM     77  C   UNL A   1      33.544  26.308  25.083  1.00  0.00     0.083 A 
ATOM     78  C   UNL A   1      34.364  25.294  25.611  1.00  0.00     0.018 A 
ATOM     79  C   UNL A   1      33.160  26.297  23.721  1.00  0.00     0.053 A 
ATOM     80  C   UNL A   1      34.816  24.260  24.798  1.00  0.00     0.001 A 
ATOM     81  C   UNL A   1      33.681  25.274  22.916  1.00  0.00     0.027 A 
ATOM     82  C   UNL A   1      34.484  24.258  23.448  1.00  0.00     0.002 A 
BRANCH  79  83
ATOM     83  N   UNL A   1      32.356  27.333  23.201  1.00  0.00    -0.355 N 
ATOM     84  H   UNL A   1      32.894  28.051  22.796  1.00  0.00     0.167 HD
BRANCH  83  85
ATOM     85  C   UNL A   1      30.986  27.590  23.120  1.00  0.00     0.039 A 
ATOM     86  C   UNL A   1      30.120  26.636  23.675  1.00  0.00     0.026 A 
ATOM     87  C   UNL A   1      30.438  28.752  22.579  1.00  0.00     0.039 A 
ATOM     88  C   UNL A   1      28.745  26.852  23.726  1.00  0.00     0.003 A 
ATOM     89  C   UNL A   1      29.054  28.984  22.616  1.00  0.00     0.058 A 
ATOM     90  C   UNL A   1      28.215  28.028  23.208  1.00  0.00     0.013 A 
BRANCH  89  91
ATOM     91  C   UNL A   1      28.470  30.255  22.059  1.00  0.00     0.416 C 
ATOM     92  F   UNL A   1      27.586  30.847  22.911  1.00  0.00    -0.166 F 
ATOM     93  F   UNL A   1      29.424  31.194  21.805  1.00  0.00    -0.166 F 
ATOM     94  F   UNL A   1      27.798  30.085  20.886  1.00  0.00    -0.166 F 
ENDBRANCH  89  91
ENDBRANCH  83  85
ENDBRANCH  79  83
ENDBRANCH  75  77
ENDBRANCH  74  75
ENDBRANCH  73  74
ENDBRANCH  72  73
ENDBRANCH   1  72
TORSDOF 20
ENDMDL
MODEL 3
REMARK VINA RESULT:     -11.1      2.805      4.011
REMARK SMILES O=C(OCCOCCOC(=O)c1ccccc1Nc1cccc(C(F)(F)F)c1)c1ccc(-c2c3nc(c(-c4cccc(S(=O)(=O)[O-])c4F)c4ccc([nH]4)c(-c4cccc(S(=O)(=O)[O-])c4F)c4nc(c(-c5cccc(S(=O)(=O)[O-])c5F)c5ccc2[nH]5)C=C4)C=C3)cc1
REMARK SMILES IDX 6 1 5 2 4 3 3 4 2 5 1 6 29 7 30 8 91 9 31 10 90 11 32 12
REMARK SMILES IDX 33 13 34 14 84 15 35 16 89 17 83 18 85 19 36 20 88 21 82 22
REMARK SMILES IDX 81 23 37 25 69 26 49 27 68 28 50 29 53 30 67 31 86 32 51 33
REMARK SMILES IDX 52 34 66 36 87 37 54 38 38 39 39 40 47 41 40 42 42 43 48 44
REMARK SMILES IDX 41 45 43 46 44 47 45 48 46 49 70 50 71 51 79 52 72 53 74 54
REMARK SMILES IDX 80 55 73 56 75 57 76 58 77 59 78 60 55 61 56 62 64 63 57 64
REMARK SMILES IDX 59 65 65 66 58 67 60 68 61 69 62 70 63 71 7 72 8 73 9 74
REMARK SMILES IDX 10 75 11 76 12 77 13 78 17 79 14 80 16 81 15 82 18 83 19 85
REMARK SMILES IDX 20 86 28 87 21 88 23 89 22 90 24 91 25 92 26 93 27 94
REMARK H PARENT 85 24 53 35 18 84
REMARK Flexibility Score: inf
ROOT
ATOM      1  O   UNL A   1      32.782  30.851  27.553  1.00  0.00    -0.374 OA
ENDROOT
BRANCH   1   2
ATOM      2  C   UNL A   1      31.765  31.476  26.776  1.00  0.00     0.202 C 
BRANCH   2   3
ATOM      3  C   UNL A   1      31.973  32.977  26.570  1.00  0.00     0.261 C 
BRANCH   3   4
ATOM      4  O   UNL A   1      32.446  33.579  27.783  1.00  0.00    -0.460 OA
BRANCH   4   5
ATOM      5  C   UNL A   1      33.688  34.034  28.066  1.00  0.00     0.338 C 
ATOM      6  O   UNL A   1      33.961  35.193  27.759  1.00  0.00    -0.246 OA
BRANCH   5   7
ATOM      7  C   UNL A   1      34.752  33.216  28.729  1.00  0.00     0.060 A 
ATOM      8  C   UNL A   1      34.528  32.176  29.638  1.00  0.00     0.016 A 
ATOM      9  C   UNL A   1      36.072  33.452  28.316  1.00  0.00     0.016 A 
ATOM     10  C   UNL A   1      35.557  31.388  30.122  1.00  0.00     0.010 A 
ATOM     11  C   UNL A   1      37.122  32.669  28.800  1.00  0.00     0.010 A 
ATOM     12  C   UNL A   1      36.855  31.639  29.708  1.00  0.00    -0.014 A 
BRANCH  12  13
ATOM     13  C   UNL A   1      37.933  30.899  30.368  1.00  0.00     0.031 A 
ATOM     14  C   UNL A   1      38.234  31.248  31.786  1.00  0.00     0.074 A 
ATOM     15  C   UNL A   1      38.551  29.902  29.718  1.00  0.00     0.049 A 
ATOM     16  N   UNL A   1      39.206  30.838  32.547  1.00  0.00    -0.248 NA
ATOM     17  C   UNL A   1      37.305  32.189  32.438  1.00  0.00     0.031 C 
ATOM     18  C   UNL A   1      38.211  29.438  28.372  1.00  0.00     0.029 A 
ATOM     19  N   UNL A   1      39.602  29.114  30.094  1.00  0.00    -0.354 N 
ATOM     20  C   UNL A   1      39.051  31.525  33.742  1.00  0.00     0.074 A 
ATOM     21  C   UNL A   1      37.871  32.349  33.621  1.00  0.00     0.031 C 
ATOM     22  C   UNL A   1      39.072  28.472  28.015  1.00  0.00     0.029 A 
ATOM     23  C   UNL A   1      40.055  28.305  29.079  1.00  0.00     0.049 A 
ATOM     24  H   UNL A   1      39.995  29.125  30.997  1.00  0.00     0.167 HD
ATOM     25  C   UNL A   1      39.851  31.478  34.830  1.00  0.00     0.034 A 
ATOM     26  C   UNL A   1      41.181  27.572  29.008  1.00  0.00     0.034 A 
ATOM     27  C   UNL A   1      41.019  30.649  34.893  1.00  0.00     0.049 A 
ATOM     28  C   UNL A   1      42.087  27.572  30.208  1.00  0.00     0.074 A 
ATOM     29  C   UNL A   1      41.933  30.517  35.916  1.00  0.00     0.029 A 
ATOM     30  N   UNL A   1      41.441  29.819  33.859  1.00  0.00    -0.354 N 
ATOM     31  N   UNL A   1      41.940  28.210  31.347  1.00  0.00    -0.248 NA
ATOM     32  C   UNL A   1      43.300  26.751  30.131  1.00  0.00     0.031 C 
ATOM     33  C   UNL A   1      42.932  29.636  35.486  1.00  0.00     0.029 A 
ATOM     34  C   UNL A   1      42.612  29.181  34.213  1.00  0.00     0.049 A 
ATOM     35  H   UNL A   1      40.973  29.705  33.001  1.00  0.00     0.167 HD
ATOM     36  C   UNL A   1      43.020  27.845  32.137  1.00  0.00     0.074 A 
ATOM     37  C   UNL A   1      43.814  26.923  31.343  1.00  0.00     0.031 C 
ATOM     38  C   UNL A   1      43.335  28.233  33.398  1.00  0.00     0.034 A 
BRANCH  25  39
ATOM     39  C   UNL A   1      39.511  32.406  35.964  1.00  0.00     0.023 A 
ATOM     40  C   UNL A   1      40.132  33.668  36.069  1.00  0.00     0.012 A 
ATOM     41  C   UNL A   1      38.615  31.992  36.969  1.00  0.00     0.148 A 
ATOM     42  C   UNL A   1      39.914  34.475  37.187  1.00  0.00     0.002 A 
ATOM     43  C   UNL A   1      38.365  32.823  38.054  1.00  0.00     0.091 A 
ATOM     44  F   UNL A   1      38.060  30.776  36.871  1.00  0.00    -0.205 F 
ATOM     45  C   UNL A   1      39.028  34.055  38.175  1.00  0.00     0.022 A 
BRANCH  43  46
ATOM     46  S   UNL A   1      37.192  32.395  39.343  1.00  0.00     0.127 S 
ATOM     47  O   UNL A   1      35.930  32.387  38.605  1.00  0.00    -0.237 OA
ATOM     48  O   UNL A   1      37.662  31.073  39.759  1.00  0.00    -0.237 OA
ATOM     49  O   UNL A   1      37.318  33.430  40.359  1.00  0.00    -0.744 OA
ENDBRANCH  43  46
ENDBRANCH  25  39
BRANCH  26  50
ATOM     50  C   UNL A   1      41.497  26.827  27.757  1.00  0.00     0.023 A 
ATOM     51  C   UNL A   1      42.085  27.497  26.669  1.00  0.00     0.012 A 
ATOM     52  C   UNL A   1      41.293  25.433  27.676  1.00  0.00     0.148 A 
ATOM     53  C   UNL A   1      42.455  26.795  25.519  1.00  0.00     0.002 A 
ATOM     54  C   UNL A   1      41.714  24.732  26.553  1.00  0.00     0.091 A 
ATOM     55  F   UNL A   1      40.723  24.815  28.720  1.00  0.00    -0.205 F 
ATOM     56  C   UNL A   1      42.283  25.413  25.466  1.00  0.00     0.022 A 
BRANCH  54  57
ATOM     57  S   UNL A   1      41.656  22.939  26.452  1.00  0.00     0.127 S 
ATOM     58  O   UNL A   1      40.217  22.687  26.424  1.00  0.00    -0.237 OA
ATOM     59  O   UNL A   1      42.351  22.687  25.189  1.00  0.00    -0.237 OA
ATOM     60  O   UNL A   1      42.355  22.451  27.632  1.00  0.00    -0.744 OA
ENDBRANCH  54  57
ENDBRANCH  26  50
BRANCH  38  61
ATOM     61  C   UNL A   1      44.555  27.623  34.028  1.00  0.00     0.023 A 
ATOM     62  C   UNL A   1      45.776  28.321  34.021  1.00  0.00     0.012 A 
ATOM     63  C   UNL A   1      44.433  26.426  34.758  1.00  0.00     0.148 A 
ATOM     64  C   UNL A   1      46.867  27.828  34.733  1.00  0.00     0.002 A 
ATOM     65  C   UNL A   1      45.505  25.972  35.510  1.00  0.00     0.091 A 
ATOM     66  F   UNL A   1      43.260  25.777  34.729  1.00  0.00    -0.205 F 
ATOM     67  C   UNL A   1      46.727  26.665  35.491  1.00  0.00     0.022 A 
BRANCH  65  68
ATOM     68  S   UNL A   1      45.376  24.557  36.608  1.00  0.00     0.127 S 
ATOM     69  O   UNL A   1      44.250  24.944  37.458  1.00  0.00    -0.237 OA
ATOM     70  O   UNL A   1      45.090  23.469  35.673  1.00  0.00    -0.237 OA
ATOM     71  O   UNL A   1      46.659  24.452  37.289  1.00  0.00    -0.744 OA
ENDBRANCH  65  68
ENDBRANCH  38  61
ENDBRANCH  12  13
ENDBRANCH   5   7
ENDBRANCH   4   5
ENDBRANCH   3   4
ENDBRANCH   2   3
ENDBRANCH   1   2
BRANCH   1  72
ATOM     72  C   UNL A   1      33.753  30.075  26.846  1.00  0.00     0.202 C 
BRANCH  72  73
ATOM     73  C   UNL A   1      33.032  29.274  25.763  1.00  0.00     0.261 C 
BRANCH  73  74
ATOM     74  O   UNL A   1      33.008  27.899  26.180  1.00  0.00    -0.460 OA
BRANCH  74  75
ATOM     75  C   UNL A   1      31.806  27.443  26.634  1.00  0.00     0.340 C 
ATOM     76  O   UNL A   1      31.219  27.808  27.628  1.00  0.00    -0.246 OA
BRANCH  75  77
ATOM     77  C   UNL A   1      31.227  26.518  25.612  1.00  0.00     0.083 A 
ATOM     78  C   UNL A   1      30.306  27.096  24.719  1.00  0.00     0.018 A 
ATOM     79  C   UNL A   1      31.580  25.151  25.509  1.00  0.00     0.053 A 
ATOM     80  C   UNL A   1      29.721  26.328  23.717  1.00  0.00     0.001 A 
ATOM     81  C   UNL A   1      30.928  24.393  24.526  1.00  0.00     0.027 A 
ATOM     82  C   UNL A   1      30.023  24.975  23.630  1.00  0.00     0.002 A 
BRANCH  79  83
ATOM     83  N   UNL A   1      32.488  24.581  26.425  1.00  0.00    -0.355 N 
ATOM     84  H   UNL A   1      32.343  24.909  27.342  1.00  0.00     0.167 HD
BRANCH  83  85
ATOM     85  C   UNL A   1      33.542  23.667  26.351  1.00  0.00     0.039 A 
ATOM     86  C   UNL A   1      33.417  22.482  27.092  1.00  0.00     0.026 A 
ATOM     87  C   UNL A   1      34.668  23.835  25.549  1.00  0.00     0.039 A 
ATOM     88  C   UNL A   1      34.372  21.473  27.006  1.00  0.00     0.003 A 
ATOM     89  C   UNL A   1      35.646  22.831  25.454  1.00  0.00     0.058 A 
ATOM     90  C   UNL A   1      35.477  21.642  26.180  1.00  0.00     0.013 A 
BRANCH  89  91
ATOM     91  C   UNL A   1      36.846  23.003  24.561  1.00  0.00     0.416 C 
ATOM     92  F   UNL A   1      37.677  21.924  24.581  1.00  0.00    -0.166 F 
ATOM     93  F   UNL A   1      36.497  23.179  23.255  1.00  0.00    -0.166 F 
ATOM     94  F   UNL A   1      37.622  24.076  24.883  1.00  0.00    -0.166 F 
ENDBRANCH  89  91
ENDBRANCH  83  85
ENDBRANCH  79  83
ENDBRANCH  75  77
ENDBRANCH  74  75
ENDBRANCH  73  74
ENDBRANCH  72  73
ENDBRANCH   1  72
TORSDOF 20
ENDMDL
