MODEL 1
REMARK VINA RESULT:     -10.7      0.000      0.000
REMARK SMILES O=C(/C=C\c1ccc(OCc2ccc(Br)cc2)cc1)OCCOCCOC(=O)c1ccc(-c2c3nc(c(-c4cccc(S(=O)(=O)[O-])c4F)c4ccc([nH]4)c(-c4cccc(S(=O)(=O)[O-])c4F)c4nc(c(-c5cccc(S(=O)(=O)[O-])c5F)c5ccc2[nH]5)C=C4)C=C3)cc1
REMARK SMILES IDX 22 1 21 2 20 3 2 4 1 5 3 6 4 7 5 8 6 9 19 10 7 11 18 12 8 13
REMARK SMILES IDX 9 14 10 15 11 16 12 17 17 18 13 19 16 20 14 21 15 22 23 23
REMARK SMILES IDX 24 24 25 25 26 26 27 27 28 28 29 29 30 30 91 31 31 32 90 33
REMARK SMILES IDX 32 34 33 35 34 36 84 37 35 38 89 39 83 40 85 41 36 42 88 43
REMARK SMILES IDX 82 44 81 45 37 47 69 48 49 49 68 50 50 51 53 52 67 53 86 54
REMARK SMILES IDX 51 55 52 56 66 58 87 59 54 60 38 61 39 62 47 63 40 64 42 65
REMARK SMILES IDX 48 66 41 67 43 68 44 69 45 70 46 71 70 72 71 73 79 74 72 75
REMARK SMILES IDX 74 76 80 77 73 78 75 79 76 80 77 81 78 82 55 83 56 84 64 85
REMARK SMILES IDX 57 86 59 87 65 88 58 89 60 90 61 91 62 92 63 93
REMARK H PARENT 85 46 53 57
REMARK Flexibility Score: inf
ROOT
ATOM      1  C   UNL A   1      31.800  30.456  25.786  1.00  0.00     0.202 C 
ENDROOT
BRANCH   1   2
ATOM      2  C   UNL A   1      31.496  29.090  25.170  1.00  0.00     0.261 C 
BRANCH   2   3
ATOM      3  O   UNL A   1      31.208  29.114  23.763  1.00  0.00    -0.460 OA
BRANCH   3   4
ATOM      4  C   UNL A   1      30.014  29.164  23.150  1.00  0.00     0.330 C 
ATOM      5  O   UNL A   1      29.686  30.196  22.563  1.00  0.00    -0.247 OA
BRANCH   4   6
ATOM      6  C   UNL A   1      28.988  28.103  23.247  1.00  0.00     0.094 C 
ATOM      7  C   UNL A   1      28.877  26.818  23.633  1.00  0.00     0.015 C 
BRANCH   7   8
ATOM      8  C   UNL A   1      29.856  25.874  24.171  1.00  0.00    -0.025 A 
ATOM      9  C   UNL A   1      30.192  25.933  25.524  1.00  0.00     0.012 A 
ATOM     10  C   UNL A   1      30.530  24.962  23.355  1.00  0.00     0.012 A 
ATOM     11  C   UNL A   1      31.027  24.965  26.081  1.00  0.00     0.047 A 
ATOM     12  C   UNL A   1      31.313  23.955  23.918  1.00  0.00     0.047 A 
ATOM     13  C   UNL A   1      31.480  23.911  25.297  1.00  0.00     0.119 A 
BRANCH  13  14
ATOM     14  O   UNL A   1      32.055  22.878  25.977  1.00  0.00    -0.489 OA
BRANCH  14  15
ATOM     15  C   UNL A   1      33.313  22.432  25.460  1.00  0.00     0.265 C 
BRANCH  15  16
ATOM     16  C   UNL A   1      33.446  20.938  25.196  1.00  0.00    -0.011 A 
ATOM     17  C   UNL A   1      32.336  20.187  24.770  1.00  0.00     0.008 A 
ATOM     18  C   UNL A   1      34.704  20.322  25.195  1.00  0.00     0.008 A 
ATOM     19  C   UNL A   1      32.492  18.901  24.244  1.00  0.00     0.016 A 
ATOM     20  C   UNL A   1      34.862  19.029  24.681  1.00  0.00     0.016 A 
ATOM     21  C   UNL A   1      33.760  18.336  24.184  1.00  0.00     0.017 A 
ATOM     22  Br  UNL A   1      33.984  16.643  23.376  1.00  0.00    -0.051 Br
ENDBRANCH  15  16
ENDBRANCH  14  15
ENDBRANCH  13  14
ENDBRANCH   7   8
ENDBRANCH   4   6
ENDBRANCH   3   4
ENDBRANCH   2   3
ENDBRANCH   1   2
BRANCH   1  23
ATOM     23  O   UNL A   1      32.460  30.419  27.044  1.00  0.00    -0.374 OA
BRANCH  23  24
ATOM     24  C   UNL A   1      33.241  31.567  27.375  1.00  0.00     0.202 C 
BRANCH  24  25
ATOM     25  C   UNL A   1      32.439  32.867  27.524  1.00  0.00     0.261 C 
BRANCH  25  26
ATOM     26  O   UNL A   1      33.293  34.017  27.739  1.00  0.00    -0.460 OA
BRANCH  26  27
ATOM     27  C   UNL A   1      33.371  34.486  29.014  1.00  0.00     0.338 C 
ATOM     28  O   UNL A   1      32.591  35.254  29.547  1.00  0.00    -0.246 OA
BRANCH  27  29
ATOM     29  C   UNL A   1      34.502  33.856  29.747  1.00  0.00     0.060 A 
ATOM     30  C   UNL A   1      35.810  34.181  29.361  1.00  0.00     0.016 A 
ATOM     31  C   UNL A   1      34.302  32.917  30.765  1.00  0.00     0.016 A 
ATOM     32  C   UNL A   1      36.907  33.583  29.998  1.00  0.00     0.010 A 
ATOM     33  C   UNL A   1      35.402  32.308  31.392  1.00  0.00     0.010 A 
ATOM     34  C   UNL A   1      36.715  32.632  31.014  1.00  0.00    -0.014 A 
BRANCH  34  35
ATOM     35  C   UNL A   1      37.884  31.865  31.540  1.00  0.00     0.031 A 
ATOM     36  C   UNL A   1      38.354  32.155  32.930  1.00  0.00     0.074 A 
ATOM     37  C   UNL A   1      38.534  30.931  30.818  1.00  0.00     0.049 A 
ATOM     38  N   UNL A   1      39.318  31.593  33.606  1.00  0.00    -0.248 NA
ATOM     39  C   UNL A   1      37.670  33.251  33.634  1.00  0.00     0.031 C 
ATOM     40  C   UNL A   1      38.257  30.640  29.427  1.00  0.00     0.029 A 
ATOM     41  N   UNL A   1      39.549  30.057  31.130  1.00  0.00    -0.354 N 
ATOM     42  C   UNL A   1      39.396  32.297  34.797  1.00  0.00     0.074 A 
ATOM     43  C   UNL A   1      38.361  33.310  34.761  1.00  0.00     0.031 C 
ATOM     44  C   UNL A   1      38.987  29.591  29.021  1.00  0.00     0.029 A 
ATOM     45  C   UNL A   1      39.882  29.198  30.100  1.00  0.00     0.049 A 
ATOM     46  H   UNL A   1      39.996  30.044  32.007  1.00  0.00     0.167 HD
ATOM     47  C   UNL A   1      40.270  32.137  35.816  1.00  0.00     0.034 A 
ATOM     48  C   UNL A   1      40.828  28.239  30.015  1.00  0.00     0.034 A 
ATOM     49  C   UNL A   1      41.335  31.173  35.826  1.00  0.00     0.049 A 
ATOM     50  C   UNL A   1      41.769  28.066  31.178  1.00  0.00     0.074 A 
ATOM     51  C   UNL A   1      42.280  30.949  36.810  1.00  0.00     0.029 A 
ATOM     52  N   UNL A   1      41.622  30.298  34.788  1.00  0.00    -0.354 N 
ATOM     53  N   UNL A   1      41.766  28.679  32.336  1.00  0.00    -0.248 NA
ATOM     54  C   UNL A   1      42.857  27.089  31.019  1.00  0.00     0.031 C 
ATOM     55  C   UNL A   1      43.160  29.963  36.353  1.00  0.00     0.029 A 
ATOM     56  C   UNL A   1      42.732  29.534  35.107  1.00  0.00     0.049 A 
ATOM     57  H   UNL A   1      41.113  30.230  33.948  1.00  0.00     0.167 HD
ATOM     58  C   UNL A   1      42.839  28.158  33.047  1.00  0.00     0.074 A 
ATOM     59  C   UNL A   1      43.447  27.148  32.204  1.00  0.00     0.031 C 
ATOM     60  C   UNL A   1      43.297  28.502  34.275  1.00  0.00     0.034 A 
BRANCH  47  61
ATOM     61  C   UNL A   1      40.119  33.075  36.979  1.00  0.00     0.023 A 
ATOM     62  C   UNL A   1      39.201  32.780  38.006  1.00  0.00     0.012 A 
ATOM     63  C   UNL A   1      40.865  34.267  37.034  1.00  0.00     0.148 A 
ATOM     64  C   UNL A   1      38.988  33.684  39.045  1.00  0.00     0.002 A 
ATOM     65  C   UNL A   1      40.684  35.139  38.099  1.00  0.00     0.091 A 
ATOM     66  F   UNL A   1      41.711  34.539  36.031  1.00  0.00    -0.205 F 
ATOM     67  C   UNL A   1      39.734  34.859  39.095  1.00  0.00     0.022 A 
BRANCH  65  68
ATOM     68  S   UNL A   1      41.640  36.647  38.287  1.00  0.00     0.127 S 
ATOM     69  O   UNL A   1      42.223  36.793  36.953  1.00  0.00    -0.237 OA
ATOM     70  O   UNL A   1      40.602  37.625  38.609  1.00  0.00    -0.237 OA
ATOM     71  O   UNL A   1      42.593  36.391  39.357  1.00  0.00    -0.744 OA
ENDBRANCH  65  68
ENDBRANCH  47  61
BRANCH  48  72
ATOM     72  C   UNL A   1      40.964  27.373  28.800  1.00  0.00     0.023 A 
ATOM     73  C   UNL A   1      40.103  26.267  28.635  1.00  0.00     0.012 A 
ATOM     74  C   UNL A   1      41.947  27.613  27.821  1.00  0.00     0.148 A 
ATOM     75  C   UNL A   1      40.243  25.401  27.546  1.00  0.00     0.002 A 
ATOM     76  C   UNL A   1      42.031  26.794  26.700  1.00  0.00     0.091 A 
ATOM     77  F   UNL A   1      42.786  28.642  28.003  1.00  0.00    -0.205 F 
ATOM     78  C   UNL A   1      41.199  25.673  26.572  1.00  0.00     0.022 A 
BRANCH  76  79
ATOM     79  S   UNL A   1      43.128  27.159  25.324  1.00  0.00     0.127 S 
ATOM     80  O   UNL A   1      43.183  25.873  24.635  1.00  0.00    -0.237 OA
ATOM     81  O   UNL A   1      42.387  28.207  24.622  1.00  0.00    -0.237 OA
ATOM     82  O   UNL A   1      44.374  27.610  25.928  1.00  0.00    -0.744 OA
ENDBRANCH  76  79
ENDBRANCH  48  72
BRANCH  60  83
ATOM     83  C   UNL A   1      44.480  27.743  34.814  1.00  0.00     0.023 A 
ATOM     84  C   UNL A   1      45.775  28.294  34.746  1.00  0.00     0.012 A 
ATOM     85  C   UNL A   1      44.286  26.504  35.455  1.00  0.00     0.148 A 
ATOM     86  C   UNL A   1      46.864  27.606  35.281  1.00  0.00     0.002 A 
ATOM     87  C   UNL A   1      45.365  25.853  36.035  1.00  0.00     0.091 A 
ATOM     88  F   UNL A   1      43.048  25.989  35.487  1.00  0.00    -0.205 F 
ATOM     89  C   UNL A   1      46.658  26.393  35.937  1.00  0.00     0.022 A 
BRANCH  87  90
ATOM     90  S   UNL A   1      45.174  24.343  36.988  1.00  0.00     0.127 S 
ATOM     91  O   UNL A   1      44.484  24.829  38.182  1.00  0.00    -0.237 OA
ATOM     92  O   UNL A   1      44.353  23.520  36.100  1.00  0.00    -0.237 OA
ATOM     93  O   UNL A   1      46.521  23.835  37.210  1.00  0.00    -0.744 OA
ENDBRANCH  87  90
ENDBRANCH  60  83
ENDBRANCH  34  35
ENDBRANCH  27  29
ENDBRANCH  26  27
ENDBRANCH  25  26
ENDBRANCH  24  25
ENDBRANCH  23  24
ENDBRANCH   1  23
TORSDOF 21
ENDMDL
MODEL 2
REMARK VINA RESULT:     -10.6      3.798      5.661
REMARK SMILES O=C(/C=C\c1ccc(OCc2ccc(Br)cc2)cc1)OCCOCCOC(=O)c1ccc(-c2c3nc(c(-c4cccc(S(=O)(=O)[O-])c4F)c4ccc([nH]4)c(-c4cccc(S(=O)(=O)[O-])c4F)c4nc(c(-c5cccc(S(=O)(=O)[O-])c5F)c5ccc2[nH]5)C=C4)C=C3)cc1
REMARK SMILES IDX 22 1 21 2 20 3 2 4 1 5 3 6 4 7 5 8 6 9 19 10 7 11 18 12 8 13
REMARK SMILES IDX 9 14 10 15 11 16 12 17 17 18 13 19 16 20 14 21 15 22 23 23
REMARK SMILES IDX 24 24 25 25 26 26 27 27 28 28 29 29 30 30 91 31 31 32 90 33
REMARK SMILES IDX 32 34 33 35 34 36 84 37 35 38 89 39 83 40 85 41 36 42 88 43
REMARK SMILES IDX 82 44 81 45 37 47 69 48 49 49 68 50 50 51 53 52 67 53 86 54
REMARK SMILES IDX 51 55 52 56 66 58 87 59 54 60 38 61 39 62 47 63 40 64 42 65
REMARK SMILES IDX 48 66 41 67 43 68 44 69 45 70 46 71 70 72 71 73 79 74 72 75
REMARK SMILES IDX 74 76 80 77 73 78 75 79 76 80 77 81 78 82 55 83 56 84 64 85
REMARK SMILES IDX 57 86 59 87 65 88 58 89 60 90 61 91 62 92 63 93
REMARK H PARENT 85 46 53 57
REMARK Flexibility Score: inf
ROOT
ATOM      1  C   UNL A   1      33.991  26.961  25.135  1.00  0.00     0.202 C 
ENDROOT
BRANCH   1   2
ATOM      2  C   UNL A   1      34.068  25.572  25.770  1.00  0.00     0.261 C 
BRANCH   2   3
ATOM      3  O   UNL A   1      35.343  24.924  25.647  1.00  0.00    -0.460 OA
BRANCH   3   4
ATOM      4  C   UNL A   1      35.612  23.662  25.277  1.00  0.00     0.330 C 
ATOM      5  O   UNL A   1      36.181  22.912  26.072  1.00  0.00    -0.247 OA
BRANCH   4   6
ATOM      6  C   UNL A   1      35.396  23.135  23.911  1.00  0.00     0.094 C 
ATOM      7  C   UNL A   1      34.448  23.127  22.954  1.00  0.00     0.015 C 
BRANCH   7   8
ATOM      8  C   UNL A   1      33.109  23.712  22.905  1.00  0.00    -0.025 A 
ATOM      9  C   UNL A   1      32.056  23.065  23.552  1.00  0.00     0.012 A 
ATOM     10  C   UNL A   1      32.830  24.860  22.160  1.00  0.00     0.012 A 
ATOM     11  C   UNL A   1      30.801  23.669  23.622  1.00  0.00     0.047 A 
ATOM     12  C   UNL A   1      31.596  25.498  22.281  1.00  0.00     0.047 A 
ATOM     13  C   UNL A   1      30.615  24.940  23.092  1.00  0.00     0.119 A 
BRANCH  13  14
ATOM     14  O   UNL A   1      29.452  25.558  23.442  1.00  0.00    -0.489 OA
BRANCH  14  15
ATOM     15  C   UNL A   1      29.602  26.854  24.030  1.00  0.00     0.265 C 
BRANCH  15  16
ATOM     16  C   UNL A   1      29.189  28.041  23.168  1.00  0.00    -0.011 A 
ATOM     17  C   UNL A   1      27.893  28.578  23.268  1.00  0.00     0.008 A 
ATOM     18  C   UNL A   1      30.137  28.731  22.401  1.00  0.00     0.008 A 
ATOM     19  C   UNL A   1      27.584  29.826  22.719  1.00  0.00     0.016 A 
ATOM     20  C   UNL A   1      29.827  29.976  21.839  1.00  0.00     0.016 A 
ATOM     21  C   UNL A   1      28.561  30.529  22.024  1.00  0.00     0.017 A 
ATOM     22  Br  UNL A   1      28.175  32.261  21.376  1.00  0.00    -0.051 Br
ENDBRANCH  15  16
ENDBRANCH  14  15
ENDBRANCH  13  14
ENDBRANCH   7   8
ENDBRANCH   4   6
ENDBRANCH   3   4
ENDBRANCH   2   3
ENDBRANCH   1   2
BRANCH   1  23
ATOM     23  O   UNL A   1      34.051  28.049  26.047  1.00  0.00    -0.374 OA
BRANCH  23  24
ATOM     24  C   UNL A   1      33.027  29.034  25.916  1.00  0.00     0.202 C 
BRANCH  24  25
ATOM     25  C   UNL A   1      32.930  30.018  27.090  1.00  0.00     0.261 C 
BRANCH  25  26
ATOM     26  O   UNL A   1      33.920  31.072  27.005  1.00  0.00    -0.460 OA
BRANCH  26  27
ATOM     27  C   UNL A   1      34.440  31.514  28.182  1.00  0.00     0.338 C 
ATOM     28  O   UNL A   1      33.894  32.262  28.973  1.00  0.00    -0.246 OA
BRANCH  27  29
ATOM     29  C   UNL A   1      35.758  30.882  28.456  1.00  0.00     0.060 A 
ATOM     30  C   UNL A   1      35.780  29.628  29.082  1.00  0.00     0.016 A 
ATOM     31  C   UNL A   1      36.968  31.520  28.159  1.00  0.00     0.016 A 
ATOM     32  C   UNL A   1      37.000  29.011  29.394  1.00  0.00     0.010 A 
ATOM     33  C   UNL A   1      38.190  30.908  28.486  1.00  0.00     0.010 A 
ATOM     34  C   UNL A   1      38.219  29.649  29.109  1.00  0.00    -0.014 A 
BRANCH  34  35
ATOM     35  C   UNL A   1      39.496  29.069  29.624  1.00  0.00     0.031 A 
ATOM     36  C   UNL A   1      40.041  29.593  30.915  1.00  0.00     0.074 A 
ATOM     37  C   UNL A   1      40.177  28.104  28.976  1.00  0.00     0.049 A 
ATOM     38  N   UNL A   1      41.105  29.217  31.570  1.00  0.00    -0.248 NA
ATOM     39  C   UNL A   1      39.308  30.712  31.526  1.00  0.00     0.031 C 
ATOM     40  C   UNL A   1      39.823  27.597  27.667  1.00  0.00     0.029 A 
ATOM     41  N   UNL A   1      41.294  27.374  29.309  1.00  0.00    -0.354 N 
ATOM     42  C   UNL A   1      41.205  30.086  32.644  1.00  0.00     0.074 A 
ATOM     43  C   UNL A   1      40.076  30.990  32.568  1.00  0.00     0.031 C 
ATOM     44  C   UNL A   1      40.620  26.569  27.340  1.00  0.00     0.029 A 
ATOM     45  C   UNL A   1      41.630  26.412  28.377  1.00  0.00     0.049 A 
ATOM     46  H   UNL A   1      41.807  27.524  30.136  1.00  0.00     0.167 HD
ATOM     47  C   UNL A   1      42.167  30.149  33.593  1.00  0.00     0.034 A 
ATOM     48  C   UNL A   1      42.657  25.536  28.334  1.00  0.00     0.034 A 
ATOM     49  C   UNL A   1      43.320  29.293  33.633  1.00  0.00     0.049 A 
ATOM     50  C   UNL A   1      43.698  25.611  29.420  1.00  0.00     0.074 A 
ATOM     51  C   UNL A   1      44.356  29.293  34.549  1.00  0.00     0.029 A 
ATOM     52  N   UNL A   1      43.611  28.309  32.699  1.00  0.00    -0.354 N 
ATOM     53  N   UNL A   1      43.724  26.380  30.482  1.00  0.00    -0.248 NA
ATOM     54  C   UNL A   1      44.862  24.721  29.295  1.00  0.00     0.031 C 
ATOM     55  C   UNL A   1      45.291  28.333  34.149  1.00  0.00     0.029 A 
ATOM     56  C   UNL A   1      44.813  27.697  33.016  1.00  0.00     0.049 A 
ATOM     57  H   UNL A   1      43.047  28.079  31.926  1.00  0.00     0.167 HD
ATOM     58  C   UNL A   1      44.896  26.059  31.155  1.00  0.00     0.074 A 
ATOM     59  C   UNL A   1      45.533  24.998  30.403  1.00  0.00     0.031 C 
ATOM     60  C   UNL A   1      45.411  26.612  32.281  1.00  0.00     0.034 A 
BRANCH  47  61
ATOM     61  C   UNL A   1      42.015  31.225  34.629  1.00  0.00     0.023 A 
ATOM     62  C   UNL A   1      41.326  30.954  35.828  1.00  0.00     0.012 A 
ATOM     63  C   UNL A   1      42.527  32.515  34.397  1.00  0.00     0.148 A 
ATOM     64  C   UNL A   1      41.102  31.966  36.759  1.00  0.00     0.002 A 
ATOM     65  C   UNL A   1      42.343  33.506  35.352  1.00  0.00     0.091 A 
ATOM     66  F   UNL A   1      43.154  32.756  33.237  1.00  0.00    -0.205 F 
ATOM     67  C   UNL A   1      41.616  33.239  36.524  1.00  0.00     0.022 A 
BRANCH  65  68
ATOM     68  S   UNL A   1      43.020  35.158  35.172  1.00  0.00     0.127 S 
ATOM     69  O   UNL A   1      42.452  35.837  36.337  1.00  0.00    -0.237 OA
ATOM     70  O   UNL A   1      44.458  34.906  35.256  1.00  0.00    -0.237 OA
ATOM     71  O   UNL A   1      42.559  35.647  33.882  1.00  0.00    -0.744 OA
ENDBRANCH  65  68
ENDBRANCH  47  61
BRANCH  48  72
ATOM     72  C   UNL A   1      42.783  24.523  27.238  1.00  0.00     0.023 A 
ATOM     73  C   UNL A   1      43.500  24.851  26.068  1.00  0.00     0.012 A 
ATOM     74  C   UNL A   1      42.182  23.253  27.326  1.00  0.00     0.148 A 
ATOM     75  C   UNL A   1      43.584  23.953  24.999  1.00  0.00     0.002 A 
ATOM     76  C   UNL A   1      42.334  22.335  26.291  1.00  0.00     0.091 A 
ATOM     77  F   UNL A   1      41.469  22.962  28.422  1.00  0.00    -0.205 F 
ATOM     78  C   UNL A   1      43.013  22.690  25.117  1.00  0.00     0.022 A 
BRANCH  76  79
ATOM     79  S   UNL A   1      41.764  20.637  26.423  1.00  0.00     0.127 S 
ATOM     80  O   UNL A   1      42.497  19.989  25.340  1.00  0.00    -0.237 OA
ATOM     81  O   UNL A   1      42.203  20.277  27.771  1.00  0.00    -0.237 OA
ATOM     82  O   UNL A   1      40.317  20.698  26.262  1.00  0.00    -0.744 OA
ENDBRANCH  76  79
ENDBRANCH  48  72
BRANCH  60  83
ATOM     83  C   UNL A   1      46.701  26.042  32.806  1.00  0.00     0.023 A 
ATOM     84  C   UNL A   1      46.690  24.993  33.748  1.00  0.00     0.012 A 
ATOM     85  C   UNL A   1      47.931  26.508  32.303  1.00  0.00     0.148 A 
ATOM     86  C   UNL A   1      47.886  24.440  34.203  1.00  0.00     0.002 A 
ATOM     87  C   UNL A   1      49.115  25.914  32.718  1.00  0.00     0.091 A 
ATOM     88  F   UNL A   1      47.919  27.523  31.426  1.00  0.00    -0.205 F 
ATOM     89  C   UNL A   1      49.096  24.891  33.679  1.00  0.00     0.022 A 
BRANCH  87  90
ATOM     90  S   UNL A   1      50.707  26.360  32.019  1.00  0.00     0.127 S 
ATOM     91  O   UNL A   1      51.606  25.441  32.715  1.00  0.00    -0.237 OA
ATOM     92  O   UNL A   1      50.513  26.067  30.599  1.00  0.00    -0.237 OA
ATOM     93  O   UNL A   1      50.899  27.771  32.324  1.00  0.00    -0.744 OA
ENDBRANCH  87  90
ENDBRANCH  60  83
ENDBRANCH  34  35
ENDBRANCH  27  29
ENDBRANCH  26  27
ENDBRANCH  25  26
ENDBRANCH  24  25
ENDBRANCH  23  24
ENDBRANCH   1  23
TORSDOF 21
ENDMDL
MODEL 3
REMARK VINA RESULT:     -10.6      1.625      2.044
REMARK SMILES O=C(/C=C\c1ccc(OCc2ccc(Br)cc2)cc1)OCCOCCOC(=O)c1ccc(-c2c3nc(c(-c4cccc(S(=O)(=O)[O-])c4F)c4ccc([nH]4)c(-c4cccc(S(=O)(=O)[O-])c4F)c4nc(c(-c5cccc(S(=O)(=O)[O-])c5F)c5ccc2[nH]5)C=C4)C=C3)cc1
REMARK SMILES IDX 22 1 21 2 20 3 2 4 1 5 3 6 4 7 5 8 6 9 19 10 7 11 18 12 8 13
REMARK SMILES IDX 9 14 10 15 11 16 12 17 17 18 13 19 16 20 14 21 15 22 23 23
REMARK SMILES IDX 24 24 25 25 26 26 27 27 28 28 29 29 30 30 91 31 31 32 90 33
REMARK SMILES IDX 32 34 33 35 34 36 84 37 35 38 89 39 83 40 85 41 36 42 88 43
REMARK SMILES IDX 82 44 81 45 37 47 69 48 49 49 68 50 50 51 53 52 67 53 86 54
REMARK SMILES IDX 51 55 52 56 66 58 87 59 54 60 38 61 39 62 47 63 40 64 42 65
REMARK SMILES IDX 48 66 41 67 43 68 44 69 45 70 46 71 70 72 71 73 79 74 72 75
REMARK SMILES IDX 74 76 80 77 73 78 75 79 76 80 77 81 78 82 55 83 56 84 64 85
REMARK SMILES IDX 57 86 59 87 65 88 58 89 60 90 61 91 62 92 63 93
REMARK H PARENT 85 46 53 57
REMARK Flexibility Score: inf
ROOT
ATOM      1  C   UNL A   1      31.463  30.580  25.865  1.00  0.00     0.202 C 
ENDROOT
BRANCH   1   2
ATOM      2  C   UNL A   1      31.597  29.272  25.085  1.00  0.00     0.261 C 
BRANCH   2   3
ATOM      3  O   UNL A   1      31.301  29.373  23.683  1.00  0.00    -0.460 OA
BRANCH   3   4
ATOM      4  C   UNL A   1      30.103  29.413  23.078  1.00  0.00     0.330 C 
ATOM      5  O   UNL A   1      29.762  30.443  22.494  1.00  0.00    -0.247 OA
BRANCH   4   6
ATOM      6  C   UNL A   1      29.087  28.343  23.179  1.00  0.00     0.094 C 
ATOM      7  C   UNL A   1      28.976  27.074  23.616  1.00  0.00     0.015 C 
BRANCH   7   8
ATOM      8  C   UNL A   1      29.943  26.168  24.233  1.00  0.00    -0.025 A 
ATOM      9  C   UNL A   1      29.765  25.777  25.560  1.00  0.00     0.012 A 
ATOM     10  C   UNL A   1      31.091  25.742  23.560  1.00  0.00     0.012 A 
ATOM     11  C   UNL A   1      30.605  24.818  26.126  1.00  0.00     0.047 A 
ATOM     12  C   UNL A   1      31.894  24.737  24.100  1.00  0.00     0.047 A 
ATOM     13  C   UNL A   1      31.586  24.214  25.349  1.00  0.00     0.119 A 
BRANCH  13  14
ATOM     14  O   UNL A   1      32.170  23.110  25.895  1.00  0.00    -0.489 OA
BRANCH  14  15
ATOM     15  C   UNL A   1      33.475  23.318  26.445  1.00  0.00     0.265 C 
BRANCH  15  16
ATOM     16  C   UNL A   1      34.611  22.520  25.817  1.00  0.00    -0.011 A 
ATOM     17  C   UNL A   1      35.936  22.982  25.898  1.00  0.00     0.008 A 
ATOM     18  C   UNL A   1      34.384  21.233  25.313  1.00  0.00     0.008 A 
ATOM     19  C   UNL A   1      37.013  22.142  25.598  1.00  0.00     0.016 A 
ATOM     20  C   UNL A   1      35.461  20.393  24.999  1.00  0.00     0.016 A 
ATOM     21  C   UNL A   1      36.769  20.843  25.169  1.00  0.00     0.017 A 
ATOM     22  Br  UNL A   1      38.224  19.676  24.867  1.00  0.00    -0.051 Br
ENDBRANCH  15  16
ENDBRANCH  14  15
ENDBRANCH  13  14
ENDBRANCH   7   8
ENDBRANCH   4   6
ENDBRANCH   3   4
ENDBRANCH   2   3
ENDBRANCH   1   2
BRANCH   1  23
ATOM     23  O   UNL A   1      32.270  30.675  27.031  1.00  0.00    -0.374 OA
BRANCH  23  24
ATOM     24  C   UNL A   1      33.024  31.878  27.175  1.00  0.00     0.202 C 
BRANCH  24  25
ATOM     25  C   UNL A   1      32.184  33.129  27.471  1.00  0.00     0.261 C 
BRANCH  25  26
ATOM     26  O   UNL A   1      32.989  34.332  27.509  1.00  0.00    -0.460 OA
BRANCH  26  27
ATOM     27  C   UNL A   1      33.096  34.954  28.715  1.00  0.00     0.338 C 
ATOM     28  O   UNL A   1      32.330  35.786  29.166  1.00  0.00    -0.246 OA
BRANCH  27  29
ATOM     29  C   UNL A   1      34.241  34.413  29.495  1.00  0.00     0.060 A 
ATOM     30  C   UNL A   1      35.523  34.476  28.930  1.00  0.00     0.016 A 
ATOM     31  C   UNL A   1      34.072  33.801  30.743  1.00  0.00     0.016 A 
ATOM     32  C   UNL A   1      36.626  33.945  29.613  1.00  0.00     0.010 A 
ATOM     33  C   UNL A   1      35.176  33.255  31.418  1.00  0.00     0.010 A 
ATOM     34  C   UNL A   1      36.464  33.318  30.861  1.00  0.00    -0.014 A 
BRANCH  34  35
ATOM     35  C   UNL A   1      37.612  32.588  31.477  1.00  0.00     0.031 A 
ATOM     36  C   UNL A   1      38.037  32.973  32.858  1.00  0.00     0.074 A 
ATOM     37  C   UNL A   1      38.281  31.605  30.843  1.00  0.00     0.049 A 
ATOM     38  N   UNL A   1      38.976  32.457  33.603  1.00  0.00    -0.248 NA
ATOM     39  C   UNL A   1      37.335  34.116  33.461  1.00  0.00     0.031 C 
ATOM     40  C   UNL A   1      38.048  31.218  29.467  1.00  0.00     0.029 A 
ATOM     41  N   UNL A   1      39.281  30.752  31.248  1.00  0.00    -0.354 N 
ATOM     42  C   UNL A   1      39.018  33.242  34.743  1.00  0.00     0.074 A 
ATOM     43  C   UNL A   1      37.990  34.252  34.603  1.00  0.00     0.031 C 
ATOM     44  C   UNL A   1      38.787  30.143  29.159  1.00  0.00     0.029 A 
ATOM     45  C   UNL A   1      39.645  29.824  30.292  1.00  0.00     0.049 A 
ATOM     46  H   UNL A   1      39.699  30.799  32.138  1.00  0.00     0.167 HD
ATOM     47  C   UNL A   1      39.858  33.152  35.800  1.00  0.00     0.034 A 
ATOM     48  C   UNL A   1      40.588  28.859  30.304  1.00  0.00     0.034 A 
ATOM     49  C   UNL A   1      40.918  32.189  35.911  1.00  0.00     0.049 A 
ATOM     50  C   UNL A   1      41.490  28.765  31.507  1.00  0.00     0.074 A 
ATOM     51  C   UNL A   1      41.830  32.031  36.938  1.00  0.00     0.029 A 
ATOM     52  N   UNL A   1      41.235  31.243  34.946  1.00  0.00    -0.354 N 
ATOM     53  N   UNL A   1      41.453  29.458  32.619  1.00  0.00    -0.248 NA
ATOM     54  C   UNL A   1      42.579  27.777  31.451  1.00  0.00     0.031 C 
ATOM     55  C   UNL A   1      42.720  31.014  36.580  1.00  0.00     0.029 A 
ATOM     56  C   UNL A   1      42.331  30.500  35.354  1.00  0.00     0.049 A 
ATOM     57  H   UNL A   1      40.753  31.118  34.097  1.00  0.00     0.167 HD
ATOM     58  C   UNL A   1      42.500  28.985  33.399  1.00  0.00     0.074 A 
ATOM     59  C   UNL A   1      43.131  27.918  32.649  1.00  0.00     0.031 C 
ATOM     60  C   UNL A   1      42.919  29.413  34.615  1.00  0.00     0.034 A 
BRANCH  47  61
ATOM     61  C   UNL A   1      39.673  34.169  36.889  1.00  0.00     0.023 A 
ATOM     62  C   UNL A   1      40.087  35.501  36.684  1.00  0.00     0.012 A 
ATOM     63  C   UNL A   1      39.120  33.795  38.127  1.00  0.00     0.148 A 
ATOM     64  C   UNL A   1      40.002  36.433  37.716  1.00  0.00     0.002 A 
ATOM     65  C   UNL A   1      38.992  34.742  39.134  1.00  0.00     0.091 A 
ATOM     66  F   UNL A   1      38.760  32.517  38.307  1.00  0.00    -0.205 F 
ATOM     67  C   UNL A   1      39.449  36.056  38.937  1.00  0.00     0.022 A 
BRANCH  65  68
ATOM     68  S   UNL A   1      38.235  34.372  40.719  1.00  0.00     0.127 S 
ATOM     69  O   UNL A   1      37.059  33.604  40.310  1.00  0.00    -0.237 OA
ATOM     70  O   UNL A   1      39.279  33.586  41.376  1.00  0.00    -0.237 OA
ATOM     71  O   UNL A   1      37.953  35.657  41.342  1.00  0.00    -0.744 OA
ENDBRANCH  65  68
ENDBRANCH  47  61
BRANCH  48  72
ATOM     72  C   UNL A   1      40.760  27.911  29.157  1.00  0.00     0.023 A 
ATOM     73  C   UNL A   1      40.026  26.705  29.136  1.00  0.00     0.012 A 
ATOM     74  C   UNL A   1      41.656  28.172  28.103  1.00  0.00     0.148 A 
ATOM     75  C   UNL A   1      40.209  25.769  28.114  1.00  0.00     0.002 A 
ATOM     76  C   UNL A   1      41.776  27.272  27.049  1.00  0.00     0.091 A 
ATOM     77  F   UNL A   1      42.379  29.299  28.149  1.00  0.00    -0.205 F 
ATOM     78  C   UNL A   1      41.074  26.059  27.064  1.00  0.00     0.022 A 
BRANCH  76  79
ATOM     79  S   UNL A   1      42.749  27.635  25.583  1.00  0.00     0.127 S 
ATOM     80  O   UNL A   1      42.190  28.915  25.160  1.00  0.00    -0.237 OA
ATOM     81  O   UNL A   1      44.104  27.702  26.131  1.00  0.00    -0.237 OA
ATOM     82  O   UNL A   1      42.525  26.514  24.680  1.00  0.00    -0.744 OA
ENDBRANCH  76  79
ENDBRANCH  48  72
BRANCH  60  83
ATOM     83  C   UNL A   1      44.080  28.690  35.243  1.00  0.00     0.023 A 
ATOM     84  C   UNL A   1      45.403  29.106  34.991  1.00  0.00     0.012 A 
ATOM     85  C   UNL A   1      43.845  27.635  36.146  1.00  0.00     0.148 A 
ATOM     86  C   UNL A   1      46.475  28.461  35.605  1.00  0.00     0.002 A 
ATOM     87  C   UNL A   1      44.914  27.035  36.797  1.00  0.00     0.091 A 
ATOM     88  F   UNL A   1      42.580  27.241  36.352  1.00  0.00    -0.205 F 
ATOM     89  C   UNL A   1      46.231  27.435  36.517  1.00  0.00     0.022 A 
BRANCH  87  90
ATOM     90  S   UNL A   1      44.684  25.782  38.061  1.00  0.00     0.127 S 
ATOM     91  O   UNL A   1      46.065  25.463  38.419  1.00  0.00    -0.237 OA
ATOM     92  O   UNL A   1      43.939  26.512  39.087  1.00  0.00    -0.237 OA
ATOM     93  O   UNL A   1      43.938  24.703  37.427  1.00  0.00    -0.744 OA
ENDBRANCH  87  90
ENDBRANCH  60  83
ENDBRANCH  34  35
ENDBRANCH  27  29
ENDBRANCH  26  27
ENDBRANCH  25  26
ENDBRANCH  24  25
ENDBRANCH  23  24
ENDBRANCH   1  23
TORSDOF 21
ENDMDL
