MODEL 1
REMARK VINA RESULT:     -10.3      0.000      0.000
REMARK SMILES CC1(C(=O)N[C@H](C(=O)OCCOCCOC(=O)c2ccc(-c3c4nc(c(-c5cccc(S(=O)(=O)[O-])c5F)c5ccc([nH]5)c(-c5cccc(S(=O)(=O)[O-])c5F)c5nc(c(-c6cccc(S(=O)(=O)[O-])c6F)c6ccc3[nH]6)C=C5)C=C4)cc2)C2CC2)CCCC1
REMARK SMILES IDX 13 1 12 2 11 3 10 4 9 5 7 6 8 7 6 8 5 9 3 10 4 11 2 13 1 14
REMARK SMILES IDX 84 15 87 16 85 17 86 18 81 19 82 20 83 21 14 22 15 23 16 24
REMARK SMILES IDX 17 25 18 26 19 27 80 28 20 29 79 30 21 31 22 32 23 33 73 34
REMARK SMILES IDX 24 35 78 36 72 37 74 38 25 39 77 40 71 41 70 42 26 44 58 45
REMARK SMILES IDX 38 46 57 47 39 48 42 49 56 50 75 51 40 52 41 53 55 55 76 56
REMARK SMILES IDX 43 57 27 58 28 59 36 60 29 61 31 62 37 63 30 64 32 65 33 66
REMARK SMILES IDX 34 67 35 68 59 69 60 70 68 71 61 72 63 73 69 74 62 75 64 76
REMARK SMILES IDX 65 77 66 78 67 79 44 80 45 81 53 82 46 83 48 84 54 85 47 86
REMARK SMILES IDX 49 87 50 88 51 89 52 90
REMARK H PARENT 5 12 74 43 42 54
REMARK Flexibility Score: inf
ROOT
ATOM      1  C   UNL A   1      31.508  30.145  25.358  1.00  0.00     0.202 C 
ENDROOT
BRANCH   1   2
ATOM      2  O   UNL A   1      32.581  29.296  24.977  1.00  0.00    -0.374 OA
BRANCH   2   3
ATOM      3  C   UNL A   1      32.415  28.321  23.959  1.00  0.00     0.202 C 
BRANCH   3   4
ATOM      4  C   UNL A   1      33.477  27.232  23.837  1.00  0.00     0.261 C 
BRANCH   4   5
ATOM      5  O   UNL A   1      33.776  26.578  25.082  1.00  0.00    -0.462 OA
BRANCH   5   6
ATOM      6  C   UNL A   1      32.751  25.889  25.662  1.00  0.00     0.329 C 
ATOM      7  O   UNL A   1      32.128  26.266  26.649  1.00  0.00    -0.250 OA
BRANCH   6   8
ATOM      8  C   UNL A   1      32.580  24.466  25.065  1.00  0.00     0.195 C 
BRANCH   8   9
ATOM      9  N   UNL A   1      32.917  23.382  25.979  1.00  0.00    -0.342 N 
ATOM     10  C   UNL A   1      34.013  22.600  26.131  1.00  0.00     0.226 C 
ATOM     11  O   UNL A   1      33.906  21.700  26.971  1.00  0.00    -0.274 OA
ATOM     12  H   UNL A   1      32.199  23.175  26.620  1.00  0.00     0.164 HD
BRANCH  10  13
ATOM     13  C   UNL A   1      35.307  22.735  25.296  1.00  0.00     0.046 C 
ATOM     14  C   UNL A   1      34.981  22.657  23.800  1.00  0.00     0.022 C 
ATOM     15  C   UNL A   1      36.246  21.573  25.709  1.00  0.00     0.016 C 
ATOM     16  C   UNL A   1      36.171  23.974  25.572  1.00  0.00     0.016 C 
ATOM     17  C   UNL A   1      37.655  22.031  25.393  1.00  0.00     0.001 C 
ATOM     18  C   UNL A   1      37.636  23.531  25.620  1.00  0.00     0.001 C 
ENDBRANCH  10  13
ENDBRANCH   8   9
BRANCH   8  19
ATOM     19  C   UNL A   1      31.131  24.301  24.627  1.00  0.00     0.023 C 
ATOM     20  C   UNL A   1      30.626  25.024  23.402  1.00  0.00     0.007 C 
ATOM     21  C   UNL A   1      30.713  23.528  23.392  1.00  0.00     0.007 C 
ENDBRANCH   8  19
ENDBRANCH   6   8
ENDBRANCH   5   6
ENDBRANCH   4   5
ENDBRANCH   3   4
ENDBRANCH   2   3
ENDBRANCH   1   2
BRANCH   1  22
ATOM     22  C   UNL A   1      31.717  31.325  26.317  1.00  0.00     0.261 C 
BRANCH  22  23
ATOM     23  O   UNL A   1      32.745  31.176  27.269  1.00  0.00    -0.460 OA
BRANCH  23  24
ATOM     24  C   UNL A   1      33.455  32.271  27.581  1.00  0.00     0.338 C 
ATOM     25  O   UNL A   1      33.148  33.440  27.475  1.00  0.00    -0.246 OA
BRANCH  24  26
ATOM     26  C   UNL A   1      34.664  31.699  28.176  1.00  0.00     0.060 A 
ATOM     27  C   UNL A   1      34.718  30.321  28.392  1.00  0.00     0.016 A 
ATOM     28  C   UNL A   1      35.784  32.521  28.346  1.00  0.00     0.016 A 
ATOM     29  C   UNL A   1      35.910  29.757  28.830  1.00  0.00     0.010 A 
ATOM     30  C   UNL A   1      36.975  31.954  28.772  1.00  0.00     0.010 A 
ATOM     31  C   UNL A   1      37.026  30.579  29.048  1.00  0.00    -0.014 A 
BRANCH  31  32
ATOM     32  C   UNL A   1      38.205  30.043  29.750  1.00  0.00     0.031 A 
ATOM     33  C   UNL A   1      38.444  30.511  31.153  1.00  0.00     0.074 A 
ATOM     34  C   UNL A   1      39.045  29.203  29.123  1.00  0.00     0.049 A 
ATOM     35  N   UNL A   1      39.416  30.213  31.970  1.00  0.00    -0.248 NA
ATOM     36  C   UNL A   1      37.459  31.460  31.707  1.00  0.00     0.031 C 
ATOM     37  C   UNL A   1      38.901  28.735  27.745  1.00  0.00     0.029 A 
ATOM     38  N   UNL A   1      40.204  28.620  29.559  1.00  0.00    -0.354 N 
ATOM     39  C   UNL A   1      39.178  30.957  33.118  1.00  0.00     0.074 A 
ATOM     40  C   UNL A   1      37.984  31.738  32.889  1.00  0.00     0.031 C 
ATOM     41  C   UNL A   1      39.950  27.953  27.439  1.00  0.00     0.029 A 
ATOM     42  C   UNL A   1      40.840  27.877  28.594  1.00  0.00     0.049 A 
ATOM     43  H   UNL A   1      40.549  28.722  30.476  1.00  0.00     0.167 HD
ATOM     44  C   UNL A   1      39.884  30.967  34.271  1.00  0.00     0.034 A 
ATOM     45  C   UNL A   1      42.016  27.220  28.650  1.00  0.00     0.034 A 
ATOM     46  C   UNL A   1      41.057  30.168  34.477  1.00  0.00     0.049 A 
ATOM     47  C   UNL A   1      42.768  27.221  29.955  1.00  0.00     0.074 A 
ATOM     48  C   UNL A   1      41.832  30.048  35.614  1.00  0.00     0.029 A 
ATOM     49  N   UNL A   1      41.628  29.354  33.507  1.00  0.00    -0.354 N 
ATOM     50  N   UNL A   1      42.460  27.817  31.083  1.00  0.00    -0.248 NA
ATOM     51  C   UNL A   1      44.004  26.430  30.012  1.00  0.00     0.031 C 
ATOM     52  C   UNL A   1      42.884  29.172  35.325  1.00  0.00     0.029 A 
ATOM     53  C   UNL A   1      42.750  28.730  34.017  1.00  0.00     0.049 A 
ATOM     54  H   UNL A   1      41.285  29.241  32.592  1.00  0.00     0.167 HD
ATOM     55  C   UNL A   1      43.441  27.447  31.994  1.00  0.00     0.074 A 
ATOM     56  C   UNL A   1      44.347  26.561  31.288  1.00  0.00     0.031 C 
ATOM     57  C   UNL A   1      43.593  27.811  33.292  1.00  0.00     0.034 A 
BRANCH  44  58
ATOM     58  C   UNL A   1      39.379  31.844  35.384  1.00  0.00     0.023 A 
ATOM     59  C   UNL A   1      38.415  31.342  36.283  1.00  0.00     0.012 A 
ATOM     60  C   UNL A   1      39.855  33.159  35.546  1.00  0.00     0.148 A 
ATOM     61  C   UNL A   1      37.906  32.146  37.303  1.00  0.00     0.002 A 
ATOM     62  C   UNL A   1      39.373  33.941  36.591  1.00  0.00     0.091 A 
ATOM     63  F   UNL A   1      40.745  33.631  34.663  1.00  0.00    -0.205 F 
ATOM     64  C   UNL A   1      38.391  33.440  37.461  1.00  0.00     0.022 A 
BRANCH  62  65
ATOM     65  S   UNL A   1      39.985  35.597  36.919  1.00  0.00     0.127 S 
ATOM     66  O   UNL A   1      39.283  35.931  38.157  1.00  0.00    -0.237 OA
ATOM     67  O   UNL A   1      41.422  35.369  37.077  1.00  0.00    -0.237 OA
ATOM     68  O   UNL A   1      39.623  36.396  35.757  1.00  0.00    -0.744 OA
ENDBRANCH  62  65
ENDBRANCH  44  58
BRANCH  45  69
ATOM     69  C   UNL A   1      42.500  26.462  27.461  1.00  0.00     0.023 A 
ATOM     70  C   UNL A   1      43.333  27.103  26.523  1.00  0.00     0.012 A 
ATOM     71  C   UNL A   1      42.194  25.098  27.286  1.00  0.00     0.148 A 
ATOM     72  C   UNL A   1      43.832  26.406  25.420  1.00  0.00     0.002 A 
ATOM     73  C   UNL A   1      42.735  24.396  26.215  1.00  0.00     0.091 A 
ATOM     74  F   UNL A   1      41.389  24.509  28.182  1.00  0.00    -0.205 F 
ATOM     75  C   UNL A   1      43.544  25.052  25.273  1.00  0.00     0.022 A 
BRANCH  73  76
ATOM     76  S   UNL A   1      42.529  22.622  26.023  1.00  0.00     0.127 S 
ATOM     77  O   UNL A   1      41.074  22.490  26.003  1.00  0.00    -0.237 OA
ATOM     78  O   UNL A   1      43.186  22.376  24.738  1.00  0.00    -0.237 OA
ATOM     79  O   UNL A   1      43.207  22.023  27.164  1.00  0.00    -0.744 OA
ENDBRANCH  73  76
ENDBRANCH  45  69
BRANCH  57  80
ATOM     80  C   UNL A   1      44.758  27.229  34.044  1.00  0.00     0.023 A 
ATOM     81  C   UNL A   1      45.998  27.898  34.034  1.00  0.00     0.012 A 
ATOM     82  C   UNL A   1      44.590  26.081  34.841  1.00  0.00     0.148 A 
ATOM     83  C   UNL A   1      47.064  27.416  34.791  1.00  0.00     0.002 A 
ATOM     84  C   UNL A   1      45.642  25.635  35.630  1.00  0.00     0.091 A 
ATOM     85  F   UNL A   1      43.406  25.453  34.818  1.00  0.00    -0.205 F 
ATOM     86  C   UNL A   1      46.882  26.294  35.598  1.00  0.00     0.022 A 
BRANCH  84  87
ATOM     87  S   UNL A   1      45.463  24.262  36.773  1.00  0.00     0.127 S 
ATOM     88  O   UNL A   1      46.802  24.181  37.354  1.00  0.00    -0.237 OA
ATOM     89  O   UNL A   1      44.429  24.749  37.687  1.00  0.00    -0.237 OA
ATOM     90  O   UNL A   1      45.060  23.119  35.965  1.00  0.00    -0.744 OA
ENDBRANCH  84  87
ENDBRANCH  57  80
ENDBRANCH  31  32
ENDBRANCH  24  26
ENDBRANCH  23  24
ENDBRANCH  22  23
ENDBRANCH   1  22
TORSDOF 20
ENDMDL
MODEL 2
REMARK VINA RESULT:     -10.1      4.751     10.259
REMARK SMILES CC1(C(=O)N[C@H](C(=O)OCCOCCOC(=O)c2ccc(-c3c4nc(c(-c5cccc(S(=O)(=O)[O-])c5F)c5ccc([nH]5)c(-c5cccc(S(=O)(=O)[O-])c5F)c5nc(c(-c6cccc(S(=O)(=O)[O-])c6F)c6ccc3[nH]6)C=C5)C=C4)cc2)C2CC2)CCCC1
REMARK SMILES IDX 13 1 12 2 11 3 10 4 9 5 7 6 8 7 6 8 5 9 3 10 4 11 2 13 1 14
REMARK SMILES IDX 84 15 87 16 85 17 86 18 81 19 82 20 83 21 14 22 15 23 16 24
REMARK SMILES IDX 17 25 18 26 19 27 80 28 20 29 79 30 21 31 22 32 23 33 73 34
REMARK SMILES IDX 24 35 78 36 72 37 74 38 25 39 77 40 71 41 70 42 26 44 58 45
REMARK SMILES IDX 38 46 57 47 39 48 42 49 56 50 75 51 40 52 41 53 55 55 76 56
REMARK SMILES IDX 43 57 27 58 28 59 36 60 29 61 31 62 37 63 30 64 32 65 33 66
REMARK SMILES IDX 34 67 35 68 59 69 60 70 68 71 61 72 63 73 69 74 62 75 64 76
REMARK SMILES IDX 65 77 66 78 67 79 44 80 45 81 53 82 46 83 48 84 54 85 47 86
REMARK SMILES IDX 49 87 50 88 51 89 52 90
REMARK H PARENT 5 12 74 43 42 54
REMARK Flexibility Score: inf
ROOT
ATOM      1  C   UNL A   1      37.277  20.199  24.692  1.00  0.00     0.202 C 
ENDROOT
BRANCH   1   2
ATOM      2  O   UNL A   1      36.870  21.551  24.845  1.00  0.00    -0.374 OA
BRANCH   2   3
ATOM      3  C   UNL A   1      35.720  22.049  24.178  1.00  0.00     0.202 C 
BRANCH   3   4
ATOM      4  C   UNL A   1      35.416  23.539  24.302  1.00  0.00     0.261 C 
BRANCH   4   5
ATOM      5  O   UNL A   1      35.008  24.148  23.065  1.00  0.00    -0.462 OA
BRANCH   5   6
ATOM      6  C   UNL A   1      33.713  23.939  22.690  1.00  0.00     0.329 C 
ATOM      7  O   UNL A   1      33.363  23.535  21.586  1.00  0.00    -0.250 OA
BRANCH   6   8
ATOM      8  C   UNL A   1      32.699  24.464  23.742  1.00  0.00     0.195 C 
BRANCH   8   9
ATOM      9  N   UNL A   1      32.024  25.701  23.368  1.00  0.00    -0.342 N 
ATOM     10  C   UNL A   1      31.719  26.835  24.042  1.00  0.00     0.226 C 
ATOM     11  O   UNL A   1      31.043  27.656  23.413  1.00  0.00    -0.274 OA
ATOM     12  H   UNL A   1      31.729  25.715  22.429  1.00  0.00     0.164 HD
BRANCH  10  13
ATOM     13  C   UNL A   1      32.103  27.108  25.515  1.00  0.00     0.046 C 
ATOM     14  C   UNL A   1      31.357  26.142  26.443  1.00  0.00     0.022 C 
ATOM     15  C   UNL A   1      31.713  28.575  25.829  1.00  0.00     0.016 C 
ATOM     16  C   UNL A   1      33.603  27.086  25.844  1.00  0.00     0.016 C 
ATOM     17  C   UNL A   1      32.600  29.015  26.976  1.00  0.00     0.001 C 
ATOM     18  C   UNL A   1      33.906  28.270  26.765  1.00  0.00     0.001 C 
ENDBRANCH  10  13
ENDBRANCH   8   9
BRANCH   8  19
ATOM     19  C   UNL A   1      31.649  23.387  23.974  1.00  0.00     0.023 C 
ATOM     20  C   UNL A   1      32.073  21.961  24.230  1.00  0.00     0.007 C 
ATOM     21  C   UNL A   1      31.399  22.736  25.321  1.00  0.00     0.007 C 
ENDBRANCH   8  19
ENDBRANCH   6   8
ENDBRANCH   5   6
ENDBRANCH   4   5
ENDBRANCH   3   4
ENDBRANCH   2   3
ENDBRANCH   1   2
BRANCH   1  22
ATOM     22  C   UNL A   1      38.572  19.671  25.323  1.00  0.00     0.261 C 
BRANCH  22  23
ATOM     23  O   UNL A   1      39.137  20.467  26.339  1.00  0.00    -0.460 OA
BRANCH  23  24
ATOM     24  C   UNL A   1      40.465  20.391  26.512  1.00  0.00     0.338 C 
ATOM     25  O   UNL A   1      41.205  19.442  26.356  1.00  0.00    -0.246 OA
BRANCH  24  26
ATOM     26  C   UNL A   1      40.816  21.773  26.843  1.00  0.00     0.060 A 
ATOM     27  C   UNL A   1      40.226  22.808  26.115  1.00  0.00     0.016 A 
ATOM     28  C   UNL A   1      41.589  22.015  27.985  1.00  0.00     0.016 A 
ATOM     29  C   UNL A   1      40.452  24.120  26.512  1.00  0.00     0.010 A 
ATOM     30  C   UNL A   1      41.802  23.325  28.385  1.00  0.00     0.010 A 
ATOM     31  C   UNL A   1      41.263  24.376  27.628  1.00  0.00    -0.014 A 
BRANCH  31  32
ATOM     32  C   UNL A   1      41.716  25.750  27.904  1.00  0.00     0.031 A 
ATOM     33  C   UNL A   1      43.115  26.109  27.505  1.00  0.00     0.074 A 
ATOM     34  C   UNL A   1      40.907  26.619  28.531  1.00  0.00     0.049 A 
ATOM     35  N   UNL A   1      43.757  27.233  27.660  1.00  0.00    -0.248 NA
ATOM     36  C   UNL A   1      43.906  25.047  26.853  1.00  0.00     0.031 C 
ATOM     37  C   UNL A   1      39.548  26.331  28.989  1.00  0.00     0.029 A 
ATOM     38  N   UNL A   1      41.126  27.913  28.919  1.00  0.00    -0.354 N 
ATOM     39  C   UNL A   1      45.031  27.006  27.155  1.00  0.00     0.074 A 
ATOM     40  C   UNL A   1      45.083  25.633  26.708  1.00  0.00     0.031 C 
ATOM     41  C   UNL A   1      39.061  27.413  29.619  1.00  0.00     0.029 A 
ATOM     42  C   UNL A   1      40.078  28.462  29.618  1.00  0.00     0.049 A 
ATOM     43  H   UNL A   1      41.955  28.405  28.716  1.00  0.00     0.167 HD
ATOM     44  C   UNL A   1      46.060  27.878  27.054  1.00  0.00     0.034 A 
ATOM     45  C   UNL A   1      39.969  29.675  30.196  1.00  0.00     0.034 A 
ATOM     46  C   UNL A   1      45.975  29.241  27.492  1.00  0.00     0.049 A 
ATOM     47  C   UNL A   1      41.116  30.639  30.042  1.00  0.00     0.074 A 
ATOM     48  C   UNL A   1      46.925  30.239  27.398  1.00  0.00     0.029 A 
ATOM     49  N   UNL A   1      44.865  29.794  28.117  1.00  0.00    -0.354 N 
ATOM     50  N   UNL A   1      42.268  30.460  29.437  1.00  0.00    -0.248 NA
ATOM     51  C   UNL A   1      40.939  31.982  30.610  1.00  0.00     0.031 C 
ATOM     52  C   UNL A   1      46.394  31.394  27.984  1.00  0.00     0.029 A 
ATOM     53  C   UNL A   1      45.105  31.120  28.420  1.00  0.00     0.049 A 
ATOM     54  H   UNL A   1      44.031  29.312  28.316  1.00  0.00     0.167 HD
ATOM     55  C   UNL A   1      42.938  31.674  29.520  1.00  0.00     0.074 A 
ATOM     56  C   UNL A   1      42.055  32.587  30.221  1.00  0.00     0.031 C 
ATOM     57  C   UNL A   1      44.174  32.008  29.071  1.00  0.00     0.034 A 
BRANCH  44  58
ATOM     58  C   UNL A   1      47.331  27.378  26.425  1.00  0.00     0.023 A 
ATOM     59  C   UNL A   1      47.593  27.659  25.067  1.00  0.00     0.012 A 
ATOM     60  C   UNL A   1      48.268  26.637  27.170  1.00  0.00     0.148 A 
ATOM     61  C   UNL A   1      48.749  27.178  24.451  1.00  0.00     0.002 A 
ATOM     62  C   UNL A   1      49.438  26.198  26.560  1.00  0.00     0.091 A 
ATOM     63  F   UNL A   1      47.988  26.352  28.449  1.00  0.00    -0.205 F 
ATOM     64  C   UNL A   1      49.673  26.456  25.199  1.00  0.00     0.022 A 
BRANCH  62  65
ATOM     65  S   UNL A   1      50.722  25.318  27.455  1.00  0.00     0.127 S 
ATOM     66  O   UNL A   1      51.678  25.025  26.388  1.00  0.00    -0.237 OA
ATOM     67  O   UNL A   1      51.173  26.326  28.416  1.00  0.00    -0.237 OA
ATOM     68  O   UNL A   1      50.074  24.160  28.052  1.00  0.00    -0.744 OA
ENDBRANCH  62  65
ENDBRANCH  44  58
BRANCH  45  69
ATOM     69  C   UNL A   1      38.710  30.053  30.898  1.00  0.00     0.023 A 
ATOM     70  C   UNL A   1      38.539  29.700  32.251  1.00  0.00     0.012 A 
ATOM     71  C   UNL A   1      37.711  30.810  30.256  1.00  0.00     0.148 A 
ATOM     72  C   UNL A   1      37.385  30.075  32.944  1.00  0.00     0.002 A 
ATOM     73  C   UNL A   1      36.589  31.224  30.966  1.00  0.00     0.091 A 
ATOM     74  F   UNL A   1      37.885  31.125  28.964  1.00  0.00    -0.205 F 
ATOM     75  C   UNL A   1      36.418  30.846  32.306  1.00  0.00     0.022 A 
BRANCH  73  76
ATOM     76  S   UNL A   1      35.360  32.333  30.265  1.00  0.00     0.127 S 
ATOM     77  O   UNL A   1      36.171  33.498  29.920  1.00  0.00    -0.237 OA
ATOM     78  O   UNL A   1      34.873  31.562  29.120  1.00  0.00    -0.237 OA
ATOM     79  O   UNL A   1      34.371  32.534  31.314  1.00  0.00    -0.744 OA
ENDBRANCH  73  76
ENDBRANCH  45  69
BRANCH  57  80
ATOM     80  C   UNL A   1      44.633  33.422  29.292  1.00  0.00     0.023 A 
ATOM     81  C   UNL A   1      45.318  33.757  30.477  1.00  0.00     0.012 A 
ATOM     82  C   UNL A   1      44.478  34.388  28.280  1.00  0.00     0.148 A 
ATOM     83  C   UNL A   1      45.821  35.043  30.661  1.00  0.00     0.002 A 
ATOM     84  C   UNL A   1      45.024  35.654  28.451  1.00  0.00     0.091 A 
ATOM     85  F   UNL A   1      43.806  34.051  27.170  1.00  0.00    -0.205 F 
ATOM     86  C   UNL A   1      45.686  35.986  29.643  1.00  0.00     0.022 A 
BRANCH  84  87
ATOM     87  S   UNL A   1      44.985  36.893  27.152  1.00  0.00     0.127 S 
ATOM     88  O   UNL A   1      45.793  36.260  26.111  1.00  0.00    -0.237 OA
ATOM     89  O   UNL A   1      43.557  36.982  26.847  1.00  0.00    -0.237 OA
ATOM     90  O   UNL A   1      45.550  38.102  27.737  1.00  0.00    -0.744 OA
ENDBRANCH  84  87
ENDBRANCH  57  80
ENDBRANCH  31  32
ENDBRANCH  24  26
ENDBRANCH  23  24
ENDBRANCH  22  23
ENDBRANCH   1  22
TORSDOF 20
ENDMDL
MODEL 3
REMARK VINA RESULT:     -10.1      1.803      2.529
REMARK SMILES CC1(C(=O)N[C@H](C(=O)OCCOCCOC(=O)c2ccc(-c3c4nc(c(-c5cccc(S(=O)(=O)[O-])c5F)c5ccc([nH]5)c(-c5cccc(S(=O)(=O)[O-])c5F)c5nc(c(-c6cccc(S(=O)(=O)[O-])c6F)c6ccc3[nH]6)C=C5)C=C4)cc2)C2CC2)CCCC1
REMARK SMILES IDX 13 1 12 2 11 3 10 4 9 5 7 6 8 7 6 8 5 9 3 10 4 11 2 13 1 14
REMARK SMILES IDX 84 15 87 16 85 17 86 18 81 19 82 20 83 21 14 22 15 23 16 24
REMARK SMILES IDX 17 25 18 26 19 27 80 28 20 29 79 30 21 31 22 32 23 33 73 34
REMARK SMILES IDX 24 35 78 36 72 37 74 38 25 39 77 40 71 41 70 42 26 44 58 45
REMARK SMILES IDX 38 46 57 47 39 48 42 49 56 50 75 51 40 52 41 53 55 55 76 56
REMARK SMILES IDX 43 57 27 58 28 59 36 60 29 61 31 62 37 63 30 64 32 65 33 66
REMARK SMILES IDX 34 67 35 68 59 69 60 70 68 71 61 72 63 73 69 74 62 75 64 76
REMARK SMILES IDX 65 77 66 78 67 79 44 80 45 81 53 82 46 83 48 84 54 85 47 86
REMARK SMILES IDX 49 87 50 88 51 89 52 90
REMARK H PARENT 5 12 74 43 42 54
REMARK Flexibility Score: inf
ROOT
ATOM      1  C   UNL A   1      32.279  31.228  26.833  1.00  0.00     0.202 C 
ENDROOT
BRANCH   1   2
ATOM      2  O   UNL A   1      31.440  30.817  25.763  1.00  0.00    -0.374 OA
BRANCH   2   3
ATOM      3  C   UNL A   1      31.780  29.699  24.956  1.00  0.00     0.202 C 
BRANCH   3   4
ATOM      4  C   UNL A   1      30.648  28.967  24.242  1.00  0.00     0.261 C 
BRANCH   4   5
ATOM      5  O   UNL A   1      30.890  27.560  24.073  1.00  0.00    -0.462 OA
BRANCH   5   6
ATOM      6  C   UNL A   1      31.887  27.220  23.206  1.00  0.00     0.329 C 
ATOM      7  O   UNL A   1      32.104  27.784  22.138  1.00  0.00    -0.250 OA
BRANCH   6   8
ATOM      8  C   UNL A   1      32.602  25.903  23.611  1.00  0.00     0.195 C 
BRANCH   8   9
ATOM      9  N   UNL A   1      33.022  25.073  22.489  1.00  0.00    -0.342 N 
ATOM     10  C   UNL A   1      33.003  23.738  22.260  1.00  0.00     0.226 C 
ATOM     11  O   UNL A   1      33.541  23.375  21.208  1.00  0.00    -0.274 OA
ATOM     12  H   UNL A   1      33.399  25.591  21.741  1.00  0.00     0.164 HD
BRANCH  10  13
ATOM     13  C   UNL A   1      32.424  22.691  23.240  1.00  0.00     0.046 C 
ATOM     14  C   UNL A   1      32.042  21.414  22.483  1.00  0.00     0.022 C 
ATOM     15  C   UNL A   1      31.175  23.323  23.907  1.00  0.00     0.016 C 
ATOM     16  C   UNL A   1      33.299  22.332  24.450  1.00  0.00     0.016 C 
ATOM     17  C   UNL A   1      30.993  22.610  25.231  1.00  0.00     0.001 C 
ATOM     18  C   UNL A   1      32.400  22.272  25.687  1.00  0.00     0.001 C 
ENDBRANCH  10  13
ENDBRANCH   8   9
BRANCH   8  19
ATOM     19  C   UNL A   1      33.829  26.260  24.439  1.00  0.00     0.023 C 
ATOM     20  C   UNL A   1      33.664  26.769  25.851  1.00  0.00     0.007 C 
ATOM     21  C   UNL A   1      34.311  25.438  25.618  1.00  0.00     0.007 C 
ENDBRANCH   8  19
ENDBRANCH   6   8
ENDBRANCH   5   6
ENDBRANCH   4   5
ENDBRANCH   3   4
ENDBRANCH   2   3
ENDBRANCH   1   2
BRANCH   1  22
ATOM     22  C   UNL A   1      32.366  32.697  27.268  1.00  0.00     0.261 C 
BRANCH  22  23
ATOM     23  O   UNL A   1      33.262  32.981  28.318  1.00  0.00    -0.460 OA
BRANCH  23  24
ATOM     24  C   UNL A   1      34.321  33.753  28.030  1.00  0.00     0.338 C 
ATOM     25  O   UNL A   1      34.351  34.852  27.516  1.00  0.00    -0.246 OA
BRANCH  24  26
ATOM     26  C   UNL A   1      35.432  32.978  28.582  1.00  0.00     0.060 A 
ATOM     27  C   UNL A   1      35.183  31.685  29.046  1.00  0.00     0.016 A 
ATOM     28  C   UNL A   1      36.731  33.487  28.466  1.00  0.00     0.016 A 
ATOM     29  C   UNL A   1      36.256  30.898  29.446  1.00  0.00     0.010 A 
ATOM     30  C   UNL A   1      37.800  32.695  28.855  1.00  0.00     0.010 A 
ATOM     31  C   UNL A   1      37.558  31.415  29.378  1.00  0.00    -0.014 A 
BRANCH  31  32
ATOM     32  C   UNL A   1      38.666  30.698  30.030  1.00  0.00     0.031 A 
ATOM     33  C   UNL A   1      39.016  31.097  31.431  1.00  0.00     0.074 A 
ATOM     34  C   UNL A   1      39.354  29.757  29.363  1.00  0.00     0.049 A 
ATOM     35  N   UNL A   1      39.958  30.643  32.210  1.00  0.00    -0.248 NA
ATOM     36  C   UNL A   1      38.199  32.169  32.034  1.00  0.00     0.031 C 
ATOM     37  C   UNL A   1      39.100  29.343  27.983  1.00  0.00     0.029 A 
ATOM     38  N   UNL A   1      40.428  29.001  29.749  1.00  0.00    -0.354 N 
ATOM     39  C   UNL A   1      39.868  31.390  33.378  1.00  0.00     0.074 A 
ATOM     40  C   UNL A   1      38.796  32.342  33.201  1.00  0.00     0.031 C 
ATOM     41  C   UNL A   1      40.012  28.422  27.629  1.00  0.00     0.029 A 
ATOM     42  C   UNL A   1      40.918  28.193  28.752  1.00  0.00     0.049 A 
ATOM     43  H   UNL A   1      40.813  29.034  30.655  1.00  0.00     0.167 HD
ATOM     44  C   UNL A   1      40.604  31.274  34.506  1.00  0.00     0.034 A 
ATOM     45  C   UNL A   1      41.985  27.370  28.757  1.00  0.00     0.034 A 
ATOM     46  C   UNL A   1      41.653  30.307  34.659  1.00  0.00     0.049 A 
ATOM     47  C   UNL A   1      42.770  27.234  30.036  1.00  0.00     0.074 A 
ATOM     48  C   UNL A   1      42.437  30.051  35.767  1.00  0.00     0.029 A 
ATOM     49  N   UNL A   1      42.067  29.438  33.658  1.00  0.00    -0.354 N 
ATOM     50  N   UNL A   1      42.587  27.846  31.184  1.00  0.00    -0.248 NA
ATOM     51  C   UNL A   1      43.877  26.270  30.039  1.00  0.00     0.031 C 
ATOM     52  C   UNL A   1      43.338  29.037  35.429  1.00  0.00     0.029 A 
ATOM     53  C   UNL A   1      43.100  28.646  34.119  1.00  0.00     0.049 A 
ATOM     54  H   UNL A   1      41.683  29.395  32.754  1.00  0.00     0.167 HD
ATOM     55  C   UNL A   1      43.532  27.317  32.055  1.00  0.00     0.074 A 
ATOM     56  C   UNL A   1      44.275  26.323  31.305  1.00  0.00     0.031 C 
ATOM     57  C   UNL A   1      43.776  27.629  33.353  1.00  0.00     0.034 A 
BRANCH  44  58
ATOM     58  C   UNL A   1      40.269  32.192  35.649  1.00  0.00     0.023 A 
ATOM     59  C   UNL A   1      41.048  33.348  35.865  1.00  0.00     0.012 A 
ATOM     60  C   UNL A   1      39.186  31.919  36.506  1.00  0.00     0.148 A 
ATOM     61  C   UNL A   1      40.778  34.198  36.938  1.00  0.00     0.002 A 
ATOM     62  C   UNL A   1      38.897  32.794  37.548  1.00  0.00     0.091 A 
ATOM     63  F   UNL A   1      38.477  30.800  36.306  1.00  0.00    -0.205 F 
ATOM     64  C   UNL A   1      39.699  33.925  37.773  1.00  0.00     0.022 A 
BRANCH  62  65
ATOM     65  S   UNL A   1      37.488  32.567  38.637  1.00  0.00     0.127 S 
ATOM     66  O   UNL A   1      37.816  33.470  39.739  1.00  0.00    -0.237 OA
ATOM     67  O   UNL A   1      36.374  33.011  37.797  1.00  0.00    -0.237 OA
ATOM     68  O   UNL A   1      37.465  31.150  38.973  1.00  0.00    -0.744 OA
ENDBRANCH  62  65
ENDBRANCH  44  58
BRANCH  45  69
ATOM     69  C   UNL A   1      42.315  26.574  27.542  1.00  0.00     0.023 A 
ATOM     70  C   UNL A   1      43.044  27.175  26.496  1.00  0.00     0.012 A 
ATOM     71  C   UNL A   1      41.967  25.213  27.439  1.00  0.00     0.148 A 
ATOM     72  C   UNL A   1      43.400  26.441  25.363  1.00  0.00     0.002 A 
ATOM     73  C   UNL A   1      42.368  24.474  26.331  1.00  0.00     0.091 A 
ATOM     74  F   UNL A   1      41.261  24.661  28.437  1.00  0.00    -0.205 F 
ATOM     75  C   UNL A   1      43.073  25.090  25.286  1.00  0.00     0.022 A 
BRANCH  73  76
ATOM     76  S   UNL A   1      42.111  22.700  26.211  1.00  0.00     0.127 S 
ATOM     77  O   UNL A   1      42.761  22.220  27.428  1.00  0.00    -0.237 OA
ATOM     78  O   UNL A   1      40.650  22.604  26.216  1.00  0.00    -0.237 OA
ATOM     79  O   UNL A   1      42.732  22.298  24.957  1.00  0.00    -0.744 OA
ENDBRANCH  73  76
ENDBRANCH  45  69
BRANCH  57  80
ATOM     80  C   UNL A   1      44.865  26.867  34.055  1.00  0.00     0.023 A 
ATOM     81  C   UNL A   1      46.202  27.296  33.939  1.00  0.00     0.012 A 
ATOM     82  C   UNL A   1      44.549  25.795  34.910  1.00  0.00     0.148 A 
ATOM     83  C   UNL A   1      47.213  26.651  34.649  1.00  0.00     0.002 A 
ATOM     84  C   UNL A   1      45.554  25.189  35.651  1.00  0.00     0.091 A 
ATOM     85  F   UNL A   1      43.271  25.394  34.989  1.00  0.00    -0.205 F 
ATOM     86  C   UNL A   1      46.888  25.608  35.513  1.00  0.00     0.022 A 
BRANCH  84  87
ATOM     87  S   UNL A   1      45.209  23.909  36.862  1.00  0.00     0.127 S 
ATOM     88  O   UNL A   1      44.782  22.800  36.011  1.00  0.00    -0.237 OA
ATOM     89  O   UNL A   1      46.513  23.722  37.500  1.00  0.00    -0.237 OA
ATOM     90  O   UNL A   1      44.184  24.456  37.740  1.00  0.00    -0.744 OA
ENDBRANCH  84  87
ENDBRANCH  57  80
ENDBRANCH  31  32
ENDBRANCH  24  26
ENDBRANCH  23  24
ENDBRANCH  22  23
ENDBRANCH   1  22
TORSDOF 20
ENDMDL
