MODEL 1
REMARK VINA RESULT:     -11.7      0.000      0.000
REMARK SMILES Cc1c(CC(=O)OCCOCCOC(=O)c2ccc(-c3c4nc(c(-c5cccc(S(=O)(=O)[O-])c5F)c5ccc([nH]5)c(-c5cccc(S(=O)(=O)[O-])c5F)c5nc(c(-c6cccc(S(=O)(=O)[O-])c6F)c6ccc3[nH]6)C=C5)C=C4)cc2)cc(-c2ccccc2)cc1-c1ccccc1
REMARK SMILES IDX 11 1 10 2 9 3 8 4 7 5 5 6 6 7 4 8 3 9 1 10 2 11 88 12 79 13
REMARK SMILES IDX 87 14 80 15 89 16 90 17 94 18 91 19 93 20 92 21 81 22 82 23
REMARK SMILES IDX 86 24 83 25 85 26 84 27 12 28 13 29 14 30 15 31 16 32 17 33
REMARK SMILES IDX 78 34 18 35 77 36 19 37 20 38 21 39 71 40 22 41 76 42 70 43
REMARK SMILES IDX 72 44 23 45 75 46 69 47 68 48 24 50 56 51 36 52 55 53 37 54
REMARK SMILES IDX 40 55 54 56 73 57 38 58 39 59 53 61 74 62 41 63 25 64 26 65
REMARK SMILES IDX 34 66 27 67 29 68 35 69 28 70 30 71 31 72 32 73 33 74 57 75
REMARK SMILES IDX 58 76 66 77 59 78 61 79 67 80 60 81 62 82 63 83 64 84 65 85
REMARK SMILES IDX 42 86 43 87 51 88 44 89 46 90 52 91 45 92 47 93 48 94 49 95
REMARK SMILES IDX 50 96
REMARK H PARENT 72 49 40 60
REMARK Flexibility Score: inf
ROOT
ATOM      1  C   UNL A   1      32.762  28.670  26.985  1.00  0.00     0.202 C 
ENDROOT
BRANCH   1   2
ATOM      2  O   UNL A   1      32.243  27.496  26.396  1.00  0.00    -0.374 OA
BRANCH   2   3
ATOM      3  C   UNL A   1      31.470  27.647  25.215  1.00  0.00     0.202 C 
BRANCH   3   4
ATOM      4  C   UNL A   1      30.926  26.295  24.884  1.00  0.00     0.261 C 
BRANCH   4   5
ATOM      5  O   UNL A   1      31.762  25.592  23.949  1.00  0.00    -0.463 OA
BRANCH   5   6
ATOM      6  C   UNL A   1      32.593  24.599  24.410  1.00  0.00     0.310 C 
ATOM      7  O   UNL A   1      32.838  24.345  25.567  1.00  0.00    -0.252 OA
BRANCH   6   8
ATOM      8  C   UNL A   1      33.183  23.833  23.238  1.00  0.00     0.158 C 
BRANCH   8   9
ATOM      9  C   UNL A   1      34.014  22.661  23.733  1.00  0.00    -0.033 A 
ATOM     10  C   UNL A   1      31.969  21.172  23.687  1.00  0.00     0.045 C 
ATOM     11  C   UNL A   1      33.433  21.405  24.008  1.00  0.00    -0.039 A 
ATOM     12  C   UNL A   1      34.216  20.418  24.652  1.00  0.00    -0.015 A 
ATOM     13  C   UNL A   1      35.323  22.939  24.169  1.00  0.00     0.013 A 
ATOM     14  C   UNL A   1      35.482  20.771  25.171  1.00  0.00     0.017 A 
ATOM     15  C   UNL A   1      36.044  22.031  24.952  1.00  0.00    -0.017 A 
BRANCH  12  16
ATOM     16  C   UNL A   1      33.799  19.008  24.698  1.00  0.00    -0.018 A 
ATOM     17  C   UNL A   1      32.939  18.504  25.681  1.00  0.00     0.009 A 
ATOM     18  C   UNL A   1      34.332  18.115  23.750  1.00  0.00     0.009 A 
ATOM     19  C   UNL A   1      32.631  17.141  25.716  1.00  0.00     0.001 A 
ATOM     20  C   UNL A   1      34.013  16.761  23.774  1.00  0.00     0.001 A 
ATOM     21  C   UNL A   1      33.167  16.273  24.764  1.00  0.00     0.000 A 
ENDBRANCH  12  16
BRANCH  15  22
ATOM     22  C   UNL A   1      37.340  22.412  25.527  1.00  0.00    -0.018 A 
ATOM     23  C   UNL A   1      38.393  21.487  25.651  1.00  0.00     0.009 A 
ATOM     24  C   UNL A   1      37.536  23.700  26.035  1.00  0.00     0.009 A 
ATOM     25  C   UNL A   1      39.568  21.813  26.332  1.00  0.00     0.001 A 
ATOM     26  C   UNL A   1      38.726  24.042  26.685  1.00  0.00     0.001 A 
ATOM     27  C   UNL A   1      39.732  23.092  26.852  1.00  0.00     0.000 A 
ENDBRANCH  15  22
ENDBRANCH   8   9
ENDBRANCH   6   8
ENDBRANCH   5   6
ENDBRANCH   4   5
ENDBRANCH   3   4
ENDBRANCH   2   3
ENDBRANCH   1   2
BRANCH   1  28
ATOM     28  C   UNL A   1      34.218  28.995  26.631  1.00  0.00     0.261 C 
BRANCH  28  29
ATOM     29  O   UNL A   1      34.998  29.153  27.832  1.00  0.00    -0.460 OA
BRANCH  29  30
ATOM     30  C   UNL A   1      35.292  30.443  28.156  1.00  0.00     0.338 C 
ATOM     31  O   UNL A   1      34.753  31.413  27.646  1.00  0.00    -0.246 OA
BRANCH  30  32
ATOM     32  C   UNL A   1      36.510  30.472  29.015  1.00  0.00     0.060 A 
ATOM     33  C   UNL A   1      37.549  31.378  28.744  1.00  0.00     0.016 A 
ATOM     34  C   UNL A   1      36.737  29.394  29.869  1.00  0.00     0.016 A 
ATOM     35  C   UNL A   1      38.852  31.102  29.179  1.00  0.00     0.010 A 
ATOM     36  C   UNL A   1      38.034  29.062  30.184  1.00  0.00     0.010 A 
ATOM     37  C   UNL A   1      39.104  29.892  29.810  1.00  0.00    -0.014 A 
BRANCH  37  38
ATOM     38  C   UNL A   1      40.410  29.399  30.239  1.00  0.00     0.031 A 
ATOM     39  C   UNL A   1      40.882  28.200  29.523  1.00  0.00     0.074 A 
ATOM     40  C   UNL A   1      41.255  30.104  31.033  1.00  0.00     0.049 A 
ATOM     41  N   UNL A   1      41.846  27.451  29.922  1.00  0.00    -0.248 NA
ATOM     42  C   UNL A   1      40.225  27.694  28.316  1.00  0.00     0.031 C 
ATOM     43  C   UNL A   1      42.717  30.044  31.036  1.00  0.00     0.029 A 
ATOM     44  N   UNL A   1      40.994  31.086  32.000  1.00  0.00    -0.354 N 
ATOM     45  C   UNL A   1      42.152  26.611  28.875  1.00  0.00     0.074 A 
ATOM     46  C   UNL A   1      41.010  26.664  28.008  1.00  0.00     0.031 C 
ATOM     47  C   UNL A   1      43.194  30.735  32.089  1.00  0.00     0.029 A 
ATOM     48  C   UNL A   1      42.056  31.120  32.909  1.00  0.00     0.049 A 
ATOM     49  H   UNL A   1      40.192  31.656  32.033  1.00  0.00     0.167 HD
ATOM     50  C   UNL A   1      43.425  26.140  28.782  1.00  0.00     0.034 A 
ATOM     51  C   UNL A   1      41.860  30.923  34.242  1.00  0.00     0.034 A 
ATOM     52  C   UNL A   1      44.204  26.553  29.974  1.00  0.00     0.049 A 
ATOM     53  C   UNL A   1      42.579  29.672  34.661  1.00  0.00     0.074 A 
ATOM     54  C   UNL A   1      45.146  27.549  30.179  1.00  0.00     0.029 A 
ATOM     55  N   UNL A   1      43.792  26.149  31.248  1.00  0.00    -0.354 N 
ATOM     56  N   UNL A   1      43.162  28.890  33.797  1.00  0.00    -0.248 NA
ATOM     57  C   UNL A   1      42.729  29.184  36.026  1.00  0.00     0.031 C 
ATOM     58  C   UNL A   1      45.225  27.800  31.579  1.00  0.00     0.029 A 
ATOM     59  C   UNL A   1      44.364  26.938  32.241  1.00  0.00     0.049 A 
ATOM     60  H   UNL A   1      43.175  25.401  31.420  1.00  0.00     0.167 HD
ATOM     61  C   UNL A   1      43.615  27.769  34.397  1.00  0.00     0.074 A 
ATOM     62  C   UNL A   1      43.390  28.030  35.812  1.00  0.00     0.031 C 
ATOM     63  C   UNL A   1      44.057  26.709  33.659  1.00  0.00     0.034 A 
BRANCH  50  64
ATOM     64  C   UNL A   1      44.065  25.571  27.514  1.00  0.00     0.023 A 
ATOM     65  C   UNL A   1      44.897  26.448  26.783  1.00  0.00     0.012 A 
ATOM     66  C   UNL A   1      43.894  24.283  26.938  1.00  0.00     0.148 A 
ATOM     67  C   UNL A   1      45.481  26.097  25.558  1.00  0.00     0.002 A 
ATOM     68  C   UNL A   1      44.473  23.928  25.713  1.00  0.00     0.091 A 
ATOM     69  F   UNL A   1      43.190  23.345  27.562  1.00  0.00    -0.205 F 
ATOM     70  C   UNL A   1      45.264  24.839  25.017  1.00  0.00     0.022 A 
BRANCH  68  71
ATOM     71  S   UNL A   1      44.234  22.306  24.953  1.00  0.00     0.127 S 
ATOM     72  O   UNL A   1      45.237  21.491  25.640  1.00  0.00    -0.237 OA
ATOM     73  O   UNL A   1      42.850  21.996  25.314  1.00  0.00    -0.237 OA
ATOM     74  O   UNL A   1      44.476  22.471  23.525  1.00  0.00    -0.744 OA
ENDBRANCH  68  71
ENDBRANCH  50  64
BRANCH  51  75
ATOM     75  C   UNL A   1      40.530  31.432  34.711  1.00  0.00     0.023 A 
ATOM     76  C   UNL A   1      39.491  30.473  34.850  1.00  0.00     0.012 A 
ATOM     77  C   UNL A   1      40.419  32.644  35.416  1.00  0.00     0.148 A 
ATOM     78  C   UNL A   1      38.447  30.658  35.763  1.00  0.00     0.002 A 
ATOM     79  C   UNL A   1      39.398  32.804  36.357  1.00  0.00     0.091 A 
ATOM     80  F   UNL A   1      41.341  33.592  35.208  1.00  0.00    -0.205 F 
ATOM     81  C   UNL A   1      38.430  31.803  36.551  1.00  0.00     0.022 A 
BRANCH  79  82
ATOM     82  S   UNL A   1      39.367  34.191  37.502  1.00  0.00     0.127 S 
ATOM     83  O   UNL A   1      40.471  33.862  38.398  1.00  0.00    -0.237 OA
ATOM     84  O   UNL A   1      39.620  35.330  36.617  1.00  0.00    -0.237 OA
ATOM     85  O   UNL A   1      38.039  34.177  38.097  1.00  0.00    -0.744 OA
ENDBRANCH  79  82
ENDBRANCH  51  75
BRANCH  63  86
ATOM     86  C   UNL A   1      44.232  25.346  34.257  1.00  0.00     0.023 A 
ATOM     87  C   UNL A   1      43.229  24.361  34.151  1.00  0.00     0.012 A 
ATOM     88  C   UNL A   1      45.469  24.961  34.815  1.00  0.00     0.148 A 
ATOM     89  C   UNL A   1      43.403  23.082  34.674  1.00  0.00     0.002 A 
ATOM     90  C   UNL A   1      45.682  23.651  35.214  1.00  0.00     0.091 A 
ATOM     91  F   UNL A   1      46.441  25.871  34.976  1.00  0.00    -0.205 F 
ATOM     92  C   UNL A   1      44.639  22.720  35.190  1.00  0.00     0.022 A 
BRANCH  90  93
ATOM     93  S   UNL A   1      47.331  23.069  35.616  1.00  0.00     0.127 S 
ATOM     94  O   UNL A   1      47.614  23.802  36.848  1.00  0.00    -0.237 OA
ATOM     95  O   UNL A   1      47.118  21.631  35.794  1.00  0.00    -0.237 OA
ATOM     96  O   UNL A   1      48.151  23.412  34.461  1.00  0.00    -0.744 OA
ENDBRANCH  90  93
ENDBRANCH  63  86
ENDBRANCH  37  38
ENDBRANCH  30  32
ENDBRANCH  29  30
ENDBRANCH  28  29
ENDBRANCH   1  28
TORSDOF 20
ENDMDL
MODEL 2
REMARK VINA RESULT:     -11.6      5.374      9.298
REMARK SMILES Cc1c(CC(=O)OCCOCCOC(=O)c2ccc(-c3c4nc(c(-c5cccc(S(=O)(=O)[O-])c5F)c5ccc([nH]5)c(-c5cccc(S(=O)(=O)[O-])c5F)c5nc(c(-c6cccc(S(=O)(=O)[O-])c6F)c6ccc3[nH]6)C=C5)C=C4)cc2)cc(-c2ccccc2)cc1-c1ccccc1
REMARK SMILES IDX 11 1 10 2 9 3 8 4 7 5 5 6 6 7 4 8 3 9 1 10 2 11 88 12 79 13
REMARK SMILES IDX 87 14 80 15 89 16 90 17 94 18 91 19 93 20 92 21 81 22 82 23
REMARK SMILES IDX 86 24 83 25 85 26 84 27 12 28 13 29 14 30 15 31 16 32 17 33
REMARK SMILES IDX 78 34 18 35 77 36 19 37 20 38 21 39 71 40 22 41 76 42 70 43
REMARK SMILES IDX 72 44 23 45 75 46 69 47 68 48 24 50 56 51 36 52 55 53 37 54
REMARK SMILES IDX 40 55 54 56 73 57 38 58 39 59 53 61 74 62 41 63 25 64 26 65
REMARK SMILES IDX 34 66 27 67 29 68 35 69 28 70 30 71 31 72 32 73 33 74 57 75
REMARK SMILES IDX 58 76 66 77 59 78 61 79 67 80 60 81 62 82 63 83 64 84 65 85
REMARK SMILES IDX 42 86 43 87 51 88 44 89 46 90 52 91 45 92 47 93 48 94 49 95
REMARK SMILES IDX 50 96
REMARK H PARENT 72 49 40 60
REMARK Flexibility Score: inf
ROOT
ATOM      1  C   UNL A   1      46.108  20.485  24.675  1.00  0.00     0.202 C 
ENDROOT
BRANCH   1   2
ATOM      2  O   UNL A   1      45.411  19.459  25.350  1.00  0.00    -0.374 OA
BRANCH   2   3
ATOM      3  C   UNL A   1      44.288  18.892  24.692  1.00  0.00     0.202 C 
BRANCH   3   4
ATOM      4  C   UNL A   1      43.201  18.789  25.712  1.00  0.00     0.261 C 
BRANCH   4   5
ATOM      5  O   UNL A   1      42.289  19.899  25.641  1.00  0.00    -0.463 OA
BRANCH   5   6
ATOM      6  C   UNL A   1      40.999  19.734  26.084  1.00  0.00     0.310 C 
ATOM      7  O   UNL A   1      40.177  18.966  25.638  1.00  0.00    -0.252 OA
BRANCH   6   8
ATOM      8  C   UNL A   1      40.728  20.671  27.249  1.00  0.00     0.158 C 
BRANCH   8   9
ATOM      9  C   UNL A   1      40.023  21.928  26.766  1.00  0.00    -0.033 A 
ATOM     10  C   UNL A   1      41.532  23.350  28.218  1.00  0.00     0.045 C 
ATOM     11  C   UNL A   1      40.359  23.204  27.267  1.00  0.00    -0.039 A 
ATOM     12  C   UNL A   1      39.538  24.306  26.930  1.00  0.00    -0.015 A 
ATOM     13  C   UNL A   1      38.847  21.758  26.013  1.00  0.00     0.013 A 
ATOM     14  C   UNL A   1      38.311  24.076  26.268  1.00  0.00     0.017 A 
ATOM     15  C   UNL A   1      37.943  22.807  25.816  1.00  0.00    -0.017 A 
BRANCH  12  16
ATOM     16  C   UNL A   1      39.977  25.693  27.148  1.00  0.00    -0.018 A 
ATOM     17  C   UNL A   1      39.479  26.491  28.187  1.00  0.00     0.009 A 
ATOM     18  C   UNL A   1      40.890  26.263  26.243  1.00  0.00     0.009 A 
ATOM     19  C   UNL A   1      39.882  27.824  28.305  1.00  0.00     0.001 A 
ATOM     20  C   UNL A   1      41.302  27.585  26.369  1.00  0.00     0.001 A 
ATOM     21  C   UNL A   1      40.791  28.368  27.398  1.00  0.00     0.000 A 
ENDBRANCH  12  16
BRANCH  15  22
ATOM     22  C   UNL A   1      36.649  22.560  25.167  1.00  0.00    -0.018 A 
ATOM     23  C   UNL A   1      35.823  21.488  25.551  1.00  0.00     0.009 A 
ATOM     24  C   UNL A   1      36.236  23.352  24.091  1.00  0.00     0.009 A 
ATOM     25  C   UNL A   1      34.668  21.169  24.834  1.00  0.00     0.001 A 
ATOM     26  C   UNL A   1      35.061  23.059  23.394  1.00  0.00     0.001 A 
ATOM     27  C   UNL A   1      34.289  21.955  23.752  1.00  0.00     0.000 A 
ENDBRANCH  15  22
ENDBRANCH   8   9
ENDBRANCH   6   8
ENDBRANCH   5   6
ENDBRANCH   4   5
ENDBRANCH   3   4
ENDBRANCH   2   3
ENDBRANCH   1   2
BRANCH   1  28
ATOM     28  C   UNL A   1      45.302  21.760  24.407  1.00  0.00     0.261 C 
BRANCH  28  29
ATOM     29  O   UNL A   1      44.462  22.064  25.537  1.00  0.00    -0.460 OA
BRANCH  29  30
ATOM     30  C   UNL A   1      43.878  23.295  25.501  1.00  0.00     0.338 C 
ATOM     31  O   UNL A   1      43.140  23.672  24.603  1.00  0.00    -0.246 OA
BRANCH  30  32
ATOM     32  C   UNL A   1      44.471  24.156  26.563  1.00  0.00     0.060 A 
ATOM     33  C   UNL A   1      44.876  25.468  26.271  1.00  0.00     0.016 A 
ATOM     34  C   UNL A   1      44.904  23.543  27.738  1.00  0.00     0.016 A 
ATOM     35  C   UNL A   1      45.853  26.093  27.057  1.00  0.00     0.010 A 
ATOM     36  C   UNL A   1      45.952  24.106  28.430  1.00  0.00     0.010 A 
ATOM     37  C   UNL A   1      46.459  25.367  28.073  1.00  0.00    -0.014 A 
BRANCH  37  38
ATOM     38  C   UNL A   1      47.556  25.823  28.922  1.00  0.00     0.031 A 
ATOM     39  C   UNL A   1      48.900  25.641  28.343  1.00  0.00     0.074 A 
ATOM     40  C   UNL A   1      47.382  26.586  30.030  1.00  0.00     0.049 A 
ATOM     41  N   UNL A   1      49.992  25.706  29.015  1.00  0.00    -0.248 NA
ATOM     42  C   UNL A   1      49.110  25.274  26.941  1.00  0.00     0.031 C 
ATOM     43  C   UNL A   1      48.316  27.568  30.580  1.00  0.00     0.029 A 
ATOM     44  N   UNL A   1      46.289  26.692  30.902  1.00  0.00    -0.354 N 
ATOM     45  C   UNL A   1      51.017  25.747  28.097  1.00  0.00     0.074 A 
ATOM     46  C   UNL A   1      50.439  25.279  26.870  1.00  0.00     0.031 C 
ATOM     47  C   UNL A   1      47.882  27.977  31.787  1.00  0.00     0.029 A 
ATOM     48  C   UNL A   1      46.744  27.147  32.145  1.00  0.00     0.049 A 
ATOM     49  H   UNL A   1      45.354  26.481  30.677  1.00  0.00     0.167 HD
ATOM     50  C   UNL A   1      52.173  26.371  28.453  1.00  0.00     0.034 A 
ATOM     51  C   UNL A   1      46.535  26.432  33.285  1.00  0.00     0.034 A 
ATOM     52  C   UNL A   1      52.111  26.769  29.880  1.00  0.00     0.049 A 
ATOM     53  C   UNL A   1      47.862  26.003  33.842  1.00  0.00     0.074 A 
ATOM     54  C   UNL A   1      51.878  27.985  30.505  1.00  0.00     0.029 A 
ATOM     55  N   UNL A   1      51.941  25.793  30.867  1.00  0.00    -0.354 N 
ATOM     56  N   UNL A   1      48.978  26.212  33.202  1.00  0.00    -0.248 NA
ATOM     57  C   UNL A   1      48.083  25.336  35.119  1.00  0.00     0.031 C 
ATOM     58  C   UNL A   1      51.478  27.721  31.847  1.00  0.00     0.029 A 
ATOM     59  C   UNL A   1      51.501  26.351  32.063  1.00  0.00     0.049 A 
ATOM     60  H   UNL A   1      52.113  24.833  30.733  1.00  0.00     0.167 HD
ATOM     61  C   UNL A   1      50.011  25.617  33.836  1.00  0.00     0.074 A 
ATOM     62  C   UNL A   1      49.416  25.143  35.078  1.00  0.00     0.031 C 
ATOM     63  C   UNL A   1      51.233  25.510  33.236  1.00  0.00     0.034 A 
BRANCH  50  64
ATOM     64  C   UNL A   1      53.232  26.892  27.479  1.00  0.00     0.023 A 
ATOM     65  C   UNL A   1      53.042  28.202  26.986  1.00  0.00     0.012 A 
ATOM     66  C   UNL A   1      54.365  26.211  26.958  1.00  0.00     0.148 A 
ATOM     67  C   UNL A   1      53.880  28.780  26.023  1.00  0.00     0.002 A 
ATOM     68  C   UNL A   1      55.203  26.783  25.993  1.00  0.00     0.091 A 
ATOM     69  F   UNL A   1      54.691  24.999  27.392  1.00  0.00    -0.205 F 
ATOM     70  C   UNL A   1      54.958  28.070  25.519  1.00  0.00     0.022 A 
BRANCH  68  71
ATOM     71  S   UNL A   1      56.627  25.914  25.296  1.00  0.00     0.127 S 
ATOM     72  O   UNL A   1      57.577  25.934  26.409  1.00  0.00    -0.237 OA
ATOM     73  O   UNL A   1      56.068  24.595  24.999  1.00  0.00    -0.237 OA
ATOM     74  O   UNL A   1      57.057  26.678  24.131  1.00  0.00    -0.744 OA
ENDBRANCH  68  71
ENDBRANCH  50  64
BRANCH  51  75
ATOM     75  C   UNL A   1      45.247  25.663  33.257  1.00  0.00     0.023 A 
ATOM     76  C   UNL A   1      45.313  24.320  32.798  1.00  0.00     0.012 A 
ATOM     77  C   UNL A   1      44.151  26.044  34.053  1.00  0.00     0.148 A 
ATOM     78  C   UNL A   1      44.393  23.358  33.229  1.00  0.00     0.002 A 
ATOM     79  C   UNL A   1      43.262  25.070  34.513  1.00  0.00     0.091 A 
ATOM     80  F   UNL A   1      44.030  27.331  34.399  1.00  0.00    -0.205 F 
ATOM     81  C   UNL A   1      43.397  23.725  34.126  1.00  0.00     0.022 A 
BRANCH  79  82
ATOM     82  S   UNL A   1      42.023  25.429  35.767  1.00  0.00     0.127 S 
ATOM     83  O   UNL A   1      41.322  24.152  35.866  1.00  0.00    -0.237 OA
ATOM     84  O   UNL A   1      42.845  25.763  36.931  1.00  0.00    -0.237 OA
ATOM     85  O   UNL A   1      41.245  26.541  35.242  1.00  0.00    -0.744 OA
ENDBRANCH  79  82
ENDBRANCH  51  75
BRANCH  63  86
ATOM     86  C   UNL A   1      52.284  24.570  33.745  1.00  0.00     0.023 A 
ATOM     87  C   UNL A   1      53.105  24.908  34.841  1.00  0.00     0.012 A 
ATOM     88  C   UNL A   1      52.382  23.259  33.236  1.00  0.00     0.148 A 
ATOM     89  C   UNL A   1      54.058  24.023  35.340  1.00  0.00     0.002 A 
ATOM     90  C   UNL A   1      53.239  22.340  33.821  1.00  0.00     0.091 A 
ATOM     91  F   UNL A   1      51.653  22.901  32.169  1.00  0.00    -0.205 F 
ATOM     92  C   UNL A   1      54.113  22.730  34.841  1.00  0.00     0.022 A 
BRANCH  90  93
ATOM     93  S   UNL A   1      53.142  20.598  33.405  1.00  0.00     0.127 S 
ATOM     94  O   UNL A   1      51.722  20.321  33.607  1.00  0.00    -0.237 OA
ATOM     95  O   UNL A   1      53.575  20.589  32.006  1.00  0.00    -0.237 OA
ATOM     96  O   UNL A   1      54.063  19.933  34.318  1.00  0.00    -0.744 OA
ENDBRANCH  90  93
ENDBRANCH  63  86
ENDBRANCH  37  38
ENDBRANCH  30  32
ENDBRANCH  29  30
ENDBRANCH  28  29
ENDBRANCH   1  28
TORSDOF 20
ENDMDL
MODEL 3
REMARK VINA RESULT:     -11.6      1.555      1.967
REMARK SMILES Cc1c(CC(=O)OCCOCCOC(=O)c2ccc(-c3c4nc(c(-c5cccc(S(=O)(=O)[O-])c5F)c5ccc([nH]5)c(-c5cccc(S(=O)(=O)[O-])c5F)c5nc(c(-c6cccc(S(=O)(=O)[O-])c6F)c6ccc3[nH]6)C=C5)C=C4)cc2)cc(-c2ccccc2)cc1-c1ccccc1
REMARK SMILES IDX 11 1 10 2 9 3 8 4 7 5 5 6 6 7 4 8 3 9 1 10 2 11 88 12 79 13
REMARK SMILES IDX 87 14 80 15 89 16 90 17 94 18 91 19 93 20 92 21 81 22 82 23
REMARK SMILES IDX 86 24 83 25 85 26 84 27 12 28 13 29 14 30 15 31 16 32 17 33
REMARK SMILES IDX 78 34 18 35 77 36 19 37 20 38 21 39 71 40 22 41 76 42 70 43
REMARK SMILES IDX 72 44 23 45 75 46 69 47 68 48 24 50 56 51 36 52 55 53 37 54
REMARK SMILES IDX 40 55 54 56 73 57 38 58 39 59 53 61 74 62 41 63 25 64 26 65
REMARK SMILES IDX 34 66 27 67 29 68 35 69 28 70 30 71 31 72 32 73 33 74 57 75
REMARK SMILES IDX 58 76 66 77 59 78 61 79 67 80 60 81 62 82 63 83 64 84 65 85
REMARK SMILES IDX 42 86 43 87 51 88 44 89 46 90 52 91 45 92 47 93 48 94 49 95
REMARK SMILES IDX 50 96
REMARK H PARENT 72 49 40 60
REMARK Flexibility Score: inf
ROOT
ATOM      1  C   UNL A   1      32.642  29.380  26.422  1.00  0.00     0.202 C 
ENDROOT
BRANCH   1   2
ATOM      2  O   UNL A   1      32.105  29.195  25.128  1.00  0.00    -0.374 OA
BRANCH   2   3
ATOM      3  C   UNL A   1      31.503  27.941  24.845  1.00  0.00     0.202 C 
BRANCH   3   4
ATOM      4  C   UNL A   1      32.394  27.251  23.863  1.00  0.00     0.261 C 
BRANCH   4   5
ATOM      5  O   UNL A   1      33.463  26.541  24.512  1.00  0.00    -0.463 OA
BRANCH   5   6
ATOM      6  C   UNL A   1      33.294  25.213  24.818  1.00  0.00     0.310 C 
ATOM      7  O   UNL A   1      32.935  24.758  25.881  1.00  0.00    -0.252 OA
BRANCH   6   8
ATOM      8  C   UNL A   1      33.625  24.356  23.608  1.00  0.00     0.158 C 
BRANCH   8   9
ATOM      9  C   UNL A   1      34.426  23.133  24.025  1.00  0.00    -0.033 A 
ATOM     10  C   UNL A   1      32.331  21.716  23.944  1.00  0.00     0.045 C 
ATOM     11  C   UNL A   1      33.808  21.884  24.246  1.00  0.00    -0.039 A 
ATOM     12  C   UNL A   1      34.569  20.839  24.822  1.00  0.00    -0.015 A 
ATOM     13  C   UNL A   1      35.751  23.345  24.448  1.00  0.00     0.013 A 
ATOM     14  C   UNL A   1      35.856  21.124  25.332  1.00  0.00     0.017 A 
ATOM     15  C   UNL A   1      36.456  22.374  25.167  1.00  0.00    -0.017 A 
BRANCH  12  16
ATOM     16  C   UNL A   1      34.107  19.444  24.804  1.00  0.00    -0.018 A 
ATOM     17  C   UNL A   1      32.833  19.062  25.243  1.00  0.00     0.009 A 
ATOM     18  C   UNL A   1      34.999  18.441  24.382  1.00  0.00     0.009 A 
ATOM     19  C   UNL A   1      32.471  17.712  25.266  1.00  0.00     0.001 A 
ATOM     20  C   UNL A   1      34.635  17.099  24.391  1.00  0.00     0.001 A 
ATOM     21  C   UNL A   1      33.371  16.734  24.841  1.00  0.00     0.000 A 
ENDBRANCH  12  16
BRANCH  15  22
ATOM     22  C   UNL A   1      37.774  22.683  25.735  1.00  0.00    -0.018 A 
ATOM     23  C   UNL A   1      38.758  21.690  25.897  1.00  0.00     0.009 A 
ATOM     24  C   UNL A   1      38.061  23.972  26.197  1.00  0.00     0.009 A 
ATOM     25  C   UNL A   1      39.952  21.956  26.571  1.00  0.00     0.001 A 
ATOM     26  C   UNL A   1      39.271  24.250  26.839  1.00  0.00     0.001 A 
ATOM     27  C   UNL A   1      40.206  23.238  27.045  1.00  0.00     0.000 A 
ENDBRANCH  15  22
ENDBRANCH   8   9
ENDBRANCH   6   8
ENDBRANCH   5   6
ENDBRANCH   4   5
ENDBRANCH   3   4
ENDBRANCH   2   3
ENDBRANCH   1   2
BRANCH   1  28
ATOM     28  C   UNL A   1      32.807  30.838  26.863  1.00  0.00     0.261 C 
BRANCH  28  29
ATOM     29  O   UNL A   1      33.815  30.936  27.886  1.00  0.00    -0.460 OA
BRANCH  29  30
ATOM     30  C   UNL A   1      34.088  32.206  28.300  1.00  0.00     0.338 C 
ATOM     31  O   UNL A   1      33.459  33.189  27.939  1.00  0.00    -0.246 OA
BRANCH  30  32
ATOM     32  C   UNL A   1      35.387  32.220  29.031  1.00  0.00     0.060 A 
ATOM     33  C   UNL A   1      36.512  32.847  28.470  1.00  0.00     0.016 A 
ATOM     34  C   UNL A   1      35.546  31.343  30.103  1.00  0.00     0.016 A 
ATOM     35  C   UNL A   1      37.800  32.457  28.860  1.00  0.00     0.010 A 
ATOM     36  C   UNL A   1      36.807  30.873  30.391  1.00  0.00     0.010 A 
ATOM     37  C   UNL A   1      37.939  31.399  29.746  1.00  0.00    -0.014 A 
BRANCH  37  38
ATOM     38  C   UNL A   1      39.197  30.800  30.183  1.00  0.00     0.031 A 
ATOM     39  C   UNL A   1      39.524  29.514  29.539  1.00  0.00     0.074 A 
ATOM     40  C   UNL A   1      40.130  31.461  30.914  1.00  0.00     0.049 A 
ATOM     41  N   UNL A   1      40.415  28.695  29.969  1.00  0.00    -0.248 NA
ATOM     42  C   UNL A   1      38.789  29.004  28.380  1.00  0.00     0.031 C 
ATOM     43  C   UNL A   1      41.577  31.248  30.895  1.00  0.00     0.029 A 
ATOM     44  N   UNL A   1      39.996  32.523  31.819  1.00  0.00    -0.354 N 
ATOM     45  C   UNL A   1      40.606  27.763  28.975  1.00  0.00     0.074 A 
ATOM     46  C   UNL A   1      39.455  27.881  28.126  1.00  0.00     0.031 C 
ATOM     47  C   UNL A   1      42.149  31.949  31.892  1.00  0.00     0.029 A 
ATOM     48  C   UNL A   1      41.079  32.504  32.704  1.00  0.00     0.049 A 
ATOM     49  H   UNL A   1      39.259  33.176  31.829  1.00  0.00     0.167 HD
ATOM     50  C   UNL A   1      41.820  27.155  28.889  1.00  0.00     0.034 A 
ATOM     51  C   UNL A   1      40.896  32.413  34.051  1.00  0.00     0.034 A 
ATOM     52  C   UNL A   1      42.667  27.559  30.038  1.00  0.00     0.049 A 
ATOM     53  C   UNL A   1      41.491  31.123  34.539  1.00  0.00     0.074 A 
ATOM     54  C   UNL A   1      43.713  28.462  30.159  1.00  0.00     0.029 A 
ATOM     55  N   UNL A   1      42.247  27.282  31.343  1.00  0.00    -0.354 N 
ATOM     56  N   UNL A   1      41.969  30.230  33.717  1.00  0.00    -0.248 NA
ATOM     57  C   UNL A   1      41.624  30.709  35.929  1.00  0.00     0.031 C 
ATOM     58  C   UNL A   1      43.852  28.791  31.539  1.00  0.00     0.029 A 
ATOM     59  C   UNL A   1      42.923  28.067  32.271  1.00  0.00     0.049 A 
ATOM     60  H   UNL A   1      41.560  26.616  31.575  1.00  0.00     0.167 HD
ATOM     61  C   UNL A   1      42.317  29.108  34.381  1.00  0.00     0.074 A 
ATOM     62  C   UNL A   1      42.156  29.480  35.780  1.00  0.00     0.031 C 
ATOM     63  C   UNL A   1      42.628  27.963  33.706  1.00  0.00     0.034 A 
BRANCH  50  64
ATOM     64  C   UNL A   1      42.366  26.443  27.650  1.00  0.00     0.023 A 
ATOM     65  C   UNL A   1      42.063  27.033  26.403  1.00  0.00     0.012 A 
ATOM     66  C   UNL A   1      43.102  25.230  27.580  1.00  0.00     0.148 A 
ATOM     67  C   UNL A   1      42.420  26.448  25.180  1.00  0.00     0.002 A 
ATOM     68  C   UNL A   1      43.459  24.640  26.361  1.00  0.00     0.091 A 
ATOM     69  F   UNL A   1      43.507  24.613  28.685  1.00  0.00    -0.205 F 
ATOM     70  C   UNL A   1      43.112  25.248  25.156  1.00  0.00     0.022 A 
BRANCH  68  71
ATOM     71  S   UNL A   1      44.363  23.078  26.257  1.00  0.00     0.127 S 
ATOM     72  O   UNL A   1      43.544  22.192  27.085  1.00  0.00    -0.237 OA
ATOM     73  O   UNL A   1      44.314  22.787  24.824  1.00  0.00    -0.237 OA
ATOM     74  O   UNL A   1      45.696  23.328  26.791  1.00  0.00    -0.744 OA
ENDBRANCH  68  71
ENDBRANCH  50  64
BRANCH  51  75
ATOM     75  C   UNL A   1      39.637  33.088  34.510  1.00  0.00     0.023 A 
ATOM     76  C   UNL A   1      38.556  33.118  33.588  1.00  0.00     0.012 A 
ATOM     77  C   UNL A   1      39.355  33.255  35.877  1.00  0.00     0.148 A 
ATOM     78  C   UNL A   1      37.229  33.178  34.027  1.00  0.00     0.002 A 
ATOM     79  C   UNL A   1      38.028  33.271  36.311  1.00  0.00     0.091 A 
ATOM     80  F   UNL A   1      40.379  33.332  36.736  1.00  0.00    -0.205 F 
ATOM     81  C   UNL A   1      36.965  33.204  35.392  1.00  0.00     0.022 A 
BRANCH  79  82
ATOM     82  S   UNL A   1      37.594  33.181  38.054  1.00  0.00     0.127 S 
ATOM     83  O   UNL A   1      36.135  33.217  38.000  1.00  0.00    -0.237 OA
ATOM     84  O   UNL A   1      38.155  31.888  38.448  1.00  0.00    -0.237 OA
ATOM     85  O   UNL A   1      38.234  34.329  38.677  1.00  0.00    -0.744 OA
ENDBRANCH  79  82
ENDBRANCH  51  75
BRANCH  63  86
ATOM     86  C   UNL A   1      42.676  26.630  34.390  1.00  0.00     0.023 A 
ATOM     87  C   UNL A   1      41.535  26.078  35.008  1.00  0.00     0.012 A 
ATOM     88  C   UNL A   1      43.828  25.820  34.303  1.00  0.00     0.148 A 
ATOM     89  C   UNL A   1      41.566  24.824  35.612  1.00  0.00     0.002 A 
ATOM     90  C   UNL A   1      43.811  24.522  34.790  1.00  0.00     0.091 A 
ATOM     91  F   UNL A   1      44.951  26.313  33.762  1.00  0.00    -0.205 F 
ATOM     92  C   UNL A   1      42.702  24.036  35.487  1.00  0.00     0.022 A 
BRANCH  90  93
ATOM     93  S   UNL A   1      45.139  23.380  34.403  1.00  0.00     0.127 S 
ATOM     94  O   UNL A   1      45.542  23.828  33.072  1.00  0.00    -0.237 OA
ATOM     95  O   UNL A   1      46.109  23.661  35.464  1.00  0.00    -0.237 OA
ATOM     96  O   UNL A   1      44.540  22.054  34.481  1.00  0.00    -0.744 OA
ENDBRANCH  90  93
ENDBRANCH  63  86
ENDBRANCH  37  38
ENDBRANCH  30  32
ENDBRANCH  29  30
ENDBRANCH  28  29
ENDBRANCH   1  28
TORSDOF 20
ENDMDL
