MODEL 1
REMARK VINA RESULT:      -7.5      0.000      0.000
REMARK SMILES CN(C)S(=O)(=O)c1cccc(-c2cc(Cl)cc(C(=O)OCCOCCOC(=O)c3ccc(-c4c5nc(c(-c6cccc(S(=O)(=O)[O-])c6F)c6ccc([nH]6)c(-c6cccc(S(=O)(=O)[O-])c6F)c6nc(c(-c7cccc(S(=O)(=O)[O-])c7F)c7ccc4[nH]7)C=C6)C=C5)cc3)c2)c1
REMARK SMILES IDX 23 1 22 2 21 3 20 4 18 5 19 6 17 7 12 8 13 9 92 10 14 11
REMARK SMILES IDX 15 12 16 13 11 14 7 15 8 16 93 17 9 18 10 19 4 20 5 21 6 22
REMARK SMILES IDX 2 23 1 24 3 25 24 26 25 27 26 28 27 29 28 30 29 31 30 32
REMARK SMILES IDX 91 33 31 34 90 35 32 36 33 37 34 38 84 39 35 40 89 41 83 42
REMARK SMILES IDX 85 43 36 44 88 45 82 46 81 47 37 49 69 50 49 51 68 52 50 53
REMARK SMILES IDX 53 54 67 55 86 56 51 57 52 58 66 60 87 61 54 62 38 63 39 64
REMARK SMILES IDX 47 65 40 66 42 67 48 68 41 69 43 70 44 71 45 72 46 73 70 74
REMARK SMILES IDX 71 75 79 76 72 77 74 78 80 79 73 80 75 81 76 82 77 83 78 84
REMARK SMILES IDX 55 85 56 86 64 87 57 88 59 89 65 90 58 91 60 92 61 93 62 94
REMARK SMILES IDX 63 95
REMARK H PARENT 85 48 53 59
REMARK Flexibility Score: inf
ROOT
ATOM      1  O   UNL A   1      35.026  35.588  33.850  1.00  0.00    -0.374 OA
ENDROOT
BRANCH   1   2
ATOM      2  C   UNL A   1      35.056  34.189  34.158  1.00  0.00     0.202 C 
BRANCH   2   3
ATOM      3  C   UNL A   1      36.145  33.791  35.160  1.00  0.00     0.261 C 
BRANCH   3   4
ATOM      4  O   UNL A   1      36.837  32.621  34.687  1.00  0.00    -0.460 OA
BRANCH   4   5
ATOM      5  C   UNL A   1      37.783  32.116  35.512  1.00  0.00     0.338 C 
ATOM      6  O   UNL A   1      37.946  32.372  36.692  1.00  0.00    -0.246 OA
BRANCH   5   7
ATOM      7  C   UNL A   1      38.520  31.034  34.812  1.00  0.00     0.062 A 
ATOM      8  C   UNL A   1      40.492  29.613  34.493  1.00  0.00    -0.016 A 
ATOM      9  C   UNL A   1      39.829  29.020  33.403  1.00  0.00     0.029 A 
ATOM     10  C   UNL A   1      39.821  30.651  35.173  1.00  0.00     0.024 A 
ATOM     11  C   UNL A   1      38.547  29.426  33.027  1.00  0.00     0.042 A 
ATOM     12  Cl  UNL A   1      37.778  28.680  31.680  1.00  0.00    -0.084 Cl
ATOM     13  C   UNL A   1      37.883  30.418  33.734  1.00  0.00     0.036 A 
BRANCH   8  14
ATOM     14  C   UNL A   1      41.807  29.106  34.952  1.00  0.00    -0.017 A 
ATOM     15  C   UNL A   1      43.391  27.251  35.154  1.00  0.00     0.083 A 
ATOM     16  C   UNL A   1      44.371  28.123  35.634  1.00  0.00     0.022 A 
ATOM     17  C   UNL A   1      42.122  27.740  34.839  1.00  0.00     0.030 A 
ATOM     18  C   UNL A   1      44.071  29.473  35.802  1.00  0.00     0.002 A 
ATOM     19  C   UNL A   1      42.803  29.958  35.463  1.00  0.00     0.009 A 
BRANCH  15  20
ATOM     20  S   UNL A   1      43.768  25.510  35.050  1.00  0.00     0.242 S 
ATOM     21  O   UNL A   1      42.499  24.823  34.909  1.00  0.00    -0.207 OA
ATOM     22  O   UNL A   1      44.662  25.225  36.151  1.00  0.00    -0.207 OA
BRANCH  20  23
ATOM     23  N   UNL A   1      44.677  25.271  33.601  1.00  0.00    -0.204 NA
ATOM     24  C   UNL A   1      44.682  23.833  33.203  1.00  0.00     0.124 C 
ATOM     25  C   UNL A   1      44.305  26.109  32.432  1.00  0.00     0.124 C 
ENDBRANCH  20  23
ENDBRANCH  15  20
ENDBRANCH   8  14
ENDBRANCH   5   7
ENDBRANCH   4   5
ENDBRANCH   3   4
ENDBRANCH   2   3
ENDBRANCH   1   2
BRANCH   1  26
ATOM     26  C   UNL A   1      34.241  35.963  32.717  1.00  0.00     0.202 C 
BRANCH  26  27
ATOM     27  C   UNL A   1      33.769  34.800  31.839  1.00  0.00     0.261 C 
BRANCH  27  28
ATOM     28  O   UNL A   1      33.575  35.225  30.480  1.00  0.00    -0.460 OA
BRANCH  28  29
ATOM     29  C   UNL A   1      33.699  34.237  29.561  1.00  0.00     0.338 C 
ATOM     30  O   UNL A   1      32.891  33.937  28.696  1.00  0.00    -0.246 OA
BRANCH  29  31
ATOM     31  C   UNL A   1      35.045  33.634  29.631  1.00  0.00     0.060 A 
ATOM     32  C   UNL A   1      35.206  32.543  30.493  1.00  0.00     0.016 A 
ATOM     33  C   UNL A   1      36.142  34.149  28.931  1.00  0.00     0.016 A 
ATOM     34  C   UNL A   1      36.473  32.009  30.713  1.00  0.00     0.010 A 
ATOM     35  C   UNL A   1      37.415  33.610  29.154  1.00  0.00     0.010 A 
ATOM     36  C   UNL A   1      37.591  32.567  30.082  1.00  0.00    -0.014 A 
BRANCH  36  37
ATOM     37  C   UNL A   1      38.942  32.134  30.513  1.00  0.00     0.031 A 
ATOM     38  C   UNL A   1      39.623  31.009  29.780  1.00  0.00     0.074 A 
ATOM     39  C   UNL A   1      39.581  32.772  31.510  1.00  0.00     0.049 A 
ATOM     40  N   UNL A   1      40.847  30.564  29.903  1.00  0.00    -0.248 NA
ATOM     41  C   UNL A   1      38.821  30.292  28.774  1.00  0.00     0.031 C 
ATOM     42  C   UNL A   1      39.022  33.861  32.309  1.00  0.00     0.029 A 
ATOM     43  N   UNL A   1      40.842  32.591  32.020  1.00  0.00    -0.354 N 
ATOM     44  C   UNL A   1      40.959  29.509  29.005  1.00  0.00     0.074 A 
ATOM     45  C   UNL A   1      39.673  29.365  28.358  1.00  0.00     0.031 C 
ATOM     46  C   UNL A   1      39.938  34.252  33.213  1.00  0.00     0.029 A 
ATOM     47  C   UNL A   1      41.144  33.441  33.057  1.00  0.00     0.049 A 
ATOM     48  H   UNL A   1      41.471  31.917  31.675  1.00  0.00     0.167 HD
ATOM     49  C   UNL A   1      42.041  28.744  28.726  1.00  0.00     0.034 A 
ATOM     50  C   UNL A   1      42.270  33.559  33.789  1.00  0.00     0.034 A 
ATOM     51  C   UNL A   1      43.328  28.906  29.346  1.00  0.00     0.049 A 
ATOM     52  C   UNL A   1      43.463  32.701  33.448  1.00  0.00     0.074 A 
ATOM     53  C   UNL A   1      44.503  28.225  29.080  1.00  0.00     0.029 A 
ATOM     54  N   UNL A   1      43.606  29.802  30.366  1.00  0.00    -0.354 N 
ATOM     55  N   UNL A   1      43.603  31.824  32.483  1.00  0.00    -0.248 NA
ATOM     56  C   UNL A   1      44.668  32.884  34.272  1.00  0.00     0.031 C 
ATOM     57  C   UNL A   1      45.490  28.700  29.952  1.00  0.00     0.029 A 
ATOM     58  C   UNL A   1      44.931  29.687  30.750  1.00  0.00     0.049 A 
ATOM     59  H   UNL A   1      42.957  30.429  30.758  1.00  0.00     0.167 HD
ATOM     60  C   UNL A   1      44.920  31.381  32.558  1.00  0.00     0.074 A 
ATOM     61  C   UNL A   1      45.541  32.101  33.651  1.00  0.00     0.031 C 
ATOM     62  C   UNL A   1      45.553  30.451  31.799  1.00  0.00     0.034 A 
BRANCH  49  63
ATOM     63  C   UNL A   1      41.889  27.686  27.665  1.00  0.00     0.023 A 
ATOM     64  C   UNL A   1      42.134  28.017  26.317  1.00  0.00     0.012 A 
ATOM     65  C   UNL A   1      41.558  26.361  28.003  1.00  0.00     0.148 A 
ATOM     66  C   UNL A   1      42.024  27.050  25.317  1.00  0.00     0.002 A 
ATOM     67  C   UNL A   1      41.486  25.394  27.007  1.00  0.00     0.091 A 
ATOM     68  F   UNL A   1      41.300  26.071  29.287  1.00  0.00    -0.205 F 
ATOM     69  C   UNL A   1      41.711  25.739  25.663  1.00  0.00     0.022 A 
BRANCH  67  70
ATOM     70  S   UNL A   1      41.157  23.665  27.367  1.00  0.00     0.127 S 
ATOM     71  O   UNL A   1      39.730  23.695  27.680  1.00  0.00    -0.237 OA
ATOM     72  O   UNL A   1      41.489  23.013  26.100  1.00  0.00    -0.237 OA
ATOM     73  O   UNL A   1      42.038  23.316  28.473  1.00  0.00    -0.744 OA
ENDBRANCH  67  70
ENDBRANCH  49  63
BRANCH  50  74
ATOM     74  C   UNL A   1      42.356  34.592  34.860  1.00  0.00     0.023 A 
ATOM     75  C   UNL A   1      42.789  35.891  34.531  1.00  0.00     0.012 A 
ATOM     76  C   UNL A   1      41.992  34.305  36.190  1.00  0.00     0.148 A 
ATOM     77  C   UNL A   1      42.884  36.879  35.511  1.00  0.00     0.002 A 
ATOM     78  C   UNL A   1      42.039  35.308  37.152  1.00  0.00     0.091 A 
ATOM     79  F   UNL A   1      41.603  33.057  36.487  1.00  0.00    -0.205 F 
ATOM     80  C   UNL A   1      42.500  36.592  36.818  1.00  0.00     0.022 A 
BRANCH  78  81
ATOM     81  S   UNL A   1      41.442  35.062  38.828  1.00  0.00     0.127 S 
ATOM     82  O   UNL A   1      40.063  34.643  38.597  1.00  0.00    -0.237 OA
ATOM     83  O   UNL A   1      42.334  34.010  39.318  1.00  0.00    -0.237 OA
ATOM     84  O   UNL A   1      41.614  36.345  39.495  1.00  0.00    -0.744 OA
ENDBRANCH  78  81
ENDBRANCH  50  74
BRANCH  62  85
ATOM     85  C   UNL A   1      47.004  30.175  32.100  1.00  0.00     0.023 A 
ATOM     86  C   UNL A   1      48.003  30.985  31.521  1.00  0.00     0.012 A 
ATOM     87  C   UNL A   1      47.377  29.161  33.004  1.00  0.00     0.148 A 
ATOM     88  C   UNL A   1      49.349  30.766  31.810  1.00  0.00     0.002 A 
ATOM     89  C   UNL A   1      48.719  28.979  33.322  1.00  0.00     0.091 A 
ATOM     90  F   UNL A   1      46.418  28.385  33.530  1.00  0.00    -0.205 F 
ATOM     91  C   UNL A   1      49.706  29.773  32.718  1.00  0.00     0.022 A 
BRANCH  89  92
ATOM     92  S   UNL A   1      49.245  27.782  34.554  1.00  0.00     0.127 S 
ATOM     93  O   UNL A   1      50.686  28.021  34.609  1.00  0.00    -0.237 OA
ATOM     94  O   UNL A   1      48.512  28.208  35.747  1.00  0.00    -0.237 OA
ATOM     95  O   UNL A   1      48.837  26.482  34.036  1.00  0.00    -0.744 OA
ENDBRANCH  89  92
ENDBRANCH  62  85
ENDBRANCH  36  37
ENDBRANCH  29  31
ENDBRANCH  28  29
ENDBRANCH  27  28
ENDBRANCH  26  27
ENDBRANCH   1  26
TORSDOF 20
ENDMDL
MODEL 2
REMARK VINA RESULT:      -7.4      6.654     12.106
REMARK SMILES CN(C)S(=O)(=O)c1cccc(-c2cc(Cl)cc(C(=O)OCCOCCOC(=O)c3ccc(-c4c5nc(c(-c6cccc(S(=O)(=O)[O-])c6F)c6ccc([nH]6)c(-c6cccc(S(=O)(=O)[O-])c6F)c6nc(c(-c7cccc(S(=O)(=O)[O-])c7F)c7ccc4[nH]7)C=C6)C=C5)cc3)c2)c1
REMARK SMILES IDX 23 1 22 2 21 3 20 4 18 5 19 6 17 7 12 8 13 9 92 10 14 11
REMARK SMILES IDX 15 12 16 13 11 14 7 15 8 16 93 17 9 18 10 19 4 20 5 21 6 22
REMARK SMILES IDX 2 23 1 24 3 25 24 26 25 27 26 28 27 29 28 30 29 31 30 32
REMARK SMILES IDX 91 33 31 34 90 35 32 36 33 37 34 38 84 39 35 40 89 41 83 42
REMARK SMILES IDX 85 43 36 44 88 45 82 46 81 47 37 49 69 50 49 51 68 52 50 53
REMARK SMILES IDX 53 54 67 55 86 56 51 57 52 58 66 60 87 61 54 62 38 63 39 64
REMARK SMILES IDX 47 65 40 66 42 67 48 68 41 69 43 70 44 71 45 72 46 73 70 74
REMARK SMILES IDX 71 75 79 76 72 77 74 78 80 79 73 80 75 81 76 82 77 83 78 84
REMARK SMILES IDX 55 85 56 86 64 87 57 88 59 89 65 90 58 91 60 92 61 93 62 94
REMARK SMILES IDX 63 95
REMARK H PARENT 85 48 53 59
REMARK Flexibility Score: inf
ROOT
ATOM      1  O   UNL A   1      41.888  19.960  25.770  1.00  0.00    -0.374 OA
ENDROOT
BRANCH   1   2
ATOM      2  C   UNL A   1      40.643  19.963  26.477  1.00  0.00     0.202 C 
BRANCH   2   3
ATOM      3  C   UNL A   1      39.940  21.325  26.506  1.00  0.00     0.261 C 
BRANCH   3   4
ATOM      4  O   UNL A   1      38.736  21.268  25.720  1.00  0.00    -0.460 OA
BRANCH   4   5
ATOM      5  C   UNL A   1      37.931  22.353  25.788  1.00  0.00     0.338 C 
ATOM      6  O   UNL A   1      38.264  23.507  25.992  1.00  0.00    -0.246 OA
BRANCH   5   7
ATOM      7  C   UNL A   1      36.553  21.969  25.392  1.00  0.00     0.062 A 
ATOM      8  C   UNL A   1      34.209  22.505  24.915  1.00  0.00    -0.016 A 
ATOM      9  C   UNL A   1      33.993  21.134  24.683  1.00  0.00     0.029 A 
ATOM     10  C   UNL A   1      35.506  22.900  25.301  1.00  0.00     0.024 A 
ATOM     11  C   UNL A   1      35.028  20.206  24.806  1.00  0.00     0.042 A 
ATOM     12  Cl  UNL A   1      34.716  18.538  24.523  1.00  0.00    -0.084 Cl
ATOM     13  C   UNL A   1      36.310  20.618  25.143  1.00  0.00     0.036 A 
BRANCH   8  14
ATOM     14  C   UNL A   1      33.132  23.496  24.680  1.00  0.00    -0.017 A 
ATOM     15  C   UNL A   1      32.211  25.322  23.334  1.00  0.00     0.083 A 
ATOM     16  C   UNL A   1      31.023  25.282  24.070  1.00  0.00     0.022 A 
ATOM     17  C   UNL A   1      33.254  24.452  23.654  1.00  0.00     0.030 A 
ATOM     18  C   UNL A   1      30.894  24.379  25.123  1.00  0.00     0.002 A 
ATOM     19  C   UNL A   1      31.937  23.496  25.422  1.00  0.00     0.009 A 
BRANCH  15  20
ATOM     20  S   UNL A   1      32.391  26.560  22.061  1.00  0.00     0.242 S 
ATOM     21  O   UNL A   1      31.099  26.676  21.417  1.00  0.00    -0.207 OA
ATOM     22  O   UNL A   1      33.577  26.199  21.316  1.00  0.00    -0.207 OA
BRANCH  20  23
ATOM     23  N   UNL A   1      32.740  28.055  22.852  1.00  0.00    -0.204 NA
ATOM     24  C   UNL A   1      31.494  28.842  23.082  1.00  0.00     0.124 C 
ATOM     25  C   UNL A   1      33.520  27.978  24.114  1.00  0.00     0.124 C 
ENDBRANCH  20  23
ENDBRANCH  15  20
ENDBRANCH   8  14
ENDBRANCH   5   7
ENDBRANCH   4   5
ENDBRANCH   3   4
ENDBRANCH   2   3
ENDBRANCH   1   2
BRANCH   1  26
ATOM     26  C   UNL A   1      42.766  18.868  26.050  1.00  0.00     0.202 C 
BRANCH  26  27
ATOM     27  C   UNL A   1      43.816  18.586  24.972  1.00  0.00     0.261 C 
BRANCH  27  28
ATOM     28  O   UNL A   1      44.929  19.488  25.086  1.00  0.00    -0.460 OA
BRANCH  28  29
ATOM     29  C   UNL A   1      44.858  20.571  24.275  1.00  0.00     0.338 C 
ATOM     30  O   UNL A   1      44.786  20.570  23.057  1.00  0.00    -0.246 OA
BRANCH  29  31
ATOM     31  C   UNL A   1      44.719  21.805  25.075  1.00  0.00     0.060 A 
ATOM     32  C   UNL A   1      44.210  22.931  24.417  1.00  0.00     0.016 A 
ATOM     33  C   UNL A   1      45.130  21.892  26.410  1.00  0.00     0.016 A 
ATOM     34  C   UNL A   1      44.177  24.162  25.067  1.00  0.00     0.010 A 
ATOM     35  C   UNL A   1      45.095  23.131  27.061  1.00  0.00     0.010 A 
ATOM     36  C   UNL A   1      44.661  24.281  26.376  1.00  0.00    -0.014 A 
BRANCH  36  37
ATOM     37  C   UNL A   1      44.829  25.637  26.952  1.00  0.00     0.031 A 
ATOM     38  C   UNL A   1      46.189  26.283  26.927  1.00  0.00     0.074 A 
ATOM     39  C   UNL A   1      43.772  26.310  27.440  1.00  0.00     0.049 A 
ATOM     40  N   UNL A   1      46.529  27.504  27.251  1.00  0.00    -0.248 NA
ATOM     41  C   UNL A   1      47.313  25.446  26.476  1.00  0.00     0.031 C 
ATOM     42  C   UNL A   1      42.411  25.787  27.537  1.00  0.00     0.029 A 
ATOM     43  N   UNL A   1      43.683  27.582  27.948  1.00  0.00    -0.354 N 
ATOM     44  C   UNL A   1      47.903  27.579  27.059  1.00  0.00     0.074 A 
ATOM     45  C   UNL A   1      48.339  26.274  26.610  1.00  0.00     0.031 C 
ATOM     46  C   UNL A   1      41.619  26.732  28.076  1.00  0.00     0.029 A 
ATOM     47  C   UNL A   1      42.417  27.922  28.362  1.00  0.00     0.049 A 
ATOM     48  H   UNL A   1      44.452  28.193  28.010  1.00  0.00     0.167 HD
ATOM     49  C   UNL A   1      48.726  28.642  27.218  1.00  0.00     0.034 A 
ATOM     50  C   UNL A   1      41.953  29.069  28.898  1.00  0.00     0.034 A 
ATOM     51  C   UNL A   1      48.289  29.947  27.635  1.00  0.00     0.049 A 
ATOM     52  C   UNL A   1      42.890  30.240  29.054  1.00  0.00     0.074 A 
ATOM     53  C   UNL A   1      49.036  31.106  27.758  1.00  0.00     0.029 A 
ATOM     54  N   UNL A   1      46.993  30.264  28.009  1.00  0.00    -0.354 N 
ATOM     55  N   UNL A   1      44.151  30.343  28.709  1.00  0.00    -0.248 NA
ATOM     56  C   UNL A   1      42.325  31.469  29.632  1.00  0.00     0.031 C 
ATOM     57  C   UNL A   1      48.192  32.121  28.224  1.00  0.00     0.029 A 
ATOM     58  C   UNL A   1      46.918  31.597  28.375  1.00  0.00     0.049 A 
ATOM     59  H   UNL A   1      46.237  29.634  28.013  1.00  0.00     0.167 HD
ATOM     60  C   UNL A   1      44.518  31.656  28.990  1.00  0.00     0.074 A 
ATOM     61  C   UNL A   1      43.340  32.315  29.516  1.00  0.00     0.031 C 
ATOM     62  C   UNL A   1      45.725  32.257  28.840  1.00  0.00     0.034 A 
BRANCH  49  63
ATOM     63  C   UNL A   1      50.184  28.449  26.894  1.00  0.00     0.023 A 
ATOM     64  C   UNL A   1      51.109  28.273  27.944  1.00  0.00     0.012 A 
ATOM     65  C   UNL A   1      50.631  28.390  25.561  1.00  0.00     0.148 A 
ATOM     66  C   UNL A   1      52.461  28.069  27.672  1.00  0.00     0.002 A 
ATOM     67  C   UNL A   1      51.974  28.149  25.296  1.00  0.00     0.091 A 
ATOM     68  F   UNL A   1      49.742  28.589  24.577  1.00  0.00    -0.205 F 
ATOM     69  C   UNL A   1      52.891  27.997  26.350  1.00  0.00     0.022 A 
BRANCH  67  70
ATOM     70  S   UNL A   1      52.607  27.972  23.625  1.00  0.00     0.127 S 
ATOM     71  O   UNL A   1      51.781  26.881  23.110  1.00  0.00    -0.237 OA
ATOM     72  O   UNL A   1      52.318  29.282  23.040  1.00  0.00    -0.237 OA
ATOM     73  O   UNL A   1      54.026  27.676  23.767  1.00  0.00    -0.744 OA
ENDBRANCH  67  70
ENDBRANCH  49  63
BRANCH  50  74
ATOM     74  C   UNL A   1      40.510  29.196  29.246  1.00  0.00     0.023 A 
ATOM     75  C   UNL A   1      39.572  29.420  28.219  1.00  0.00     0.012 A 
ATOM     76  C   UNL A   1      40.059  29.076  30.574  1.00  0.00     0.148 A 
ATOM     77  C   UNL A   1      38.214  29.548  28.512  1.00  0.00     0.002 A 
ATOM     78  C   UNL A   1      38.699  29.151  30.853  1.00  0.00     0.091 A 
ATOM     79  F   UNL A   1      40.969  28.884  31.540  1.00  0.00    -0.205 F 
ATOM     80  C   UNL A   1      37.775  29.403  29.826  1.00  0.00     0.022 A 
BRANCH  78  81
ATOM     81  S   UNL A   1      38.034  28.850  32.495  1.00  0.00     0.127 S 
ATOM     82  O   UNL A   1      38.253  27.414  32.648  1.00  0.00    -0.237 OA
ATOM     83  O   UNL A   1      38.888  29.697  33.329  1.00  0.00    -0.237 OA
ATOM     84  O   UNL A   1      36.644  29.280  32.438  1.00  0.00    -0.744 OA
ENDBRANCH  78  81
ENDBRANCH  50  74
BRANCH  62  85
ATOM     85  C   UNL A   1      45.834  33.712  29.220  1.00  0.00     0.023 A 
ATOM     86  C   UNL A   1      46.272  34.063  30.513  1.00  0.00     0.012 A 
ATOM     87  C   UNL A   1      45.567  34.727  28.282  1.00  0.00     0.148 A 
ATOM     88  C   UNL A   1      46.410  35.403  30.875  1.00  0.00     0.002 A 
ATOM     89  C   UNL A   1      45.749  36.060  28.636  1.00  0.00     0.091 A 
ATOM     90  F   UNL A   1      45.129  34.378  27.063  1.00  0.00    -0.205 F 
ATOM     91  C   UNL A   1      46.160  36.400  29.935  1.00  0.00     0.022 A 
BRANCH  89  92
ATOM     92  S   UNL A   1      45.538  37.393  27.450  1.00  0.00     0.127 S 
ATOM     93  O   UNL A   1      46.480  37.012  26.399  1.00  0.00    -0.237 OA
ATOM     94  O   UNL A   1      44.127  37.267  27.077  1.00  0.00    -0.237 OA
ATOM     95  O   UNL A   1      45.855  38.616  28.176  1.00  0.00    -0.744 OA
ENDBRANCH  89  92
ENDBRANCH  62  85
ENDBRANCH  36  37
ENDBRANCH  29  31
ENDBRANCH  28  29
ENDBRANCH  27  28
ENDBRANCH  26  27
ENDBRANCH   1  26
TORSDOF 20
ENDMDL
MODEL 3
REMARK VINA RESULT:      -7.4      2.801      8.782
REMARK SMILES CN(C)S(=O)(=O)c1cccc(-c2cc(Cl)cc(C(=O)OCCOCCOC(=O)c3ccc(-c4c5nc(c(-c6cccc(S(=O)(=O)[O-])c6F)c6ccc([nH]6)c(-c6cccc(S(=O)(=O)[O-])c6F)c6nc(c(-c7cccc(S(=O)(=O)[O-])c7F)c7ccc4[nH]7)C=C6)C=C5)cc3)c2)c1
REMARK SMILES IDX 23 1 22 2 21 3 20 4 18 5 19 6 17 7 12 8 13 9 92 10 14 11
REMARK SMILES IDX 15 12 16 13 11 14 7 15 8 16 93 17 9 18 10 19 4 20 5 21 6 22
REMARK SMILES IDX 2 23 1 24 3 25 24 26 25 27 26 28 27 29 28 30 29 31 30 32
REMARK SMILES IDX 91 33 31 34 90 35 32 36 33 37 34 38 84 39 35 40 89 41 83 42
REMARK SMILES IDX 85 43 36 44 88 45 82 46 81 47 37 49 69 50 49 51 68 52 50 53
REMARK SMILES IDX 53 54 67 55 86 56 51 57 52 58 66 60 87 61 54 62 38 63 39 64
REMARK SMILES IDX 47 65 40 66 42 67 48 68 41 69 43 70 44 71 45 72 46 73 70 74
REMARK SMILES IDX 71 75 79 76 72 77 74 78 80 79 73 80 75 81 76 82 77 83 78 84
REMARK SMILES IDX 55 85 56 86 64 87 57 88 59 89 65 90 58 91 60 92 61 93 62 94
REMARK SMILES IDX 63 95
REMARK H PARENT 85 48 53 59
REMARK Flexibility Score: inf
ROOT
ATOM      1  O   UNL A   1      34.249  35.634  30.531  1.00  0.00    -0.374 OA
ENDROOT
BRANCH   1   2
ATOM      2  C   UNL A   1      33.662  34.976  31.660  1.00  0.00     0.202 C 
BRANCH   2   3
ATOM      3  C   UNL A   1      34.647  34.684  32.798  1.00  0.00     0.261 C 
BRANCH   3   4
ATOM      4  O   UNL A   1      35.952  34.418  32.254  1.00  0.00    -0.460 OA
BRANCH   4   5
ATOM      5  C   UNL A   1      36.997  34.630  33.087  1.00  0.00     0.338 C 
ATOM      6  O   UNL A   1      36.966  34.715  34.302  1.00  0.00    -0.246 OA
BRANCH   5   7
ATOM      7  C   UNL A   1      38.263  34.571  32.315  1.00  0.00     0.062 A 
ATOM      8  C   UNL A   1      40.709  34.522  32.168  1.00  0.00    -0.016 A 
ATOM      9  C   UNL A   1      40.577  34.500  30.768  1.00  0.00     0.029 A 
ATOM     10  C   UNL A   1      39.524  34.587  32.930  1.00  0.00     0.024 A 
ATOM     11  C   UNL A   1      39.321  34.517  30.158  1.00  0.00     0.042 A 
ATOM     12  Cl  UNL A   1      39.207  34.500  28.441  1.00  0.00    -0.084 Cl
ATOM     13  C   UNL A   1      38.164  34.536  30.923  1.00  0.00     0.036 A 
BRANCH   8  14
ATOM     14  C   UNL A   1      42.040  34.398  32.809  1.00  0.00    -0.017 A 
ATOM     15  C   UNL A   1      43.601  35.090  34.563  1.00  0.00     0.083 A 
ATOM     16  C   UNL A   1      44.489  34.077  34.191  1.00  0.00     0.022 A 
ATOM     17  C   UNL A   1      42.405  35.255  33.864  1.00  0.00     0.030 A 
ATOM     18  C   UNL A   1      44.175  33.245  33.118  1.00  0.00     0.002 A 
ATOM     19  C   UNL A   1      42.963  33.404  32.437  1.00  0.00     0.009 A 
BRANCH  15  20
ATOM     20  S   UNL A   1      44.076  36.209  35.870  1.00  0.00     0.242 S 
ATOM     21  O   UNL A   1      43.784  37.545  35.391  1.00  0.00    -0.207 OA
ATOM     22  O   UNL A   1      45.413  35.823  36.263  1.00  0.00    -0.207 OA
BRANCH  20  23
ATOM     23  N   UNL A   1      43.051  35.880  37.220  1.00  0.00    -0.204 NA
ATOM     24  C   UNL A   1      43.836  35.345  38.370  1.00  0.00     0.124 C 
ATOM     25  C   UNL A   1      42.180  36.990  37.685  1.00  0.00     0.124 C 
ENDBRANCH  20  23
ENDBRANCH  15  20
ENDBRANCH   8  14
ENDBRANCH   5   7
ENDBRANCH   4   5
ENDBRANCH   3   4
ENDBRANCH   2   3
ENDBRANCH   1   2
BRANCH   1  26
ATOM     26  C   UNL A   1      34.048  35.005  29.264  1.00  0.00     0.202 C 
BRANCH  26  27
ATOM     27  C   UNL A   1      34.006  33.475  29.298  1.00  0.00     0.261 C 
BRANCH  27  28
ATOM     28  O   UNL A   1      34.119  32.926  27.975  1.00  0.00    -0.460 OA
BRANCH  28  29
ATOM     29  C   UNL A   1      34.166  31.572  27.931  1.00  0.00     0.338 C 
ATOM     30  O   UNL A   1      33.263  30.820  27.604  1.00  0.00    -0.246 OA
BRANCH  29  31
ATOM     31  C   UNL A   1      35.539  31.096  28.191  1.00  0.00     0.060 A 
ATOM     32  C   UNL A   1      35.709  29.717  28.360  1.00  0.00     0.016 A 
ATOM     33  C   UNL A   1      36.628  31.964  28.332  1.00  0.00     0.016 A 
ATOM     34  C   UNL A   1      36.947  29.207  28.740  1.00  0.00     0.010 A 
ATOM     35  C   UNL A   1      37.873  31.449  28.714  1.00  0.00     0.010 A 
ATOM     36  C   UNL A   1      38.025  30.073  28.964  1.00  0.00    -0.014 A 
BRANCH  36  37
ATOM     37  C   UNL A   1      39.255  29.531  29.590  1.00  0.00     0.031 A 
ATOM     38  C   UNL A   1      39.617  29.953  30.990  1.00  0.00     0.074 A 
ATOM     39  C   UNL A   1      40.013  28.628  28.943  1.00  0.00     0.049 A 
ATOM     40  N   UNL A   1      40.565  29.503  31.769  1.00  0.00    -0.248 NA
ATOM     41  C   UNL A   1      38.801  31.022  31.591  1.00  0.00     0.031 C 
ATOM     42  C   UNL A   1      39.780  28.154  27.580  1.00  0.00     0.029 A 
ATOM     43  N   UNL A   1      41.135  27.949  29.349  1.00  0.00    -0.354 N 
ATOM     44  C   UNL A   1      40.472  30.239  32.944  1.00  0.00     0.074 A 
ATOM     45  C   UNL A   1      39.388  31.182  32.768  1.00  0.00     0.031 C 
ATOM     46  C   UNL A   1      40.734  27.260  27.261  1.00  0.00     0.029 A 
ATOM     47  C   UNL A   1      41.643  27.102  28.395  1.00  0.00     0.049 A 
ATOM     48  H   UNL A   1      41.537  28.060  30.241  1.00  0.00     0.167 HD
ATOM     49  C   UNL A   1      41.205  30.127  34.077  1.00  0.00     0.034 A 
ATOM     50  C   UNL A   1      42.712  26.282  28.436  1.00  0.00     0.034 A 
ATOM     51  C   UNL A   1      42.263  29.171  34.264  1.00  0.00     0.049 A 
ATOM     52  C   UNL A   1      43.504  26.169  29.714  1.00  0.00     0.074 A 
ATOM     53  C   UNL A   1      43.018  28.933  35.399  1.00  0.00     0.029 A 
ATOM     54  N   UNL A   1      42.724  28.303  33.287  1.00  0.00    -0.354 N 
ATOM     55  N   UNL A   1      43.297  26.752  30.870  1.00  0.00    -0.248 NA
ATOM     56  C   UNL A   1      44.652  25.249  29.704  1.00  0.00     0.031 C 
ATOM     57  C   UNL A   1      43.948  27.930  35.103  1.00  0.00     0.029 A 
ATOM     58  C   UNL A   1      43.761  27.534  33.787  1.00  0.00     0.049 A 
ATOM     59  H   UNL A   1      42.366  28.241  32.372  1.00  0.00     0.167 HD
ATOM     60  C   UNL A   1      44.261  26.240  31.734  1.00  0.00     0.074 A 
ATOM     61  C   UNL A   1      45.039  25.286  30.972  1.00  0.00     0.031 C 
ATOM     62  C   UNL A   1      44.489  26.544  33.036  1.00  0.00     0.034 A 
BRANCH  49  63
ATOM     63  C   UNL A   1      40.857  31.037  35.225  1.00  0.00     0.023 A 
ATOM     64  C   UNL A   1      41.749  32.067  35.587  1.00  0.00     0.012 A 
ATOM     65  C   UNL A   1      39.634  30.908  35.909  1.00  0.00     0.148 A 
ATOM     66  C   UNL A   1      41.441  32.939  36.631  1.00  0.00     0.002 A 
ATOM     67  C   UNL A   1      39.317  31.804  36.924  1.00  0.00     0.091 A 
ATOM     68  F   UNL A   1      38.812  29.905  35.570  1.00  0.00    -0.205 F 
ATOM     69  C   UNL A   1      40.223  32.813  37.292  1.00  0.00     0.022 A 
BRANCH  67  70
ATOM     70  S   UNL A   1      37.741  31.762  37.784  1.00  0.00     0.127 S 
ATOM     71  O   UNL A   1      38.116  32.239  39.114  1.00  0.00    -0.237 OA
ATOM     72  O   UNL A   1      36.934  32.702  37.005  1.00  0.00    -0.237 OA
ATOM     73  O   UNL A   1      37.288  30.379  37.715  1.00  0.00    -0.744 OA
ENDBRANCH  67  70
ENDBRANCH  49  63
BRANCH  50  74
ATOM     74  C   UNL A   1      43.044  25.434  27.256  1.00  0.00     0.023 A 
ATOM     75  C   UNL A   1      43.861  25.962  26.238  1.00  0.00     0.012 A 
ATOM     76  C   UNL A   1      42.578  24.110  27.146  1.00  0.00     0.148 A 
ATOM     77  C   UNL A   1      44.187  25.197  25.118  1.00  0.00     0.002 A 
ATOM     78  C   UNL A   1      42.950  23.334  26.053  1.00  0.00     0.091 A 
ATOM     79  F   UNL A   1      41.785  23.632  28.115  1.00  0.00    -0.205 F 
ATOM     80  C   UNL A   1      43.741  23.880  25.030  1.00  0.00     0.022 A 
BRANCH  78  81
ATOM     81  S   UNL A   1      42.528  21.593  25.921  1.00  0.00     0.127 S 
ATOM     82  O   UNL A   1      41.110  21.653  25.579  1.00  0.00    -0.237 OA
ATOM     83  O   UNL A   1      43.406  21.148  24.838  1.00  0.00    -0.237 OA
ATOM     84  O   UNL A   1      42.846  21.015  27.220  1.00  0.00    -0.744 OA
ENDBRANCH  78  81
ENDBRANCH  50  74
BRANCH  62  85
ATOM     85  C   UNL A   1      45.609  25.818  33.738  1.00  0.00     0.023 A 
ATOM     86  C   UNL A   1      46.889  26.405  33.801  1.00  0.00     0.012 A 
ATOM     87  C   UNL A   1      45.380  24.590  34.389  1.00  0.00     0.148 A 
ATOM     88  C   UNL A   1      47.930  25.764  34.472  1.00  0.00     0.002 A 
ATOM     89  C   UNL A   1      46.412  23.979  35.094  1.00  0.00     0.091 A 
ATOM     90  F   UNL A   1      44.163  24.033  34.302  1.00  0.00    -0.205 F 
ATOM     91  C   UNL A   1      47.690  24.559  35.127  1.00  0.00     0.022 A 
BRANCH  89  92
ATOM     92  S   UNL A   1      46.151  22.475  36.040  1.00  0.00     0.127 S 
ATOM     93  O   UNL A   1      45.654  21.557  35.015  1.00  0.00    -0.237 OA
ATOM     94  O   UNL A   1      47.496  22.169  36.530  1.00  0.00    -0.237 OA
ATOM     95  O   UNL A   1      45.202  22.831  37.087  1.00  0.00    -0.744 OA
ENDBRANCH  89  92
ENDBRANCH  62  85
ENDBRANCH  36  37
ENDBRANCH  29  31
ENDBRANCH  28  29
ENDBRANCH  27  28
ENDBRANCH  26  27
ENDBRANCH   1  26
TORSDOF 20
ENDMDL
