MODEL 1
REMARK VINA RESULT:     -10.9      0.000      0.000
REMARK SMILES CC(C)n1ccc(C[C@@H](C(=O)OCCOCCOC(=O)c2ccc(-c3c4nc(c(-c5cccc(S(=O)(=O)[O-])c5F)c5ccc([nH]5)c(-c5cccc(S(=O)(=O)[O-])c5F)c5nc(c(-c6cccc(S(=O)(=O)[O-])c6F)c6ccc3[nH]6)C=C5)C=C4)cc2)c2cccc(Cl)c2)n1
REMARK SMILES IDX 15 1 14 2 13 3 12 4 10 5 11 6 9 7 8 8 7 9 4 10 5 11 91 12
REMARK SMILES IDX 6 13 2 14 1 15 3 16 84 17 85 18 90 19 86 20 88 21 87 22
REMARK SMILES IDX 89 23 16 24 17 25 18 26 19 27 20 28 21 29 22 30 83 31 23 32
REMARK SMILES IDX 82 33 24 34 25 35 26 36 76 37 27 38 81 39 75 40 77 41 28 42
REMARK SMILES IDX 80 43 74 44 73 45 29 47 61 48 41 49 60 50 42 51 45 52 59 53
REMARK SMILES IDX 78 54 43 55 44 56 58 58 79 59 46 60 30 61 31 62 39 63 32 64
REMARK SMILES IDX 34 65 40 66 33 67 35 68 36 69 37 70 38 71 62 72 63 73 71 74
REMARK SMILES IDX 64 75 66 76 72 77 65 78 67 79 68 80 69 81 70 82 47 83 48 84
REMARK SMILES IDX 56 85 49 86 51 87 57 88 50 89 52 90 53 91 54 92 55 93
REMARK H PARENT 77 46 45 57
REMARK Flexibility Score: inf
ROOT
ATOM      1  O   UNL A   1      35.851  21.756  24.478  1.00  0.00    -0.374 OA
ENDROOT
BRANCH   1   2
ATOM      2  C   UNL A   1      35.314  23.032  24.111  1.00  0.00     0.202 C 
BRANCH   2   3
ATOM      3  C   UNL A   1      35.545  24.142  25.139  1.00  0.00     0.261 C 
BRANCH   3   4
ATOM      4  O   UNL A   1      34.267  24.670  25.542  1.00  0.00    -0.463 OA
BRANCH   4   5
ATOM      5  C   UNL A   1      33.521  23.987  26.432  1.00  0.00     0.313 C 
ATOM      6  O   UNL A   1      33.994  23.237  27.279  1.00  0.00    -0.252 OA
BRANCH   5   7
ATOM      7  C   UNL A   1      32.019  24.328  26.343  1.00  0.00     0.135 C 
BRANCH   7   8
ATOM      8  C   UNL A   1      31.102  23.396  25.500  1.00  0.00     0.078 C 
BRANCH   8   9
ATOM      9  C   UNL A   1      31.722  22.387  24.569  1.00  0.00     0.064 A 
ATOM     10  N   UNL A   1      32.415  20.496  23.871  1.00  0.00    -0.270 N 
ATOM     11  C   UNL A   1      32.233  21.229  22.737  1.00  0.00     0.109 A 
ATOM     12  N   UNL A   1      32.186  21.205  25.008  1.00  0.00    -0.178 NA
ATOM     13  C   UNL A   1      31.742  22.433  23.156  1.00  0.00     0.045 A 
BRANCH  10  14
ATOM     14  C   UNL A   1      32.842  19.100  23.884  1.00  0.00     0.101 C 
ATOM     15  C   UNL A   1      32.458  18.434  25.198  1.00  0.00     0.033 C 
ATOM     16  C   UNL A   1      32.362  18.318  22.665  1.00  0.00     0.033 C 
ENDBRANCH  10  14
ENDBRANCH   8   9
ENDBRANCH   7   8
BRANCH   7  17
ATOM     17  C   UNL A   1      31.810  25.789  25.860  1.00  0.00    -0.032 A 
ATOM     18  C   UNL A   1      32.053  26.855  26.741  1.00  0.00     0.005 A 
ATOM     19  C   UNL A   1      31.324  26.112  24.575  1.00  0.00     0.025 A 
ATOM     20  C   UNL A   1      31.802  28.181  26.364  1.00  0.00     0.002 A 
ATOM     21  C   UNL A   1      31.056  27.434  24.208  1.00  0.00     0.041 A 
ATOM     22  C   UNL A   1      31.293  28.471  25.099  1.00  0.00     0.020 A 
ATOM     23  Cl  UNL A   1      30.412  27.778  22.648  1.00  0.00    -0.084 Cl
ENDBRANCH   7  17
ENDBRANCH   5   7
ENDBRANCH   4   5
ENDBRANCH   3   4
ENDBRANCH   2   3
ENDBRANCH   1   2
BRANCH   1  24
ATOM     24  C   UNL A   1      37.242  21.535  24.256  1.00  0.00     0.202 C 
BRANCH  24  25
ATOM     25  C   UNL A   1      37.852  20.306  24.900  1.00  0.00     0.261 C 
BRANCH  25  26
ATOM     26  O   UNL A   1      38.771  20.697  25.904  1.00  0.00    -0.460 OA
BRANCH  26  27
ATOM     27  C   UNL A   1      39.970  20.087  25.883  1.00  0.00     0.338 C 
ATOM     28  O   UNL A   1      40.224  18.949  25.510  1.00  0.00    -0.246 OA
BRANCH  27  29
ATOM     29  C   UNL A   1      40.918  20.996  26.526  1.00  0.00     0.060 A 
ATOM     30  C   UNL A   1      40.987  20.961  27.917  1.00  0.00     0.016 A 
ATOM     31  C   UNL A   1      41.501  22.030  25.772  1.00  0.00     0.016 A 
ATOM     32  C   UNL A   1      41.418  22.095  28.560  1.00  0.00     0.010 A 
ATOM     33  C   UNL A   1      41.952  23.146  26.410  1.00  0.00     0.010 A 
ATOM     34  C   UNL A   1      41.789  23.201  27.785  1.00  0.00    -0.014 A 
BRANCH  34  35
ATOM     35  C   UNL A   1      42.116  24.437  28.444  1.00  0.00     0.031 A 
ATOM     36  C   UNL A   1      41.068  25.445  28.194  1.00  0.00     0.074 A 
ATOM     37  C   UNL A   1      43.189  24.538  29.253  1.00  0.00     0.049 A 
ATOM     38  N   UNL A   1      41.126  26.426  27.357  1.00  0.00    -0.248 NA
ATOM     39  C   UNL A   1      39.709  25.165  28.693  1.00  0.00     0.031 C 
ATOM     40  C   UNL A   1      44.072  23.465  29.729  1.00  0.00     0.029 A 
ATOM     41  N   UNL A   1      43.645  25.617  29.934  1.00  0.00    -0.354 N 
ATOM     42  C   UNL A   1      39.901  27.067  27.491  1.00  0.00     0.074 A 
ATOM     43  C   UNL A   1      39.003  26.095  28.047  1.00  0.00     0.031 C 
ATOM     44  C   UNL A   1      44.766  23.904  30.806  1.00  0.00     0.029 A 
ATOM     45  C   UNL A   1      44.478  25.313  31.009  1.00  0.00     0.049 A 
ATOM     46  H   UNL A   1      43.409  26.541  29.689  1.00  0.00     0.167 HD
ATOM     47  C   UNL A   1      39.849  28.426  27.507  1.00  0.00     0.034 A 
ATOM     48  C   UNL A   1      44.820  26.153  32.022  1.00  0.00     0.034 A 
ATOM     49  C   UNL A   1      41.077  28.984  26.983  1.00  0.00     0.049 A 
ATOM     50  C   UNL A   1      44.530  27.530  31.556  1.00  0.00     0.074 A 
ATOM     51  C   UNL A   1      41.767  28.883  25.793  1.00  0.00     0.029 A 
ATOM     52  N   UNL A   1      41.978  29.433  27.918  1.00  0.00    -0.354 N 
ATOM     53  N   UNL A   1      45.181  28.107  30.587  1.00  0.00    -0.248 NA
ATOM     54  C   UNL A   1      43.211  28.075  31.838  1.00  0.00     0.031 C 
ATOM     55  C   UNL A   1      43.143  28.861  26.164  1.00  0.00     0.029 A 
ATOM     56  C   UNL A   1      43.235  29.044  27.545  1.00  0.00     0.049 A 
ATOM     57  H   UNL A   1      41.756  29.951  28.725  1.00  0.00     0.167 HD
ATOM     58  C   UNL A   1      44.190  28.724  29.835  1.00  0.00     0.074 A 
ATOM     59  C   UNL A   1      43.018  28.768  30.712  1.00  0.00     0.031 C 
ATOM     60  C   UNL A   1      44.320  28.843  28.481  1.00  0.00     0.034 A 
BRANCH  47  61
ATOM     61  C   UNL A   1      38.941  29.238  28.409  1.00  0.00     0.023 A 
ATOM     62  C   UNL A   1      39.073  29.014  29.797  1.00  0.00     0.012 A 
ATOM     63  C   UNL A   1      37.800  29.966  27.990  1.00  0.00     0.148 A 
ATOM     64  C   UNL A   1      38.088  29.419  30.704  1.00  0.00     0.002 A 
ATOM     65  C   UNL A   1      36.860  30.430  28.902  1.00  0.00     0.091 A 
ATOM     66  F   UNL A   1      37.529  30.124  26.696  1.00  0.00    -0.205 F 
ATOM     67  C   UNL A   1      36.980  30.127  30.256  1.00  0.00     0.022 A 
BRANCH  65  68
ATOM     68  S   UNL A   1      35.426  31.380  28.374  1.00  0.00     0.127 S 
ATOM     69  O   UNL A   1      34.682  30.383  27.610  1.00  0.00    -0.237 OA
ATOM     70  O   UNL A   1      34.833  31.753  29.657  1.00  0.00    -0.237 OA
ATOM     71  O   UNL A   1      35.949  32.506  27.610  1.00  0.00    -0.744 OA
ENDBRANCH  65  68
ENDBRANCH  47  61
BRANCH  48  72
ATOM     72  C   UNL A   1      45.082  25.874  33.457  1.00  0.00     0.023 A 
ATOM     73  C   UNL A   1      46.406  25.898  33.944  1.00  0.00     0.012 A 
ATOM     74  C   UNL A   1      44.031  25.897  34.399  1.00  0.00     0.148 A 
ATOM     75  C   UNL A   1      46.675  25.980  35.316  1.00  0.00     0.002 A 
ATOM     76  C   UNL A   1      44.300  25.979  35.763  1.00  0.00     0.091 A 
ATOM     77  F   UNL A   1      42.768  25.937  33.954  1.00  0.00    -0.205 F 
ATOM     78  C   UNL A   1      45.622  26.032  36.226  1.00  0.00     0.022 A 
BRANCH  76  79
ATOM     79  S   UNL A   1      42.995  26.099  36.994  1.00  0.00     0.127 S 
ATOM     80  O   UNL A   1      43.697  25.708  38.217  1.00  0.00    -0.237 OA
ATOM     81  O   UNL A   1      42.639  27.513  36.918  1.00  0.00    -0.237 OA
ATOM     82  O   UNL A   1      41.960  25.166  36.570  1.00  0.00    -0.744 OA
ENDBRANCH  76  79
ENDBRANCH  48  72
BRANCH  60  83
ATOM     83  C   UNL A   1      45.675  28.562  27.882  1.00  0.00     0.023 A 
ATOM     84  C   UNL A   1      46.731  29.499  27.867  1.00  0.00     0.012 A 
ATOM     85  C   UNL A   1      45.925  27.250  27.453  1.00  0.00     0.148 A 
ATOM     86  C   UNL A   1      48.002  29.133  27.410  1.00  0.00     0.002 A 
ATOM     87  C   UNL A   1      47.198  26.878  27.047  1.00  0.00     0.091 A 
ATOM     88  F   UNL A   1      44.908  26.375  27.475  1.00  0.00    -0.205 F 
ATOM     89  C   UNL A   1      48.239  27.819  27.013  1.00  0.00     0.022 A 
BRANCH  87  90
ATOM     90  S   UNL A   1      47.577  25.174  26.645  1.00  0.00     0.127 S 
ATOM     91  O   UNL A   1      47.160  25.091  25.248  1.00  0.00    -0.237 OA
ATOM     92  O   UNL A   1      49.023  25.114  26.859  1.00  0.00    -0.237 OA
ATOM     93  O   UNL A   1      46.807  24.362  27.581  1.00  0.00    -0.744 OA
ENDBRANCH  87  90
ENDBRANCH  60  83
ENDBRANCH  34  35
ENDBRANCH  27  29
ENDBRANCH  26  27
ENDBRANCH  25  26
ENDBRANCH  24  25
ENDBRANCH   1  24
TORSDOF 21
ENDMDL
MODEL 2
REMARK VINA RESULT:     -10.4      3.382      7.395
REMARK SMILES CC(C)n1ccc(C[C@@H](C(=O)OCCOCCOC(=O)c2ccc(-c3c4nc(c(-c5cccc(S(=O)(=O)[O-])c5F)c5ccc([nH]5)c(-c5cccc(S(=O)(=O)[O-])c5F)c5nc(c(-c6cccc(S(=O)(=O)[O-])c6F)c6ccc3[nH]6)C=C5)C=C4)cc2)c2cccc(Cl)c2)n1
REMARK SMILES IDX 15 1 14 2 13 3 12 4 10 5 11 6 9 7 8 8 7 9 4 10 5 11 91 12
REMARK SMILES IDX 6 13 2 14 1 15 3 16 84 17 85 18 90 19 86 20 88 21 87 22
REMARK SMILES IDX 89 23 16 24 17 25 18 26 19 27 20 28 21 29 22 30 83 31 23 32
REMARK SMILES IDX 82 33 24 34 25 35 26 36 76 37 27 38 81 39 75 40 77 41 28 42
REMARK SMILES IDX 80 43 74 44 73 45 29 47 61 48 41 49 60 50 42 51 45 52 59 53
REMARK SMILES IDX 78 54 43 55 44 56 58 58 79 59 46 60 30 61 31 62 39 63 32 64
REMARK SMILES IDX 34 65 40 66 33 67 35 68 36 69 37 70 38 71 62 72 63 73 71 74
REMARK SMILES IDX 64 75 66 76 72 77 65 78 67 79 68 80 69 81 70 82 47 83 48 84
REMARK SMILES IDX 56 85 49 86 51 87 57 88 50 89 52 90 53 91 54 92 55 93
REMARK H PARENT 77 46 45 57
REMARK Flexibility Score: inf
ROOT
ATOM      1  O   UNL A   1      38.713  20.296  25.473  1.00  0.00    -0.374 OA
ENDROOT
BRANCH   1   2
ATOM      2  C   UNL A   1      37.481  20.193  24.750  1.00  0.00     0.202 C 
BRANCH   2   3
ATOM      3  C   UNL A   1      36.695  21.502  24.635  1.00  0.00     0.261 C 
BRANCH   3   4
ATOM      4  O   UNL A   1      35.288  21.195  24.622  1.00  0.00    -0.463 OA
BRANCH   4   5
ATOM      5  C   UNL A   1      34.553  21.420  25.729  1.00  0.00     0.313 C 
ATOM      6  O   UNL A   1      35.001  21.343  26.868  1.00  0.00    -0.252 OA
BRANCH   5   7
ATOM      7  C   UNL A   1      33.118  21.889  25.410  1.00  0.00     0.135 C 
BRANCH   7   8
ATOM      8  C   UNL A   1      32.072  20.820  24.983  1.00  0.00     0.078 C 
BRANCH   8   9
ATOM      9  C   UNL A   1      32.542  19.518  24.388  1.00  0.00     0.064 A 
ATOM     10  N   UNL A   1      33.035  17.446  24.288  1.00  0.00    -0.270 N 
ATOM     11  C   UNL A   1      32.823  17.806  22.991  1.00  0.00     0.109 A 
ATOM     12  N   UNL A   1      32.947  18.490  25.153  1.00  0.00    -0.178 NA
ATOM     13  C   UNL A   1      32.458  19.122  23.033  1.00  0.00     0.045 A 
BRANCH  10  14
ATOM     14  C   UNL A   1      33.355  16.088  24.718  1.00  0.00     0.101 C 
ATOM     15  C   UNL A   1      34.818  15.986  25.126  1.00  0.00     0.033 C 
ATOM     16  C   UNL A   1      32.406  15.564  25.792  1.00  0.00     0.033 C 
ENDBRANCH  10  14
ENDBRANCH   8   9
ENDBRANCH   7   8
BRANCH   7  17
ATOM     17  C   UNL A   1      33.127  23.018  24.344  1.00  0.00    -0.032 A 
ATOM     18  C   UNL A   1      32.948  22.696  22.988  1.00  0.00     0.005 A 
ATOM     19  C   UNL A   1      33.366  24.372  24.659  1.00  0.00     0.025 A 
ATOM     20  C   UNL A   1      33.026  23.679  21.993  1.00  0.00     0.002 A 
ATOM     21  C   UNL A   1      33.463  25.347  23.662  1.00  0.00     0.041 A 
ATOM     22  C   UNL A   1      33.294  25.005  22.327  1.00  0.00     0.020 A 
ATOM     23  Cl  UNL A   1      33.811  26.980  24.088  1.00  0.00    -0.084 Cl
ENDBRANCH   7  17
ENDBRANCH   5   7
ENDBRANCH   4   5
ENDBRANCH   3   4
ENDBRANCH   2   3
ENDBRANCH   1   2
BRANCH   1  24
ATOM     24  C   UNL A   1      39.106  21.588  25.929  1.00  0.00     0.202 C 
BRANCH  24  25
ATOM     25  C   UNL A   1      40.547  21.750  26.369  1.00  0.00     0.261 C 
BRANCH  25  26
ATOM     26  O   UNL A   1      40.960  23.090  26.170  1.00  0.00    -0.460 OA
BRANCH  26  27
ATOM     27  C   UNL A   1      42.104  23.456  26.777  1.00  0.00     0.338 C 
ATOM     28  O   UNL A   1      43.222  22.987  26.611  1.00  0.00    -0.246 OA
BRANCH  27  29
ATOM     29  C   UNL A   1      41.746  24.443  27.794  1.00  0.00     0.060 A 
ATOM     30  C   UNL A   1      40.500  25.057  27.673  1.00  0.00     0.016 A 
ATOM     31  C   UNL A   1      42.739  24.929  28.663  1.00  0.00     0.016 A 
ATOM     32  C   UNL A   1      40.349  26.301  28.233  1.00  0.00     0.010 A 
ATOM     33  C   UNL A   1      42.579  26.153  29.239  1.00  0.00     0.010 A 
ATOM     34  C   UNL A   1      41.436  26.864  28.913  1.00  0.00    -0.014 A 
BRANCH  34  35
ATOM     35  C   UNL A   1      41.337  28.218  29.389  1.00  0.00     0.031 A 
ATOM     36  C   UNL A   1      42.325  29.076  28.707  1.00  0.00     0.074 A 
ATOM     37  C   UNL A   1      40.370  28.589  30.251  1.00  0.00     0.049 A 
ATOM     38  N   UNL A   1      43.448  29.490  29.190  1.00  0.00    -0.248 NA
ATOM     39  C   UNL A   1      42.206  29.239  27.247  1.00  0.00     0.031 C 
ATOM     40  C   UNL A   1      39.215  27.807  30.711  1.00  0.00     0.029 A 
ATOM     41  N   UNL A   1      40.142  29.804  30.805  1.00  0.00    -0.354 N 
ATOM     42  C   UNL A   1      44.006  30.246  28.166  1.00  0.00     0.074 A 
ATOM     43  C   UNL A   1      43.385  29.793  26.954  1.00  0.00     0.031 C 
ATOM     44  C   UNL A   1      38.293  28.645  31.243  1.00  0.00     0.029 A 
ATOM     45  C   UNL A   1      38.846  29.988  31.281  1.00  0.00     0.049 A 
ATOM     46  H   UNL A   1      40.835  30.500  30.867  1.00  0.00     0.167 HD
ATOM     47  C   UNL A   1      44.618  31.426  28.456  1.00  0.00     0.034 A 
ATOM     48  C   UNL A   1      38.267  31.178  31.595  1.00  0.00     0.034 A 
ATOM     49  C   UNL A   1      44.925  31.502  29.867  1.00  0.00     0.049 A 
ATOM     50  C   UNL A   1      39.366  32.159  31.769  1.00  0.00     0.074 A 
ATOM     51  C   UNL A   1      45.661  30.740  30.751  1.00  0.00     0.029 A 
ATOM     52  N   UNL A   1      44.062  32.254  30.628  1.00  0.00    -0.354 N 
ATOM     53  N   UNL A   1      40.233  32.094  32.738  1.00  0.00    -0.248 NA
ATOM     54  C   UNL A   1      39.785  32.917  30.600  1.00  0.00     0.031 C 
ATOM     55  C   UNL A   1      44.911  30.752  31.964  1.00  0.00     0.029 A 
ATOM     56  C   UNL A   1      43.808  31.591  31.796  1.00  0.00     0.049 A 
ATOM     57  H   UNL A   1      43.688  33.129  30.374  1.00  0.00     0.167 HD
ATOM     58  C   UNL A   1      41.449  32.357  32.121  1.00  0.00     0.074 A 
ATOM     59  C   UNL A   1      41.100  32.968  30.836  1.00  0.00     0.031 C 
ATOM     60  C   UNL A   1      42.596  31.765  32.567  1.00  0.00     0.034 A 
BRANCH  47  61
ATOM     61  C   UNL A   1      44.511  32.677  27.607  1.00  0.00     0.023 A 
ATOM     62  C   UNL A   1      45.531  32.873  26.649  1.00  0.00     0.012 A 
ATOM     63  C   UNL A   1      43.669  33.784  27.874  1.00  0.00     0.148 A 
ATOM     64  C   UNL A   1      45.751  34.121  26.055  1.00  0.00     0.002 A 
ATOM     65  C   UNL A   1      43.846  35.002  27.227  1.00  0.00     0.091 A 
ATOM     66  F   UNL A   1      42.759  33.731  28.843  1.00  0.00    -0.205 F 
ATOM     67  C   UNL A   1      44.907  35.186  26.344  1.00  0.00     0.022 A 
BRANCH  65  68
ATOM     68  S   UNL A   1      42.760  36.402  27.544  1.00  0.00     0.127 S 
ATOM     69  O   UNL A   1      43.250  37.375  26.572  1.00  0.00    -0.237 OA
ATOM     70  O   UNL A   1      41.449  35.829  27.246  1.00  0.00    -0.237 OA
ATOM     71  O   UNL A   1      42.954  36.751  28.947  1.00  0.00    -0.744 OA
ENDBRANCH  65  68
ENDBRANCH  47  61
BRANCH  48  72
ATOM     72  C   UNL A   1      36.859  31.629  31.461  1.00  0.00     0.023 A 
ATOM     73  C   UNL A   1      36.192  32.180  32.576  1.00  0.00     0.012 A 
ATOM     74  C   UNL A   1      36.278  31.812  30.188  1.00  0.00     0.148 A 
ATOM     75  C   UNL A   1      35.010  32.918  32.425  1.00  0.00     0.002 A 
ATOM     76  C   UNL A   1      35.103  32.545  30.040  1.00  0.00     0.091 A 
ATOM     77  F   UNL A   1      36.929  31.349  29.112  1.00  0.00    -0.205 F 
ATOM     78  C   UNL A   1      34.472  33.110  31.156  1.00  0.00     0.022 A 
BRANCH  76  79
ATOM     79  S   UNL A   1      34.375  32.878  28.429  1.00  0.00     0.127 S 
ATOM     80  O   UNL A   1      35.534  33.343  27.665  1.00  0.00    -0.237 OA
ATOM     81  O   UNL A   1      33.878  31.559  28.046  1.00  0.00    -0.237 OA
ATOM     82  O   UNL A   1      33.356  33.893  28.655  1.00  0.00    -0.744 OA
ENDBRANCH  76  79
ENDBRANCH  48  72
BRANCH  60  83
ATOM     83  C   UNL A   1      42.549  31.070  33.904  1.00  0.00     0.023 A 
ATOM     84  C   UNL A   1      42.579  31.753  35.140  1.00  0.00     0.012 A 
ATOM     85  C   UNL A   1      42.318  29.687  33.898  1.00  0.00     0.148 A 
ATOM     86  C   UNL A   1      42.405  31.059  36.342  1.00  0.00     0.002 A 
ATOM     87  C   UNL A   1      42.097  29.010  35.089  1.00  0.00     0.091 A 
ATOM     88  F   UNL A   1      42.294  29.057  32.714  1.00  0.00    -0.205 F 
ATOM     89  C   UNL A   1      42.150  29.689  36.316  1.00  0.00     0.022 A 
BRANCH  87  90
ATOM     90  S   UNL A   1      41.646  27.276  35.094  1.00  0.00     0.127 S 
ATOM     91  O   UNL A   1      41.277  27.062  36.491  1.00  0.00    -0.237 OA
ATOM     92  O   UNL A   1      40.529  27.238  34.151  1.00  0.00    -0.237 OA
ATOM     93  O   UNL A   1      42.830  26.555  34.639  1.00  0.00    -0.744 OA
ENDBRANCH  87  90
ENDBRANCH  60  83
ENDBRANCH  34  35
ENDBRANCH  27  29
ENDBRANCH  26  27
ENDBRANCH  25  26
ENDBRANCH  24  25
ENDBRANCH   1  24
TORSDOF 21
ENDMDL
MODEL 3
REMARK VINA RESULT:     -10.1      5.336     10.855
REMARK SMILES CC(C)n1ccc(C[C@@H](C(=O)OCCOCCOC(=O)c2ccc(-c3c4nc(c(-c5cccc(S(=O)(=O)[O-])c5F)c5ccc([nH]5)c(-c5cccc(S(=O)(=O)[O-])c5F)c5nc(c(-c6cccc(S(=O)(=O)[O-])c6F)c6ccc3[nH]6)C=C5)C=C4)cc2)c2cccc(Cl)c2)n1
REMARK SMILES IDX 15 1 14 2 13 3 12 4 10 5 11 6 9 7 8 8 7 9 4 10 5 11 91 12
REMARK SMILES IDX 6 13 2 14 1 15 3 16 84 17 85 18 90 19 86 20 88 21 87 22
REMARK SMILES IDX 89 23 16 24 17 25 18 26 19 27 20 28 21 29 22 30 83 31 23 32
REMARK SMILES IDX 82 33 24 34 25 35 26 36 76 37 27 38 81 39 75 40 77 41 28 42
REMARK SMILES IDX 80 43 74 44 73 45 29 47 61 48 41 49 60 50 42 51 45 52 59 53
REMARK SMILES IDX 78 54 43 55 44 56 58 58 79 59 46 60 30 61 31 62 39 63 32 64
REMARK SMILES IDX 34 65 40 66 33 67 35 68 36 69 37 70 38 71 62 72 63 73 71 74
REMARK SMILES IDX 64 75 66 76 72 77 65 78 67 79 68 80 69 81 70 82 47 83 48 84
REMARK SMILES IDX 56 85 49 86 51 87 57 88 50 89 52 90 53 91 54 92 55 93
REMARK H PARENT 77 46 45 57
REMARK Flexibility Score: inf
ROOT
ATOM      1  O   UNL A   1      33.437  34.745  30.460  1.00  0.00    -0.374 OA
ENDROOT
BRANCH   1   2
ATOM      2  C   UNL A   1      34.588  34.946  31.288  1.00  0.00     0.202 C 
BRANCH   2   3
ATOM      3  C   UNL A   1      35.396  33.678  31.580  1.00  0.00     0.261 C 
BRANCH   3   4
ATOM      4  O   UNL A   1      36.779  34.041  31.747  1.00  0.00    -0.463 OA
BRANCH   4   5
ATOM      5  C   UNL A   1      37.256  34.274  32.986  1.00  0.00     0.313 C 
ATOM      6  O   UNL A   1      36.557  34.646  33.923  1.00  0.00    -0.252 OA
BRANCH   5   7
ATOM      7  C   UNL A   1      38.751  33.922  33.129  1.00  0.00     0.135 C 
BRANCH   7   8
ATOM      8  C   UNL A   1      39.498  33.365  31.884  1.00  0.00     0.078 C 
BRANCH   8   9
ATOM      9  C   UNL A   1      40.790  34.002  31.444  1.00  0.00     0.064 A 
ATOM     10  N   UNL A   1      42.174  35.008  30.171  1.00  0.00    -0.270 N 
ATOM     11  C   UNL A   1      42.652  35.225  31.429  1.00  0.00     0.109 A 
ATOM     12  N   UNL A   1      41.083  34.197  30.147  1.00  0.00    -0.178 NA
ATOM     13  C   UNL A   1      41.753  34.629  32.269  1.00  0.00     0.045 A 
BRANCH  10  14
ATOM     14  C   UNL A   1      42.778  35.555  28.960  1.00  0.00     0.101 C 
ATOM     15  C   UNL A   1      43.377  36.928  29.234  1.00  0.00     0.033 C 
ATOM     16  C   UNL A   1      43.770  34.600  28.304  1.00  0.00     0.033 C 
ENDBRANCH  10  14
ENDBRANCH   8   9
ENDBRANCH   7   8
BRANCH   7  17
ATOM     17  C   UNL A   1      38.981  32.946  34.315  1.00  0.00    -0.032 A 
ATOM     18  C   UNL A   1      37.976  32.029  34.665  1.00  0.00     0.005 A 
ATOM     19  C   UNL A   1      40.143  32.967  35.114  1.00  0.00     0.025 A 
ATOM     20  C   UNL A   1      38.118  31.186  35.776  1.00  0.00     0.002 A 
ATOM     21  C   UNL A   1      40.273  32.139  36.233  1.00  0.00     0.041 A 
ATOM     22  C   UNL A   1      39.263  31.248  36.568  1.00  0.00     0.020 A 
ATOM     23  Cl  UNL A   1      41.687  32.235  37.213  1.00  0.00    -0.084 Cl
ENDBRANCH   7  17
ENDBRANCH   5   7
ENDBRANCH   4   5
ENDBRANCH   3   4
ENDBRANCH   2   3
ENDBRANCH   1   2
BRANCH   1  24
ATOM     24  C   UNL A   1      33.651  34.574  29.061  1.00  0.00     0.202 C 
BRANCH  24  25
ATOM     25  C   UNL A   1      33.694  33.150  28.544  1.00  0.00     0.261 C 
BRANCH  25  26
ATOM     26  O   UNL A   1      35.032  32.782  28.266  1.00  0.00    -0.460 OA
BRANCH  26  27
ATOM     27  C   UNL A   1      35.243  31.488  27.963  1.00  0.00     0.338 C 
ATOM     28  O   UNL A   1      34.598  30.785  27.197  1.00  0.00    -0.246 OA
BRANCH  27  29
ATOM     29  C   UNL A   1      36.320  31.020  28.834  1.00  0.00     0.060 A 
ATOM     30  C   UNL A   1      37.416  31.864  28.999  1.00  0.00     0.016 A 
ATOM     31  C   UNL A   1      36.345  29.672  29.234  1.00  0.00     0.016 A 
ATOM     32  C   UNL A   1      38.617  31.288  29.331  1.00  0.00     0.010 A 
ATOM     33  C   UNL A   1      37.532  29.104  29.587  1.00  0.00     0.010 A 
ATOM     34  C   UNL A   1      38.664  29.899  29.511  1.00  0.00    -0.014 A 
BRANCH  34  35
ATOM     35  C   UNL A   1      39.937  29.266  29.727  1.00  0.00     0.031 A 
ATOM     36  C   UNL A   1      40.339  29.390  31.142  1.00  0.00     0.074 A 
ATOM     37  C   UNL A   1      40.552  28.575  28.747  1.00  0.00     0.049 A 
ATOM     38  N   UNL A   1      41.202  30.218  31.627  1.00  0.00    -0.248 NA
ATOM     39  C   UNL A   1      39.485  28.752  32.160  1.00  0.00     0.031 C 
ATOM     40  C   UNL A   1      40.025  28.209  27.426  1.00  0.00     0.029 A 
ATOM     41  N   UNL A   1      41.747  27.936  28.774  1.00  0.00    -0.354 N 
ATOM     42  C   UNL A   1      41.213  29.946  32.989  1.00  0.00     0.074 A 
ATOM     43  C   UNL A   1      39.960  29.308  33.277  1.00  0.00     0.031 C 
ATOM     44  C   UNL A   1      40.777  27.208  26.908  1.00  0.00     0.029 A 
ATOM     45  C   UNL A   1      41.903  26.960  27.793  1.00  0.00     0.049 A 
ATOM     46  H   UNL A   1      42.447  28.144  29.434  1.00  0.00     0.167 HD
ATOM     47  C   UNL A   1      42.396  29.910  33.660  1.00  0.00     0.034 A 
ATOM     48  C   UNL A   1      42.845  25.980  27.777  1.00  0.00     0.034 A 
ATOM     49  C   UNL A   1      43.434  30.557  32.889  1.00  0.00     0.049 A 
ATOM     50  C   UNL A   1      43.915  26.397  28.715  1.00  0.00     0.074 A 
ATOM     51  C   UNL A   1      43.614  31.815  32.353  1.00  0.00     0.029 A 
ATOM     52  N   UNL A   1      44.284  29.719  32.207  1.00  0.00    -0.354 N 
ATOM     53  N   UNL A   1      44.688  27.424  28.504  1.00  0.00    -0.248 NA
ATOM     54  C   UNL A   1      43.804  25.969  30.101  1.00  0.00     0.031 C 
ATOM     55  C   UNL A   1      44.243  31.594  31.092  1.00  0.00     0.029 A 
ATOM     56  C   UNL A   1      44.502  30.229  30.958  1.00  0.00     0.049 A 
ATOM     57  H   UNL A   1      44.674  28.887  32.561  1.00  0.00     0.167 HD
ATOM     58  C   UNL A   1      44.749  28.059  29.738  1.00  0.00     0.074 A 
ATOM     59  C   UNL A   1      44.284  27.061  30.704  1.00  0.00     0.031 C 
ATOM     60  C   UNL A   1      44.860  29.418  29.814  1.00  0.00     0.034 A 
BRANCH  47  61
ATOM     61  C   UNL A   1      42.734  28.907  34.745  1.00  0.00     0.023 A 
ATOM     62  C   UNL A   1      43.266  29.436  35.942  1.00  0.00     0.012 A 
ATOM     63  C   UNL A   1      42.837  27.505  34.570  1.00  0.00     0.148 A 
ATOM     64  C   UNL A   1      43.934  28.628  36.870  1.00  0.00     0.002 A 
ATOM     65  C   UNL A   1      43.437  26.697  35.527  1.00  0.00     0.091 A 
ATOM     66  F   UNL A   1      42.472  26.933  33.425  1.00  0.00    -0.205 F 
ATOM     67  C   UNL A   1      44.019  27.258  36.662  1.00  0.00     0.022 A 
BRANCH  65  68
ATOM     68  S   UNL A   1      43.544  24.912  35.320  1.00  0.00     0.127 S 
ATOM     69  O   UNL A   1      44.609  24.573  36.258  1.00  0.00    -0.237 OA
ATOM     70  O   UNL A   1      42.202  24.490  35.718  1.00  0.00    -0.237 OA
ATOM     71  O   UNL A   1      43.844  24.690  33.910  1.00  0.00    -0.744 OA
ENDBRANCH  65  68
ENDBRANCH  47  61
BRANCH  48  72
ATOM     72  C   UNL A   1      42.776  24.585  27.274  1.00  0.00     0.023 A 
ATOM     73  C   UNL A   1      41.539  23.906  27.264  1.00  0.00     0.012 A 
ATOM     74  C   UNL A   1      43.837  24.036  26.522  1.00  0.00     0.148 A 
ATOM     75  C   UNL A   1      41.354  22.744  26.503  1.00  0.00     0.002 A 
ATOM     76  C   UNL A   1      43.651  22.881  25.767  1.00  0.00     0.091 A 
ATOM     77  F   UNL A   1      44.999  24.700  26.471  1.00  0.00    -0.205 F 
ATOM     78  C   UNL A   1      42.407  22.237  25.746  1.00  0.00     0.022 A 
BRANCH  76  79
ATOM     79  S   UNL A   1      44.947  22.195  24.726  1.00  0.00     0.127 S 
ATOM     80  O   UNL A   1      45.172  23.281  23.770  1.00  0.00    -0.237 OA
ATOM     81  O   UNL A   1      46.029  21.991  25.686  1.00  0.00    -0.237 OA
ATOM     82  O   UNL A   1      44.389  20.984  24.140  1.00  0.00    -0.744 OA
ENDBRANCH  76  79
ENDBRANCH  48  72
BRANCH  60  83
ATOM     83  C   UNL A   1      45.210  30.162  28.550  1.00  0.00     0.023 A 
ATOM     84  C   UNL A   1      44.247  30.656  27.643  1.00  0.00     0.012 A 
ATOM     85  C   UNL A   1      46.559  30.498  28.358  1.00  0.00     0.148 A 
ATOM     86  C   UNL A   1      44.632  31.446  26.556  1.00  0.00     0.002 A 
ATOM     87  C   UNL A   1      46.930  31.322  27.306  1.00  0.00     0.091 A 
ATOM     88  F   UNL A   1      47.458  30.018  29.231  1.00  0.00    -0.205 F 
ATOM     89  C   UNL A   1      45.972  31.791  26.395  1.00  0.00     0.022 A 
BRANCH  87  90
ATOM     90  S   UNL A   1      48.621  31.890  27.132  1.00  0.00     0.127 S 
ATOM     91  O   UNL A   1      48.502  32.875  26.061  1.00  0.00    -0.237 OA
ATOM     92  O   UNL A   1      48.903  32.450  28.454  1.00  0.00    -0.237 OA
ATOM     93  O   UNL A   1      49.408  30.704  26.812  1.00  0.00    -0.744 OA
ENDBRANCH  87  90
ENDBRANCH  60  83
ENDBRANCH  34  35
ENDBRANCH  27  29
ENDBRANCH  26  27
ENDBRANCH  25  26
ENDBRANCH  24  25
ENDBRANCH   1  24
TORSDOF 21
ENDMDL
