MODEL 1
REMARK VINA RESULT:      -9.9      0.000      0.000
REMARK SMILES CC1(C)C[C@@H]1n1c(SCC(=O)OCCOCCOC(=O)c2ccc(-c3c4nc(c(-c5cccc(S(=O)(=O)[O-])c5F)c5ccc([nH]5)c(-c5cccc(S(=O)(=O)[O-])c5F)c5nc(c(-c6cccc(S(=O)(=O)[O-])c6F)c6ccc3[nH]6)C=C5)C=C4)cc2)nc2cc(Cl)c(Cl)cc21
REMARK SMILES IDX 15 1 14 2 13 3 12 4 10 5 11 6 9 7 8 8 7 9 6 10 92 11 84 12
REMARK SMILES IDX 85 13 91 14 86 15 89 16 87 17 90 18 88 19 5 20 1 21 2 22
REMARK SMILES IDX 3 23 4 24 16 25 17 26 18 27 19 28 20 29 21 30 22 31 83 32
REMARK SMILES IDX 23 33 82 34 24 35 25 36 26 37 76 38 27 39 81 40 75 41 77 42
REMARK SMILES IDX 28 43 80 44 74 45 73 46 29 48 61 49 41 50 60 51 42 52 45 53
REMARK SMILES IDX 59 54 78 55 43 56 44 57 58 59 79 60 46 61 30 62 31 63 39 64
REMARK SMILES IDX 32 65 34 66 40 67 33 68 35 69 36 70 37 71 38 72 62 73 63 74
REMARK SMILES IDX 71 75 64 76 66 77 72 78 65 79 67 80 68 81 69 82 70 83 47 84
REMARK SMILES IDX 48 85 56 86 49 87 51 88 57 89 50 90 52 91 53 92 54 93 55 94
REMARK H PARENT 77 47 45 58
REMARK Flexibility Score: inf
ROOT
ATOM      1  O   UNL A   1      41.670  19.337  26.254  1.00  0.00    -0.374 OA
ENDROOT
BRANCH   1   2
ATOM      2  C   UNL A   1      42.930  19.934  25.951  1.00  0.00     0.202 C 
BRANCH   2   3
ATOM      3  C   UNL A   1      43.940  19.218  25.047  1.00  0.00     0.261 C 
BRANCH   3   4
ATOM      4  O   UNL A   1      44.500  20.118  24.075  1.00  0.00    -0.463 OA
BRANCH   4   5
ATOM      5  C   UNL A   1      45.378  21.029  24.557  1.00  0.00     0.316 C 
ATOM      6  O   UNL A   1      46.296  20.757  25.327  1.00  0.00    -0.251 OA
BRANCH   5   7
ATOM      7  C   UNL A   1      45.192  22.440  24.044  1.00  0.00     0.200 C 
BRANCH   7   8
ATOM      8  S   UNL A   1      44.087  23.532  24.909  1.00  0.00    -0.076 SA
BRANCH   8   9
ATOM      9  C   UNL A   1      44.529  23.920  26.545  1.00  0.00     0.169 A 
ATOM     10  N   UNL A   1      44.946  25.081  27.192  1.00  0.00    -0.315 N 
ATOM     11  C   UNL A   1      44.907  24.835  28.562  1.00  0.00     0.071 A 
ATOM     12  N   UNL A   1      44.244  22.986  27.438  1.00  0.00    -0.222 NA
ATOM     13  C   UNL A   1      44.407  23.544  28.669  1.00  0.00     0.091 A 
ATOM     14  C   UNL A   1      45.185  25.608  29.701  1.00  0.00     0.050 A 
ATOM     15  C   UNL A   1      44.107  22.999  29.927  1.00  0.00     0.052 A 
ATOM     16  C   UNL A   1      44.850  25.070  30.956  1.00  0.00     0.061 A 
ATOM     17  C   UNL A   1      44.312  23.783  31.068  1.00  0.00     0.061 A 
ATOM     18  Cl  UNL A   1      45.103  26.081  32.338  1.00  0.00    -0.083 Cl
ATOM     19  Cl  UNL A   1      43.869  23.095  32.594  1.00  0.00    -0.083 Cl
BRANCH  10  20
ATOM     20  C   UNL A   1      45.303  26.382  26.657  1.00  0.00     0.096 C 
ATOM     21  C   UNL A   1      46.256  27.826  24.619  1.00  0.00     0.013 C 
ATOM     22  C   UNL A   1      46.398  26.689  25.600  1.00  0.00    -0.012 C 
ATOM     23  C   UNL A   1      47.442  25.678  25.160  1.00  0.00     0.013 C 
ATOM     24  C   UNL A   1      46.519  27.161  27.027  1.00  0.00     0.034 C 
ENDBRANCH  10  20
ENDBRANCH   8   9
ENDBRANCH   7   8
ENDBRANCH   5   7
ENDBRANCH   4   5
ENDBRANCH   3   4
ENDBRANCH   2   3
ENDBRANCH   1   2
BRANCH   1  25
ATOM     25  C   UNL A   1      40.585  20.263  26.281  1.00  0.00     0.202 C 
BRANCH  25  26
ATOM     26  C   UNL A   1      40.553  21.308  27.390  1.00  0.00     0.261 C 
BRANCH  26  27
ATOM     27  O   UNL A   1      40.810  22.593  26.832  1.00  0.00    -0.460 OA
BRANCH  27  28
ATOM     28  C   UNL A   1      39.686  23.352  26.714  1.00  0.00     0.338 C 
ATOM     29  O   UNL A   1      38.645  23.027  26.207  1.00  0.00    -0.246 OA
BRANCH  28  30
ATOM     30  C   UNL A   1      39.875  24.482  27.651  1.00  0.00     0.060 A 
ATOM     31  C   UNL A   1      38.938  25.519  27.722  1.00  0.00     0.016 A 
ATOM     32  C   UNL A   1      41.154  24.611  28.211  1.00  0.00     0.016 A 
ATOM     33  C   UNL A   1      39.347  26.739  28.234  1.00  0.00     0.010 A 
ATOM     34  C   UNL A   1      41.551  25.827  28.754  1.00  0.00     0.010 A 
ATOM     35  C   UNL A   1      40.665  26.903  28.718  1.00  0.00    -0.014 A 
BRANCH  35  36
ATOM     36  C   UNL A   1      40.920  28.113  29.497  1.00  0.00     0.031 A 
ATOM     37  C   UNL A   1      42.015  28.874  28.836  1.00  0.00     0.074 A 
ATOM     38  C   UNL A   1      40.240  28.604  30.551  1.00  0.00     0.049 A 
ATOM     39  N   UNL A   1      43.220  29.046  29.268  1.00  0.00    -0.248 NA
ATOM     40  C   UNL A   1      41.822  29.206  27.412  1.00  0.00     0.031 C 
ATOM     41  C   UNL A   1      38.987  28.131  31.138  1.00  0.00     0.029 A 
ATOM     42  N   UNL A   1      40.491  29.750  31.254  1.00  0.00    -0.354 N 
ATOM     43  C   UNL A   1      43.869  29.712  28.233  1.00  0.00     0.074 A 
ATOM     44  C   UNL A   1      43.057  29.552  27.059  1.00  0.00     0.031 C 
ATOM     45  C   UNL A   1      38.464  29.109  31.919  1.00  0.00     0.029 A 
ATOM     46  C   UNL A   1      39.401  30.219  31.986  1.00  0.00     0.049 A 
ATOM     47  H   UNL A   1      41.364  30.204  31.244  1.00  0.00     0.167 HD
ATOM     48  C   UNL A   1      44.867  30.597  28.480  1.00  0.00     0.034 A 
ATOM     49  C   UNL A   1      39.272  31.460  32.522  1.00  0.00     0.034 A 
ATOM     50  C   UNL A   1      45.411  30.425  29.800  1.00  0.00     0.049 A 
ATOM     51  C   UNL A   1      40.626  32.045  32.604  1.00  0.00     0.074 A 
ATOM     52  C   UNL A   1      46.089  29.428  30.466  1.00  0.00     0.029 A 
ATOM     53  N   UNL A   1      44.914  31.273  30.755  1.00  0.00    -0.354 N 
ATOM     54  N   UNL A   1      41.543  31.636  33.430  1.00  0.00    -0.248 NA
ATOM     55  C   UNL A   1      41.088  32.895  31.520  1.00  0.00     0.031 C 
ATOM     56  C   UNL A   1      45.653  29.514  31.820  1.00  0.00     0.029 A 
ATOM     57  C   UNL A   1      44.761  30.583  31.926  1.00  0.00     0.049 A 
ATOM     58  H   UNL A   1      44.702  32.224  30.620  1.00  0.00     0.167 HD
ATOM     59  C   UNL A   1      42.724  31.779  32.720  1.00  0.00     0.074 A 
ATOM     60  C   UNL A   1      42.403  32.700  31.634  1.00  0.00     0.031 C 
ATOM     61  C   UNL A   1      43.753  30.905  32.913  1.00  0.00     0.034 A 
BRANCH  48  62
ATOM     62  C   UNL A   1      45.043  31.876  27.695  1.00  0.00     0.023 A 
ATOM     63  C   UNL A   1      46.250  32.039  26.985  1.00  0.00     0.012 A 
ATOM     64  C   UNL A   1      44.218  33.019  27.824  1.00  0.00     0.148 A 
ATOM     65  C   UNL A   1      46.621  33.280  26.453  1.00  0.00     0.002 A 
ATOM     66  C   UNL A   1      44.540  34.220  27.209  1.00  0.00     0.091 A 
ATOM     67  F   UNL A   1      43.185  33.014  28.670  1.00  0.00    -0.205 F 
ATOM     68  C   UNL A   1      45.758  34.366  26.548  1.00  0.00     0.022 A 
BRANCH  66  69
ATOM     69  S   UNL A   1      43.417  35.622  27.251  1.00  0.00     0.127 S 
ATOM     70  O   UNL A   1      43.081  35.687  28.670  1.00  0.00    -0.237 OA
ATOM     71  O   UNL A   1      44.274  36.702  26.763  1.00  0.00    -0.237 OA
ATOM     72  O   UNL A   1      42.326  35.276  26.348  1.00  0.00    -0.744 OA
ENDBRANCH  66  69
ENDBRANCH  48  62
BRANCH  49  73
ATOM     73  C   UNL A   1      38.096  32.335  32.760  1.00  0.00     0.023 A 
ATOM     74  C   UNL A   1      38.167  33.306  33.786  1.00  0.00     0.012 A 
ATOM     75  C   UNL A   1      37.097  32.480  31.777  1.00  0.00     0.148 A 
ATOM     76  C   UNL A   1      37.328  34.426  33.787  1.00  0.00     0.002 A 
ATOM     77  C   UNL A   1      36.269  33.601  31.778  1.00  0.00     0.091 A 
ATOM     78  F   UNL A   1      37.035  31.580  30.788  1.00  0.00    -0.205 F 
ATOM     79  C   UNL A   1      36.393  34.584  32.770  1.00  0.00     0.022 A 
BRANCH  77  80
ATOM     80  S   UNL A   1      35.081  33.913  30.466  1.00  0.00     0.127 S 
ATOM     81  O   UNL A   1      34.289  32.682  30.472  1.00  0.00    -0.237 OA
ATOM     82  O   UNL A   1      34.384  35.093  30.969  1.00  0.00    -0.237 OA
ATOM     83  O   UNL A   1      35.874  34.110  29.258  1.00  0.00    -0.744 OA
ENDBRANCH  77  80
ENDBRANCH  49  73
BRANCH  61  84
ATOM     84  C   UNL A   1      43.707  30.040  34.148  1.00  0.00     0.023 A 
ATOM     85  C   UNL A   1      44.248  30.441  35.388  1.00  0.00     0.012 A 
ATOM     86  C   UNL A   1      42.985  28.838  34.079  1.00  0.00     0.148 A 
ATOM     87  C   UNL A   1      44.094  29.644  36.527  1.00  0.00     0.002 A 
ATOM     88  C   UNL A   1      42.785  28.079  35.224  1.00  0.00     0.091 A 
ATOM     89  F   UNL A   1      42.488  28.464  32.891  1.00  0.00    -0.205 F 
ATOM     90  C   UNL A   1      43.347  28.471  36.448  1.00  0.00     0.022 A 
BRANCH  88  91
ATOM     91  S   UNL A   1      41.716  26.639  35.205  1.00  0.00     0.127 S 
ATOM     92  O   UNL A   1      40.656  27.056  34.290  1.00  0.00    -0.237 OA
ATOM     93  O   UNL A   1      42.602  25.596  34.683  1.00  0.00    -0.237 OA
ATOM     94  O   UNL A   1      41.308  26.429  36.590  1.00  0.00    -0.744 OA
ENDBRANCH  88  91
ENDBRANCH  61  84
ENDBRANCH  35  36
ENDBRANCH  28  30
ENDBRANCH  27  28
ENDBRANCH  26  27
ENDBRANCH  25  26
ENDBRANCH   1  25
TORSDOF 20
ENDMDL
MODEL 2
REMARK VINA RESULT:      -9.8      4.810     10.751
REMARK SMILES CC1(C)C[C@@H]1n1c(SCC(=O)OCCOCCOC(=O)c2ccc(-c3c4nc(c(-c5cccc(S(=O)(=O)[O-])c5F)c5ccc([nH]5)c(-c5cccc(S(=O)(=O)[O-])c5F)c5nc(c(-c6cccc(S(=O)(=O)[O-])c6F)c6ccc3[nH]6)C=C5)C=C4)cc2)nc2cc(Cl)c(Cl)cc21
REMARK SMILES IDX 15 1 14 2 13 3 12 4 10 5 11 6 9 7 8 8 7 9 6 10 92 11 84 12
REMARK SMILES IDX 85 13 91 14 86 15 89 16 87 17 90 18 88 19 5 20 1 21 2 22
REMARK SMILES IDX 3 23 4 24 16 25 17 26 18 27 19 28 20 29 21 30 22 31 83 32
REMARK SMILES IDX 23 33 82 34 24 35 25 36 26 37 76 38 27 39 81 40 75 41 77 42
REMARK SMILES IDX 28 43 80 44 74 45 73 46 29 48 61 49 41 50 60 51 42 52 45 53
REMARK SMILES IDX 59 54 78 55 43 56 44 57 58 59 79 60 46 61 30 62 31 63 39 64
REMARK SMILES IDX 32 65 34 66 40 67 33 68 35 69 36 70 37 71 38 72 62 73 63 74
REMARK SMILES IDX 71 75 64 76 66 77 72 78 65 79 67 80 68 81 69 82 70 83 47 84
REMARK SMILES IDX 48 85 56 86 49 87 51 88 57 89 50 90 52 91 53 92 54 93 55 94
REMARK H PARENT 77 47 45 58
REMARK Flexibility Score: inf
ROOT
ATOM      1  O   UNL A   1      33.374  28.982  27.567  1.00  0.00    -0.374 OA
ENDROOT
BRANCH   1   2
ATOM      2  C   UNL A   1      33.215  27.868  26.691  1.00  0.00     0.202 C 
BRANCH   2   3
ATOM      3  C   UNL A   1      31.863  27.159  26.559  1.00  0.00     0.261 C 
BRANCH   3   4
ATOM      4  O   UNL A   1      31.964  25.992  25.725  1.00  0.00    -0.463 OA
BRANCH   4   5
ATOM      5  C   UNL A   1      31.322  24.890  26.177  1.00  0.00     0.316 C 
ATOM      6  O   UNL A   1      30.189  24.903  26.653  1.00  0.00    -0.251 OA
BRANCH   5   7
ATOM      7  C   UNL A   1      32.078  23.590  26.018  1.00  0.00     0.200 C 
BRANCH   7   8
ATOM      8  S   UNL A   1      32.126  22.811  24.420  1.00  0.00    -0.076 SA
BRANCH   8   9
ATOM      9  C   UNL A   1      32.823  21.220  24.372  1.00  0.00     0.169 A 
ATOM     10  N   UNL A   1      34.124  20.724  24.419  1.00  0.00    -0.315 N 
ATOM     11  C   UNL A   1      34.042  19.346  24.599  1.00  0.00     0.071 A 
ATOM     12  N   UNL A   1      31.960  20.226  24.509  1.00  0.00    -0.222 NA
ATOM     13  C   UNL A   1      32.683  19.090  24.710  1.00  0.00     0.091 A 
ATOM     14  C   UNL A   1      34.993  18.322  24.740  1.00  0.00     0.050 A 
ATOM     15  C   UNL A   1      32.225  17.803  25.031  1.00  0.00     0.052 A 
ATOM     16  C   UNL A   1      34.530  17.043  25.096  1.00  0.00     0.061 A 
ATOM     17  C   UNL A   1      33.163  16.787  25.245  1.00  0.00     0.061 A 
ATOM     18  Cl  UNL A   1      35.726  15.822  25.367  1.00  0.00    -0.083 Cl
ATOM     19  Cl  UNL A   1      32.557  15.231  25.701  1.00  0.00    -0.083 Cl
BRANCH  10  20
ATOM     20  C   UNL A   1      35.400  21.418  24.378  1.00  0.00     0.096 C 
ATOM     21  C   UNL A   1      37.524  22.366  25.695  1.00  0.00     0.013 C 
ATOM     22  C   UNL A   1      36.030  22.283  25.502  1.00  0.00    -0.012 C 
ATOM     23  C   UNL A   1      35.266  22.741  26.732  1.00  0.00     0.013 C 
ATOM     24  C   UNL A   1      35.575  22.887  24.198  1.00  0.00     0.034 C 
ENDBRANCH  10  20
ENDBRANCH   8   9
ENDBRANCH   7   8
ENDBRANCH   5   7
ENDBRANCH   4   5
ENDBRANCH   3   4
ENDBRANCH   2   3
ENDBRANCH   1   2
BRANCH   1  25
ATOM     25  C   UNL A   1      32.939  30.221  27.009  1.00  0.00     0.202 C 
BRANCH  25  26
ATOM     26  C   UNL A   1      33.536  31.511  27.558  1.00  0.00     0.261 C 
BRANCH  26  27
ATOM     27  O   UNL A   1      34.940  31.342  27.733  1.00  0.00    -0.460 OA
BRANCH  27  28
ATOM     28  C   UNL A   1      35.376  31.769  28.949  1.00  0.00     0.338 C 
ATOM     29  O   UNL A   1      34.743  32.377  29.770  1.00  0.00    -0.246 OA
BRANCH  28  30
ATOM     30  C   UNL A   1      36.626  31.018  29.203  1.00  0.00     0.060 A 
ATOM     31  C   UNL A   1      37.752  31.659  29.732  1.00  0.00     0.016 A 
ATOM     32  C   UNL A   1      36.717  29.751  28.609  1.00  0.00     0.016 A 
ATOM     33  C   UNL A   1      38.993  31.079  29.529  1.00  0.00     0.010 A 
ATOM     34  C   UNL A   1      37.960  29.156  28.437  1.00  0.00     0.010 A 
ATOM     35  C   UNL A   1      39.100  29.843  28.850  1.00  0.00    -0.014 A 
BRANCH  35  36
ATOM     36  C   UNL A   1      40.394  29.170  28.937  1.00  0.00     0.031 A 
ATOM     37  C   UNL A   1      40.653  28.834  30.363  1.00  0.00     0.074 A 
ATOM     38  C   UNL A   1      41.205  28.757  27.944  1.00  0.00     0.049 A 
ATOM     39  N   UNL A   1      41.535  29.364  31.145  1.00  0.00    -0.248 NA
ATOM     40  C   UNL A   1      39.615  28.049  31.057  1.00  0.00     0.031 C 
ATOM     41  C   UNL A   1      40.966  28.758  26.502  1.00  0.00     0.029 A 
ATOM     42  N   UNL A   1      42.408  28.114  28.053  1.00  0.00    -0.354 N 
ATOM     43  C   UNL A   1      41.284  28.796  32.389  1.00  0.00     0.074 A 
ATOM     44  C   UNL A   1      39.971  28.217  32.327  1.00  0.00     0.031 C 
ATOM     45  C   UNL A   1      41.855  27.926  25.903  1.00  0.00     0.029 A 
ATOM     46  C   UNL A   1      42.798  27.439  26.897  1.00  0.00     0.049 A 
ATOM     47  H   UNL A   1      42.949  28.127  28.874  1.00  0.00     0.167 HD
ATOM     48  C   UNL A   1      42.283  28.578  33.280  1.00  0.00     0.034 A 
ATOM     49  C   UNL A   1      43.770  26.494  26.812  1.00  0.00     0.034 A 
ATOM     50  C   UNL A   1      43.450  29.358  32.966  1.00  0.00     0.049 A 
ATOM     51  C   UNL A   1      44.630  26.642  28.004  1.00  0.00     0.074 A 
ATOM     52  C   UNL A   1      43.754  30.700  32.907  1.00  0.00     0.029 A 
ATOM     53  N   UNL A   1      44.425  28.699  32.262  1.00  0.00    -0.354 N 
ATOM     54  N   UNL A   1      45.434  27.646  28.197  1.00  0.00    -0.248 NA
ATOM     55  C   UNL A   1      44.358  25.819  29.170  1.00  0.00     0.031 C 
ATOM     56  C   UNL A   1      44.700  30.826  31.848  1.00  0.00     0.029 A 
ATOM     57  C   UNL A   1      44.960  29.554  31.337  1.00  0.00     0.049 A 
ATOM     58  H   UNL A   1      44.695  27.763  32.399  1.00  0.00     0.167 HD
ATOM     59  C   UNL A   1      45.390  27.854  29.566  1.00  0.00     0.074 A 
ATOM     60  C   UNL A   1      44.852  26.615  30.120  1.00  0.00     0.031 C 
ATOM     61  C   UNL A   1      45.512  29.113  30.074  1.00  0.00     0.034 A 
BRANCH  48  62
ATOM     62  C   UNL A   1      42.346  27.353  34.162  1.00  0.00     0.023 A 
ATOM     63  C   UNL A   1      41.813  27.462  35.462  1.00  0.00     0.012 A 
ATOM     64  C   UNL A   1      43.119  26.200  33.883  1.00  0.00     0.148 A 
ATOM     65  C   UNL A   1      42.056  26.485  36.434  1.00  0.00     0.002 A 
ATOM     66  C   UNL A   1      43.273  25.186  34.817  1.00  0.00     0.091 A 
ATOM     67  F   UNL A   1      43.848  26.129  32.767  1.00  0.00    -0.205 F 
ATOM     68  C   UNL A   1      42.771  25.338  36.108  1.00  0.00     0.022 A 
BRANCH  66  69
ATOM     69  S   UNL A   1      44.129  23.660  34.408  1.00  0.00     0.127 S 
ATOM     70  O   UNL A   1      45.461  24.151  34.070  1.00  0.00    -0.237 OA
ATOM     71  O   UNL A   1      44.037  22.922  35.667  1.00  0.00    -0.237 OA
ATOM     72  O   UNL A   1      43.367  23.066  33.315  1.00  0.00    -0.744 OA
ENDBRANCH  66  69
ENDBRANCH  48  62
BRANCH  49  73
ATOM     73  C   UNL A   1      43.933  25.293  25.953  1.00  0.00     0.023 A 
ATOM     74  C   UNL A   1      45.140  25.129  25.236  1.00  0.00     0.012 A 
ATOM     75  C   UNL A   1      43.107  24.166  26.131  1.00  0.00     0.148 A 
ATOM     76  C   UNL A   1      45.552  23.870  24.784  1.00  0.00     0.002 A 
ATOM     77  C   UNL A   1      43.525  22.913  25.685  1.00  0.00     0.091 A 
ATOM     78  F   UNL A   1      41.973  24.304  26.828  1.00  0.00    -0.205 F 
ATOM     79  C   UNL A   1      44.754  22.758  25.027  1.00  0.00     0.022 A 
BRANCH  77  80
ATOM     80  S   UNL A   1      42.584  21.418  26.016  1.00  0.00     0.127 S 
ATOM     81  O   UNL A   1      43.341  20.410  25.274  1.00  0.00    -0.237 OA
ATOM     82  O   UNL A   1      42.688  21.317  27.470  1.00  0.00    -0.237 OA
ATOM     83  O   UNL A   1      41.248  21.671  25.491  1.00  0.00    -0.744 OA
ENDBRANCH  77  80
ENDBRANCH  49  73
BRANCH  61  84
ATOM     84  C   UNL A   1      46.055  30.183  29.159  1.00  0.00     0.023 A 
ATOM     85  C   UNL A   1      47.434  30.392  28.953  1.00  0.00     0.012 A 
ATOM     86  C   UNL A   1      45.135  30.914  28.389  1.00  0.00     0.148 A 
ATOM     87  C   UNL A   1      47.885  31.331  28.020  1.00  0.00     0.002 A 
ATOM     88  C   UNL A   1      45.587  31.803  27.423  1.00  0.00     0.091 A 
ATOM     89  F   UNL A   1      43.827  30.714  28.605  1.00  0.00    -0.205 F 
ATOM     90  C   UNL A   1      46.960  32.025  27.243  1.00  0.00     0.022 A 
BRANCH  88  91
ATOM     91  S   UNL A   1      44.443  32.613  26.303  1.00  0.00     0.127 S 
ATOM     92  O   UNL A   1      43.820  33.610  27.170  1.00  0.00    -0.237 OA
ATOM     93  O   UNL A   1      45.339  33.163  25.283  1.00  0.00    -0.237 OA
ATOM     94  O   UNL A   1      43.560  31.563  25.810  1.00  0.00    -0.744 OA
ENDBRANCH  88  91
ENDBRANCH  61  84
ENDBRANCH  35  36
ENDBRANCH  28  30
ENDBRANCH  27  28
ENDBRANCH  26  27
ENDBRANCH  25  26
ENDBRANCH   1  25
TORSDOF 20
ENDMDL
MODEL 3
REMARK VINA RESULT:      -9.6      5.265     10.227
REMARK SMILES CC1(C)C[C@@H]1n1c(SCC(=O)OCCOCCOC(=O)c2ccc(-c3c4nc(c(-c5cccc(S(=O)(=O)[O-])c5F)c5ccc([nH]5)c(-c5cccc(S(=O)(=O)[O-])c5F)c5nc(c(-c6cccc(S(=O)(=O)[O-])c6F)c6ccc3[nH]6)C=C5)C=C4)cc2)nc2cc(Cl)c(Cl)cc21
REMARK SMILES IDX 15 1 14 2 13 3 12 4 10 5 11 6 9 7 8 8 7 9 6 10 92 11 84 12
REMARK SMILES IDX 85 13 91 14 86 15 89 16 87 17 90 18 88 19 5 20 1 21 2 22
REMARK SMILES IDX 3 23 4 24 16 25 17 26 18 27 19 28 20 29 21 30 22 31 83 32
REMARK SMILES IDX 23 33 82 34 24 35 25 36 26 37 76 38 27 39 81 40 75 41 77 42
REMARK SMILES IDX 28 43 80 44 74 45 73 46 29 48 61 49 41 50 60 51 42 52 45 53
REMARK SMILES IDX 59 54 78 55 43 56 44 57 58 59 79 60 46 61 30 62 31 63 39 64
REMARK SMILES IDX 32 65 34 66 40 67 33 68 35 69 36 70 37 71 38 72 62 73 63 74
REMARK SMILES IDX 71 75 64 76 66 77 72 78 65 79 67 80 68 81 69 82 70 83 47 84
REMARK SMILES IDX 48 85 56 86 49 87 51 88 57 89 50 90 52 91 53 92 54 93 55 94
REMARK H PARENT 77 47 45 58
REMARK Flexibility Score: inf
ROOT
ATOM      1  O   UNL A   1      33.542  21.843  25.570  1.00  0.00    -0.374 OA
ENDROOT
BRANCH   1   2
ATOM      2  C   UNL A   1      33.101  21.035  24.481  1.00  0.00     0.202 C 
BRANCH   2   3
ATOM      3  C   UNL A   1      32.556  21.674  23.198  1.00  0.00     0.261 C 
BRANCH   3   4
ATOM      4  O   UNL A   1      32.511  23.107  23.308  1.00  0.00    -0.463 OA
BRANCH   4   5
ATOM      5  C   UNL A   1      33.393  23.782  22.534  1.00  0.00     0.316 C 
ATOM      6  O   UNL A   1      34.582  23.489  22.433  1.00  0.00    -0.251 OA
BRANCH   5   7
ATOM      7  C   UNL A   1      32.810  24.927  21.737  1.00  0.00     0.200 C 
BRANCH   7   8
ATOM      8  S   UNL A   1      31.575  25.961  22.492  1.00  0.00    -0.076 SA
BRANCH   8   9
ATOM      9  C   UNL A   1      32.173  27.273  23.462  1.00  0.00     0.169 A 
ATOM     10  N   UNL A   1      31.696  28.541  23.786  1.00  0.00    -0.315 N 
ATOM     11  C   UNL A   1      32.494  29.040  24.812  1.00  0.00     0.071 A 
ATOM     12  N   UNL A   1      33.212  26.976  24.227  1.00  0.00    -0.222 NA
ATOM     13  C   UNL A   1      33.381  28.011  25.094  1.00  0.00     0.091 A 
ATOM     14  C   UNL A   1      32.494  30.231  25.557  1.00  0.00     0.050 A 
ATOM     15  C   UNL A   1      34.266  28.112  26.179  1.00  0.00     0.052 A 
ATOM     16  C   UNL A   1      33.359  30.312  26.662  1.00  0.00     0.061 A 
ATOM     17  C   UNL A   1      34.231  29.263  26.974  1.00  0.00     0.061 A 
ATOM     18  Cl  UNL A   1      33.269  31.746  27.628  1.00  0.00    -0.083 Cl
ATOM     19  Cl  UNL A   1      35.295  29.318  28.339  1.00  0.00    -0.083 Cl
BRANCH  10  20
ATOM     20  C   UNL A   1      30.551  29.276  23.278  1.00  0.00     0.096 C 
ATOM     21  C   UNL A   1      27.929  29.784  23.400  1.00  0.00     0.013 C 
ATOM     22  C   UNL A   1      29.071  28.808  23.263  1.00  0.00    -0.012 C 
ATOM     23  C   UNL A   1      28.644  27.380  23.553  1.00  0.00     0.013 C 
ATOM     24  C   UNL A   1      29.854  29.001  21.990  1.00  0.00     0.034 C 
ENDBRANCH  10  20
ENDBRANCH   8   9
ENDBRANCH   7   8
ENDBRANCH   5   7
ENDBRANCH   4   5
ENDBRANCH   3   4
ENDBRANCH   2   3
ENDBRANCH   1   2
BRANCH   1  25
ATOM     25  C   UNL A   1      34.869  21.552  26.004  1.00  0.00     0.202 C 
BRANCH  25  26
ATOM     26  C   UNL A   1      35.676  20.521  25.223  1.00  0.00     0.261 C 
BRANCH  26  27
ATOM     27  O   UNL A   1      36.935  21.083  24.865  1.00  0.00    -0.460 OA
BRANCH  27  28
ATOM     28  C   UNL A   1      37.988  20.369  25.346  1.00  0.00     0.338 C 
ATOM     29  O   UNL A   1      38.214  19.202  25.161  1.00  0.00    -0.246 OA
BRANCH  28  30
ATOM     30  C   UNL A   1      38.971  21.377  25.803  1.00  0.00     0.060 A 
ATOM     31  C   UNL A   1      40.134  20.990  26.478  1.00  0.00     0.016 A 
ATOM     32  C   UNL A   1      38.532  22.709  25.805  1.00  0.00     0.016 A 
ATOM     33  C   UNL A   1      40.773  21.926  27.275  1.00  0.00     0.010 A 
ATOM     34  C   UNL A   1      39.194  23.654  26.578  1.00  0.00     0.010 A 
ATOM     35  C   UNL A   1      40.282  23.250  27.351  1.00  0.00    -0.014 A 
BRANCH  35  36
ATOM     36  C   UNL A   1      41.170  24.231  27.971  1.00  0.00     0.031 A 
ATOM     37  C   UNL A   1      40.418  25.504  28.138  1.00  0.00     0.074 A 
ATOM     38  C   UNL A   1      42.411  24.060  28.467  1.00  0.00     0.049 A 
ATOM     39  N   UNL A   1      40.602  26.611  27.497  1.00  0.00    -0.248 NA
ATOM     40  C   UNL A   1      39.141  25.427  28.872  1.00  0.00     0.031 C 
ATOM     41  C   UNL A   1      43.171  22.823  28.635  1.00  0.00     0.029 A 
ATOM     42  N   UNL A   1      43.216  24.995  29.058  1.00  0.00    -0.354 N 
ATOM     43  C   UNL A   1      39.571  27.439  27.930  1.00  0.00     0.074 A 
ATOM     44  C   UNL A   1      38.590  26.594  28.553  1.00  0.00     0.031 C 
ATOM     45  C   UNL A   1      44.192  23.042  29.501  1.00  0.00     0.029 A 
ATOM     46  C   UNL A   1      44.232  24.454  29.846  1.00  0.00     0.049 A 
ATOM     47  H   UNL A   1      43.091  25.963  28.937  1.00  0.00     0.167 HD
ATOM     48  C   UNL A   1      39.734  28.783  28.017  1.00  0.00     0.034 A 
ATOM     49  C   UNL A   1      44.975  25.125  30.764  1.00  0.00     0.034 A 
ATOM     50  C   UNL A   1      40.861  29.229  27.243  1.00  0.00     0.049 A 
ATOM     51  C   UNL A   1      44.854  26.565  30.458  1.00  0.00     0.074 A 
ATOM     52  C   UNL A   1      41.197  29.244  25.906  1.00  0.00     0.029 A 
ATOM     53  N   UNL A   1      42.023  29.408  27.946  1.00  0.00    -0.354 N 
ATOM     54  N   UNL A   1      45.386  27.130  29.415  1.00  0.00    -0.248 NA
ATOM     55  C   UNL A   1      43.846  27.346  31.154  1.00  0.00     0.031 C 
ATOM     56  C   UNL A   1      42.609  29.056  25.871  1.00  0.00     0.029 A 
ATOM     57  C   UNL A   1      43.075  28.975  27.184  1.00  0.00     0.049 A 
ATOM     58  H   UNL A   1      42.092  29.785  28.852  1.00  0.00     0.167 HD
ATOM     59  C   UNL A   1      44.470  28.106  29.057  1.00  0.00     0.074 A 
ATOM     60  C   UNL A   1      43.640  28.299  30.242  1.00  0.00     0.031 C 
ATOM     61  C   UNL A   1      44.295  28.435  27.746  1.00  0.00     0.034 A 
BRANCH  48  62
ATOM     62  C   UNL A   1      39.145  29.612  29.134  1.00  0.00     0.023 A 
ATOM     63  C   UNL A   1      38.484  30.804  28.777  1.00  0.00     0.012 A 
ATOM     64  C   UNL A   1      39.424  29.423  30.510  1.00  0.00     0.148 A 
ATOM     65  C   UNL A   1      38.142  31.764  29.737  1.00  0.00     0.002 A 
ATOM     66  C   UNL A   1      38.993  30.329  31.468  1.00  0.00     0.091 A 
ATOM     67  F   UNL A   1      40.244  28.447  30.905  1.00  0.00    -0.205 F 
ATOM     68  C   UNL A   1      38.379  31.519  31.085  1.00  0.00     0.022 A 
BRANCH  66  69
ATOM     69  S   UNL A   1      39.219  30.010  33.222  1.00  0.00     0.127 S 
ATOM     70  O   UNL A   1      39.009  28.568  33.289  1.00  0.00    -0.237 OA
ATOM     71  O   UNL A   1      40.599  30.450  33.428  1.00  0.00    -0.237 OA
ATOM     72  O   UNL A   1      38.227  30.836  33.901  1.00  0.00    -0.744 OA
ENDBRANCH  66  69
ENDBRANCH  48  62
BRANCH  49  73
ATOM     73  C   UNL A   1      45.598  24.712  32.048  1.00  0.00     0.023 A 
ATOM     74  C   UNL A   1      46.729  25.422  32.513  1.00  0.00     0.012 A 
ATOM     75  C   UNL A   1      44.888  23.916  32.968  1.00  0.00     0.148 A 
ATOM     76  C   UNL A   1      47.091  25.407  33.865  1.00  0.00     0.002 A 
ATOM     77  C   UNL A   1      45.248  23.911  34.314  1.00  0.00     0.091 A 
ATOM     78  F   UNL A   1      43.802  23.258  32.544  1.00  0.00    -0.205 F 
ATOM     79  C   UNL A   1      46.337  24.668  34.769  1.00  0.00     0.022 A 
BRANCH  77  80
ATOM     80  S   UNL A   1      44.289  23.035  35.556  1.00  0.00     0.127 S 
ATOM     81  O   UNL A   1      44.216  21.686  34.992  1.00  0.00    -0.237 OA
ATOM     82  O   UNL A   1      45.142  23.161  36.735  1.00  0.00    -0.237 OA
ATOM     83  O   UNL A   1      43.007  23.727  35.623  1.00  0.00    -0.744 OA
ENDBRANCH  77  80
ENDBRANCH  49  73
BRANCH  61  84
ATOM     84  C   UNL A   1      45.356  27.993  26.769  1.00  0.00     0.023 A 
ATOM     85  C   UNL A   1      46.485  28.777  26.453  1.00  0.00     0.012 A 
ATOM     86  C   UNL A   1      45.268  26.690  26.252  1.00  0.00     0.148 A 
ATOM     87  C   UNL A   1      47.490  28.280  25.617  1.00  0.00     0.002 A 
ATOM     88  C   UNL A   1      46.295  26.180  25.470  1.00  0.00     0.091 A 
ATOM     89  F   UNL A   1      44.182  25.962  26.551  1.00  0.00    -0.205 F 
ATOM     90  C   UNL A   1      47.402  26.975  25.139  1.00  0.00     0.022 A 
BRANCH  88  91
ATOM     91  S   UNL A   1      46.297  24.464  24.949  1.00  0.00     0.127 S 
ATOM     92  O   UNL A   1      47.333  24.458  23.919  1.00  0.00    -0.237 OA
ATOM     93  O   UNL A   1      46.657  23.761  26.183  1.00  0.00    -0.237 OA
ATOM     94  O   UNL A   1      44.943  24.187  24.485  1.00  0.00    -0.744 OA
ENDBRANCH  88  91
ENDBRANCH  61  84
ENDBRANCH  35  36
ENDBRANCH  28  30
ENDBRANCH  27  28
ENDBRANCH  26  27
ENDBRANCH  25  26
ENDBRANCH   1  25
TORSDOF 20
ENDMDL
