MODEL 1
REMARK VINA RESULT:     -11.9      0.000      0.000
REMARK SMILES Cc1cc2c(c(C)c1Cl)C=C(C(=O)OCCOCCOC(=O)c1ccc(-c3c4nc(c(-c5cccc(S(=O)(=O)[O-])c5F)c5ccc([nH]5)c(-c5cccc(S(=O)(=O)[O-])c5F)c5nc(c(-c6cccc(S(=O)(=O)[O-])c6F)c6ccc3[nH]6)C=C5)C=C4)cc1)[C@@H](C(F)(F)F)O2
REMARK SMILES IDX 18 1 17 2 16 3 15 4 14 5 12 6 13 7 11 8 1 9 2 10 3 11 8 12
REMARK SMILES IDX 4 13 6 14 9 15 5 16 91 17 7 18 10 19 86 20 87 21 88 22 89 23
REMARK SMILES IDX 90 24 19 25 20 26 21 27 22 28 23 29 24 30 85 31 25 32 84 33
REMARK SMILES IDX 26 34 27 35 28 36 78 37 29 38 83 39 77 40 79 41 30 42 82 43
REMARK SMILES IDX 76 44 75 45 31 47 63 48 43 49 62 50 44 51 47 52 61 53 80 54
REMARK SMILES IDX 45 55 46 56 60 58 81 59 48 60 32 61 33 62 41 63 34 64 36 65
REMARK SMILES IDX 42 66 35 67 37 68 38 69 39 70 40 71 64 72 65 73 73 74 66 75
REMARK SMILES IDX 68 76 74 77 67 78 69 79 70 80 71 81 72 82 49 83 50 84 58 85
REMARK SMILES IDX 51 86 53 87 59 88 52 89 54 90 55 91 56 92 57 93
REMARK H PARENT 79 46 47 57
REMARK Flexibility Score: inf
ROOT
ATOM      1  C   UNL A   1      35.358  20.904  24.854  1.00  0.00     0.202 C 
ENDROOT
BRANCH   1   2
ATOM      2  O   UNL A   1      34.365  20.711  25.863  1.00  0.00    -0.374 OA
BRANCH   2   3
ATOM      3  C   UNL A   1      33.766  21.869  26.442  1.00  0.00     0.202 C 
BRANCH   3   4
ATOM      4  C   UNL A   1      34.671  23.082  26.677  1.00  0.00     0.261 C 
BRANCH   4   5
ATOM      5  O   UNL A   1      34.108  24.282  26.125  1.00  0.00    -0.460 OA
BRANCH   5   6
ATOM      6  C   UNL A   1      34.488  24.549  24.856  1.00  0.00     0.338 C 
ATOM      7  O   UNL A   1      35.466  24.101  24.271  1.00  0.00    -0.246 OA
BRANCH   6   8
ATOM      8  C   UNL A   1      33.462  25.368  24.185  1.00  0.00     0.087 C 
ATOM      9  C   UNL A   1      28.632  29.489  23.031  1.00  0.00     0.046 C 
ATOM     10  C   UNL A   1      29.950  28.846  23.369  1.00  0.00    -0.028 A 
ATOM     11  C   UNL A   1      30.250  27.593  22.818  1.00  0.00     0.052 A 
ATOM     12  C   UNL A   1      30.868  29.441  24.256  1.00  0.00     0.047 A 
ATOM     13  C   UNL A   1      31.402  26.907  23.195  1.00  0.00     0.128 A 
ATOM     14  C   UNL A   1      32.061  28.776  24.620  1.00  0.00    -0.021 A 
ATOM     15  Cl  UNL A   1      30.486  30.998  24.929  1.00  0.00    -0.084 Cl
ATOM     16  C   UNL A   1      32.287  27.469  24.120  1.00  0.00     0.022 A 
ATOM     17  O   UNL A   1      31.578  25.689  22.602  1.00  0.00    -0.475 OA
ATOM     18  C   UNL A   1      33.081  29.409  25.539  1.00  0.00     0.047 C 
ATOM     19  C   UNL A   1      33.379  26.635  24.608  1.00  0.00     0.027 C 
ATOM     20  C   UNL A   1      32.569  24.769  23.139  1.00  0.00     0.316 C 
BRANCH  20  21
ATOM     21  C   UNL A   1      31.844  23.508  23.628  1.00  0.00     0.430 C 
ATOM     22  F   UNL A   1      32.626  22.411  23.493  1.00  0.00    -0.167 F 
ATOM     23  F   UNL A   1      31.509  23.598  24.935  1.00  0.00    -0.167 F 
ATOM     24  F   UNL A   1      30.705  23.284  22.932  1.00  0.00    -0.167 F 
ENDBRANCH  20  21
ENDBRANCH   6   8
ENDBRANCH   5   6
ENDBRANCH   4   5
ENDBRANCH   3   4
ENDBRANCH   2   3
ENDBRANCH   1   2
BRANCH   1  25
ATOM     25  C   UNL A   1      36.765  20.354  25.115  1.00  0.00     0.261 C 
BRANCH  25  26
ATOM     26  O   UNL A   1      37.775  21.377  25.070  1.00  0.00    -0.460 OA
BRANCH  26  27
ATOM     27  C   UNL A   1      38.883  21.100  25.796  1.00  0.00     0.338 C 
ATOM     28  O   UNL A   1      39.538  20.063  25.777  1.00  0.00    -0.246 OA
BRANCH  27  29
ATOM     29  C   UNL A   1      39.344  22.301  26.511  1.00  0.00     0.060 A 
ATOM     30  C   UNL A   1      38.810  23.534  26.110  1.00  0.00     0.016 A 
ATOM     31  C   UNL A   1      40.356  22.238  27.469  1.00  0.00     0.016 A 
ATOM     32  C   UNL A   1      39.337  24.719  26.617  1.00  0.00     0.010 A 
ATOM     33  C   UNL A   1      40.893  23.430  27.966  1.00  0.00     0.010 A 
ATOM     34  C   UNL A   1      40.419  24.672  27.504  1.00  0.00    -0.014 A 
BRANCH  34  35
ATOM     35  C   UNL A   1      41.181  25.910  27.784  1.00  0.00     0.031 A 
ATOM     36  C   UNL A   1      40.499  27.015  28.545  1.00  0.00     0.074 A 
ATOM     37  C   UNL A   1      42.459  26.042  27.391  1.00  0.00     0.049 A 
ATOM     38  N   UNL A   1      40.946  28.203  28.859  1.00  0.00    -0.248 NA
ATOM     39  C   UNL A   1      39.131  26.742  29.019  1.00  0.00     0.031 C 
ATOM     40  C   UNL A   1      43.234  25.025  26.685  1.00  0.00     0.029 A 
ATOM     41  N   UNL A   1      43.324  27.099  27.520  1.00  0.00    -0.354 N 
ATOM     42  C   UNL A   1      39.911  28.826  29.544  1.00  0.00     0.074 A 
ATOM     43  C   UNL A   1      38.808  27.892  29.592  1.00  0.00     0.031 C 
ATOM     44  C   UNL A   1      44.456  25.517  26.420  1.00  0.00     0.029 A 
ATOM     45  C   UNL A   1      44.538  26.892  26.912  1.00  0.00     0.049 A 
ATOM     46  H   UNL A   1      43.096  27.926  28.003  1.00  0.00     0.167 HD
ATOM     47  C   UNL A   1      39.887  30.060  30.101  1.00  0.00     0.034 A 
ATOM     48  C   UNL A   1      45.584  27.727  26.750  1.00  0.00     0.034 A 
ATOM     49  C   UNL A   1      40.992  30.979  30.067  1.00  0.00     0.049 A 
ATOM     50  C   UNL A   1      45.512  29.116  27.330  1.00  0.00     0.074 A 
ATOM     51  C   UNL A   1      41.071  32.246  30.616  1.00  0.00     0.029 A 
ATOM     52  N   UNL A   1      42.207  30.733  29.447  1.00  0.00    -0.354 N 
ATOM     53  N   UNL A   1      44.557  29.666  28.044  1.00  0.00    -0.248 NA
ATOM     54  C   UNL A   1      46.671  29.992  27.103  1.00  0.00     0.031 C 
ATOM     55  C   UNL A   1      42.329  32.776  30.308  1.00  0.00     0.029 A 
ATOM     56  C   UNL A   1      43.041  31.830  29.588  1.00  0.00     0.049 A 
ATOM     57  H   UNL A   1      42.442  29.903  28.975  1.00  0.00     0.167 HD
ATOM     58  C   UNL A   1      45.008  30.942  28.366  1.00  0.00     0.074 A 
ATOM     59  C   UNL A   1      46.335  31.070  27.800  1.00  0.00     0.031 C 
ATOM     60  C   UNL A   1      44.373  31.928  29.050  1.00  0.00     0.034 A 
BRANCH  47  61
ATOM     61  C   UNL A   1      38.636  30.477  30.826  1.00  0.00     0.023 A 
ATOM     62  C   UNL A   1      38.525  30.240  32.212  1.00  0.00     0.012 A 
ATOM     63  C   UNL A   1      37.603  31.163  30.158  1.00  0.00     0.148 A 
ATOM     64  C   UNL A   1      37.398  30.660  32.916  1.00  0.00     0.002 A 
ATOM     65  C   UNL A   1      36.502  31.616  30.875  1.00  0.00     0.091 A 
ATOM     66  F   UNL A   1      37.716  31.355  28.836  1.00  0.00    -0.205 F 
ATOM     67  C   UNL A   1      36.394  31.357  32.251  1.00  0.00     0.022 A 
BRANCH  65  68
ATOM     68  S   UNL A   1      35.191  32.590  30.127  1.00  0.00     0.127 S 
ATOM     69  O   UNL A   1      34.267  32.752  31.250  1.00  0.00    -0.237 OA
ATOM     70  O   UNL A   1      35.898  33.810  29.740  1.00  0.00    -0.237 OA
ATOM     71  O   UNL A   1      34.684  31.798  29.015  1.00  0.00    -0.744 OA
ENDBRANCH  65  68
ENDBRANCH  47  61
BRANCH  48  72
ATOM     72  C   UNL A   1      46.805  27.256  26.035  1.00  0.00     0.023 A 
ATOM     73  C   UNL A   1      46.935  27.500  24.655  1.00  0.00     0.012 A 
ATOM     74  C   UNL A   1      47.849  26.601  26.718  1.00  0.00     0.148 A 
ATOM     75  C   UNL A   1      48.074  27.085  23.963  1.00  0.00     0.002 A 
ATOM     76  C   UNL A   1      49.005  26.243  26.035  1.00  0.00     0.091 A 
ATOM     77  F   UNL A   1      47.697  26.359  28.027  1.00  0.00    -0.205 F 
ATOM     78  C   UNL A   1      49.113  26.469  24.654  1.00  0.00     0.022 A 
BRANCH  76  79
ATOM     79  S   UNL A   1      50.449  25.570  26.867  1.00  0.00     0.127 S 
ATOM     80  O   UNL A   1      51.375  25.381  25.754  1.00  0.00    -0.237 OA
ATOM     81  O   UNL A   1      50.799  26.656  27.784  1.00  0.00    -0.237 OA
ATOM     82  O   UNL A   1      49.993  24.353  27.525  1.00  0.00    -0.744 OA
ENDBRANCH  76  79
ENDBRANCH  48  72
BRANCH  60  83
ATOM     83  C   UNL A   1      45.099  33.239  29.225  1.00  0.00     0.023 A 
ATOM     84  C   UNL A   1      45.944  33.419  30.338  1.00  0.00     0.012 A 
ATOM     85  C   UNL A   1      45.012  34.256  28.254  1.00  0.00     0.148 A 
ATOM     86  C   UNL A   1      46.666  34.601  30.500  1.00  0.00     0.002 A 
ATOM     87  C   UNL A   1      45.773  35.411  28.395  1.00  0.00     0.091 A 
ATOM     88  F   UNL A   1      44.190  34.077  27.210  1.00  0.00    -0.205 F 
ATOM     89  C   UNL A   1      46.590  35.591  29.523  1.00  0.00     0.022 A 
BRANCH  87  90
ATOM     90  S   UNL A   1      45.817  36.692  27.135  1.00  0.00     0.127 S 
ATOM     91  O   UNL A   1      44.411  37.085  27.061  1.00  0.00    -0.237 OA
ATOM     92  O   UNL A   1      46.699  37.693  27.736  1.00  0.00    -0.237 OA
ATOM     93  O   UNL A   1      46.356  36.056  25.941  1.00  0.00    -0.744 OA
ENDBRANCH  87  90
ENDBRANCH  60  83
ENDBRANCH  34  35
ENDBRANCH  27  29
ENDBRANCH  26  27
ENDBRANCH  25  26
ENDBRANCH   1  25
TORSDOF 18
ENDMDL
MODEL 2
REMARK VINA RESULT:     -11.5      5.171     10.115
REMARK SMILES Cc1cc2c(c(C)c1Cl)C=C(C(=O)OCCOCCOC(=O)c1ccc(-c3c4nc(c(-c5cccc(S(=O)(=O)[O-])c5F)c5ccc([nH]5)c(-c5cccc(S(=O)(=O)[O-])c5F)c5nc(c(-c6cccc(S(=O)(=O)[O-])c6F)c6ccc3[nH]6)C=C5)C=C4)cc1)[C@@H](C(F)(F)F)O2
REMARK SMILES IDX 18 1 17 2 16 3 15 4 14 5 12 6 13 7 11 8 1 9 2 10 3 11 8 12
REMARK SMILES IDX 4 13 6 14 9 15 5 16 91 17 7 18 10 19 86 20 87 21 88 22 89 23
REMARK SMILES IDX 90 24 19 25 20 26 21 27 22 28 23 29 24 30 85 31 25 32 84 33
REMARK SMILES IDX 26 34 27 35 28 36 78 37 29 38 83 39 77 40 79 41 30 42 82 43
REMARK SMILES IDX 76 44 75 45 31 47 63 48 43 49 62 50 44 51 47 52 61 53 80 54
REMARK SMILES IDX 45 55 46 56 60 58 81 59 48 60 32 61 33 62 41 63 34 64 36 65
REMARK SMILES IDX 42 66 35 67 37 68 38 69 39 70 40 71 64 72 65 73 73 74 66 75
REMARK SMILES IDX 68 76 74 77 67 78 69 79 70 80 71 81 72 82 49 83 50 84 58 85
REMARK SMILES IDX 51 86 53 87 59 88 52 89 54 90 55 91 56 92 57 93
REMARK H PARENT 79 46 47 57
REMARK Flexibility Score: inf
ROOT
ATOM      1  C   UNL A   1      32.409  29.919  25.413  1.00  0.00     0.202 C 
ENDROOT
BRANCH   1   2
ATOM      2  O   UNL A   1      31.598  28.747  25.316  1.00  0.00    -0.374 OA
BRANCH   2   3
ATOM      3  C   UNL A   1      31.420  27.957  26.491  1.00  0.00     0.202 C 
BRANCH   3   4
ATOM      4  C   UNL A   1      32.123  26.598  26.533  1.00  0.00     0.261 C 
BRANCH   4   5
ATOM      5  O   UNL A   1      33.431  26.655  25.943  1.00  0.00    -0.460 OA
BRANCH   5   6
ATOM      6  C   UNL A   1      33.527  26.062  24.733  1.00  0.00     0.338 C 
ATOM      7  O   UNL A   1      33.800  26.602  23.669  1.00  0.00    -0.246 OA
BRANCH   6   8
ATOM      8  C   UNL A   1      33.403  24.601  24.878  1.00  0.00     0.087 C 
ATOM      9  C   UNL A   1      34.373  18.241  24.375  1.00  0.00     0.046 C 
ATOM     10  C   UNL A   1      34.458  19.706  24.706  1.00  0.00    -0.028 A 
ATOM     11  C   UNL A   1      33.281  20.466  24.711  1.00  0.00     0.052 A 
ATOM     12  C   UNL A   1      35.687  20.346  24.963  1.00  0.00     0.047 A 
ATOM     13  C   UNL A   1      33.325  21.846  24.892  1.00  0.00     0.128 A 
ATOM     14  C   UNL A   1      35.746  21.740  25.189  1.00  0.00    -0.021 A 
ATOM     15  Cl  UNL A   1      37.140  19.392  24.959  1.00  0.00    -0.084 Cl
ATOM     16  C   UNL A   1      34.550  22.493  25.090  1.00  0.00     0.022 A 
ATOM     17  O   UNL A   1      32.115  22.479  24.861  1.00  0.00    -0.475 OA
ATOM     18  C   UNL A   1      37.046  22.445  25.505  1.00  0.00     0.047 C 
ATOM     19  C   UNL A   1      34.552  23.951  25.099  1.00  0.00     0.027 C 
ATOM     20  C   UNL A   1      32.070  23.928  24.738  1.00  0.00     0.316 C 
BRANCH  20  21
ATOM     21  C   UNL A   1      31.362  24.279  23.422  1.00  0.00     0.430 C 
ATOM     22  F   UNL A   1      32.225  24.244  22.379  1.00  0.00    -0.167 F 
ATOM     23  F   UNL A   1      30.365  23.410  23.141  1.00  0.00    -0.167 F 
ATOM     24  F   UNL A   1      30.821  25.519  23.461  1.00  0.00    -0.167 F 
ENDBRANCH  20  21
ENDBRANCH   6   8
ENDBRANCH   5   6
ENDBRANCH   4   5
ENDBRANCH   3   4
ENDBRANCH   2   3
ENDBRANCH   1   2
BRANCH   1  25
ATOM     25  C   UNL A   1      32.034  30.967  26.468  1.00  0.00     0.261 C 
BRANCH  25  26
ATOM     26  O   UNL A   1      32.913  30.946  27.605  1.00  0.00    -0.460 OA
BRANCH  26  27
ATOM     27  C   UNL A   1      33.756  32.003  27.680  1.00  0.00     0.338 C 
ATOM     28  O   UNL A   1      33.452  33.191  27.661  1.00  0.00    -0.246 OA
BRANCH  27  29
ATOM     29  C   UNL A   1      35.123  31.552  27.981  1.00  0.00     0.060 A 
ATOM     30  C   UNL A   1      35.320  30.177  28.177  1.00  0.00     0.016 A 
ATOM     31  C   UNL A   1      36.165  32.458  28.181  1.00  0.00     0.016 A 
ATOM     32  C   UNL A   1      36.544  29.708  28.643  1.00  0.00     0.010 A 
ATOM     33  C   UNL A   1      37.390  31.985  28.663  1.00  0.00     0.010 A 
ATOM     34  C   UNL A   1      37.566  30.618  28.942  1.00  0.00    -0.014 A 
BRANCH  34  35
ATOM     35  C   UNL A   1      38.732  30.164  29.733  1.00  0.00     0.031 A 
ATOM     36  C   UNL A   1      39.638  29.119  29.141  1.00  0.00     0.074 A 
ATOM     37  C   UNL A   1      38.995  30.685  30.944  1.00  0.00     0.049 A 
ATOM     38  N   UNL A   1      40.682  28.533  29.667  1.00  0.00    -0.248 NA
ATOM     39  C   UNL A   1      39.327  28.677  27.770  1.00  0.00     0.031 C 
ATOM     40  C   UNL A   1      38.213  31.731  31.600  1.00  0.00     0.029 A 
ATOM     41  N   UNL A   1      39.989  30.392  31.841  1.00  0.00    -0.354 N 
ATOM     42  C   UNL A   1      41.139  27.640  28.705  1.00  0.00     0.074 A 
ATOM     43  C   UNL A   1      40.252  27.750  27.567  1.00  0.00     0.031 C 
ATOM     44  C   UNL A   1      38.744  31.974  32.810  1.00  0.00     0.029 A 
ATOM     45  C   UNL A   1      39.883  31.084  33.024  1.00  0.00     0.049 A 
ATOM     46  H   UNL A   1      40.710  29.747  31.656  1.00  0.00     0.167 HD
ATOM     47  C   UNL A   1      42.211  26.816  28.756  1.00  0.00     0.034 A 
ATOM     48  C   UNL A   1      40.609  30.988  34.156  1.00  0.00     0.034 A 
ATOM     49  C   UNL A   1      43.100  26.723  29.882  1.00  0.00     0.049 A 
ATOM     50  C   UNL A   1      41.763  30.021  34.209  1.00  0.00     0.074 A 
ATOM     51  C   UNL A   1      44.224  25.928  30.024  1.00  0.00     0.029 A 
ATOM     52  N   UNL A   1      42.964  27.441  31.059  1.00  0.00    -0.354 N 
ATOM     53  N   UNL A   1      42.232  29.239  33.265  1.00  0.00    -0.248 NA
ATOM     54  C   UNL A   1      42.505  29.940  35.477  1.00  0.00     0.031 C 
ATOM     55  C   UNL A   1      44.756  26.152  31.299  1.00  0.00     0.029 A 
ATOM     56  C   UNL A   1      43.977  27.102  31.940  1.00  0.00     0.049 A 
ATOM     57  H   UNL A   1      42.253  28.096  31.243  1.00  0.00     0.167 HD
ATOM     58  C   UNL A   1      43.331  28.589  33.817  1.00  0.00     0.074 A 
ATOM     59  C   UNL A   1      43.480  29.096  35.166  1.00  0.00     0.031 C 
ATOM     60  C   UNL A   1      44.134  27.642  33.266  1.00  0.00     0.034 A 
BRANCH  47  61
ATOM     61  C   UNL A   1      42.503  25.971  27.546  1.00  0.00     0.023 A 
ATOM     62  C   UNL A   1      43.276  26.508  26.495  1.00  0.00     0.012 A 
ATOM     63  C   UNL A   1      42.077  24.630  27.475  1.00  0.00     0.148 A 
ATOM     64  C   UNL A   1      43.602  25.730  25.385  1.00  0.00     0.002 A 
ATOM     65  C   UNL A   1      42.443  23.849  26.386  1.00  0.00     0.091 A 
ATOM     66  F   UNL A   1      41.322  24.147  28.472  1.00  0.00    -0.205 F 
ATOM     67  C   UNL A   1      43.196  24.400  25.336  1.00  0.00     0.022 A 
BRANCH  65  68
ATOM     68  S   UNL A   1      42.035  22.104  26.262  1.00  0.00     0.127 S 
ATOM     69  O   UNL A   1      42.787  21.708  25.071  1.00  0.00    -0.237 OA
ATOM     70  O   UNL A   1      42.565  21.576  27.519  1.00  0.00    -0.237 OA
ATOM     71  O   UNL A   1      40.587  22.035  26.133  1.00  0.00    -0.744 OA
ENDBRANCH  65  68
ENDBRANCH  47  61
BRANCH  48  72
ATOM     72  C   UNL A   1      40.283  31.859  35.321  1.00  0.00     0.023 A 
ATOM     73  C   UNL A   1      41.025  33.037  35.533  1.00  0.00     0.012 A 
ATOM     74  C   UNL A   1      39.224  31.548  36.197  1.00  0.00     0.148 A 
ATOM     75  C   UNL A   1      40.732  33.880  36.606  1.00  0.00     0.002 A 
ATOM     76  C   UNL A   1      38.900  32.421  37.229  1.00  0.00     0.091 A 
ATOM     77  F   UNL A   1      38.543  30.412  35.992  1.00  0.00    -0.205 F 
ATOM     78  C   UNL A   1      39.663  33.579  37.445  1.00  0.00     0.022 A 
BRANCH  76  79
ATOM     79  S   UNL A   1      37.457  32.188  38.275  1.00  0.00     0.127 S 
ATOM     80  O   UNL A   1      36.456  33.003  37.591  1.00  0.00    -0.237 OA
ATOM     81  O   UNL A   1      37.248  30.743  38.177  1.00  0.00    -0.237 OA
ATOM     82  O   UNL A   1      37.852  32.650  39.598  1.00  0.00    -0.744 OA
ENDBRANCH  76  79
ENDBRANCH  48  72
BRANCH  60  83
ATOM     83  C   UNL A   1      45.246  27.084  34.119  1.00  0.00     0.023 A 
ATOM     84  C   UNL A   1      46.505  27.715  34.114  1.00  0.00     0.012 A 
ATOM     85  C   UNL A   1      45.025  25.992  34.982  1.00  0.00     0.148 A 
ATOM     86  C   UNL A   1      47.537  27.251  34.929  1.00  0.00     0.002 A 
ATOM     87  C   UNL A   1      46.042  25.566  35.829  1.00  0.00     0.091 A 
ATOM     88  F   UNL A   1      43.827  25.391  34.962  1.00  0.00    -0.205 F 
ATOM     89  C   UNL A   1      47.302  26.185  35.795  1.00  0.00     0.022 A 
BRANCH  87  90
ATOM     90  S   UNL A   1      45.795  24.270  37.049  1.00  0.00     0.127 S 
ATOM     91  O   UNL A   1      45.513  23.113  36.202  1.00  0.00    -0.237 OA
ATOM     92  O   UNL A   1      47.091  24.227  37.727  1.00  0.00    -0.237 OA
ATOM     93  O   UNL A   1      44.693  24.719  37.889  1.00  0.00    -0.744 OA
ENDBRANCH  87  90
ENDBRANCH  60  83
ENDBRANCH  34  35
ENDBRANCH  27  29
ENDBRANCH  26  27
ENDBRANCH  25  26
ENDBRANCH   1  25
TORSDOF 18
ENDMDL
MODEL 3
REMARK VINA RESULT:     -11.5      4.921      8.218
REMARK SMILES Cc1cc2c(c(C)c1Cl)C=C(C(=O)OCCOCCOC(=O)c1ccc(-c3c4nc(c(-c5cccc(S(=O)(=O)[O-])c5F)c5ccc([nH]5)c(-c5cccc(S(=O)(=O)[O-])c5F)c5nc(c(-c6cccc(S(=O)(=O)[O-])c6F)c6ccc3[nH]6)C=C5)C=C4)cc1)[C@@H](C(F)(F)F)O2
REMARK SMILES IDX 18 1 17 2 16 3 15 4 14 5 12 6 13 7 11 8 1 9 2 10 3 11 8 12
REMARK SMILES IDX 4 13 6 14 9 15 5 16 91 17 7 18 10 19 86 20 87 21 88 22 89 23
REMARK SMILES IDX 90 24 19 25 20 26 21 27 22 28 23 29 24 30 85 31 25 32 84 33
REMARK SMILES IDX 26 34 27 35 28 36 78 37 29 38 83 39 77 40 79 41 30 42 82 43
REMARK SMILES IDX 76 44 75 45 31 47 63 48 43 49 62 50 44 51 47 52 61 53 80 54
REMARK SMILES IDX 45 55 46 56 60 58 81 59 48 60 32 61 33 62 41 63 34 64 36 65
REMARK SMILES IDX 42 66 35 67 37 68 38 69 39 70 40 71 64 72 65 73 73 74 66 75
REMARK SMILES IDX 68 76 74 77 67 78 69 79 70 80 71 81 72 82 49 83 50 84 58 85
REMARK SMILES IDX 51 86 53 87 59 88 52 89 54 90 55 91 56 92 57 93
REMARK H PARENT 79 46 47 57
REMARK Flexibility Score: inf
ROOT
ATOM      1  C   UNL A   1      31.423  31.528  26.444  1.00  0.00     0.202 C 
ENDROOT
BRANCH   1   2
ATOM      2  O   UNL A   1      32.268  30.493  26.952  1.00  0.00    -0.374 OA
BRANCH   2   3
ATOM      3  C   UNL A   1      31.809  29.146  26.850  1.00  0.00     0.202 C 
BRANCH   3   4
ATOM      4  C   UNL A   1      31.787  28.518  25.453  1.00  0.00     0.261 C 
BRANCH   4   5
ATOM      5  O   UNL A   1      31.841  27.084  25.512  1.00  0.00    -0.460 OA
BRANCH   5   6
ATOM      6  C   UNL A   1      32.793  26.526  24.733  1.00  0.00     0.338 C 
ATOM      7  O   UNL A   1      33.641  27.112  24.072  1.00  0.00    -0.246 OA
BRANCH   6   8
ATOM      8  C   UNL A   1      32.779  25.061  24.895  1.00  0.00     0.087 C 
ATOM      9  C   UNL A   1      34.222  18.786  24.462  1.00  0.00     0.046 C 
ATOM     10  C   UNL A   1      34.197  20.257  24.775  1.00  0.00    -0.028 A 
ATOM     11  C   UNL A   1      32.967  20.927  24.776  1.00  0.00     0.052 A 
ATOM     12  C   UNL A   1      35.375  20.991  25.021  1.00  0.00     0.047 A 
ATOM     13  C   UNL A   1      32.908  22.308  24.941  1.00  0.00     0.128 A 
ATOM     14  C   UNL A   1      35.330  22.387  25.230  1.00  0.00    -0.021 A 
ATOM     15  Cl  UNL A   1      36.896  20.147  25.022  1.00  0.00    -0.084 Cl
ATOM     16  C   UNL A   1      34.081  23.047  25.127  1.00  0.00     0.022 A 
ATOM     17  O   UNL A   1      31.653  22.849  24.907  1.00  0.00    -0.475 OA
ATOM     18  C   UNL A   1      36.574  23.191  25.534  1.00  0.00     0.047 C 
ATOM     19  C   UNL A   1      33.974  24.502  25.119  1.00  0.00     0.027 C 
ATOM     20  C   UNL A   1      31.499  24.289  24.767  1.00  0.00     0.316 C 
BRANCH  20  21
ATOM     21  C   UNL A   1      30.764  24.571  23.450  1.00  0.00     0.430 C 
ATOM     22  F   UNL A   1      29.868  25.574  23.595  1.00  0.00    -0.167 F 
ATOM     23  F   UNL A   1      31.619  24.941  22.469  1.00  0.00    -0.167 F 
ATOM     24  F   UNL A   1      30.090  23.483  23.011  1.00  0.00    -0.167 F 
ENDBRANCH  20  21
ENDBRANCH   6   8
ENDBRANCH   5   6
ENDBRANCH   4   5
ENDBRANCH   3   4
ENDBRANCH   2   3
ENDBRANCH   1   2
BRANCH   1  25
ATOM     25  C   UNL A   1      31.654  32.957  26.949  1.00  0.00     0.261 C 
BRANCH  25  26
ATOM     26  O   UNL A   1      33.027  33.369  26.836  1.00  0.00    -0.460 OA
BRANCH  26  27
ATOM     27  C   UNL A   1      33.603  33.720  28.009  1.00  0.00     0.338 C 
ATOM     28  O   UNL A   1      33.135  34.459  28.869  1.00  0.00    -0.246 OA
BRANCH  27  29
ATOM     29  C   UNL A   1      34.831  32.941  28.233  1.00  0.00     0.060 A 
ATOM     30  C   UNL A   1      34.683  31.589  28.576  1.00  0.00     0.016 A 
ATOM     31  C   UNL A   1      36.090  33.541  28.222  1.00  0.00     0.016 A 
ATOM     32  C   UNL A   1      35.790  30.848  28.978  1.00  0.00     0.010 A 
ATOM     33  C   UNL A   1      37.198  32.798  28.641  1.00  0.00     0.010 A 
ATOM     34  C   UNL A   1      37.043  31.466  29.067  1.00  0.00    -0.014 A 
BRANCH  34  35
ATOM     35  C   UNL A   1      38.138  30.785  29.794  1.00  0.00     0.031 A 
ATOM     36  C   UNL A   1      38.380  31.152  31.233  1.00  0.00     0.074 A 
ATOM     37  C   UNL A   1      38.886  29.842  29.198  1.00  0.00     0.049 A 
ATOM     38  N   UNL A   1      39.308  30.730  32.051  1.00  0.00    -0.248 NA
ATOM     39  C   UNL A   1      37.448  32.124  31.831  1.00  0.00     0.031 C 
ATOM     40  C   UNL A   1      38.717  29.375  27.824  1.00  0.00     0.029 A 
ATOM     41  N   UNL A   1      39.951  29.119  29.672  1.00  0.00    -0.354 N 
ATOM     42  C   UNL A   1      39.089  31.398  33.249  1.00  0.00     0.074 A 
ATOM     43  C   UNL A   1      37.947  32.264  33.051  1.00  0.00     0.031 C 
ATOM     44  C   UNL A   1      39.664  28.459  27.556  1.00  0.00     0.029 A 
ATOM     45  C   UNL A   1      40.521  28.298  28.730  1.00  0.00     0.049 A 
ATOM     46  H   UNL A   1      40.276  29.184  30.600  1.00  0.00     0.167 HD
ATOM     47  C   UNL A   1      39.765  31.287  34.416  1.00  0.00     0.034 A 
ATOM     48  C   UNL A   1      41.623  27.525  28.802  1.00  0.00     0.034 A 
ATOM     49  C   UNL A   1      40.888  30.412  34.615  1.00  0.00     0.049 A 
ATOM     50  C   UNL A   1      42.393  27.462  30.096  1.00  0.00     0.074 A 
ATOM     51  C   UNL A   1      41.631  30.217  35.766  1.00  0.00     0.029 A 
ATOM     52  N   UNL A   1      41.434  29.592  33.640  1.00  0.00    -0.354 N 
ATOM     53  N   UNL A   1      42.129  28.039  31.245  1.00  0.00    -0.248 NA
ATOM     54  C   UNL A   1      43.601  26.623  30.111  1.00  0.00     0.031 C 
ATOM     55  C   UNL A   1      42.642  29.293  35.480  1.00  0.00     0.029 A 
ATOM     56  C   UNL A   1      42.513  28.896  34.158  1.00  0.00     0.049 A 
ATOM     57  H   UNL A   1      41.105  29.516  32.716  1.00  0.00     0.167 HD
ATOM     58  C   UNL A   1      43.124  27.618  32.122  1.00  0.00     0.074 A 
ATOM     59  C   UNL A   1      43.975  26.710  31.381  1.00  0.00     0.031 C 
ATOM     60  C   UNL A   1      43.328  27.967  33.418  1.00  0.00     0.034 A 
BRANCH  47  61
ATOM     61  C   UNL A   1      39.288  32.109  35.583  1.00  0.00     0.023 A 
ATOM     62  C   UNL A   1      38.402  31.536  36.520  1.00  0.00     0.012 A 
ATOM     63  C   UNL A   1      39.764  33.417  35.794  1.00  0.00     0.148 A 
ATOM     64  C   UNL A   1      37.983  32.259  37.635  1.00  0.00     0.002 A 
ATOM     65  C   UNL A   1      39.376  34.116  36.931  1.00  0.00     0.091 A 
ATOM     66  F   UNL A   1      40.585  33.953  34.879  1.00  0.00    -0.205 F 
ATOM     67  C   UNL A   1      38.479  33.542  37.847  1.00  0.00     0.022 A 
BRANCH  65  68
ATOM     68  S   UNL A   1      40.015  35.745  37.335  1.00  0.00     0.127 S 
ATOM     69  O   UNL A   1      39.356  36.013  38.614  1.00  0.00    -0.237 OA
ATOM     70  O   UNL A   1      41.453  35.494  37.432  1.00  0.00    -0.237 OA
ATOM     71  O   UNL A   1      39.621  36.617  36.238  1.00  0.00    -0.744 OA
ENDBRANCH  65  68
ENDBRANCH  47  61
BRANCH  48  72
ATOM     72  C   UNL A   1      42.043  26.721  27.619  1.00  0.00     0.023 A 
ATOM     73  C   UNL A   1      42.793  27.333  26.597  1.00  0.00     0.012 A 
ATOM     74  C   UNL A   1      41.735  25.349  27.517  1.00  0.00     0.148 A 
ATOM     75  C   UNL A   1      43.213  26.600  25.486  1.00  0.00     0.002 A 
ATOM     76  C   UNL A   1      42.206  24.612  26.438  1.00  0.00     0.091 A 
ATOM     77  F   UNL A   1      41.002  24.789  28.490  1.00  0.00    -0.205 F 
ATOM     78  C   UNL A   1      42.931  25.239  25.412  1.00  0.00     0.022 A 
BRANCH  76  79
ATOM     79  S   UNL A   1      42.011  22.829  26.326  1.00  0.00     0.127 S 
ATOM     80  O   UNL A   1      40.559  22.683  26.374  1.00  0.00    -0.237 OA
ATOM     81  O   UNL A   1      42.618  22.543  25.026  1.00  0.00    -0.237 OA
ATOM     82  O   UNL A   1      42.740  22.282  27.462  1.00  0.00    -0.744 OA
ENDBRANCH  76  79
ENDBRANCH  48  72
BRANCH  60  83
ATOM     83  C   UNL A   1      44.521  27.372  34.124  1.00  0.00     0.023 A 
ATOM     84  C   UNL A   1      45.770  28.019  34.037  1.00  0.00     0.012 A 
ATOM     85  C   UNL A   1      44.393  26.228  34.937  1.00  0.00     0.148 A 
ATOM     86  C   UNL A   1      46.879  27.520  34.720  1.00  0.00     0.002 A 
ATOM     87  C   UNL A   1      45.489  25.765  35.655  1.00  0.00     0.091 A 
ATOM     88  F   UNL A   1      43.202  25.614  34.995  1.00  0.00    -0.205 F 
ATOM     89  C   UNL A   1      46.736  26.401  35.538  1.00  0.00     0.022 A 
BRANCH  87  90
ATOM     90  S   UNL A   1      45.370  24.395  36.812  1.00  0.00     0.127 S 
ATOM     91  O   UNL A   1      44.296  24.843  37.696  1.00  0.00    -0.237 OA
ATOM     92  O   UNL A   1      45.013  23.277  35.938  1.00  0.00    -0.237 OA
ATOM     93  O   UNL A   1      46.685  24.280  37.428  1.00  0.00    -0.744 OA
ENDBRANCH  87  90
ENDBRANCH  60  83
ENDBRANCH  34  35
ENDBRANCH  27  29
ENDBRANCH  26  27
ENDBRANCH  25  26
ENDBRANCH   1  25
TORSDOF 18
ENDMDL
