MODEL 1
REMARK VINA RESULT:     -11.1      0.000      0.000
REMARK SMILES COc1c(Cl)cc(C(=O)OCCOCCOC(=O)c2ccc(-c3c4nc(c(-c5cccc(S(=O)(=O)[O-])c5F)c5ccc([nH]5)c(-c5cccc(S(=O)(=O)[O-])c5F)c5nc(c(-c6cccc(S(=O)(=O)[O-])c6F)c6ccc3[nH]6)C=C5)C=C4)cc2)cc1NC(=O)C(C)(C)Oc1ccc(Br)cc1
REMARK SMILES IDX 12 1 11 2 10 3 8 4 9 5 7 6 3 7 4 8 83 9 5 10 6 11 82 12 2 13
REMARK SMILES IDX 1 14 84 15 85 16 86 18 87 19 88 20 89 21 90 22 91 23 92 24
REMARK SMILES IDX 97 25 93 26 96 27 94 28 95 29 13 30 14 31 15 32 16 33 17 34
REMARK SMILES IDX 18 35 19 36 20 37 81 38 21 39 80 40 22 41 23 42 24 43 74 44
REMARK SMILES IDX 25 45 79 46 73 47 75 48 26 49 78 50 72 51 71 52 27 54 59 55
REMARK SMILES IDX 39 56 58 57 40 58 43 59 57 60 76 61 41 62 42 63 56 65 77 66
REMARK SMILES IDX 44 67 28 68 29 69 37 70 30 71 32 72 38 73 31 74 33 75 34 76
REMARK SMILES IDX 35 77 36 78 60 79 61 80 69 81 62 82 64 83 70 84 63 85 65 86
REMARK SMILES IDX 66 87 67 88 68 89 45 90 46 91 54 92 47 93 49 94 55 95 48 96
REMARK SMILES IDX 50 97 51 98 52 99 53 100
REMARK H PARENT 84 17 75 53 43 64
REMARK Flexibility Score: inf
ROOT
ATOM      1  C   UNL A   1      35.666  22.444  25.835  1.00  0.00     0.202 C 
ENDROOT
BRANCH   1   2
ATOM      2  C   UNL A   1      34.809  21.190  26.055  1.00  0.00     0.261 C 
BRANCH   2   3
ATOM      3  O   UNL A   1      33.405  21.482  25.978  1.00  0.00    -0.460 OA
BRANCH   3   4
ATOM      4  C   UNL A   1      32.895  22.296  26.936  1.00  0.00     0.338 C 
ATOM      5  O   UNL A   1      33.131  22.246  28.135  1.00  0.00    -0.246 OA
BRANCH   4   6
ATOM      6  C   UNL A   1      32.028  23.347  26.322  1.00  0.00     0.063 A 
ATOM      7  C   UNL A   1      30.639  25.435  25.062  1.00  0.00     0.160 A 
ATOM      8  C   UNL A   1      30.795  24.179  24.432  1.00  0.00     0.086 A 
ATOM      9  C   UNL A   1      31.155  25.651  26.357  1.00  0.00     0.086 A 
ATOM     10  Cl  UNL A   1      30.244  23.861  22.825  1.00  0.00    -0.080 Cl
ATOM     11  C   UNL A   1      31.492  23.144  25.060  1.00  0.00     0.040 A 
ATOM     12  C   UNL A   1      31.775  24.558  26.976  1.00  0.00     0.045 A 
BRANCH   7  13
ATOM     13  O   UNL A   1      30.199  26.548  24.379  1.00  0.00    -0.493 OA
ATOM     14  C   UNL A   1      28.797  26.545  24.139  1.00  0.00     0.278 C 
ENDBRANCH   7  13
BRANCH   9  15
ATOM     15  N   UNL A   1      31.096  26.979  26.902  1.00  0.00    -0.319 N 
ATOM     16  C   UNL A   1      31.928  28.106  26.889  1.00  0.00     0.268 C 
ATOM     17  H   UNL A   1      30.267  27.136  27.407  1.00  0.00     0.170 HD
ATOM     18  O   UNL A   1      31.508  29.114  27.466  1.00  0.00    -0.270 OA
BRANCH  16  19
ATOM     19  C   UNL A   1      33.315  28.090  26.151  1.00  0.00     0.181 C 
ATOM     20  C   UNL A   1      32.936  28.704  24.769  1.00  0.00     0.067 C 
ATOM     21  C   UNL A   1      34.226  28.775  27.205  1.00  0.00     0.067 C 
BRANCH  19  22
ATOM     22  O   UNL A   1      33.980  26.822  25.830  1.00  0.00    -0.478 OA
BRANCH  22  23
ATOM     23  C   UNL A   1      33.958  26.542  24.464  1.00  0.00     0.120 A 
ATOM     24  C   UNL A   1      34.211  25.248  24.022  1.00  0.00     0.047 A 
ATOM     25  C   UNL A   1      33.583  27.502  23.521  1.00  0.00     0.047 A 
ATOM     26  C   UNL A   1      33.857  24.888  22.712  1.00  0.00     0.019 A 
ATOM     27  C   UNL A   1      33.167  27.137  22.247  1.00  0.00     0.019 A 
ATOM     28  C   UNL A   1      33.261  25.818  21.855  1.00  0.00     0.018 A 
ATOM     29  Br  UNL A   1      32.491  25.410  20.176  1.00  0.00    -0.051 Br
ENDBRANCH  22  23
ENDBRANCH  19  22
ENDBRANCH  16  19
ENDBRANCH   9  15
ENDBRANCH   4   6
ENDBRANCH   3   4
ENDBRANCH   2   3
ENDBRANCH   1   2
BRANCH   1  30
ATOM     30  O   UNL A   1      36.871  22.277  25.086  1.00  0.00    -0.374 OA
BRANCH  30  31
ATOM     31  C   UNL A   1      37.125  20.991  24.525  1.00  0.00     0.202 C 
BRANCH  31  32
ATOM     32  C   UNL A   1      38.368  20.227  24.994  1.00  0.00     0.261 C 
BRANCH  32  33
ATOM     33  O   UNL A   1      38.762  20.538  26.341  1.00  0.00    -0.460 OA
BRANCH  33  34
ATOM     34  C   UNL A   1      40.102  20.700  26.490  1.00  0.00     0.338 C 
ATOM     35  O   UNL A   1      40.972  19.937  26.102  1.00  0.00    -0.246 OA
BRANCH  34  36
ATOM     36  C   UNL A   1      40.428  22.013  27.083  1.00  0.00     0.060 A 
ATOM     37  C   UNL A   1      39.858  23.143  26.483  1.00  0.00     0.016 A 
ATOM     38  C   UNL A   1      41.371  22.158  28.100  1.00  0.00     0.016 A 
ATOM     39  C   UNL A   1      40.284  24.423  26.842  1.00  0.00     0.010 A 
ATOM     40  C   UNL A   1      41.782  23.447  28.468  1.00  0.00     0.010 A 
ATOM     41  C   UNL A   1      41.274  24.592  27.815  1.00  0.00    -0.014 A 
BRANCH  41  42
ATOM     42  C   UNL A   1      41.851  25.937  28.115  1.00  0.00     0.031 A 
ATOM     43  C   UNL A   1      40.970  27.012  28.660  1.00  0.00     0.074 A 
ATOM     44  C   UNL A   1      43.145  26.232  27.885  1.00  0.00     0.049 A 
ATOM     45  N   UNL A   1      41.286  28.250  28.928  1.00  0.00    -0.248 NA
ATOM     46  C   UNL A   1      39.592  26.642  29.010  1.00  0.00     0.031 C 
ATOM     47  C   UNL A   1      44.153  25.251  27.553  1.00  0.00     0.029 A 
ATOM     48  N   UNL A   1      43.832  27.417  27.821  1.00  0.00    -0.354 N 
ATOM     49  C   UNL A   1      40.163  28.801  29.516  1.00  0.00     0.074 A 
ATOM     50  C   UNL A   1      39.131  27.783  29.501  1.00  0.00     0.031 C 
ATOM     51  C   UNL A   1      45.259  25.853  27.098  1.00  0.00     0.029 A 
ATOM     52  C   UNL A   1      45.066  27.288  27.215  1.00  0.00     0.049 A 
ATOM     53  H   UNL A   1      43.483  28.269  28.171  1.00  0.00     0.167 HD
ATOM     54  C   UNL A   1      40.034  30.028  30.066  1.00  0.00     0.034 A 
ATOM     55  C   UNL A   1      45.956  28.210  26.804  1.00  0.00     0.034 A 
ATOM     56  C   UNL A   1      41.068  31.028  30.053  1.00  0.00     0.049 A 
ATOM     57  C   UNL A   1      45.730  29.616  27.263  1.00  0.00     0.074 A 
ATOM     58  C   UNL A   1      41.045  32.296  30.606  1.00  0.00     0.029 A 
ATOM     59  N   UNL A   1      42.300  30.892  29.425  1.00  0.00    -0.354 N 
ATOM     60  N   UNL A   1      44.705  30.097  27.922  1.00  0.00    -0.248 NA
ATOM     61  C   UNL A   1      46.820  30.573  27.045  1.00  0.00     0.031 C 
ATOM     62  C   UNL A   1      42.238  32.943  30.264  1.00  0.00     0.029 A 
ATOM     63  C   UNL A   1      43.029  32.064  29.541  1.00  0.00     0.049 A 
ATOM     64  H   UNL A   1      42.610  30.079  28.963  1.00  0.00     0.167 HD
ATOM     65  C   UNL A   1      45.057  31.388  28.276  1.00  0.00     0.074 A 
ATOM     66  C   UNL A   1      46.387  31.618  27.739  1.00  0.00     0.031 C 
ATOM     67  C   UNL A   1      44.351  32.285  29.005  1.00  0.00     0.034 A 
BRANCH  54  68
ATOM     68  C   UNL A   1      38.720  30.336  30.725  1.00  0.00     0.023 A 
ATOM     69  C   UNL A   1      38.430  29.807  32.000  1.00  0.00     0.012 A 
ATOM     70  C   UNL A   1      37.772  31.145  30.076  1.00  0.00     0.148 A 
ATOM     71  C   UNL A   1      37.195  30.047  32.602  1.00  0.00     0.002 A 
ATOM     72  C   UNL A   1      36.564  31.419  30.701  1.00  0.00     0.091 A 
ATOM     73  F   UNL A   1      38.060  31.611  28.853  1.00  0.00    -0.205 F 
ATOM     74  C   UNL A   1      36.267  30.859  31.955  1.00  0.00     0.022 A 
BRANCH  72  75
ATOM     75  S   UNL A   1      35.331  32.503  29.980  1.00  0.00     0.127 S 
ATOM     76  O   UNL A   1      34.895  31.724  28.822  1.00  0.00    -0.237 OA
ATOM     77  O   UNL A   1      34.344  32.600  31.056  1.00  0.00    -0.237 OA
ATOM     78  O   UNL A   1      36.020  33.748  29.670  1.00  0.00    -0.744 OA
ENDBRANCH  72  75
ENDBRANCH  54  68
BRANCH  55  79
ATOM     79  C   UNL A   1      47.174  27.806  26.047  1.00  0.00     0.023 A 
ATOM     80  C   UNL A   1      48.294  27.304  26.735  1.00  0.00     0.012 A 
ATOM     81  C   UNL A   1      47.215  27.893  24.639  1.00  0.00     0.148 A 
ATOM     82  C   UNL A   1      49.448  26.932  26.042  1.00  0.00     0.002 A 
ATOM     83  C   UNL A   1      48.357  27.493  23.951  1.00  0.00     0.091 A 
ATOM     84  F   UNL A   1      46.135  28.366  24.002  1.00  0.00    -0.205 F 
ATOM     85  C   UNL A   1      49.479  27.024  24.653  1.00  0.00     0.022 A 
BRANCH  83  86
ATOM     86  S   UNL A   1      48.479  27.507  22.157  1.00  0.00     0.127 S 
ATOM     87  O   UNL A   1      49.706  28.271  21.948  1.00  0.00    -0.237 OA
ATOM     88  O   UNL A   1      48.586  26.079  21.852  1.00  0.00    -0.237 OA
ATOM     89  O   UNL A   1      47.258  28.140  21.683  1.00  0.00    -0.744 OA
ENDBRANCH  83  86
ENDBRANCH  55  79
BRANCH  67  90
ATOM     90  C   UNL A   1      45.013  33.605  29.282  1.00  0.00     0.023 A 
ATOM     91  C   UNL A   1      45.794  33.773  30.442  1.00  0.00     0.012 A 
ATOM     92  C   UNL A   1      44.894  34.668  28.364  1.00  0.00     0.148 A 
ATOM     93  C   UNL A   1      46.412  34.994  30.707  1.00  0.00     0.002 A 
ATOM     94  C   UNL A   1      45.561  35.860  28.604  1.00  0.00     0.091 A 
ATOM     95  F   UNL A   1      44.125  34.493  27.279  1.00  0.00    -0.205 F 
ATOM     96  C   UNL A   1      46.307  36.031  29.783  1.00  0.00     0.022 A 
BRANCH  94  97
ATOM     97  S   UNL A   1      45.569  37.214  27.427  1.00  0.00     0.127 S 
ATOM     98  O   UNL A   1      46.248  38.264  28.184  1.00  0.00    -0.237 OA
ATOM     99  O   UNL A   1      46.349  36.655  26.322  1.00  0.00    -0.237 OA
ATOM    100  O   UNL A   1      44.173  37.481  27.108  1.00  0.00    -0.744 OA
ENDBRANCH  94  97
ENDBRANCH  67  90
ENDBRANCH  41  42
ENDBRANCH  34  36
ENDBRANCH  33  34
ENDBRANCH  32  33
ENDBRANCH  31  32
ENDBRANCH  30  31
ENDBRANCH   1  30
TORSDOF 22
ENDMDL
MODEL 2
REMARK VINA RESULT:     -11.0      1.916      2.443
REMARK SMILES COc1c(Cl)cc(C(=O)OCCOCCOC(=O)c2ccc(-c3c4nc(c(-c5cccc(S(=O)(=O)[O-])c5F)c5ccc([nH]5)c(-c5cccc(S(=O)(=O)[O-])c5F)c5nc(c(-c6cccc(S(=O)(=O)[O-])c6F)c6ccc3[nH]6)C=C5)C=C4)cc2)cc1NC(=O)C(C)(C)Oc1ccc(Br)cc1
REMARK SMILES IDX 12 1 11 2 10 3 8 4 9 5 7 6 3 7 4 8 83 9 5 10 6 11 82 12 2 13
REMARK SMILES IDX 1 14 84 15 85 16 86 18 87 19 88 20 89 21 90 22 91 23 92 24
REMARK SMILES IDX 97 25 93 26 96 27 94 28 95 29 13 30 14 31 15 32 16 33 17 34
REMARK SMILES IDX 18 35 19 36 20 37 81 38 21 39 80 40 22 41 23 42 24 43 74 44
REMARK SMILES IDX 25 45 79 46 73 47 75 48 26 49 78 50 72 51 71 52 27 54 59 55
REMARK SMILES IDX 39 56 58 57 40 58 43 59 57 60 76 61 41 62 42 63 56 65 77 66
REMARK SMILES IDX 44 67 28 68 29 69 37 70 30 71 32 72 38 73 31 74 33 75 34 76
REMARK SMILES IDX 35 77 36 78 60 79 61 80 69 81 62 82 64 83 70 84 63 85 65 86
REMARK SMILES IDX 66 87 67 88 68 89 45 90 46 91 54 92 47 93 49 94 55 95 48 96
REMARK SMILES IDX 50 97 51 98 52 99 53 100
REMARK H PARENT 84 17 75 53 43 64
REMARK Flexibility Score: inf
ROOT
ATOM      1  C   UNL A   1      36.350  22.311  25.217  1.00  0.00     0.202 C 
ENDROOT
BRANCH   1   2
ATOM      2  C   UNL A   1      36.525  23.287  24.045  1.00  0.00     0.261 C 
BRANCH   2   3
ATOM      3  O   UNL A   1      35.435  23.205  23.114  1.00  0.00    -0.460 OA
BRANCH   3   4
ATOM      4  C   UNL A   1      34.479  24.162  23.204  1.00  0.00     0.338 C 
ATOM      5  O   UNL A   1      34.282  25.072  22.411  1.00  0.00    -0.246 OA
BRANCH   4   6
ATOM      6  C   UNL A   1      33.614  23.926  24.399  1.00  0.00     0.063 A 
ATOM      7  C   UNL A   1      31.768  23.558  26.481  1.00  0.00     0.160 A 
ATOM      8  C   UNL A   1      32.178  22.474  25.671  1.00  0.00     0.086 A 
ATOM      9  C   UNL A   1      32.309  24.844  26.277  1.00  0.00     0.086 A 
ATOM     10  Cl  UNL A   1      31.515  20.885  25.822  1.00  0.00    -0.080 Cl
ATOM     11  C   UNL A   1      33.093  22.662  24.631  1.00  0.00     0.040 A 
ATOM     12  C   UNL A   1      33.281  24.964  25.276  1.00  0.00     0.045 A 
BRANCH   7  13
ATOM     13  O   UNL A   1      30.686  23.469  27.329  1.00  0.00    -0.493 OA
ATOM     14  C   UNL A   1      29.434  23.578  26.660  1.00  0.00     0.278 C 
ENDBRANCH   7  13
BRANCH   9  15
ATOM     15  N   UNL A   1      31.764  25.939  27.031  1.00  0.00    -0.319 N 
ATOM     16  C   UNL A   1      31.819  27.337  26.951  1.00  0.00     0.268 C 
ATOM     17  H   UNL A   1      31.217  25.633  27.788  1.00  0.00     0.170 HD
ATOM     18  O   UNL A   1      31.173  27.968  27.792  1.00  0.00    -0.270 OA
BRANCH  16  19
ATOM     19  C   UNL A   1      32.645  28.060  25.827  1.00  0.00     0.181 C 
ATOM     20  C   UNL A   1      31.843  29.387  25.661  1.00  0.00     0.067 C 
ATOM     21  C   UNL A   1      34.085  27.960  26.398  1.00  0.00     0.067 C 
BRANCH  19  22
ATOM     22  O   UNL A   1      32.724  27.496  24.474  1.00  0.00    -0.478 OA
BRANCH  22  23
ATOM     23  C   UNL A   1      31.610  27.816  23.699  1.00  0.00     0.120 A 
ATOM     24  C   UNL A   1      30.411  27.145  23.906  1.00  0.00     0.047 A 
ATOM     25  C   UNL A   1      31.628  28.872  22.783  1.00  0.00     0.047 A 
ATOM     26  C   UNL A   1      29.222  27.685  23.389  1.00  0.00     0.019 A 
ATOM     27  C   UNL A   1      30.451  29.449  22.325  1.00  0.00     0.019 A 
ATOM     28  C   UNL A   1      29.241  28.881  22.665  1.00  0.00     0.018 A 
ATOM     29  Br  UNL A   1      27.708  29.860  22.146  1.00  0.00    -0.051 Br
ENDBRANCH  22  23
ENDBRANCH  19  22
ENDBRANCH  16  19
ENDBRANCH   9  15
ENDBRANCH   4   6
ENDBRANCH   3   4
ENDBRANCH   2   3
ENDBRANCH   1   2
BRANCH   1  30
ATOM     30  O   UNL A   1      37.513  21.600  25.641  1.00  0.00    -0.374 OA
BRANCH  30  31
ATOM     31  C   UNL A   1      38.013  20.580  24.780  1.00  0.00     0.202 C 
BRANCH  31  32
ATOM     32  C   UNL A   1      38.742  19.388  25.411  1.00  0.00     0.261 C 
BRANCH  32  33
ATOM     33  O   UNL A   1      39.501  19.731  26.582  1.00  0.00    -0.460 OA
BRANCH  33  34
ATOM     34  C   UNL A   1      40.750  20.186  26.306  1.00  0.00     0.338 C 
ATOM     35  O   UNL A   1      41.596  19.618  25.633  1.00  0.00    -0.246 OA
BRANCH  34  36
ATOM     36  C   UNL A   1      40.955  21.558  26.814  1.00  0.00     0.060 A 
ATOM     37  C   UNL A   1      40.790  22.607  25.902  1.00  0.00     0.016 A 
ATOM     38  C   UNL A   1      41.431  21.812  28.099  1.00  0.00     0.016 A 
ATOM     39  C   UNL A   1      41.174  23.906  26.242  1.00  0.00     0.010 A 
ATOM     40  C   UNL A   1      41.799  23.122  28.442  1.00  0.00     0.010 A 
ATOM     41  C   UNL A   1      41.713  24.175  27.504  1.00  0.00    -0.014 A 
BRANCH  41  42
ATOM     42  C   UNL A   1      42.265  25.521  27.845  1.00  0.00     0.031 A 
ATOM     43  C   UNL A   1      41.353  26.583  28.362  1.00  0.00     0.074 A 
ATOM     44  C   UNL A   1      43.566  25.828  27.676  1.00  0.00     0.049 A 
ATOM     45  N   UNL A   1      41.646  27.820  28.658  1.00  0.00    -0.248 NA
ATOM     46  C   UNL A   1      39.963  26.198  28.646  1.00  0.00     0.031 C 
ATOM     47  C   UNL A   1      44.596  24.859  27.379  1.00  0.00     0.029 A 
ATOM     48  N   UNL A   1      44.245  27.019  27.657  1.00  0.00    -0.354 N 
ATOM     49  C   UNL A   1      40.493  28.355  29.201  1.00  0.00     0.074 A 
ATOM     50  C   UNL A   1      39.471  27.330  29.130  1.00  0.00     0.031 C 
ATOM     51  C   UNL A   1      45.716  25.475  26.980  1.00  0.00     0.029 A 
ATOM     52  C   UNL A   1      45.506  26.906  27.104  1.00  0.00     0.049 A 
ATOM     53  H   UNL A   1      43.874  27.864  28.000  1.00  0.00     0.167 HD
ATOM     54  C   UNL A   1      40.330  29.575  29.759  1.00  0.00     0.034 A 
ATOM     55  C   UNL A   1      46.406  27.840  26.745  1.00  0.00     0.034 A 
ATOM     56  C   UNL A   1      41.356  30.583  29.804  1.00  0.00     0.049 A 
ATOM     57  C   UNL A   1      46.149  29.239  27.208  1.00  0.00     0.074 A 
ATOM     58  C   UNL A   1      41.298  31.844  30.369  1.00  0.00     0.029 A 
ATOM     59  N   UNL A   1      42.615  30.463  29.230  1.00  0.00    -0.354 N 
ATOM     60  N   UNL A   1      45.092  29.704  27.827  1.00  0.00    -0.248 NA
ATOM     61  C   UNL A   1      47.240  30.207  27.051  1.00  0.00     0.031 C 
ATOM     62  C   UNL A   1      42.500  32.504  30.088  1.00  0.00     0.029 A 
ATOM     63  C   UNL A   1      43.329  31.640  29.392  1.00  0.00     0.049 A 
ATOM     64  H   UNL A   1      42.952  29.658  28.773  1.00  0.00     0.167 HD
ATOM     65  C   UNL A   1      45.418  30.993  28.210  1.00  0.00     0.074 A 
ATOM     66  C   UNL A   1      46.767  31.240  27.736  1.00  0.00     0.031 C 
ATOM     67  C   UNL A   1      44.672  31.877  28.918  1.00  0.00     0.034 A 
BRANCH  54  68
ATOM     68  C   UNL A   1      38.986  29.865  30.362  1.00  0.00     0.023 A 
ATOM     69  C   UNL A   1      38.673  29.385  31.651  1.00  0.00     0.012 A 
ATOM     70  C   UNL A   1      38.032  30.609  29.647  1.00  0.00     0.148 A 
ATOM     71  C   UNL A   1      37.412  29.608  32.203  1.00  0.00     0.002 A 
ATOM     72  C   UNL A   1      36.796  30.867  30.221  1.00  0.00     0.091 A 
ATOM     73  F   UNL A   1      38.343  31.029  28.413  1.00  0.00    -0.205 F 
ATOM     74  C   UNL A   1      36.478  30.355  31.491  1.00  0.00     0.022 A 
BRANCH  72  75
ATOM     75  S   UNL A   1      35.550  31.872  29.413  1.00  0.00     0.127 S 
ATOM     76  O   UNL A   1      35.003  30.933  28.434  1.00  0.00    -0.237 OA
ATOM     77  O   UNL A   1      34.649  32.191  30.521  1.00  0.00    -0.237 OA
ATOM     78  O   UNL A   1      36.255  33.015  28.852  1.00  0.00    -0.744 OA
ENDBRANCH  72  75
ENDBRANCH  54  68
BRANCH  55  79
ATOM     79  C   UNL A   1      47.660  27.454  26.038  1.00  0.00     0.023 A 
ATOM     80  C   UNL A   1      48.742  26.924  26.766  1.00  0.00     0.012 A 
ATOM     81  C   UNL A   1      47.774  27.586  24.638  1.00  0.00     0.148 A 
ATOM     82  C   UNL A   1      49.928  26.569  26.121  1.00  0.00     0.002 A 
ATOM     83  C   UNL A   1      48.948  27.202  23.997  1.00  0.00     0.091 A 
ATOM     84  F   UNL A   1      46.729  28.085  23.962  1.00  0.00    -0.205 F 
ATOM     85  C   UNL A   1      50.031  26.705  24.739  1.00  0.00     0.022 A 
BRANCH  83  86
ATOM     86  S   UNL A   1      49.162  27.273  22.212  1.00  0.00     0.127 S 
ATOM     87  O   UNL A   1      50.616  27.217  22.084  1.00  0.00    -0.237 OA
ATOM     88  O   UNL A   1      48.460  26.064  21.778  1.00  0.00    -0.237 OA
ATOM     89  O   UNL A   1      48.543  28.520  21.789  1.00  0.00    -0.744 OA
ENDBRANCH  83  86
ENDBRANCH  55  79
BRANCH  67  90
ATOM     90  C   UNL A   1      45.311  33.198  29.239  1.00  0.00     0.023 A 
ATOM     91  C   UNL A   1      45.131  34.297  28.375  1.00  0.00     0.012 A 
ATOM     92  C   UNL A   1      46.057  33.360  30.423  1.00  0.00     0.148 A 
ATOM     93  C   UNL A   1      45.720  35.526  28.664  1.00  0.00     0.002 A 
ATOM     94  C   UNL A   1      46.589  34.602  30.734  1.00  0.00     0.091 A 
ATOM     95  F   UNL A   1      46.236  32.294  31.217  1.00  0.00    -0.205 F 
ATOM     96  C   UNL A   1      46.436  35.682  29.848  1.00  0.00     0.022 A 
BRANCH  94  97
ATOM     97  S   UNL A   1      47.439  34.927  32.281  1.00  0.00     0.127 S 
ATOM     98  O   UNL A   1      47.561  36.384  32.255  1.00  0.00    -0.237 OA
ATOM     99  O   UNL A   1      46.488  34.411  33.267  1.00  0.00    -0.237 OA
ATOM    100  O   UNL A   1      48.696  34.196  32.213  1.00  0.00    -0.744 OA
ENDBRANCH  94  97
ENDBRANCH  67  90
ENDBRANCH  41  42
ENDBRANCH  34  36
ENDBRANCH  33  34
ENDBRANCH  32  33
ENDBRANCH  31  32
ENDBRANCH  30  31
ENDBRANCH   1  30
TORSDOF 22
ENDMDL
MODEL 3
REMARK VINA RESULT:     -10.9      1.699      7.529
REMARK SMILES COc1c(Cl)cc(C(=O)OCCOCCOC(=O)c2ccc(-c3c4nc(c(-c5cccc(S(=O)(=O)[O-])c5F)c5ccc([nH]5)c(-c5cccc(S(=O)(=O)[O-])c5F)c5nc(c(-c6cccc(S(=O)(=O)[O-])c6F)c6ccc3[nH]6)C=C5)C=C4)cc2)cc1NC(=O)C(C)(C)Oc1ccc(Br)cc1
REMARK SMILES IDX 12 1 11 2 10 3 8 4 9 5 7 6 3 7 4 8 83 9 5 10 6 11 82 12 2 13
REMARK SMILES IDX 1 14 84 15 85 16 86 18 87 19 88 20 89 21 90 22 91 23 92 24
REMARK SMILES IDX 97 25 93 26 96 27 94 28 95 29 13 30 14 31 15 32 16 33 17 34
REMARK SMILES IDX 18 35 19 36 20 37 81 38 21 39 80 40 22 41 23 42 24 43 74 44
REMARK SMILES IDX 25 45 79 46 73 47 75 48 26 49 78 50 72 51 71 52 27 54 59 55
REMARK SMILES IDX 39 56 58 57 40 58 43 59 57 60 76 61 41 62 42 63 56 65 77 66
REMARK SMILES IDX 44 67 28 68 29 69 37 70 30 71 32 72 38 73 31 74 33 75 34 76
REMARK SMILES IDX 35 77 36 78 60 79 61 80 69 81 62 82 64 83 70 84 63 85 65 86
REMARK SMILES IDX 66 87 67 88 68 89 45 90 46 91 54 92 47 93 49 94 55 95 48 96
REMARK SMILES IDX 50 97 51 98 52 99 53 100
REMARK H PARENT 84 17 75 53 43 64
REMARK Flexibility Score: inf
ROOT
ATOM      1  C   UNL A   1      36.465  22.430  25.685  1.00  0.00     0.202 C 
ENDROOT
BRANCH   1   2
ATOM      2  C   UNL A   1      36.422  23.653  24.759  1.00  0.00     0.261 C 
BRANCH   2   3
ATOM      3  O   UNL A   1      35.549  23.444  23.639  1.00  0.00    -0.460 OA
BRANCH   3   4
ATOM      4  C   UNL A   1      34.538  24.333  23.475  1.00  0.00     0.338 C 
ATOM      5  O   UNL A   1      34.403  25.121  22.549  1.00  0.00    -0.246 OA
BRANCH   4   6
ATOM      6  C   UNL A   1      33.530  24.185  24.569  1.00  0.00     0.063 A 
ATOM      7  C   UNL A   1      31.447  24.016  26.442  1.00  0.00     0.160 A 
ATOM      8  C   UNL A   1      31.793  22.908  25.635  1.00  0.00     0.086 A 
ATOM      9  C   UNL A   1      32.170  25.223  26.342  1.00  0.00     0.086 A 
ATOM     10  Cl  UNL A   1      30.915  21.420  25.659  1.00  0.00    -0.080 Cl
ATOM     11  C   UNL A   1      32.827  22.998  24.699  1.00  0.00     0.040 A 
ATOM     12  C   UNL A   1      33.247  25.237  25.448  1.00  0.00     0.045 A 
BRANCH   7  13
ATOM     13  O   UNL A   1      30.280  24.053  27.174  1.00  0.00    -0.493 OA
ATOM     14  C   UNL A   1      29.578  22.815  27.180  1.00  0.00     0.278 C 
ENDBRANCH   7  13
BRANCH   9  15
ATOM     15  N   UNL A   1      31.697  26.363  27.079  1.00  0.00    -0.319 N 
ATOM     16  C   UNL A   1      31.820  27.753  26.962  1.00  0.00     0.268 C 
ATOM     17  H   UNL A   1      31.153  26.103  27.856  1.00  0.00     0.170 HD
ATOM     18  O   UNL A   1      31.226  28.436  27.802  1.00  0.00    -0.270 OA
BRANCH  16  19
ATOM     19  C   UNL A   1      32.654  28.406  25.802  1.00  0.00     0.181 C 
ATOM     20  C   UNL A   1      31.850  29.716  25.543  1.00  0.00     0.067 C 
ATOM     21  C   UNL A   1      34.089  28.351  26.393  1.00  0.00     0.067 C 
BRANCH  19  22
ATOM     22  O   UNL A   1      32.751  27.757  24.490  1.00  0.00    -0.478 OA
BRANCH  22  23
ATOM     23  C   UNL A   1      31.650  28.032  23.679  1.00  0.00     0.120 A 
ATOM     24  C   UNL A   1      30.431  27.417  23.941  1.00  0.00     0.047 A 
ATOM     25  C   UNL A   1      31.702  28.994  22.666  1.00  0.00     0.047 A 
ATOM     26  C   UNL A   1      29.260  27.937  23.366  1.00  0.00     0.019 A 
ATOM     27  C   UNL A   1      30.543  29.557  22.147  1.00  0.00     0.019 A 
ATOM     28  C   UNL A   1      29.316  29.058  22.531  1.00  0.00     0.018 A 
ATOM     29  Br  UNL A   1      27.813  30.024  21.909  1.00  0.00    -0.051 Br
ENDBRANCH  22  23
ENDBRANCH  19  22
ENDBRANCH  16  19
ENDBRANCH   9  15
ENDBRANCH   4   6
ENDBRANCH   3   4
ENDBRANCH   2   3
ENDBRANCH   1   2
BRANCH   1  30
ATOM     30  O   UNL A   1      37.738  21.809  25.872  1.00  0.00    -0.374 OA
BRANCH  30  31
ATOM     31  C   UNL A   1      38.097  20.760  24.976  1.00  0.00     0.202 C 
BRANCH  31  32
ATOM     32  C   UNL A   1      38.945  19.603  25.515  1.00  0.00     0.261 C 
BRANCH  32  33
ATOM     33  O   UNL A   1      39.800  19.975  26.608  1.00  0.00    -0.460 OA
BRANCH  33  34
ATOM     34  C   UNL A   1      41.123  19.827  26.337  1.00  0.00     0.338 C 
ATOM     35  O   UNL A   1      41.665  18.825  25.899  1.00  0.00    -0.246 OA
BRANCH  34  36
ATOM     36  C   UNL A   1      41.859  21.095  26.511  1.00  0.00     0.060 A 
ATOM     37  C   UNL A   1      42.090  21.524  27.824  1.00  0.00     0.016 A 
ATOM     38  C   UNL A   1      42.190  21.918  25.435  1.00  0.00     0.016 A 
ATOM     39  C   UNL A   1      42.582  22.807  28.072  1.00  0.00     0.010 A 
ATOM     40  C   UNL A   1      42.701  23.199  25.690  1.00  0.00     0.010 A 
ATOM     41  C   UNL A   1      42.863  23.673  27.011  1.00  0.00    -0.014 A 
BRANCH  41  42
ATOM     42  C   UNL A   1      43.250  25.096  27.249  1.00  0.00     0.031 A 
ATOM     43  C   UNL A   1      44.643  25.541  26.950  1.00  0.00     0.074 A 
ATOM     44  C   UNL A   1      42.389  26.001  27.753  1.00  0.00     0.049 A 
ATOM     45  N   UNL A   1      45.169  26.720  27.143  1.00  0.00    -0.248 NA
ATOM     46  C   UNL A   1      45.534  24.573  26.296  1.00  0.00     0.031 C 
ATOM     47  C   UNL A   1      40.970  25.775  27.903  1.00  0.00     0.029 A 
ATOM     48  N   UNL A   1      42.564  27.248  28.297  1.00  0.00    -0.354 N 
ATOM     49  C   UNL A   1      46.438  26.654  26.600  1.00  0.00     0.074 A 
ATOM     50  C   UNL A   1      46.633  25.297  26.131  1.00  0.00     0.031 C 
ATOM     51  C   UNL A   1      40.427  26.712  28.688  1.00  0.00     0.029 A 
ATOM     52  C   UNL A   1      41.461  27.679  29.009  1.00  0.00     0.049 A 
ATOM     53  H   UNL A   1      43.386  27.780  28.190  1.00  0.00     0.167 HD
ATOM     54  C   UNL A   1      47.332  27.659  26.459  1.00  0.00     0.034 A 
ATOM     55  C   UNL A   1      41.287  28.737  29.823  1.00  0.00     0.034 A 
ATOM     56  C   UNL A   1      47.123  28.996  26.948  1.00  0.00     0.049 A 
ATOM     57  C   UNL A   1      42.358  29.782  29.810  1.00  0.00     0.074 A 
ATOM     58  C   UNL A   1      47.956  30.093  26.833  1.00  0.00     0.029 A 
ATOM     59  N   UNL A   1      46.017  29.413  27.677  1.00  0.00    -0.354 N 
ATOM     60  N   UNL A   1      43.512  29.749  29.192  1.00  0.00    -0.248 NA
ATOM     61  C   UNL A   1      42.062  31.050  30.485  1.00  0.00     0.031 C 
ATOM     62  C   UNL A   1      47.381  31.155  27.540  1.00  0.00     0.029 A 
ATOM     63  C   UNL A   1      46.164  30.738  28.054  1.00  0.00     0.049 A 
ATOM     64  H   UNL A   1      45.240  28.847  27.896  1.00  0.00     0.167 HD
ATOM     65  C   UNL A   1      44.049  31.017  29.328  1.00  0.00     0.074 A 
ATOM     66  C   UNL A   1      43.096  31.790  30.105  1.00  0.00     0.031 C 
ATOM     67  C   UNL A   1      45.211  31.500  28.826  1.00  0.00     0.034 A 
BRANCH  54  68
ATOM     68  C   UNL A   1      48.609  27.328  25.742  1.00  0.00     0.023 A 
ATOM     69  C   UNL A   1      49.731  26.882  26.471  1.00  0.00     0.012 A 
ATOM     70  C   UNL A   1      48.696  27.464  24.347  1.00  0.00     0.148 A 
ATOM     71  C   UNL A   1      50.937  26.617  25.822  1.00  0.00     0.002 A 
ATOM     72  C   UNL A   1      49.884  27.154  23.702  1.00  0.00     0.091 A 
ATOM     73  F   UNL A   1      47.624  27.918  23.680  1.00  0.00    -0.205 F 
ATOM     74  C   UNL A   1      51.010  26.745  24.438  1.00  0.00     0.022 A 
BRANCH  72  75
ATOM     75  S   UNL A   1      50.059  27.225  21.918  1.00  0.00     0.127 S 
ATOM     76  O   UNL A   1      48.971  26.351  21.480  1.00  0.00    -0.237 OA
ATOM     77  O   UNL A   1      49.846  28.647  21.648  1.00  0.00    -0.237 OA
ATOM     78  O   UNL A   1      51.401  26.743  21.625  1.00  0.00    -0.744 OA
ENDBRANCH  72  75
ENDBRANCH  54  68
BRANCH  55  79
ATOM     79  C   UNL A   1      40.019  28.907  30.586  1.00  0.00     0.023 A 
ATOM     80  C   UNL A   1      39.839  28.234  31.809  1.00  0.00     0.012 A 
ATOM     81  C   UNL A   1      38.997  29.759  30.115  1.00  0.00     0.148 A 
ATOM     82  C   UNL A   1      38.652  28.373  32.530  1.00  0.00     0.002 A 
ATOM     83  C   UNL A   1      37.828  29.917  30.853  1.00  0.00     0.091 A 
ATOM     84  F   UNL A   1      39.191  30.398  28.952  1.00  0.00    -0.205 F 
ATOM     85  C   UNL A   1      37.649  29.214  32.056  1.00  0.00     0.022 A 
BRANCH  83  86
ATOM     86  S   UNL A   1      36.500  31.027  30.366  1.00  0.00     0.127 S 
ATOM     87  O   UNL A   1      35.993  30.375  29.161  1.00  0.00    -0.237 OA
ATOM     88  O   UNL A   1      35.608  30.956  31.525  1.00  0.00    -0.237 OA
ATOM     89  O   UNL A   1      37.126  32.325  30.160  1.00  0.00    -0.744 OA
ENDBRANCH  83  86
ENDBRANCH  55  79
BRANCH  67  90
ATOM     90  C   UNL A   1      45.514  32.948  29.090  1.00  0.00     0.023 A 
ATOM     91  C   UNL A   1      46.202  33.322  30.261  1.00  0.00     0.012 A 
ATOM     92  C   UNL A   1      45.151  33.934  28.152  1.00  0.00     0.148 A 
ATOM     93  C   UNL A   1      46.487  34.663  30.515  1.00  0.00     0.002 A 
ATOM     94  C   UNL A   1      45.491  35.259  28.383  1.00  0.00     0.091 A 
ATOM     95  F   UNL A   1      44.474  33.557  27.057  1.00  0.00    -0.205 F 
ATOM     96  C   UNL A   1      46.143  35.627  29.571  1.00  0.00     0.022 A 
BRANCH  94  97
ATOM     97  S   UNL A   1      45.183  36.556  27.181  1.00  0.00     0.127 S 
ATOM     98  O   UNL A   1      45.538  37.755  27.940  1.00  0.00    -0.237 OA
ATOM     99  O   UNL A   1      46.119  36.211  26.111  1.00  0.00    -0.237 OA
ATOM    100  O   UNL A   1      43.778  36.444  26.817  1.00  0.00    -0.744 OA
ENDBRANCH  94  97
ENDBRANCH  67  90
ENDBRANCH  41  42
ENDBRANCH  34  36
ENDBRANCH  33  34
ENDBRANCH  32  33
ENDBRANCH  31  32
ENDBRANCH  30  31
ENDBRANCH   1  30
TORSDOF 22
ENDMDL
