MODEL 1
REMARK VINA RESULT:     -10.6      0.000      0.000
REMARK SMILES CCCCCCNC(=O)Oc1cccc(-c2ccc([C@@H](C)C(=O)OCCOCCOC(=O)c3ccc(-c4c5nc(c(-c6cccc(S(=O)(=O)[O-])c6F)c6ccc([nH]6)c(-c6cccc(S(=O)(=O)[O-])c6F)c6nc(c(-c7cccc(S(=O)(=O)[O-])c7F)c7ccc4[nH]7)C=C6)C=C5)cc3)cc2)c1
REMARK SMILES IDX 24 1 22 2 23 3 20 4 21 5 19 6 16 7 17 8 97 9 18 10 96 11
REMARK SMILES IDX 15 12 11 13 12 14 98 15 13 16 14 17 10 18 8 19 7 20 9 22
REMARK SMILES IDX 6 23 5 24 4 25 3 26 2 27 1 28 25 29 26 30 27 31 28 32 29 33
REMARK SMILES IDX 30 34 31 35 32 36 33 37 34 38 95 39 35 40 94 41 36 42 37 43
REMARK SMILES IDX 38 44 88 45 39 46 93 47 87 48 89 49 40 50 92 51 86 52 85 53
REMARK SMILES IDX 41 55 73 56 53 57 72 58 54 59 57 60 71 61 90 62 55 63 56 64
REMARK SMILES IDX 70 66 91 67 58 68 42 69 43 70 51 71 44 72 46 73 52 74 45 75
REMARK SMILES IDX 47 76 48 77 49 78 50 79 74 80 75 81 83 82 76 83 78 84 84 85
REMARK SMILES IDX 77 86 79 87 80 88 81 89 82 90 59 91 60 92 68 93 61 94 63 95
REMARK SMILES IDX 69 96 62 97 64 98 65 99 66 100 67 101
REMARK H PARENT 7 21 89 54 57 65
REMARK Flexibility Score: inf
ROOT
ATOM      1  O   UNL A   1      34.618  20.890  25.459  1.00  0.00    -0.463 OA
ENDROOT
BRANCH   1   2
ATOM      2  C   UNL A   1      34.079  19.799  24.858  1.00  0.00     0.313 C 
ATOM      3  O   UNL A   1      34.712  18.797  24.537  1.00  0.00    -0.252 OA
BRANCH   2   4
ATOM      4  C   UNL A   1      32.588  19.922  24.579  1.00  0.00     0.126 C 
ATOM      5  C   UNL A   1      32.201  18.957  23.463  1.00  0.00     0.025 C 
BRANCH   4   6
ATOM      6  C   UNL A   1      32.015  21.319  24.359  1.00  0.00    -0.034 A 
ATOM      7  C   UNL A   1      31.132  23.993  23.913  1.00  0.00    -0.018 A 
ATOM      8  C   UNL A   1      30.939  23.361  25.151  1.00  0.00     0.009 A 
ATOM      9  C   UNL A   1      31.751  23.254  22.895  1.00  0.00     0.009 A 
ATOM     10  C   UNL A   1      31.374  22.045  25.373  1.00  0.00     0.005 A 
ATOM     11  C   UNL A   1      32.185  21.942  23.112  1.00  0.00     0.005 A 
BRANCH   7  12
ATOM     12  C   UNL A   1      30.728  25.391  23.685  1.00  0.00    -0.015 A 
ATOM     13  C   UNL A   1      31.259  27.671  23.029  1.00  0.00     0.133 A 
ATOM     14  C   UNL A   1      29.968  28.091  23.340  1.00  0.00     0.047 A 
ATOM     15  C   UNL A   1      31.648  26.342  23.213  1.00  0.00     0.056 A 
ATOM     16  C   UNL A   1      29.045  27.161  23.807  1.00  0.00     0.004 A 
ATOM     17  C   UNL A   1      29.421  25.823  23.975  1.00  0.00     0.009 A 
BRANCH  13  18
ATOM     18  O   UNL A   1      32.175  28.660  22.632  1.00  0.00    -0.410 OA
BRANCH  18  19
ATOM     19  C   UNL A   1      33.523  28.367  22.736  1.00  0.00     0.412 C 
ATOM     20  N   UNL A   1      34.043  28.606  23.976  1.00  0.00    -0.321 N 
ATOM     21  H   UNL A   1      35.001  28.420  24.092  1.00  0.00     0.167 HD
ATOM     22  O   UNL A   1      34.242  27.930  21.835  1.00  0.00    -0.224 OA
BRANCH  20  23
ATOM     23  C   UNL A   1      33.336  29.101  25.140  1.00  0.00     0.119 C 
BRANCH  23  24
ATOM     24  C   UNL A   1      33.865  28.482  26.434  1.00  0.00     0.021 C 
BRANCH  24  25
ATOM     25  C   UNL A   1      34.620  29.451  27.354  1.00  0.00     0.002 C 
BRANCH  25  26
ATOM     26  C   UNL A   1      33.948  30.811  27.577  1.00  0.00    -0.000 C 
BRANCH  26  27
ATOM     27  C   UNL A   1      34.886  31.946  27.995  1.00  0.00    -0.003 C 
ATOM     28  C   UNL A   1      34.797  32.289  29.475  1.00  0.00     0.004 C 
ENDBRANCH  26  27
ENDBRANCH  25  26
ENDBRANCH  24  25
ENDBRANCH  23  24
ENDBRANCH  20  23
ENDBRANCH  18  19
ENDBRANCH  13  18
ENDBRANCH   7  12
ENDBRANCH   4   6
ENDBRANCH   2   4
ENDBRANCH   1   2
BRANCH   1  29
ATOM     29  C   UNL A   1      35.925  21.282  25.003  1.00  0.00     0.261 C 
BRANCH  29  30
ATOM     30  C   UNL A   1      36.361  22.612  25.622  1.00  0.00     0.202 C 
BRANCH  30  31
ATOM     31  O   UNL A   1      37.754  22.764  25.904  1.00  0.00    -0.374 OA
BRANCH  31  32
ATOM     32  C   UNL A   1      38.614  21.675  25.568  1.00  0.00     0.202 C 
BRANCH  32  33
ATOM     33  C   UNL A   1      39.796  21.394  26.503  1.00  0.00     0.261 C 
BRANCH  33  34
ATOM     34  O   UNL A   1      40.178  20.009  26.521  1.00  0.00    -0.460 OA
BRANCH  34  35
ATOM     35  C   UNL A   1      41.474  19.782  26.196  1.00  0.00     0.338 C 
ATOM     36  O   UNL A   1      41.936  18.784  25.666  1.00  0.00    -0.246 OA
BRANCH  35  37
ATOM     37  C   UNL A   1      42.271  21.010  26.387  1.00  0.00     0.060 A 
ATOM     38  C   UNL A   1      42.638  21.330  27.701  1.00  0.00     0.016 A 
ATOM     39  C   UNL A   1      42.578  21.873  25.333  1.00  0.00     0.016 A 
ATOM     40  C   UNL A   1      43.245  22.552  27.977  1.00  0.00     0.010 A 
ATOM     41  C   UNL A   1      43.190  23.101  25.614  1.00  0.00     0.010 A 
ATOM     42  C   UNL A   1      43.478  23.467  26.942  1.00  0.00    -0.014 A 
BRANCH  42  43
ATOM     43  C   UNL A   1      43.864  24.858  27.289  1.00  0.00     0.031 A 
ATOM     44  C   UNL A   1      45.285  25.301  27.057  1.00  0.00     0.074 A 
ATOM     45  C   UNL A   1      42.952  25.733  27.748  1.00  0.00     0.049 A 
ATOM     46  N   UNL A   1      45.826  26.478  27.237  1.00  0.00    -0.248 NA
ATOM     47  C   UNL A   1      46.219  24.281  26.554  1.00  0.00     0.031 C 
ATOM     48  C   UNL A   1      41.543  25.432  27.997  1.00  0.00     0.029 A 
ATOM     49  N   UNL A   1      43.080  27.056  28.093  1.00  0.00    -0.354 N 
ATOM     50  C   UNL A   1      47.165  26.337  26.891  1.00  0.00     0.074 A 
ATOM     51  C   UNL A   1      47.360  24.953  26.516  1.00  0.00     0.031 C 
ATOM     52  C   UNL A   1      40.936  26.538  28.459  1.00  0.00     0.029 A 
ATOM     53  C   UNL A   1      41.916  27.618  28.560  1.00  0.00     0.049 A 
ATOM     54  H   UNL A   1      43.925  27.553  28.013  1.00  0.00     0.167 HD
ATOM     55  C   UNL A   1      48.142  27.276  26.863  1.00  0.00     0.034 A 
ATOM     56  C   UNL A   1      41.672  28.861  29.020  1.00  0.00     0.034 A 
ATOM     57  C   UNL A   1      47.943  28.654  27.221  1.00  0.00     0.049 A 
ATOM     58  C   UNL A   1      42.785  29.878  29.022  1.00  0.00     0.074 A 
ATOM     59  C   UNL A   1      48.857  29.693  27.193  1.00  0.00     0.029 A 
ATOM     60  N   UNL A   1      46.749  29.187  27.684  1.00  0.00    -0.354 N 
ATOM     61  N   UNL A   1      44.016  29.757  28.587  1.00  0.00    -0.248 NA
ATOM     62  C   UNL A   1      42.463  31.212  29.548  1.00  0.00     0.031 C 
ATOM     63  C   UNL A   1      48.224  30.847  27.666  1.00  0.00     0.029 A 
ATOM     64  C   UNL A   1      46.905  30.535  27.959  1.00  0.00     0.049 A 
ATOM     65  H   UNL A   1      45.913  28.681  27.799  1.00  0.00     0.167 HD
ATOM     66  C   UNL A   1      44.603  31.008  28.747  1.00  0.00     0.074 A 
ATOM     67  C   UNL A   1      43.586  31.876  29.306  1.00  0.00     0.031 C 
ATOM     68  C   UNL A   1      45.871  31.401  28.467  1.00  0.00     0.034 A 
BRANCH  55  69
ATOM     69  C   UNL A   1      49.509  26.841  26.403  1.00  0.00     0.023 A 
ATOM     70  C   UNL A   1      50.318  26.064  27.258  1.00  0.00     0.012 A 
ATOM     71  C   UNL A   1      49.985  27.173  25.120  1.00  0.00     0.148 A 
ATOM     72  C   UNL A   1      51.594  25.663  26.861  1.00  0.00     0.002 A 
ATOM     73  C   UNL A   1      51.239  26.731  24.714  1.00  0.00     0.091 A 
ATOM     74  F   UNL A   1      49.213  27.931  24.327  1.00  0.00    -0.205 F 
ATOM     75  C   UNL A   1      52.050  25.988  25.588  1.00  0.00     0.022 A 
BRANCH  73  76
ATOM     76  S   UNL A   1      51.881  27.034  23.063  1.00  0.00     0.127 S 
ATOM     77  O   UNL A   1      52.276  28.439  23.152  1.00  0.00    -0.237 OA
ATOM     78  O   UNL A   1      52.999  26.091  22.988  1.00  0.00    -0.237 OA
ATOM     79  O   UNL A   1      50.785  26.745  22.149  1.00  0.00    -0.744 OA
ENDBRANCH  73  76
ENDBRANCH  55  69
BRANCH  56  80
ATOM     80  C   UNL A   1      40.299  29.234  29.465  1.00  0.00     0.023 A 
ATOM     81  C   UNL A   1      39.376  29.725  28.521  1.00  0.00     0.012 A 
ATOM     82  C   UNL A   1      39.897  29.085  30.806  1.00  0.00     0.148 A 
ATOM     83  C   UNL A   1      38.086  30.086  28.909  1.00  0.00     0.002 A 
ATOM     84  C   UNL A   1      38.593  29.397  31.176  1.00  0.00     0.091 A 
ATOM     85  F   UNL A   1      40.794  28.631  31.691  1.00  0.00    -0.205 F 
ATOM     86  C   UNL A   1      37.691  29.913  30.233  1.00  0.00     0.022 A 
BRANCH  84  87
ATOM     87  S   UNL A   1      37.959  29.092  32.829  1.00  0.00     0.127 S 
ATOM     88  O   UNL A   1      37.940  27.632  32.877  1.00  0.00    -0.237 OA
ATOM     89  O   UNL A   1      38.981  29.723  33.663  1.00  0.00    -0.237 OA
ATOM     90  O   UNL A   1      36.656  29.740  32.878  1.00  0.00    -0.744 OA
ENDBRANCH  84  87
ENDBRANCH  56  80
BRANCH  68  91
ATOM     91  C   UNL A   1      46.230  32.843  28.719  1.00  0.00     0.023 A 
ATOM     92  C   UNL A   1      46.842  33.213  29.933  1.00  0.00     0.012 A 
ATOM     93  C   UNL A   1      46.030  33.819  27.721  1.00  0.00     0.148 A 
ATOM     94  C   UNL A   1      47.217  34.537  30.164  1.00  0.00     0.002 A 
ATOM     95  C   UNL A   1      46.452  35.126  27.938  1.00  0.00     0.091 A 
ATOM     96  F   UNL A   1      45.431  33.452  26.579  1.00  0.00    -0.205 F 
ATOM     97  C   UNL A   1      47.034  35.489  29.164  1.00  0.00     0.022 A 
BRANCH  95  98
ATOM     98  S   UNL A   1      46.346  36.397  26.674  1.00  0.00     0.127 S 
ATOM     99  O   UNL A   1      44.994  36.191  26.156  1.00  0.00    -0.237 OA
ATOM    100  O   UNL A   1      46.522  37.624  27.451  1.00  0.00    -0.237 OA
ATOM    101  O   UNL A   1      47.424  36.119  25.733  1.00  0.00    -0.744 OA
ENDBRANCH  95  98
ENDBRANCH  68  91
ENDBRANCH  42  43
ENDBRANCH  35  37
ENDBRANCH  34  35
ENDBRANCH  33  34
ENDBRANCH  32  33
ENDBRANCH  31  32
ENDBRANCH  30  31
ENDBRANCH  29  30
ENDBRANCH   1  29
TORSDOF 26
ENDMDL
MODEL 2
REMARK VINA RESULT:     -10.3      2.960      4.127
REMARK SMILES CCCCCCNC(=O)Oc1cccc(-c2ccc([C@@H](C)C(=O)OCCOCCOC(=O)c3ccc(-c4c5nc(c(-c6cccc(S(=O)(=O)[O-])c6F)c6ccc([nH]6)c(-c6cccc(S(=O)(=O)[O-])c6F)c6nc(c(-c7cccc(S(=O)(=O)[O-])c7F)c7ccc4[nH]7)C=C6)C=C5)cc3)cc2)c1
REMARK SMILES IDX 24 1 22 2 23 3 20 4 21 5 19 6 16 7 17 8 97 9 18 10 96 11
REMARK SMILES IDX 15 12 11 13 12 14 98 15 13 16 14 17 10 18 8 19 7 20 9 22
REMARK SMILES IDX 6 23 5 24 4 25 3 26 2 27 1 28 25 29 26 30 27 31 28 32 29 33
REMARK SMILES IDX 30 34 31 35 32 36 33 37 34 38 95 39 35 40 94 41 36 42 37 43
REMARK SMILES IDX 38 44 88 45 39 46 93 47 87 48 89 49 40 50 92 51 86 52 85 53
REMARK SMILES IDX 41 55 73 56 53 57 72 58 54 59 57 60 71 61 90 62 55 63 56 64
REMARK SMILES IDX 70 66 91 67 58 68 42 69 43 70 51 71 44 72 46 73 52 74 45 75
REMARK SMILES IDX 47 76 48 77 49 78 50 79 74 80 75 81 83 82 76 83 78 84 84 85
REMARK SMILES IDX 77 86 79 87 80 88 81 89 82 90 59 91 60 92 68 93 61 94 63 95
REMARK SMILES IDX 69 96 62 97 64 98 65 99 66 100 67 101
REMARK H PARENT 7 21 89 54 57 65
REMARK Flexibility Score: inf
ROOT
ATOM      1  O   UNL A   1      33.927  20.150  25.650  1.00  0.00    -0.463 OA
ENDROOT
BRANCH   1   2
ATOM      2  C   UNL A   1      33.086  19.186  25.196  1.00  0.00     0.313 C 
ATOM      3  O   UNL A   1      33.046  18.037  25.628  1.00  0.00    -0.252 OA
BRANCH   2   4
ATOM      4  C   UNL A   1      32.184  19.640  24.058  1.00  0.00     0.126 C 
ATOM      5  C   UNL A   1      32.665  19.016  22.752  1.00  0.00     0.025 C 
BRANCH   4   6
ATOM      6  C   UNL A   1      31.908  21.134  23.918  1.00  0.00    -0.034 A 
ATOM      7  C   UNL A   1      31.197  23.885  23.683  1.00  0.00    -0.018 A 
ATOM      8  C   UNL A   1      31.804  23.198  22.621  1.00  0.00     0.009 A 
ATOM      9  C   UNL A   1      30.974  23.177  24.873  1.00  0.00     0.009 A 
ATOM     10  C   UNL A   1      32.154  21.844  22.734  1.00  0.00     0.005 A 
ATOM     11  C   UNL A   1      31.323  21.827  24.990  1.00  0.00     0.005 A 
BRANCH   7  12
ATOM     12  C   UNL A   1      30.776  25.291  23.557  1.00  0.00    -0.015 A 
ATOM     13  C   UNL A   1      31.277  27.617  23.056  1.00  0.00     0.133 A 
ATOM     14  C   UNL A   1      29.986  28.001  23.410  1.00  0.00     0.047 A 
ATOM     15  C   UNL A   1      31.681  26.282  23.142  1.00  0.00     0.056 A 
ATOM     16  C   UNL A   1      29.077  27.030  23.821  1.00  0.00     0.004 A 
ATOM     17  C   UNL A   1      29.468  25.688  23.891  1.00  0.00     0.009 A 
BRANCH  13  18
ATOM     18  O   UNL A   1      32.178  28.641  22.718  1.00  0.00    -0.410 OA
BRANCH  18  19
ATOM     19  C   UNL A   1      33.315  28.780  23.496  1.00  0.00     0.412 C 
ATOM     20  N   UNL A   1      33.123  29.536  24.617  1.00  0.00    -0.321 N 
ATOM     21  H   UNL A   1      33.907  29.669  25.195  1.00  0.00     0.167 HD
ATOM     22  O   UNL A   1      34.421  28.294  23.256  1.00  0.00    -0.224 OA
BRANCH  20  23
ATOM     23  C   UNL A   1      31.890  30.163  25.050  1.00  0.00     0.119 C 
BRANCH  23  24
ATOM     24  C   UNL A   1      31.773  30.198  26.575  1.00  0.00     0.021 C 
BRANCH  24  25
ATOM     25  C   UNL A   1      32.377  28.986  27.296  1.00  0.00     0.002 C 
BRANCH  25  26
ATOM     26  C   UNL A   1      31.423  27.809  27.529  1.00  0.00    -0.000 C 
BRANCH  26  27
ATOM     27  C   UNL A   1      31.767  26.524  26.772  1.00  0.00    -0.003 C 
ATOM     28  C   UNL A   1      33.175  26.521  26.197  1.00  0.00     0.004 C 
ENDBRANCH  26  27
ENDBRANCH  25  26
ENDBRANCH  24  25
ENDBRANCH  23  24
ENDBRANCH  20  23
ENDBRANCH  18  19
ENDBRANCH  13  18
ENDBRANCH   7  12
ENDBRANCH   4   6
ENDBRANCH   2   4
ENDBRANCH   1   2
BRANCH   1  29
ATOM     29  C   UNL A   1      35.194  20.252  24.976  1.00  0.00     0.261 C 
BRANCH  29  30
ATOM     30  C   UNL A   1      35.482  21.689  24.534  1.00  0.00     0.202 C 
BRANCH  30  31
ATOM     31  O   UNL A   1      36.838  22.003  24.214  1.00  0.00    -0.374 OA
BRANCH  31  32
ATOM     32  C   UNL A   1      37.736  22.222  25.303  1.00  0.00     0.202 C 
BRANCH  32  33
ATOM     33  C   UNL A   1      38.927  21.266  25.439  1.00  0.00     0.261 C 
BRANCH  33  34
ATOM     34  O   UNL A   1      39.684  21.485  26.640  1.00  0.00    -0.460 OA
BRANCH  34  35
ATOM     35  C   UNL A   1      40.857  22.137  26.451  1.00  0.00     0.338 C 
ATOM     36  O   UNL A   1      41.776  21.802  25.721  1.00  0.00    -0.246 OA
BRANCH  35  37
ATOM     37  C   UNL A   1      40.818  23.458  27.109  1.00  0.00     0.060 A 
ATOM     38  C   UNL A   1      40.259  24.515  26.379  1.00  0.00     0.016 A 
ATOM     39  C   UNL A   1      41.387  23.685  28.364  1.00  0.00     0.016 A 
ATOM     40  C   UNL A   1      40.337  25.817  26.865  1.00  0.00     0.010 A 
ATOM     41  C   UNL A   1      41.462  24.995  28.852  1.00  0.00     0.010 A 
ATOM     42  C   UNL A   1      40.985  26.071  28.081  1.00  0.00    -0.014 A 
BRANCH  42  43
ATOM     43  C   UNL A   1      41.300  27.476  28.444  1.00  0.00     0.031 A 
ATOM     44  C   UNL A   1      42.714  27.971  28.288  1.00  0.00     0.074 A 
ATOM     45  C   UNL A   1      40.333  28.316  28.852  1.00  0.00     0.049 A 
ATOM     46  N   UNL A   1      43.201  29.167  28.494  1.00  0.00    -0.248 NA
ATOM     47  C   UNL A   1      43.711  26.986  27.839  1.00  0.00     0.031 C 
ATOM     48  C   UNL A   1      38.925  27.964  29.025  1.00  0.00     0.029 A 
ATOM     49  N   UNL A   1      40.393  29.644  29.199  1.00  0.00    -0.354 N 
ATOM     50  C   UNL A   1      44.561  29.075  28.221  1.00  0.00     0.074 A 
ATOM     51  C   UNL A   1      44.827  27.700  27.860  1.00  0.00     0.031 C 
ATOM     52  C   UNL A   1      38.253  29.047  29.451  1.00  0.00     0.029 A 
ATOM     53  C   UNL A   1      39.186  30.163  29.602  1.00  0.00     0.049 A 
ATOM     54  H   UNL A   1      41.222  30.172  29.164  1.00  0.00     0.167 HD
ATOM     55  C   UNL A   1      45.502  30.050  28.243  1.00  0.00     0.034 A 
ATOM     56  C   UNL A   1      38.872  31.396  30.045  1.00  0.00     0.034 A 
ATOM     57  C   UNL A   1      45.234  31.421  28.585  1.00  0.00     0.049 A 
ATOM     58  C   UNL A   1      39.945  32.453  30.104  1.00  0.00     0.074 A 
ATOM     59  C   UNL A   1      46.110  32.492  28.604  1.00  0.00     0.029 A 
ATOM     60  N   UNL A   1      43.998  31.909  28.982  1.00  0.00    -0.354 N 
ATOM     61  N   UNL A   1      41.201  32.378  29.736  1.00  0.00    -0.248 NA
ATOM     62  C   UNL A   1      39.546  33.775  30.608  1.00  0.00     0.031 C 
ATOM     63  C   UNL A   1      45.409  33.622  29.040  1.00  0.00     0.029 A 
ATOM     64  C   UNL A   1      44.090  33.262  29.262  1.00  0.00     0.049 A 
ATOM     65  H   UNL A   1      43.176  31.372  29.054  1.00  0.00     0.167 HD
ATOM     66  C   UNL A   1      41.732  33.650  29.924  1.00  0.00     0.074 A 
ATOM     67  C   UNL A   1      40.655  34.480  30.426  1.00  0.00     0.031 C 
ATOM     68  C   UNL A   1      42.998  34.090  29.712  1.00  0.00     0.034 A 
BRANCH  55  69
ATOM     69  C   UNL A   1      46.908  29.665  27.858  1.00  0.00     0.023 A 
ATOM     70  C   UNL A   1      47.196  29.321  26.522  1.00  0.00     0.012 A 
ATOM     71  C   UNL A   1      47.948  29.670  28.808  1.00  0.00     0.148 A 
ATOM     72  C   UNL A   1      48.485  28.946  26.145  1.00  0.00     0.002 A 
ATOM     73  C   UNL A   1      49.241  29.339  28.416  1.00  0.00     0.091 A 
ATOM     74  F   UNL A   1      47.653  29.978  30.079  1.00  0.00    -0.205 F 
ATOM     75  C   UNL A   1      49.508  28.964  27.088  1.00  0.00     0.022 A 
BRANCH  73  76
ATOM     76  S   UNL A   1      50.639  29.409  29.542  1.00  0.00     0.127 S 
ATOM     77  O   UNL A   1      51.744  29.026  28.665  1.00  0.00    -0.237 OA
ATOM     78  O   UNL A   1      50.642  30.817  29.944  1.00  0.00    -0.237 OA
ATOM     79  O   UNL A   1      50.334  28.474  30.615  1.00  0.00    -0.744 OA
ENDBRANCH  73  76
ENDBRANCH  55  69
BRANCH  56  80
ATOM     80  C   UNL A   1      37.464  31.718  30.414  1.00  0.00     0.023 A 
ATOM     81  C   UNL A   1      36.967  31.309  31.667  1.00  0.00     0.012 A 
ATOM     82  C   UNL A   1      36.625  32.440  29.544  1.00  0.00     0.148 A 
ATOM     83  C   UNL A   1      35.653  31.592  32.038  1.00  0.00     0.002 A 
ATOM     84  C   UNL A   1      35.332  32.765  29.942  1.00  0.00     0.091 A 
ATOM     85  F   UNL A   1      37.111  32.806  28.351  1.00  0.00    -0.205 F 
ATOM     86  C   UNL A   1      34.839  32.328  31.181  1.00  0.00     0.022 A 
BRANCH  84  87
ATOM     87  S   UNL A   1      34.253  33.812  28.958  1.00  0.00     0.127 S 
ATOM     88  O   UNL A   1      35.188  34.816  28.456  1.00  0.00    -0.237 OA
ATOM     89  O   UNL A   1      33.760  32.871  27.952  1.00  0.00    -0.237 OA
ATOM     90  O   UNL A   1      33.234  34.303  29.875  1.00  0.00    -0.744 OA
ENDBRANCH  84  87
ENDBRANCH  56  80
BRANCH  68  91
ATOM     91  C   UNL A   1      43.289  35.544  29.978  1.00  0.00     0.023 A 
ATOM     92  C   UNL A   1      43.872  35.931  31.202  1.00  0.00     0.012 A 
ATOM     93  C   UNL A   1      43.056  36.518  28.987  1.00  0.00     0.148 A 
ATOM     94  C   UNL A   1      44.185  37.268  31.448  1.00  0.00     0.002 A 
ATOM     95  C   UNL A   1      43.417  37.841  29.218  1.00  0.00     0.091 A 
ATOM     96  F   UNL A   1      42.486  36.135  27.835  1.00  0.00    -0.205 F 
ATOM     97  C   UNL A   1      43.969  38.219  30.453  1.00  0.00     0.022 A 
BRANCH  95  98
ATOM     98  S   UNL A   1      43.267  39.117  27.963  1.00  0.00     0.127 S 
ATOM     99  O   UNL A   1      43.538  40.329  28.734  1.00  0.00    -0.237 OA
ATOM    100  O   UNL A   1      44.321  38.747  27.017  1.00  0.00    -0.237 OA
ATOM    101  O   UNL A   1      41.914  39.002  27.434  1.00  0.00    -0.744 OA
ENDBRANCH  95  98
ENDBRANCH  68  91
ENDBRANCH  42  43
ENDBRANCH  35  37
ENDBRANCH  34  35
ENDBRANCH  33  34
ENDBRANCH  32  33
ENDBRANCH  31  32
ENDBRANCH  30  31
ENDBRANCH  29  30
ENDBRANCH   1  29
TORSDOF 26
ENDMDL
MODEL 3
REMARK VINA RESULT:     -10.0      2.086      2.795
REMARK SMILES CCCCCCNC(=O)Oc1cccc(-c2ccc([C@@H](C)C(=O)OCCOCCOC(=O)c3ccc(-c4c5nc(c(-c6cccc(S(=O)(=O)[O-])c6F)c6ccc([nH]6)c(-c6cccc(S(=O)(=O)[O-])c6F)c6nc(c(-c7cccc(S(=O)(=O)[O-])c7F)c7ccc4[nH]7)C=C6)C=C5)cc3)cc2)c1
REMARK SMILES IDX 24 1 22 2 23 3 20 4 21 5 19 6 16 7 17 8 97 9 18 10 96 11
REMARK SMILES IDX 15 12 11 13 12 14 98 15 13 16 14 17 10 18 8 19 7 20 9 22
REMARK SMILES IDX 6 23 5 24 4 25 3 26 2 27 1 28 25 29 26 30 27 31 28 32 29 33
REMARK SMILES IDX 30 34 31 35 32 36 33 37 34 38 95 39 35 40 94 41 36 42 37 43
REMARK SMILES IDX 38 44 88 45 39 46 93 47 87 48 89 49 40 50 92 51 86 52 85 53
REMARK SMILES IDX 41 55 73 56 53 57 72 58 54 59 57 60 71 61 90 62 55 63 56 64
REMARK SMILES IDX 70 66 91 67 58 68 42 69 43 70 51 71 44 72 46 73 52 74 45 75
REMARK SMILES IDX 47 76 48 77 49 78 50 79 74 80 75 81 83 82 76 83 78 84 84 85
REMARK SMILES IDX 77 86 79 87 80 88 81 89 82 90 59 91 60 92 68 93 61 94 63 95
REMARK SMILES IDX 69 96 62 97 64 98 65 99 66 100 67 101
REMARK H PARENT 7 21 89 54 57 65
REMARK Flexibility Score: inf
ROOT
ATOM      1  O   UNL A   1      34.030  20.365  25.765  1.00  0.00    -0.463 OA
ENDROOT
BRANCH   1   2
ATOM      2  C   UNL A   1      33.036  19.533  25.361  1.00  0.00     0.313 C 
ATOM      3  O   UNL A   1      32.895  18.376  25.749  1.00  0.00    -0.252 OA
BRANCH   2   4
ATOM      4  C   UNL A   1      32.091  20.151  24.341  1.00  0.00     0.126 C 
ATOM      5  C   UNL A   1      32.355  19.538  22.970  1.00  0.00     0.025 C 
BRANCH   4   6
ATOM      6  C   UNL A   1      31.996  21.673  24.284  1.00  0.00    -0.034 A 
ATOM      7  C   UNL A   1      31.618  24.497  24.180  1.00  0.00    -0.018 A 
ATOM      8  C   UNL A   1      32.275  23.813  23.146  1.00  0.00     0.009 A 
ATOM      9  C   UNL A   1      31.177  23.746  25.279  1.00  0.00     0.009 A 
ATOM     10  C   UNL A   1      32.461  22.423  23.195  1.00  0.00     0.005 A 
ATOM     11  C   UNL A   1      31.362  22.360  25.332  1.00  0.00     0.005 A 
BRANCH   7  12
ATOM     12  C   UNL A   1      31.370  25.948  24.115  1.00  0.00    -0.015 A 
ATOM     13  C   UNL A   1      31.632  28.186  25.026  1.00  0.00     0.133 A 
ATOM     14  C   UNL A   1      30.810  28.717  24.035  1.00  0.00     0.047 A 
ATOM     15  C   UNL A   1      31.900  26.816  25.084  1.00  0.00     0.056 A 
ATOM     16  C   UNL A   1      30.279  27.869  23.067  1.00  0.00     0.004 A 
ATOM     17  C   UNL A   1      30.559  26.498  23.106  1.00  0.00     0.009 A 
BRANCH  13  18
ATOM     18  O   UNL A   1      32.084  29.069  26.022  1.00  0.00    -0.410 OA
BRANCH  18  19
ATOM     19  C   UNL A   1      32.118  28.605  27.326  1.00  0.00     0.412 C 
ATOM     20  N   UNL A   1      33.355  28.676  27.900  1.00  0.00    -0.321 N 
ATOM     21  H   UNL A   1      33.427  28.348  28.825  1.00  0.00     0.167 HD
ATOM     22  O   UNL A   1      31.161  28.161  27.962  1.00  0.00    -0.224 OA
BRANCH  20  23
ATOM     23  C   UNL A   1      34.573  29.182  27.299  1.00  0.00     0.119 C 
BRANCH  23  24
ATOM     24  C   UNL A   1      35.034  30.484  27.955  1.00  0.00     0.021 C 
BRANCH  24  25
ATOM     25  C   UNL A   1      36.504  30.847  27.708  1.00  0.00     0.002 C 
BRANCH  25  26
ATOM     26  C   UNL A   1      37.509  30.255  28.703  1.00  0.00    -0.000 C 
BRANCH  26  27
ATOM     27  C   UNL A   1      36.971  29.130  29.591  1.00  0.00    -0.003 C 
ATOM     28  C   UNL A   1      37.127  29.408  31.078  1.00  0.00     0.004 C 
ENDBRANCH  26  27
ENDBRANCH  25  26
ENDBRANCH  24  25
ENDBRANCH  23  24
ENDBRANCH  20  23
ENDBRANCH  18  19
ENDBRANCH  13  18
ENDBRANCH   7  12
ENDBRANCH   4   6
ENDBRANCH   2   4
ENDBRANCH   1   2
BRANCH   1  29
ATOM     29  C   UNL A   1      35.254  20.297  25.013  1.00  0.00     0.261 C 
BRANCH  29  30
ATOM     30  C   UNL A   1      35.740  21.689  24.602  1.00  0.00     0.202 C 
BRANCH  30  31
ATOM     31  O   UNL A   1      37.128  21.819  24.287  1.00  0.00    -0.374 OA
BRANCH  31  32
ATOM     32  C   UNL A   1      38.035  21.989  25.376  1.00  0.00     0.202 C 
BRANCH  32  33
ATOM     33  C   UNL A   1      38.960  20.814  25.716  1.00  0.00     0.261 C 
BRANCH  33  34
ATOM     34  O   UNL A   1      39.681  21.007  26.943  1.00  0.00    -0.460 OA
BRANCH  34  35
ATOM     35  C   UNL A   1      40.998  21.281  26.781  1.00  0.00     0.338 C 
ATOM     36  O   UNL A   1      41.811  20.633  26.140  1.00  0.00    -0.246 OA
BRANCH  35  37
ATOM     37  C   UNL A   1      41.314  22.614  27.330  1.00  0.00     0.060 A 
ATOM     38  C   UNL A   1      40.971  23.722  26.544  1.00  0.00     0.016 A 
ATOM     39  C   UNL A   1      42.004  22.783  28.533  1.00  0.00     0.016 A 
ATOM     40  C   UNL A   1      41.384  24.997  26.918  1.00  0.00     0.010 A 
ATOM     41  C   UNL A   1      42.417  24.067  28.907  1.00  0.00     0.010 A 
ATOM     42  C   UNL A   1      42.154  25.172  28.075  1.00  0.00    -0.014 A 
BRANCH  42  43
ATOM     43  C   UNL A   1      42.813  26.482  28.306  1.00  0.00     0.031 A 
ATOM     44  C   UNL A   1      44.150  26.749  27.668  1.00  0.00     0.074 A 
ATOM     45  C   UNL A   1      42.206  27.442  29.026  1.00  0.00     0.049 A 
ATOM     46  N   UNL A   1      44.878  27.835  27.692  1.00  0.00    -0.248 NA
ATOM     47  C   UNL A   1      44.746  25.644  26.899  1.00  0.00     0.031 C 
ATOM     48  C   UNL A   1      40.904  27.313  29.678  1.00  0.00     0.029 A 
ATOM     49  N   UNL A   1      42.611  28.718  29.331  1.00  0.00    -0.354 N 
ATOM     50  C   UNL A   1      46.024  27.541  26.961  1.00  0.00     0.074 A 
ATOM     51  C   UNL A   1      45.907  26.165  26.530  1.00  0.00     0.031 C 
ATOM     52  C   UNL A   1      40.618  28.462  30.312  1.00  0.00     0.029 A 
ATOM     53  C   UNL A   1      41.724  29.401  30.129  1.00  0.00     0.049 A 
ATOM     54  H   UNL A   1      43.455  29.106  29.009  1.00  0.00     0.167 HD
ATOM     55  C   UNL A   1      47.069  28.347  26.655  1.00  0.00     0.034 A 
ATOM     56  C   UNL A   1      41.800  30.640  30.654  1.00  0.00     0.034 A 
ATOM     57  C   UNL A   1      47.177  29.719  27.070  1.00  0.00     0.049 A 
ATOM     58  C   UNL A   1      42.994  31.503  30.336  1.00  0.00     0.074 A 
ATOM     59  C   UNL A   1      48.177  30.631  26.782  1.00  0.00     0.029 A 
ATOM     60  N   UNL A   1      46.257  30.377  27.873  1.00  0.00    -0.354 N 
ATOM     61  N   UNL A   1      44.014  31.247  29.554  1.00  0.00    -0.248 NA
ATOM     62  C   UNL A   1      43.028  32.839  30.948  1.00  0.00     0.031 C 
ATOM     63  C   UNL A   1      47.876  31.831  27.436  1.00  0.00     0.029 A 
ATOM     64  C   UNL A   1      46.672  31.678  28.104  1.00  0.00     0.049 A 
ATOM     65  H   UNL A   1      45.429  29.978  28.226  1.00  0.00     0.167 HD
ATOM     66  C   UNL A   1      44.790  32.402  29.545  1.00  0.00     0.074 A 
ATOM     67  C   UNL A   1      44.111  33.364  30.391  1.00  0.00     0.031 C 
ATOM     68  C   UNL A   1      45.962  32.643  28.905  1.00  0.00     0.034 A 
BRANCH  55  69
ATOM     69  C   UNL A   1      48.169  27.763  25.804  1.00  0.00     0.023 A 
ATOM     70  C   UNL A   1      48.048  27.781  24.400  1.00  0.00     0.012 A 
ATOM     71  C   UNL A   1      49.331  27.223  26.389  1.00  0.00     0.148 A 
ATOM     72  C   UNL A   1      49.044  27.231  23.592  1.00  0.00     0.002 A 
ATOM     73  C   UNL A   1      50.340  26.719  25.577  1.00  0.00     0.091 A 
ATOM     74  F   UNL A   1      49.420  27.193  27.727  1.00  0.00    -0.205 F 
ATOM     75  C   UNL A   1      50.192  26.710  24.179  1.00  0.00     0.022 A 
BRANCH  73  76
ATOM     76  S   UNL A   1      51.891  26.097  26.238  1.00  0.00     0.127 S 
ATOM     77  O   UNL A   1      51.467  24.840  26.854  1.00  0.00    -0.237 OA
ATOM     78  O   UNL A   1      52.702  25.939  25.029  1.00  0.00    -0.237 OA
ATOM     79  O   UNL A   1      52.371  27.118  27.158  1.00  0.00    -0.744 OA
ENDBRANCH  73  76
ENDBRANCH  55  69
BRANCH  56  80
ATOM     80  C   UNL A   1      40.683  31.163  31.491  1.00  0.00     0.023 A 
ATOM     81  C   UNL A   1      40.555  30.727  32.824  1.00  0.00     0.012 A 
ATOM     82  C   UNL A   1      39.763  32.100  30.983  1.00  0.00     0.148 A 
ATOM     83  C   UNL A   1      39.517  31.196  33.629  1.00  0.00     0.002 A 
ATOM     84  C   UNL A   1      38.762  32.603  31.807  1.00  0.00     0.091 A 
ATOM     85  F   UNL A   1      39.893  32.490  29.708  1.00  0.00    -0.205 F 
ATOM     86  C   UNL A   1      38.627  32.140  33.125  1.00  0.00     0.022 A 
BRANCH  84  87
ATOM     87  S   UNL A   1      37.646  33.911  31.283  1.00  0.00     0.127 S 
ATOM     88  O   UNL A   1      36.693  33.177  30.456  1.00  0.00    -0.237 OA
ATOM     89  O   UNL A   1      37.117  34.383  32.563  1.00  0.00    -0.237 OA
ATOM     90  O   UNL A   1      38.476  34.880  30.581  1.00  0.00    -0.744 OA
ENDBRANCH  84  87
ENDBRANCH  56  80
BRANCH  68  91
ATOM     91  C   UNL A   1      46.574  34.011  29.054  1.00  0.00     0.023 A 
ATOM     92  C   UNL A   1      47.532  34.247  30.061  1.00  0.00     0.012 A 
ATOM     93  C   UNL A   1      46.258  35.044  28.148  1.00  0.00     0.148 A 
ATOM     94  C   UNL A   1      48.137  35.497  30.187  1.00  0.00     0.002 A 
ATOM     95  C   UNL A   1      46.903  36.272  28.247  1.00  0.00     0.091 A 
ATOM     96  F   UNL A   1      45.333  34.807  27.206  1.00  0.00    -0.205 F 
ATOM     97  C   UNL A   1      47.833  36.504  29.273  1.00  0.00     0.022 A 
BRANCH  95  98
ATOM     98  S   UNL A   1      46.647  37.594  27.059  1.00  0.00     0.127 S 
ATOM     99  O   UNL A   1      47.044  36.953  25.807  1.00  0.00    -0.237 OA
ATOM    100  O   UNL A   1      45.212  37.851  27.184  1.00  0.00    -0.237 OA
ATOM    101  O   UNL A   1      47.498  38.695  27.494  1.00  0.00    -0.744 OA
ENDBRANCH  95  98
ENDBRANCH  68  91
ENDBRANCH  42  43
ENDBRANCH  35  37
ENDBRANCH  34  35
ENDBRANCH  33  34
ENDBRANCH  32  33
ENDBRANCH  31  32
ENDBRANCH  30  31
ENDBRANCH  29  30
ENDBRANCH   1  29
TORSDOF 26
ENDMDL
