MODEL 1
REMARK VINA RESULT:     -11.1      0.000      0.000
REMARK SMILES C[C@@H](C(=O)OCCOCCOC(=O)c1ccc(-c2c3nc(c(-c4cccc(S(=O)(=O)[O-])c4F)c4ccc([nH]4)c(-c4cccc(S(=O)(=O)[O-])c4F)c4nc(c(-c5cccc(S(=O)(=O)[O-])c5F)c5ccc2[nH]5)C=C4)C=C3)cc1)c1ccc(C[C@H]2CCC[C@H]2O)cc1
REMARK SMILES IDX 7 1 6 2 5 3 3 4 4 5 2 6 1 7 77 8 78 9 89 10 79 11 88 12
REMARK SMILES IDX 80 13 81 14 82 15 83 16 86 17 84 18 85 19 87 20 8 22 9 23
REMARK SMILES IDX 10 24 11 25 12 26 13 27 14 28 15 29 76 30 16 31 75 32 17 33
REMARK SMILES IDX 18 34 19 35 69 36 20 37 74 38 68 39 70 40 21 41 73 42 67 43
REMARK SMILES IDX 66 44 22 46 54 47 34 48 53 49 35 50 38 51 52 52 71 53 36 54
REMARK SMILES IDX 37 55 51 57 72 58 39 59 23 60 24 61 32 62 25 63 27 64 33 65
REMARK SMILES IDX 26 66 28 67 29 68 30 69 31 70 55 71 56 72 64 73 57 74 59 75
REMARK SMILES IDX 65 76 58 77 60 78 61 79 62 80 63 81 40 82 41 83 49 84 42 85
REMARK SMILES IDX 44 86 50 87 43 88 45 89 46 90 47 91 48 92
REMARK H PARENT 87 21 70 45 38 56
REMARK Flexibility Score: inf
ROOT
ATOM      1  C   UNL A   1      35.621  23.176  24.974  1.00  0.00     0.202 C 
ENDROOT
BRANCH   1   2
ATOM      2  C   UNL A   1      34.345  22.544  25.539  1.00  0.00     0.261 C 
BRANCH   2   3
ATOM      3  O   UNL A   1      33.457  22.162  24.474  1.00  0.00    -0.463 OA
BRANCH   3   4
ATOM      4  C   UNL A   1      32.290  22.854  24.397  1.00  0.00     0.313 C 
ATOM      5  O   UNL A   1      31.538  22.831  23.428  1.00  0.00    -0.252 OA
BRANCH   4   6
ATOM      6  C   UNL A   1      32.001  23.662  25.665  1.00  0.00     0.126 C 
ATOM      7  C   UNL A   1      30.807  23.197  26.511  1.00  0.00     0.025 C 
BRANCH   6   8
ATOM      8  C   UNL A   1      31.855  25.144  25.342  1.00  0.00    -0.034 A 
ATOM      9  C   UNL A   1      30.663  25.811  25.630  1.00  0.00     0.005 A 
ATOM     10  C   UNL A   1      32.900  25.875  24.756  1.00  0.00     0.005 A 
ATOM     11  C   UNL A   1      30.514  27.160  25.303  1.00  0.00     0.004 A 
ATOM     12  C   UNL A   1      32.739  27.211  24.396  1.00  0.00     0.004 A 
ATOM     13  C   UNL A   1      31.524  27.856  24.628  1.00  0.00    -0.048 A 
BRANCH  13  14
ATOM     14  C   UNL A   1      31.296  29.258  24.127  1.00  0.00     0.041 C 
BRANCH  14  15
ATOM     15  C   UNL A   1      29.890  29.587  23.595  1.00  0.00     0.022 C 
ATOM     16  C   UNL A   1      29.339  30.981  23.942  1.00  0.00     0.007 C 
ATOM     17  C   UNL A   1      29.624  29.432  22.090  1.00  0.00     0.117 C 
ATOM     18  C   UNL A   1      28.378  31.351  22.807  1.00  0.00     0.003 C 
ATOM     19  C   UNL A   1      28.269  30.109  21.927  1.00  0.00     0.032 C 
BRANCH  17  20
ATOM     20  O   UNL A   1      30.545  30.088  21.238  1.00  0.00    -0.393 OA
ATOM     21  H   UNL A   1      31.274  30.448  21.767  1.00  0.00     0.210 HD
ENDBRANCH  17  20
ENDBRANCH  14  15
ENDBRANCH  13  14
ENDBRANCH   6   8
ENDBRANCH   4   6
ENDBRANCH   3   4
ENDBRANCH   2   3
ENDBRANCH   1   2
BRANCH   1  22
ATOM     22  O   UNL A   1      36.691  22.283  24.647  1.00  0.00    -0.374 OA
BRANCH  22  23
ATOM     23  C   UNL A   1      36.546  20.929  25.063  1.00  0.00     0.202 C 
BRANCH  23  24
ATOM     24  C   UNL A   1      37.812  20.077  25.188  1.00  0.00     0.261 C 
BRANCH  24  25
ATOM     25  O   UNL A   1      39.001  20.874  25.152  1.00  0.00    -0.460 OA
BRANCH  25  26
ATOM     26  C   UNL A   1      39.823  20.683  26.210  1.00  0.00     0.338 C 
ATOM     27  O   UNL A   1      40.364  19.637  26.544  1.00  0.00    -0.246 OA
BRANCH  26  28
ATOM     28  C   UNL A   1      40.159  21.981  26.815  1.00  0.00     0.060 A 
ATOM     29  C   UNL A   1      39.517  23.111  26.294  1.00  0.00     0.016 A 
ATOM     30  C   UNL A   1      41.101  22.099  27.839  1.00  0.00     0.016 A 
ATOM     31  C   UNL A   1      39.863  24.376  26.749  1.00  0.00     0.010 A 
ATOM     32  C   UNL A   1      41.456  23.373  28.288  1.00  0.00     0.010 A 
ATOM     33  C   UNL A   1      40.871  24.514  27.710  1.00  0.00    -0.014 A 
BRANCH  33  34
ATOM     34  C   UNL A   1      41.429  25.858  27.974  1.00  0.00     0.031 A 
ATOM     35  C   UNL A   1      42.822  26.163  27.498  1.00  0.00     0.074 A 
ATOM     36  C   UNL A   1      40.695  26.792  28.601  1.00  0.00     0.049 A 
ATOM     37  N   UNL A   1      43.513  27.264  27.616  1.00  0.00    -0.248 NA
ATOM     38  C   UNL A   1      43.531  25.079  26.795  1.00  0.00     0.031 C 
ATOM     39  C   UNL A   1      39.330  26.607  29.091  1.00  0.00     0.029 A 
ATOM     40  N   UNL A   1      41.007  28.082  28.948  1.00  0.00    -0.354 N 
ATOM     41  C   UNL A   1      44.747  26.999  27.036  1.00  0.00     0.074 A 
ATOM     42  C   UNL A   1      44.716  25.630  26.573  1.00  0.00     0.031 C 
ATOM     43  C   UNL A   1      38.928  27.736  29.698  1.00  0.00     0.029 A 
ATOM     44  C   UNL A   1      40.016  28.712  29.661  1.00  0.00     0.049 A 
ATOM     45  H   UNL A   1      41.859  28.514  28.710  1.00  0.00     0.167 HD
ATOM     46  C   UNL A   1      45.807  27.828  26.891  1.00  0.00     0.034 A 
ATOM     47  C   UNL A   1      40.002  29.932  30.234  1.00  0.00     0.034 A 
ATOM     48  C   UNL A   1      45.821  29.194  27.334  1.00  0.00     0.049 A 
ATOM     49  C   UNL A   1      41.204  30.825  30.078  1.00  0.00     0.074 A 
ATOM     50  C   UNL A   1      46.823  30.136  27.188  1.00  0.00     0.029 A 
ATOM     51  N   UNL A   1      44.789  29.810  28.025  1.00  0.00    -0.354 N 
ATOM     52  N   UNL A   1      42.319  30.603  29.424  1.00  0.00    -0.248 NA
ATOM     53  C   UNL A   1      41.133  32.151  30.709  1.00  0.00     0.031 C 
ATOM     54  C   UNL A   1      46.410  31.312  27.822  1.00  0.00     0.029 A 
ATOM     55  C   UNL A   1      45.135  31.115  28.329  1.00  0.00     0.049 A 
ATOM     56  H   UNL A   1      43.934  29.383  28.264  1.00  0.00     0.167 HD
ATOM     57  C   UNL A   1      43.066  31.770  29.532  1.00  0.00     0.074 A 
ATOM     58  C   UNL A   1      42.268  32.704  30.300  1.00  0.00     0.031 C 
ATOM     59  C   UNL A   1      44.304  32.044  29.051  1.00  0.00     0.034 A 
BRANCH  46  60
ATOM     60  C   UNL A   1      47.037  27.280  26.216  1.00  0.00     0.023 A 
ATOM     61  C   UNL A   1      47.236  27.493  24.837  1.00  0.00     0.012 A 
ATOM     62  C   UNL A   1      48.019  26.597  26.959  1.00  0.00     0.148 A 
ATOM     63  C   UNL A   1      48.380  27.009  24.202  1.00  0.00     0.002 A 
ATOM     64  C   UNL A   1      49.177  26.157  26.329  1.00  0.00     0.091 A 
ATOM     65  F   UNL A   1      47.799  26.382  28.264  1.00  0.00    -0.205 F 
ATOM     66  C   UNL A   1      49.354  26.351  24.949  1.00  0.00     0.022 A 
BRANCH  64  67
ATOM     67  S   UNL A   1      50.524  25.369  27.219  1.00  0.00     0.127 S 
ATOM     68  O   UNL A   1      50.927  26.430  28.142  1.00  0.00    -0.237 OA
ATOM     69  O   UNL A   1      49.852  24.233  27.850  1.00  0.00    -0.237 OA
ATOM     70  O   UNL A   1      51.513  25.008  26.213  1.00  0.00    -0.744 OA
ENDBRANCH  64  67
ENDBRANCH  46  60
BRANCH  47  71
ATOM     71  C   UNL A   1      38.796  30.390  30.979  1.00  0.00     0.023 A 
ATOM     72  C   UNL A   1      38.701  30.152  32.363  1.00  0.00     0.012 A 
ATOM     73  C   UNL A   1      37.752  31.077  30.327  1.00  0.00     0.148 A 
ATOM     74  C   UNL A   1      37.574  30.561  33.079  1.00  0.00     0.002 A 
ATOM     75  C   UNL A   1      36.660  31.531  31.055  1.00  0.00     0.091 A 
ATOM     76  F   UNL A   1      37.856  31.281  29.006  1.00  0.00    -0.205 F 
ATOM     77  C   UNL A   1      36.561  31.260  32.428  1.00  0.00     0.022 A 
BRANCH  75  78
ATOM     78  S   UNL A   1      35.371  32.548  30.326  1.00  0.00     0.127 S 
ATOM     79  O   UNL A   1      36.108  33.761  29.980  1.00  0.00    -0.237 OA
ATOM     80  O   UNL A   1      34.954  31.731  29.185  1.00  0.00    -0.237 OA
ATOM     81  O   UNL A   1      34.356  32.696  31.360  1.00  0.00    -0.744 OA
ENDBRANCH  75  78
ENDBRANCH  47  71
BRANCH  59  82
ATOM     82  C   UNL A   1      44.862  33.422  29.301  1.00  0.00     0.023 A 
ATOM     83  C   UNL A   1      45.541  33.700  30.502  1.00  0.00     0.012 A 
ATOM     84  C   UNL A   1      44.780  34.417  28.306  1.00  0.00     0.148 A 
ATOM     85  C   UNL A   1      46.099  34.959  30.726  1.00  0.00     0.002 A 
ATOM     86  C   UNL A   1      45.385  35.651  28.514  1.00  0.00     0.091 A 
ATOM     87  F   UNL A   1      44.116  34.138  27.174  1.00  0.00    -0.205 F 
ATOM     88  C   UNL A   1      46.032  35.928  29.728  1.00  0.00     0.022 A 
BRANCH  86  89
ATOM     89  S   UNL A   1      45.437  36.923  27.247  1.00  0.00     0.127 S 
ATOM     90  O   UNL A   1      45.962  36.180  26.101  1.00  0.00    -0.237 OA
ATOM     91  O   UNL A   1      44.030  37.306  27.133  1.00  0.00    -0.237 OA
ATOM     92  O   UNL A   1      46.309  37.970  27.763  1.00  0.00    -0.744 OA
ENDBRANCH  86  89
ENDBRANCH  59  82
ENDBRANCH  33  34
ENDBRANCH  26  28
ENDBRANCH  25  26
ENDBRANCH  24  25
ENDBRANCH  23  24
ENDBRANCH  22  23
ENDBRANCH   1  22
TORSDOF 21
ENDMDL
MODEL 2
REMARK VINA RESULT:     -10.1      4.578      9.501
REMARK SMILES C[C@@H](C(=O)OCCOCCOC(=O)c1ccc(-c2c3nc(c(-c4cccc(S(=O)(=O)[O-])c4F)c4ccc([nH]4)c(-c4cccc(S(=O)(=O)[O-])c4F)c4nc(c(-c5cccc(S(=O)(=O)[O-])c5F)c5ccc2[nH]5)C=C4)C=C3)cc1)c1ccc(C[C@H]2CCC[C@H]2O)cc1
REMARK SMILES IDX 7 1 6 2 5 3 3 4 4 5 2 6 1 7 77 8 78 9 89 10 79 11 88 12
REMARK SMILES IDX 80 13 81 14 82 15 83 16 86 17 84 18 85 19 87 20 8 22 9 23
REMARK SMILES IDX 10 24 11 25 12 26 13 27 14 28 15 29 76 30 16 31 75 32 17 33
REMARK SMILES IDX 18 34 19 35 69 36 20 37 74 38 68 39 70 40 21 41 73 42 67 43
REMARK SMILES IDX 66 44 22 46 54 47 34 48 53 49 35 50 38 51 52 52 71 53 36 54
REMARK SMILES IDX 37 55 51 57 72 58 39 59 23 60 24 61 32 62 25 63 27 64 33 65
REMARK SMILES IDX 26 66 28 67 29 68 30 69 31 70 55 71 56 72 64 73 57 74 59 75
REMARK SMILES IDX 65 76 58 77 60 78 61 79 62 80 63 81 40 82 41 83 49 84 42 85
REMARK SMILES IDX 44 86 50 87 43 88 45 89 46 90 47 91 48 92
REMARK H PARENT 87 21 70 45 38 56
REMARK Flexibility Score: inf
ROOT
ATOM      1  C   UNL A   1      40.898  20.162  26.506  1.00  0.00     0.202 C 
ENDROOT
BRANCH   1   2
ATOM      2  C   UNL A   1      39.928  21.345  26.568  1.00  0.00     0.261 C 
BRANCH   2   3
ATOM      3  O   UNL A   1      39.161  21.432  25.355  1.00  0.00    -0.463 OA
BRANCH   3   4
ATOM      4  C   UNL A   1      37.876  21.855  25.492  1.00  0.00     0.313 C 
ATOM      5  O   UNL A   1      36.924  21.109  25.700  1.00  0.00    -0.252 OA
BRANCH   4   6
ATOM      6  C   UNL A   1      37.743  23.375  25.376  1.00  0.00     0.126 C 
ATOM      7  C   UNL A   1      38.201  24.194  26.591  1.00  0.00     0.025 C 
BRANCH   6   8
ATOM      8  C   UNL A   1      36.318  23.767  25.001  1.00  0.00    -0.034 A 
ATOM      9  C   UNL A   1      35.851  23.555  23.703  1.00  0.00     0.005 A 
ATOM     10  C   UNL A   1      35.445  24.342  25.936  1.00  0.00     0.005 A 
ATOM     11  C   UNL A   1      34.559  23.946  23.347  1.00  0.00     0.004 A 
ATOM     12  C   UNL A   1      34.169  24.766  25.572  1.00  0.00     0.004 A 
ATOM     13  C   UNL A   1      33.729  24.611  24.257  1.00  0.00    -0.048 A 
BRANCH  13  14
ATOM     14  C   UNL A   1      32.404  25.181  23.824  1.00  0.00     0.041 C 
BRANCH  14  15
ATOM     15  C   UNL A   1      32.308  26.713  23.714  1.00  0.00     0.022 C 
ATOM     16  C   UNL A   1      33.295  27.522  24.573  1.00  0.00     0.007 C 
ATOM     17  C   UNL A   1      32.397  27.352  22.319  1.00  0.00     0.117 C 
ATOM     18  C   UNL A   1      33.528  28.838  23.823  1.00  0.00     0.003 C 
ATOM     19  C   UNL A   1      32.553  28.832  22.648  1.00  0.00     0.032 C 
BRANCH  17  20
ATOM     20  O   UNL A   1      33.511  26.958  21.539  1.00  0.00    -0.393 OA
ATOM     21  H   UNL A   1      34.328  27.136  22.031  1.00  0.00     0.210 HD
ENDBRANCH  17  20
ENDBRANCH  14  15
ENDBRANCH  13  14
ENDBRANCH   6   8
ENDBRANCH   4   6
ENDBRANCH   3   4
ENDBRANCH   2   3
ENDBRANCH   1   2
BRANCH   1  22
ATOM     22  O   UNL A   1      42.039  20.310  25.655  1.00  0.00    -0.374 OA
BRANCH  22  23
ATOM     23  C   UNL A   1      43.212  20.863  26.244  1.00  0.00     0.202 C 
BRANCH  23  24
ATOM     24  C   UNL A   1      44.051  21.828  25.403  1.00  0.00     0.261 C 
BRANCH  24  25
ATOM     25  O   UNL A   1      44.424  22.998  26.139  1.00  0.00    -0.460 OA
BRANCH  25  26
ATOM     26  C   UNL A   1      44.106  24.160  25.523  1.00  0.00     0.338 C 
ATOM     27  O   UNL A   1      44.253  24.431  24.337  1.00  0.00    -0.246 OA
BRANCH  26  28
ATOM     28  C   UNL A   1      43.346  25.016  26.446  1.00  0.00     0.060 A 
ATOM     29  C   UNL A   1      43.707  26.368  26.502  1.00  0.00     0.016 A 
ATOM     30  C   UNL A   1      42.332  24.510  27.261  1.00  0.00     0.016 A 
ATOM     31  C   UNL A   1      43.101  27.210  27.425  1.00  0.00     0.010 A 
ATOM     32  C   UNL A   1      41.730  25.355  28.196  1.00  0.00     0.010 A 
ATOM     33  C   UNL A   1      42.147  26.693  28.309  1.00  0.00    -0.014 A 
BRANCH  33  34
ATOM     34  C   UNL A   1      41.723  27.515  29.463  1.00  0.00     0.031 A 
ATOM     35  C   UNL A   1      40.410  28.244  29.383  1.00  0.00     0.074 A 
ATOM     36  C   UNL A   1      42.482  27.585  30.570  1.00  0.00     0.049 A 
ATOM     37  N   UNL A   1      39.839  29.018  30.265  1.00  0.00    -0.248 NA
ATOM     38  C   UNL A   1      39.639  28.078  28.138  1.00  0.00     0.031 C 
ATOM     39  C   UNL A   1      43.763  26.907  30.759  1.00  0.00     0.029 A 
ATOM     40  N   UNL A   1      42.289  28.277  31.738  1.00  0.00    -0.354 N 
ATOM     41  C   UNL A   1      38.662  29.459  29.674  1.00  0.00     0.074 A 
ATOM     42  C   UNL A   1      38.602  28.875  28.353  1.00  0.00     0.031 C 
ATOM     43  C   UNL A   1      44.256  27.236  31.966  1.00  0.00     0.029 A 
ATOM     44  C   UNL A   1      43.336  28.165  32.620  1.00  0.00     0.049 A 
ATOM     45  H   UNL A   1      41.479  28.803  31.926  1.00  0.00     0.167 HD
ATOM     46  C   UNL A   1      37.709  30.269  30.192  1.00  0.00     0.034 A 
ATOM     47  C   UNL A   1      43.535  28.764  33.810  1.00  0.00     0.034 A 
ATOM     48  C   UNL A   1      37.766  30.827  31.514  1.00  0.00     0.049 A 
ATOM     49  C   UNL A   1      42.470  29.680  34.353  1.00  0.00     0.074 A 
ATOM     50  C   UNL A   1      36.828  31.615  32.156  1.00  0.00     0.029 A 
ATOM     51  N   UNL A   1      38.826  30.669  32.393  1.00  0.00    -0.354 N 
ATOM     52  N   UNL A   1      41.307  29.995  33.833  1.00  0.00    -0.248 NA
ATOM     53  C   UNL A   1      42.727  30.297  35.662  1.00  0.00     0.031 C 
ATOM     54  C   UNL A   1      37.339  31.963  33.411  1.00  0.00     0.029 A 
ATOM     55  C   UNL A   1      38.577  31.359  33.565  1.00  0.00     0.049 A 
ATOM     56  H   UNL A   1      39.638  30.142  32.210  1.00  0.00     0.167 HD
ATOM     57  C   UNL A   1      40.680  30.814  34.764  1.00  0.00     0.074 A 
ATOM     58  C   UNL A   1      41.585  30.932  35.890  1.00  0.00     0.031 C 
ATOM     59  C   UNL A   1      39.470  31.422  34.694  1.00  0.00     0.034 A 
BRANCH  46  60
ATOM     60  C   UNL A   1      36.518  30.592  29.327  1.00  0.00     0.023 A 
ATOM     61  C   UNL A   1      35.761  29.549  28.756  1.00  0.00     0.012 A 
ATOM     62  C   UNL A   1      36.122  31.927  29.122  1.00  0.00     0.148 A 
ATOM     63  C   UNL A   1      34.644  29.832  27.969  1.00  0.00     0.002 A 
ATOM     64  C   UNL A   1      34.983  32.201  28.374  1.00  0.00     0.091 A 
ATOM     65  F   UNL A   1      36.871  32.905  29.652  1.00  0.00    -0.205 F 
ATOM     66  C   UNL A   1      34.250  31.156  27.788  1.00  0.00     0.022 A 
BRANCH  64  67
ATOM     67  S   UNL A   1      34.350  33.866  28.148  1.00  0.00     0.127 S 
ATOM     68  O   UNL A   1      34.535  34.435  29.483  1.00  0.00    -0.237 OA
ATOM     69  O   UNL A   1      35.249  34.401  27.126  1.00  0.00    -0.237 OA
ATOM     70  O   UNL A   1      32.966  33.715  27.721  1.00  0.00    -0.744 OA
ENDBRANCH  64  67
ENDBRANCH  46  60
BRANCH  47  71
ATOM     71  C   UNL A   1      44.779  28.490  34.584  1.00  0.00     0.023 A 
ATOM     72  C   UNL A   1      45.910  29.306  34.395  1.00  0.00     0.012 A 
ATOM     73  C   UNL A   1      44.839  27.437  35.518  1.00  0.00     0.148 A 
ATOM     74  C   UNL A   1      47.090  29.060  35.099  1.00  0.00     0.002 A 
ATOM     75  C   UNL A   1      45.998  27.231  36.257  1.00  0.00     0.091 A 
ATOM     76  F   UNL A   1      43.756  26.662  35.672  1.00  0.00    -0.205 F 
ATOM     77  C   UNL A   1      47.130  28.031  36.037  1.00  0.00     0.022 A 
BRANCH  75  78
ATOM     78  S   UNL A   1      46.098  26.014  37.573  1.00  0.00     0.127 S 
ATOM     79  O   UNL A   1      44.987  26.413  38.434  1.00  0.00    -0.237 OA
ATOM     80  O   UNL A   1      45.895  24.763  36.842  1.00  0.00    -0.237 OA
ATOM     81  O   UNL A   1      47.429  26.164  38.147  1.00  0.00    -0.744 OA
ENDBRANCH  75  78
ENDBRANCH  47  71
BRANCH  59  82
ATOM     82  C   UNL A   1      39.028  32.240  35.881  1.00  0.00     0.023 A 
ATOM     83  C   UNL A   1      39.340  33.612  35.946  1.00  0.00     0.012 A 
ATOM     84  C   UNL A   1      38.236  31.662  36.892  1.00  0.00     0.148 A 
ATOM     85  C   UNL A   1      38.900  34.388  37.018  1.00  0.00     0.002 A 
ATOM     86  C   UNL A   1      37.757  32.453  37.929  1.00  0.00     0.091 A 
ATOM     87  F   UNL A   1      37.963  30.350  36.821  1.00  0.00    -0.205 F 
ATOM     88  C   UNL A   1      38.099  33.813  38.001  1.00  0.00     0.022 A 
BRANCH  86  89
ATOM     89  S   UNL A   1      36.636  31.821  39.183  1.00  0.00     0.127 S 
ATOM     90  O   UNL A   1      37.258  32.310  40.412  1.00  0.00    -0.237 OA
ATOM     91  O   UNL A   1      35.377  32.478  38.833  1.00  0.00    -0.237 OA
ATOM     92  O   UNL A   1      36.627  30.373  39.021  1.00  0.00    -0.744 OA
ENDBRANCH  86  89
ENDBRANCH  59  82
ENDBRANCH  33  34
ENDBRANCH  26  28
ENDBRANCH  25  26
ENDBRANCH  24  25
ENDBRANCH  23  24
ENDBRANCH  22  23
ENDBRANCH   1  22
TORSDOF 21
ENDMDL
MODEL 3
REMARK VINA RESULT:      -9.9      2.680      3.760
REMARK SMILES C[C@@H](C(=O)OCCOCCOC(=O)c1ccc(-c2c3nc(c(-c4cccc(S(=O)(=O)[O-])c4F)c4ccc([nH]4)c(-c4cccc(S(=O)(=O)[O-])c4F)c4nc(c(-c5cccc(S(=O)(=O)[O-])c5F)c5ccc2[nH]5)C=C4)C=C3)cc1)c1ccc(C[C@H]2CCC[C@H]2O)cc1
REMARK SMILES IDX 7 1 6 2 5 3 3 4 4 5 2 6 1 7 77 8 78 9 89 10 79 11 88 12
REMARK SMILES IDX 80 13 81 14 82 15 83 16 86 17 84 18 85 19 87 20 8 22 9 23
REMARK SMILES IDX 10 24 11 25 12 26 13 27 14 28 15 29 76 30 16 31 75 32 17 33
REMARK SMILES IDX 18 34 19 35 69 36 20 37 74 38 68 39 70 40 21 41 73 42 67 43
REMARK SMILES IDX 66 44 22 46 54 47 34 48 53 49 35 50 38 51 52 52 71 53 36 54
REMARK SMILES IDX 37 55 51 57 72 58 39 59 23 60 24 61 32 62 25 63 27 64 33 65
REMARK SMILES IDX 26 66 28 67 29 68 30 69 31 70 55 71 56 72 64 73 57 74 59 75
REMARK SMILES IDX 65 76 58 77 60 78 61 79 62 80 63 81 40 82 41 83 49 84 42 85
REMARK SMILES IDX 44 86 50 87 43 88 45 89 46 90 47 91 48 92
REMARK H PARENT 87 21 70 45 38 56
REMARK Flexibility Score: inf
ROOT
ATOM      1  C   UNL A   1      33.771  24.121  25.302  1.00  0.00     0.202 C 
ENDROOT
BRANCH   1   2
ATOM      2  C   UNL A   1      32.978  24.264  23.999  1.00  0.00     0.261 C 
BRANCH   2   3
ATOM      3  O   UNL A   1      33.220  25.549  23.401  1.00  0.00    -0.463 OA
BRANCH   3   4
ATOM      4  C   UNL A   1      32.123  26.206  22.941  1.00  0.00     0.313 C 
ATOM      5  O   UNL A   1      31.964  26.550  21.773  1.00  0.00    -0.252 OA
BRANCH   4   6
ATOM      6  C   UNL A   1      31.087  26.461  24.039  1.00  0.00     0.126 C 
ATOM      7  C   UNL A   1      29.658  26.769  23.570  1.00  0.00     0.025 C 
BRANCH   6   8
ATOM      8  C   UNL A   1      31.562  27.555  24.988  1.00  0.00    -0.034 A 
ATOM      9  C   UNL A   1      32.047  28.762  24.483  1.00  0.00     0.005 A 
ATOM     10  C   UNL A   1      31.523  27.387  26.381  1.00  0.00     0.005 A 
ATOM     11  C   UNL A   1      32.516  29.752  25.348  1.00  0.00     0.004 A 
ATOM     12  C   UNL A   1      32.024  28.358  27.244  1.00  0.00     0.004 A 
ATOM     13  C   UNL A   1      32.567  29.536  26.731  1.00  0.00    -0.048 A 
BRANCH  13  14
ATOM     14  C   UNL A   1      33.227  30.534  27.646  1.00  0.00     0.041 C 
BRANCH  14  15
ATOM     15  C   UNL A   1      34.742  30.746  27.468  1.00  0.00     0.022 C 
ATOM     16  C   UNL A   1      35.297  32.107  27.921  1.00  0.00     0.007 C 
ATOM     17  C   UNL A   1      35.700  29.715  28.083  1.00  0.00     0.117 C 
ATOM     18  C   UNL A   1      36.752  31.855  28.331  1.00  0.00     0.003 C 
ATOM     19  C   UNL A   1      37.051  30.407  27.952  1.00  0.00     0.032 C 
BRANCH  17  20
ATOM     20  O   UNL A   1      35.488  29.427  29.453  1.00  0.00    -0.393 OA
ATOM     21  H   UNL A   1      35.617  30.233  29.976  1.00  0.00     0.210 HD
ENDBRANCH  17  20
ENDBRANCH  14  15
ENDBRANCH  13  14
ENDBRANCH   6   8
ENDBRANCH   4   6
ENDBRANCH   3   4
ENDBRANCH   2   3
ENDBRANCH   1   2
BRANCH   1  22
ATOM     22  O   UNL A   1      34.484  22.894  25.490  1.00  0.00    -0.374 OA
BRANCH  22  23
ATOM     23  C   UNL A   1      35.808  22.994  26.003  1.00  0.00     0.202 C 
BRANCH  23  24
ATOM     24  C   UNL A   1      36.766  21.827  25.750  1.00  0.00     0.261 C 
BRANCH  24  25
ATOM     25  O   UNL A   1      38.052  22.273  25.306  1.00  0.00    -0.460 OA
BRANCH  25  26
ATOM     26  C   UNL A   1      39.075  21.869  26.092  1.00  0.00     0.338 C 
ATOM     27  O   UNL A   1      39.575  20.751  26.137  1.00  0.00    -0.246 OA
BRANCH  26  28
ATOM     28  C   UNL A   1      39.670  23.033  26.767  1.00  0.00     0.060 A 
ATOM     29  C   UNL A   1      39.137  24.289  26.455  1.00  0.00     0.016 A 
ATOM     30  C   UNL A   1      40.742  22.907  27.653  1.00  0.00     0.016 A 
ATOM     31  C   UNL A   1      39.718  25.437  26.976  1.00  0.00     0.010 A 
ATOM     32  C   UNL A   1      41.332  24.064  28.169  1.00  0.00     0.010 A 
ATOM     33  C   UNL A   1      40.849  25.330  27.794  1.00  0.00    -0.014 A 
BRANCH  33  34
ATOM     34  C   UNL A   1      41.624  26.550  28.106  1.00  0.00     0.031 A 
ATOM     35  C   UNL A   1      42.980  26.719  27.478  1.00  0.00     0.074 A 
ATOM     36  C   UNL A   1      41.115  27.498  28.910  1.00  0.00     0.049 A 
ATOM     37  N   UNL A   1      43.833  27.699  27.605  1.00  0.00    -0.248 NA
ATOM     38  C   UNL A   1      43.434  25.636  26.587  1.00  0.00     0.031 C 
ATOM     39  C   UNL A   1      39.806  27.442  29.559  1.00  0.00     0.029 A 
ATOM     40  N   UNL A   1      41.651  28.688  29.332  1.00  0.00    -0.354 N 
ATOM     41  C   UNL A   1      44.937  27.339  26.842  1.00  0.00     0.074 A 
ATOM     42  C   UNL A   1      44.652  26.046  26.261  1.00  0.00     0.031 C 
ATOM     43  C   UNL A   1      39.649  28.540  30.318  1.00  0.00     0.029 A 
ATOM     44  C   UNL A   1      40.855  29.361  30.226  1.00  0.00     0.049 A 
ATOM     45  H   UNL A   1      42.522  29.027  29.023  1.00  0.00     0.167 HD
ATOM     46  C   UNL A   1      46.082  28.031  26.635  1.00  0.00     0.034 A 
ATOM     47  C   UNL A   1      41.087  30.500  30.908  1.00  0.00     0.034 A 
ATOM     48  C   UNL A   1      46.348  29.325  27.198  1.00  0.00     0.049 A 
ATOM     49  C   UNL A   1      42.379  31.237  30.676  1.00  0.00     0.074 A 
ATOM     50  C   UNL A   1      47.451  30.136  27.008  1.00  0.00     0.029 A 
ATOM     51  N   UNL A   1      45.506  29.992  28.076  1.00  0.00    -0.354 N 
ATOM     52  N   UNL A   1      43.364  30.944  29.861  1.00  0.00    -0.248 NA
ATOM     53  C   UNL A   1      42.579  32.482  31.433  1.00  0.00     0.031 C 
ATOM     54  C   UNL A   1      47.293  31.279  27.799  1.00  0.00     0.029 A 
ATOM     55  C   UNL A   1      46.073  31.197  28.452  1.00  0.00     0.049 A 
ATOM     56  H   UNL A   1      44.633  29.657  28.386  1.00  0.00     0.167 HD
ATOM     57  C   UNL A   1      44.281  31.982  29.977  1.00  0.00     0.074 A 
ATOM     58  C   UNL A   1      43.725  32.923  30.930  1.00  0.00     0.031 C 
ATOM     59  C   UNL A   1      45.479  32.142  29.362  1.00  0.00     0.034 A 
BRANCH  46  60
ATOM     60  C   UNL A   1      47.129  27.404  25.752  1.00  0.00     0.023 A 
ATOM     61  C   UNL A   1      47.913  26.338  26.240  1.00  0.00     0.012 A 
ATOM     62  C   UNL A   1      47.302  27.839  24.424  1.00  0.00     0.148 A 
ATOM     63  C   UNL A   1      48.873  25.735  25.428  1.00  0.00     0.002 A 
ATOM     64  C   UNL A   1      48.230  27.204  23.607  1.00  0.00     0.091 A 
ATOM     65  F   UNL A   1      46.566  28.871  23.989  1.00  0.00    -0.205 F 
ATOM     66  C   UNL A   1      49.024  26.160  24.110  1.00  0.00     0.022 A 
BRANCH  64  67
ATOM     67  S   UNL A   1      48.443  27.626  21.875  1.00  0.00     0.127 S 
ATOM     68  O   UNL A   1      49.530  28.601  21.941  1.00  0.00    -0.237 OA
ATOM     69  O   UNL A   1      48.813  26.338  21.288  1.00  0.00    -0.237 OA
ATOM     70  O   UNL A   1      47.160  28.151  21.428  1.00  0.00    -0.744 OA
ENDBRANCH  64  67
ENDBRANCH  46  60
BRANCH  47  71
ATOM     71  C   UNL A   1      40.059  31.029  31.848  1.00  0.00     0.023 A 
ATOM     72  C   UNL A   1      38.957  31.745  31.342  1.00  0.00     0.012 A 
ATOM     73  C   UNL A   1      40.158  30.810  33.236  1.00  0.00     0.148 A 
ATOM     74  C   UNL A   1      37.988  32.260  32.205  1.00  0.00     0.002 A 
ATOM     75  C   UNL A   1      39.162  31.277  34.084  1.00  0.00     0.091 A 
ATOM     76  F   UNL A   1      41.222  30.138  33.698  1.00  0.00    -0.205 F 
ATOM     77  C   UNL A   1      38.085  32.017  33.572  1.00  0.00     0.022 A 
BRANCH  75  78
ATOM     78  S   UNL A   1      39.137  30.902  35.840  1.00  0.00     0.127 S 
ATOM     79  O   UNL A   1      39.955  29.693  35.898  1.00  0.00    -0.237 OA
ATOM     80  O   UNL A   1      39.759  32.097  36.412  1.00  0.00    -0.237 OA
ATOM     81  O   UNL A   1      37.732  30.733  36.187  1.00  0.00    -0.744 OA
ENDBRANCH  75  78
ENDBRANCH  47  71
BRANCH  59  82
ATOM     82  C   UNL A   1      46.258  33.397  29.662  1.00  0.00     0.023 A 
ATOM     83  C   UNL A   1      47.173  33.418  30.732  1.00  0.00     0.012 A 
ATOM     84  C   UNL A   1      46.136  34.529  28.832  1.00  0.00     0.148 A 
ATOM     85  C   UNL A   1      47.931  34.560  30.992  1.00  0.00     0.002 A 
ATOM     86  C   UNL A   1      46.933  35.644  29.066  1.00  0.00     0.091 A 
ATOM     87  F   UNL A   1      45.247  34.495  27.828  1.00  0.00    -0.205 F 
ATOM     88  C   UNL A   1      47.821  35.666  30.153  1.00  0.00     0.022 A 
BRANCH  86  89
ATOM     89  S   UNL A   1      46.931  37.073  27.977  1.00  0.00     0.127 S 
ATOM     90  O   UNL A   1      47.240  36.463  26.685  1.00  0.00    -0.237 OA
ATOM     91  O   UNL A   1      45.559  37.562  28.110  1.00  0.00    -0.237 OA
ATOM     92  O   UNL A   1      47.948  37.977  28.499  1.00  0.00    -0.744 OA
ENDBRANCH  86  89
ENDBRANCH  59  82
ENDBRANCH  33  34
ENDBRANCH  26  28
ENDBRANCH  25  26
ENDBRANCH  24  25
ENDBRANCH  23  24
ENDBRANCH  22  23
ENDBRANCH   1  22
TORSDOF 21
ENDMDL
