MODEL 1
REMARK VINA RESULT:     -11.0      0.000      0.000
REMARK SMILES Cn1cc(S[C@@H]2CCC[C@]([NH2+]C3CC3)(C(=O)OCCOCCOC(=O)c3ccc(-c4c5nc(c(-c6cccc(S(=O)(=O)[O-])c6F)c6ccc([nH]6)c(-c6cccc(S(=O)(=O)[O-])c6F)c6nc(c(-c7cccc(S(=O)(=O)[O-])c7F)c7ccc4[nH]7)C=C6)C=C5)cc3)C2)cn1
REMARK SMILES IDX 21 1 20 2 19 3 18 4 17 5 15 6 16 7 10 8 6 9 7 10 89 11 8 12
REMARK SMILES IDX 9 13 5 14 4 15 1 16 2 17 3 18 91 19 90 20 11 21 12 24 13 25
REMARK SMILES IDX 14 26 22 27 23 28 24 29 25 30 26 31 27 32 88 33 28 34 87 35
REMARK SMILES IDX 29 36 30 37 31 38 81 39 32 40 86 41 80 42 82 43 33 44 85 45
REMARK SMILES IDX 79 46 78 47 34 49 66 50 46 51 65 52 47 53 50 54 64 55 83 56
REMARK SMILES IDX 48 57 49 58 63 60 84 61 51 62 35 63 36 64 44 65 37 66 39 67
REMARK SMILES IDX 45 68 38 69 40 70 41 71 42 72 43 73 67 74 68 75 76 76 69 77
REMARK SMILES IDX 71 78 77 79 70 80 72 81 73 82 74 83 75 84 52 85 53 86 61 87
REMARK SMILES IDX 54 88 56 89 62 90 55 91 57 92 58 93 59 94 60 95
REMARK H PARENT 11 22 11 23 82 48 50 59
REMARK Flexibility Score: inf
ROOT
ATOM      1  C   UNL A   1      35.871  21.329  24.772  1.00  0.00     0.202 C 
ENDROOT
BRANCH   1   2
ATOM      2  O   UNL A   1      34.714  21.060  25.556  1.00  0.00    -0.374 OA
BRANCH   2   3
ATOM      3  C   UNL A   1      34.582  21.783  26.782  1.00  0.00     0.202 C 
BRANCH   3   4
ATOM      4  C   UNL A   1      33.300  22.598  26.989  1.00  0.00     0.261 C 
BRANCH   4   5
ATOM      5  O   UNL A   1      33.379  23.932  26.448  1.00  0.00    -0.459 OA
BRANCH   5   6
ATOM      6  C   UNL A   1      32.194  24.599  26.407  1.00  0.00     0.368 C 
ATOM      7  O   UNL A   1      31.307  24.457  27.250  1.00  0.00    -0.245 OA
BRANCH   6   8
ATOM      8  C   UNL A   1      32.099  25.682  25.265  1.00  0.00     0.195 C 
ATOM      9  C   UNL A   1      30.474  26.946  23.724  1.00  0.00     0.058 C 
ATOM     10  C   UNL A   1      31.191  26.420  22.471  1.00  0.00     0.015 C 
ATOM     11  C   UNL A   1      30.629  26.057  24.967  1.00  0.00     0.096 C 
ATOM     12  C   UNL A   1      32.609  25.910  22.730  1.00  0.00     0.008 C 
ATOM     13  C   UNL A   1      32.719  25.063  23.992  1.00  0.00     0.081 C 
BRANCH   9  14
ATOM     14  S   UNL A   1      28.737  27.460  23.500  1.00  0.00    -0.119 SA
BRANCH  14  15
ATOM     15  C   UNL A   1      28.711  29.102  22.942  1.00  0.00     0.046 A 
ATOM     16  C   UNL A   1      28.026  32.067  21.024  1.00  0.00     0.173 C 
ATOM     17  N   UNL A   1      28.422  31.027  21.943  1.00  0.00    -0.275 N 
ATOM     18  C   UNL A   1      27.964  29.738  21.982  1.00  0.00     0.123 A 
ATOM     19  N   UNL A   1      29.386  31.282  22.845  1.00  0.00    -0.181 NA
ATOM     20  C   UNL A   1      29.521  30.120  23.489  1.00  0.00     0.150 A 
ENDBRANCH  14  15
ENDBRANCH   9  14
BRANCH   8  21
ATOM     21  N   UNL A   1      32.917  26.785  25.824  1.00  0.00    -0.330 N 
ATOM     22  H   UNL A   1      33.481  27.124  25.046  1.00  0.00     0.347 HD
ATOM     23  H   UNL A   1      33.332  26.313  26.627  1.00  0.00     0.347 HD
BRANCH  21  24
ATOM     24  C   UNL A   1      32.392  27.968  26.462  1.00  0.00     0.183 C 
ATOM     25  C   UNL A   1      33.328  28.834  27.256  1.00  0.00     0.071 C 
ATOM     26  C   UNL A   1      32.843  29.298  25.916  1.00  0.00     0.071 C 
ENDBRANCH  21  24
ENDBRANCH   8  21
ENDBRANCH   6   8
ENDBRANCH   5   6
ENDBRANCH   4   5
ENDBRANCH   3   4
ENDBRANCH   2   3
ENDBRANCH   1   2
BRANCH   1  27
ATOM     27  C   UNL A   1      37.140  20.534  25.102  1.00  0.00     0.261 C 
BRANCH  27  28
ATOM     28  O   UNL A   1      38.329  21.335  24.995  1.00  0.00    -0.460 OA
BRANCH  28  29
ATOM     29  C   UNL A   1      39.244  21.104  25.966  1.00  0.00     0.338 C 
ATOM     30  O   UNL A   1      39.819  20.048  26.198  1.00  0.00    -0.246 OA
BRANCH  29  31
ATOM     31  C   UNL A   1      39.620  22.366  26.628  1.00  0.00     0.060 A 
ATOM     32  C   UNL A   1      38.918  23.519  26.252  1.00  0.00     0.016 A 
ATOM     33  C   UNL A   1      40.678  22.444  27.537  1.00  0.00     0.016 A 
ATOM     34  C   UNL A   1      39.313  24.765  26.730  1.00  0.00     0.010 A 
ATOM     35  C   UNL A   1      41.078  23.699  28.010  1.00  0.00     0.010 A 
ATOM     36  C   UNL A   1      40.428  24.867  27.571  1.00  0.00    -0.014 A 
BRANCH  36  37
ATOM     37  C   UNL A   1      41.012  26.203  27.842  1.00  0.00     0.031 A 
ATOM     38  C   UNL A   1      42.408  26.493  27.357  1.00  0.00     0.074 A 
ATOM     39  C   UNL A   1      40.309  27.148  28.489  1.00  0.00     0.049 A 
ATOM     40  N   UNL A   1      43.124  27.577  27.497  1.00  0.00    -0.248 NA
ATOM     41  C   UNL A   1      43.087  25.415  26.616  1.00  0.00     0.031 C 
ATOM     42  C   UNL A   1      38.946  26.991  28.995  1.00  0.00     0.029 A 
ATOM     43  N   UNL A   1      40.658  28.426  28.849  1.00  0.00    -0.354 N 
ATOM     44  C   UNL A   1      44.345  27.305  26.891  1.00  0.00     0.074 A 
ATOM     45  C   UNL A   1      44.278  25.949  26.392  1.00  0.00     0.031 C 
ATOM     46  C   UNL A   1      38.584  28.122  29.627  1.00  0.00     0.029 A 
ATOM     47  C   UNL A   1      39.695  29.071  29.588  1.00  0.00     0.049 A 
ATOM     48  H   UNL A   1      41.516  28.840  28.602  1.00  0.00     0.167 HD
ATOM     49  C   UNL A   1      45.419  28.115  26.748  1.00  0.00     0.034 A 
ATOM     50  C   UNL A   1      39.718  30.281  30.181  1.00  0.00     0.034 A 
ATOM     51  C   UNL A   1      45.474  29.472  27.218  1.00  0.00     0.049 A 
ATOM     52  C   UNL A   1      40.935  31.156  30.024  1.00  0.00     0.074 A 
ATOM     53  C   UNL A   1      46.501  30.388  27.080  1.00  0.00     0.029 A 
ATOM     54  N   UNL A   1      44.463  30.106  27.923  1.00  0.00    -0.354 N 
ATOM     55  N   UNL A   1      42.036  30.927  29.349  1.00  0.00    -0.248 NA
ATOM     56  C   UNL A   1      40.900  32.471  30.681  1.00  0.00     0.031 C 
ATOM     57  C   UNL A   1      46.119  31.572  27.722  1.00  0.00     0.029 A 
ATOM     58  C   UNL A   1      44.844  31.398  28.236  1.00  0.00     0.049 A 
ATOM     59  H   UNL A   1      43.601  29.697  28.163  1.00  0.00     0.167 HD
ATOM     60  C   UNL A   1      42.806  32.080  29.468  1.00  0.00     0.074 A 
ATOM     61  C   UNL A   1      42.037  33.013  30.265  1.00  0.00     0.031 C 
ATOM     62  C   UNL A   1      44.042  32.338  28.977  1.00  0.00     0.034 A 
BRANCH  49  63
ATOM     63  C   UNL A   1      46.620  27.564  26.025  1.00  0.00     0.023 A 
ATOM     64  C   UNL A   1      46.748  27.762  24.636  1.00  0.00     0.012 A 
ATOM     65  C   UNL A   1      47.645  26.904  26.729  1.00  0.00     0.148 A 
ATOM     66  C   UNL A   1      47.868  27.288  23.953  1.00  0.00     0.002 A 
ATOM     67  C   UNL A   1      48.777  26.471  26.049  1.00  0.00     0.091 A 
ATOM     68  F   UNL A   1      47.490  26.703  28.046  1.00  0.00    -0.205 F 
ATOM     69  C   UNL A   1      48.886  26.653  24.660  1.00  0.00     0.022 A 
BRANCH  67  70
ATOM     70  S   UNL A   1      50.172  25.706  26.882  1.00  0.00     0.127 S 
ATOM     71  O   UNL A   1      49.584  24.453  27.352  1.00  0.00    -0.237 OA
ATOM     72  O   UNL A   1      51.138  25.556  25.792  1.00  0.00    -0.237 OA
ATOM     73  O   UNL A   1      50.576  26.638  27.925  1.00  0.00    -0.744 OA
ENDBRANCH  67  70
ENDBRANCH  49  63
BRANCH  50  74
ATOM     74  C   UNL A   1      38.535  30.756  30.954  1.00  0.00     0.023 A 
ATOM     75  C   UNL A   1      38.499  30.581  32.351  1.00  0.00     0.012 A 
ATOM     76  C   UNL A   1      37.450  31.385  30.313  1.00  0.00     0.148 A 
ATOM     77  C   UNL A   1      37.393  30.997  33.092  1.00  0.00     0.002 A 
ATOM     78  C   UNL A   1      36.375  31.847  31.064  1.00  0.00     0.091 A 
ATOM     79  F   UNL A   1      37.492  31.524  28.981  1.00  0.00    -0.205 F 
ATOM     80  C   UNL A   1      36.336  31.639  32.451  1.00  0.00     0.022 A 
BRANCH  78  81
ATOM     81  S   UNL A   1      35.034  32.797  30.339  1.00  0.00     0.127 S 
ATOM     82  O   UNL A   1      34.160  33.006  31.490  1.00  0.00    -0.237 OA
ATOM     83  O   UNL A   1      35.731  33.994  29.868  1.00  0.00    -0.237 OA
ATOM     84  O   UNL A   1      34.498  31.960  29.274  1.00  0.00    -0.744 OA
ENDBRANCH  78  81
ENDBRANCH  50  74
BRANCH  62  85
ATOM     85  C   UNL A   1      44.635  33.698  29.241  1.00  0.00     0.023 A 
ATOM     86  C   UNL A   1      45.452  33.897  30.371  1.00  0.00     0.012 A 
ATOM     87  C   UNL A   1      44.453  34.751  28.323  1.00  0.00     0.148 A 
ATOM     88  C   UNL A   1      46.054  35.134  30.599  1.00  0.00     0.002 A 
ATOM     89  C   UNL A   1      45.095  35.966  28.532  1.00  0.00     0.091 A 
ATOM     90  F   UNL A   1      43.658  34.547  27.264  1.00  0.00    -0.205 F 
ATOM     91  C   UNL A   1      45.887  36.164  29.675  1.00  0.00     0.022 A 
BRANCH  89  92
ATOM     92  S   UNL A   1      45.014  37.313  27.346  1.00  0.00     0.127 S 
ATOM     93  O   UNL A   1      46.007  36.901  26.356  1.00  0.00    -0.237 OA
ATOM     94  O   UNL A   1      43.627  37.241  26.886  1.00  0.00    -0.237 OA
ATOM     95  O   UNL A   1      45.338  38.522  28.093  1.00  0.00    -0.744 OA
ENDBRANCH  89  92
ENDBRANCH  62  85
ENDBRANCH  36  37
ENDBRANCH  29  31
ENDBRANCH  28  29
ENDBRANCH  27  28
ENDBRANCH   1  27
TORSDOF 21
ENDMDL
MODEL 2
REMARK VINA RESULT:     -10.9      1.426      7.597
REMARK SMILES Cn1cc(S[C@@H]2CCC[C@]([NH2+]C3CC3)(C(=O)OCCOCCOC(=O)c3ccc(-c4c5nc(c(-c6cccc(S(=O)(=O)[O-])c6F)c6ccc([nH]6)c(-c6cccc(S(=O)(=O)[O-])c6F)c6nc(c(-c7cccc(S(=O)(=O)[O-])c7F)c7ccc4[nH]7)C=C6)C=C5)cc3)C2)cn1
REMARK SMILES IDX 21 1 20 2 19 3 18 4 17 5 15 6 16 7 10 8 6 9 7 10 89 11 8 12
REMARK SMILES IDX 9 13 5 14 4 15 1 16 2 17 3 18 91 19 90 20 11 21 12 24 13 25
REMARK SMILES IDX 14 26 22 27 23 28 24 29 25 30 26 31 27 32 88 33 28 34 87 35
REMARK SMILES IDX 29 36 30 37 31 38 81 39 32 40 86 41 80 42 82 43 33 44 85 45
REMARK SMILES IDX 79 46 78 47 34 49 66 50 46 51 65 52 47 53 50 54 64 55 83 56
REMARK SMILES IDX 48 57 49 58 63 60 84 61 51 62 35 63 36 64 44 65 37 66 39 67
REMARK SMILES IDX 45 68 38 69 40 70 41 71 42 72 43 73 67 74 68 75 76 76 69 77
REMARK SMILES IDX 71 78 77 79 70 80 72 81 73 82 74 83 75 84 52 85 53 86 61 87
REMARK SMILES IDX 54 88 56 89 62 90 55 91 57 92 58 93 59 94 60 95
REMARK H PARENT 11 22 11 23 82 48 50 59
REMARK Flexibility Score: inf
ROOT
ATOM      1  C   UNL A   1      35.240  21.779  24.891  1.00  0.00     0.202 C 
ENDROOT
BRANCH   1   2
ATOM      2  O   UNL A   1      34.015  21.116  25.183  1.00  0.00    -0.374 OA
BRANCH   2   3
ATOM      3  C   UNL A   1      33.338  21.507  26.380  1.00  0.00     0.202 C 
BRANCH   3   4
ATOM      4  C   UNL A   1      32.065  22.349  26.231  1.00  0.00     0.261 C 
BRANCH   4   5
ATOM      5  O   UNL A   1      32.286  23.598  25.544  1.00  0.00    -0.459 OA
BRANCH   5   6
ATOM      6  C   UNL A   1      31.490  24.621  25.958  1.00  0.00     0.368 C 
ATOM      7  O   UNL A   1      30.851  24.600  27.011  1.00  0.00    -0.245 OA
BRANCH   6   8
ATOM      8  C   UNL A   1      31.559  25.906  25.046  1.00  0.00     0.195 C 
ATOM      9  C   UNL A   1      30.176  27.478  23.554  1.00  0.00     0.058 C 
ATOM     10  C   UNL A   1      31.077  27.189  22.345  1.00  0.00     0.015 C 
ATOM     11  C   UNL A   1      30.148  26.362  24.611  1.00  0.00     0.096 C 
ATOM     12  C   UNL A   1      32.444  26.608  22.709  1.00  0.00     0.008 C 
ATOM     13  C   UNL A   1      32.369  25.531  23.785  1.00  0.00     0.081 C 
BRANCH   9  14
ATOM     14  S   UNL A   1      28.488  28.062  23.178  1.00  0.00    -0.119 SA
BRANCH  14  15
ATOM     15  C   UNL A   1      28.557  29.753  22.800  1.00  0.00     0.046 A 
ATOM     16  C   UNL A   1      28.979  33.317  23.061  1.00  0.00     0.173 C 
ATOM     17  N   UNL A   1      28.766  31.930  22.721  1.00  0.00    -0.275 N 
ATOM     18  C   UNL A   1      29.028  30.836  23.500  1.00  0.00     0.123 A 
ATOM     19  N   UNL A   1      28.197  31.625  21.541  1.00  0.00    -0.181 NA
ATOM     20  C   UNL A   1      28.121  30.293  21.571  1.00  0.00     0.150 A 
ENDBRANCH  14  15
ENDBRANCH   9  14
BRANCH   8  21
ATOM     21  N   UNL A   1      32.274  26.862  25.925  1.00  0.00    -0.330 N 
ATOM     22  H   UNL A   1      32.495  26.338  26.772  1.00  0.00     0.347 HD
ATOM     23  H   UNL A   1      31.612  27.637  25.928  1.00  0.00     0.347 HD
BRANCH  21  24
ATOM     24  C   UNL A   1      33.488  27.562  25.580  1.00  0.00     0.183 C 
ATOM     25  C   UNL A   1      33.413  29.030  25.275  1.00  0.00     0.071 C 
ATOM     26  C   UNL A   1      34.004  28.570  26.572  1.00  0.00     0.071 C 
ENDBRANCH  21  24
ENDBRANCH   8  21
ENDBRANCH   6   8
ENDBRANCH   5   6
ENDBRANCH   4   5
ENDBRANCH   3   4
ENDBRANCH   2   3
ENDBRANCH   1   2
BRANCH   1  27
ATOM     27  C   UNL A   1      36.517  20.931  24.920  1.00  0.00     0.261 C 
BRANCH  27  28
ATOM     28  O   UNL A   1      37.707  21.739  24.937  1.00  0.00    -0.460 OA
BRANCH  28  29
ATOM     29  C   UNL A   1      38.648  21.326  25.818  1.00  0.00     0.338 C 
ATOM     30  O   UNL A   1      39.082  20.188  25.951  1.00  0.00    -0.246 OA
BRANCH  29  31
ATOM     31  C   UNL A   1      39.245  22.481  26.512  1.00  0.00     0.060 A 
ATOM     32  C   UNL A   1      38.655  23.733  26.291  1.00  0.00     0.016 A 
ATOM     33  C   UNL A   1      40.395  22.366  27.297  1.00  0.00     0.016 A 
ATOM     34  C   UNL A   1      39.250  24.885  26.799  1.00  0.00     0.010 A 
ATOM     35  C   UNL A   1      40.995  23.526  27.799  1.00  0.00     0.010 A 
ATOM     36  C   UNL A   1      40.452  24.792  27.512  1.00  0.00    -0.014 A 
BRANCH  36  37
ATOM     37  C   UNL A   1      41.222  26.026  27.798  1.00  0.00     0.031 A 
ATOM     38  C   UNL A   1      40.546  27.142  28.551  1.00  0.00     0.074 A 
ATOM     39  C   UNL A   1      42.504  26.148  27.414  1.00  0.00     0.049 A 
ATOM     40  N   UNL A   1      41.014  28.313  28.892  1.00  0.00    -0.248 NA
ATOM     41  C   UNL A   1      39.154  26.905  28.973  1.00  0.00     0.031 C 
ATOM     42  C   UNL A   1      43.270  25.133  26.692  1.00  0.00     0.029 A 
ATOM     43  N   UNL A   1      43.382  27.192  27.563  1.00  0.00    -0.354 N 
ATOM     44  C   UNL A   1      39.972  28.963  29.541  1.00  0.00     0.074 A 
ATOM     45  C   UNL A   1      38.840  28.062  29.536  1.00  0.00     0.031 C 
ATOM     46  C   UNL A   1      44.499  25.618  26.435  1.00  0.00     0.029 A 
ATOM     47  C   UNL A   1      44.596  26.980  26.955  1.00  0.00     0.049 A 
ATOM     48  H   UNL A   1      43.163  28.015  28.059  1.00  0.00     0.167 HD
ATOM     49  C   UNL A   1      39.960  30.193  30.106  1.00  0.00     0.034 A 
ATOM     50  C   UNL A   1      45.657  27.801  26.817  1.00  0.00     0.034 A 
ATOM     51  C   UNL A   1      41.093  31.076  30.136  1.00  0.00     0.049 A 
ATOM     52  C   UNL A   1      45.611  29.175  27.437  1.00  0.00     0.074 A 
ATOM     53  C   UNL A   1      41.194  32.324  30.725  1.00  0.00     0.029 A 
ATOM     54  N   UNL A   1      42.320  30.810  29.548  1.00  0.00    -0.354 N 
ATOM     55  N   UNL A   1      44.658  29.729  28.147  1.00  0.00    -0.248 NA
ATOM     56  C   UNL A   1      46.800  30.022  27.266  1.00  0.00     0.031 C 
ATOM     57  C   UNL A   1      42.477  32.823  30.474  1.00  0.00     0.029 A 
ATOM     58  C   UNL A   1      43.182  31.873  29.750  1.00  0.00     0.049 A 
ATOM     59  H   UNL A   1      42.544  29.985  29.061  1.00  0.00     0.167 HD
ATOM     60  C   UNL A   1      45.146  30.972  28.539  1.00  0.00     0.074 A 
ATOM     61  C   UNL A   1      46.486  31.080  28.002  1.00  0.00     0.031 C 
ATOM     62  C   UNL A   1      44.536  31.941  29.264  1.00  0.00     0.034 A 
BRANCH  49  63
ATOM     63  C   UNL A   1      38.686  30.649  30.766  1.00  0.00     0.023 A 
ATOM     64  C   UNL A   1      38.528  30.493  32.158  1.00  0.00     0.012 A 
ATOM     65  C   UNL A   1      37.673  31.280  30.020  1.00  0.00     0.148 A 
ATOM     66  C   UNL A   1      37.369  30.938  32.794  1.00  0.00     0.002 A 
ATOM     67  C   UNL A   1      36.539  31.757  30.666  1.00  0.00     0.091 A 
ATOM     68  F   UNL A   1      37.832  31.394  28.693  1.00  0.00    -0.205 F 
ATOM     69  C   UNL A   1      36.381  31.578  32.050  1.00  0.00     0.022 A 
BRANCH  67  70
ATOM     70  S   UNL A   1      35.243  32.658  29.808  1.00  0.00     0.127 S 
ATOM     71  O   UNL A   1      34.726  31.637  28.899  1.00  0.00    -0.237 OA
ATOM     72  O   UNL A   1      34.339  33.015  30.903  1.00  0.00    -0.237 OA
ATOM     73  O   UNL A   1      35.898  33.791  29.170  1.00  0.00    -0.744 OA
ENDBRANCH  67  70
ENDBRANCH  49  63
BRANCH  50  74
ATOM     74  C   UNL A   1      46.870  27.337  26.087  1.00  0.00     0.023 A 
ATOM     75  C   UNL A   1      47.787  26.483  26.730  1.00  0.00     0.012 A 
ATOM     76  C   UNL A   1      47.116  27.730  24.757  1.00  0.00     0.148 A 
ATOM     77  C   UNL A   1      48.941  26.053  26.074  1.00  0.00     0.002 A 
ATOM     78  C   UNL A   1      48.239  27.254  24.090  1.00  0.00     0.091 A 
ATOM     79  F   UNL A   1      46.244  28.560  24.168  1.00  0.00    -0.205 F 
ATOM     80  C   UNL A   1      49.162  26.430  24.751  1.00  0.00     0.022 A 
BRANCH  78  81
ATOM     81  S   UNL A   1      48.534  27.585  22.349  1.00  0.00     0.127 S 
ATOM     82  O   UNL A   1      49.782  28.342  22.397  1.00  0.00    -0.237 OA
ATOM     83  O   UNL A   1      48.654  26.233  21.801  1.00  0.00    -0.237 OA
ATOM     84  O   UNL A   1      47.361  28.315  21.889  1.00  0.00    -0.744 OA
ENDBRANCH  78  81
ENDBRANCH  50  74
BRANCH  62  85
ATOM     85  C   UNL A   1      45.318  33.193  29.565  1.00  0.00     0.023 A 
ATOM     86  C   UNL A   1      46.114  33.259  30.725  1.00  0.00     0.012 A 
ATOM     87  C   UNL A   1      45.330  34.269  28.655  1.00  0.00     0.148 A 
ATOM     88  C   UNL A   1      46.887  34.389  30.989  1.00  0.00     0.002 A 
ATOM     89  C   UNL A   1      46.140  35.371  28.901  1.00  0.00     0.091 A 
ATOM     90  F   UNL A   1      44.551  34.195  27.566  1.00  0.00    -0.205 F 
ATOM     91  C   UNL A   1      46.911  35.438  30.073  1.00  0.00     0.022 A 
BRANCH  89  92
ATOM     92  S   UNL A   1      46.305  36.723  27.730  1.00  0.00     0.127 S 
ATOM     93  O   UNL A   1      47.266  37.590  28.408  1.00  0.00    -0.237 OA
ATOM     94  O   UNL A   1      46.826  36.046  26.542  1.00  0.00    -0.237 OA
ATOM     95  O   UNL A   1      44.967  37.277  27.568  1.00  0.00    -0.744 OA
ENDBRANCH  89  92
ENDBRANCH  62  85
ENDBRANCH  36  37
ENDBRANCH  29  31
ENDBRANCH  28  29
ENDBRANCH  27  28
ENDBRANCH   1  27
TORSDOF 21
ENDMDL
MODEL 3
REMARK VINA RESULT:     -10.9      4.975     10.561
REMARK SMILES Cn1cc(S[C@@H]2CCC[C@]([NH2+]C3CC3)(C(=O)OCCOCCOC(=O)c3ccc(-c4c5nc(c(-c6cccc(S(=O)(=O)[O-])c6F)c6ccc([nH]6)c(-c6cccc(S(=O)(=O)[O-])c6F)c6nc(c(-c7cccc(S(=O)(=O)[O-])c7F)c7ccc4[nH]7)C=C6)C=C5)cc3)C2)cn1
REMARK SMILES IDX 21 1 20 2 19 3 18 4 17 5 15 6 16 7 10 8 6 9 7 10 89 11 8 12
REMARK SMILES IDX 9 13 5 14 4 15 1 16 2 17 3 18 91 19 90 20 11 21 12 24 13 25
REMARK SMILES IDX 14 26 22 27 23 28 24 29 25 30 26 31 27 32 88 33 28 34 87 35
REMARK SMILES IDX 29 36 30 37 31 38 81 39 32 40 86 41 80 42 82 43 33 44 85 45
REMARK SMILES IDX 79 46 78 47 34 49 66 50 46 51 65 52 47 53 50 54 64 55 83 56
REMARK SMILES IDX 48 57 49 58 63 60 84 61 51 62 35 63 36 64 44 65 37 66 39 67
REMARK SMILES IDX 45 68 38 69 40 70 41 71 42 72 43 73 67 74 68 75 76 76 69 77
REMARK SMILES IDX 71 78 77 79 70 80 72 81 73 82 74 83 75 84 52 85 53 86 61 87
REMARK SMILES IDX 54 88 56 89 62 90 55 91 57 92 58 93 59 94 60 95
REMARK H PARENT 11 22 11 23 82 48 50 59
REMARK Flexibility Score: inf
ROOT
ATOM      1  C   UNL A   1      31.409  30.751  25.873  1.00  0.00     0.202 C 
ENDROOT
BRANCH   1   2
ATOM      2  O   UNL A   1      31.540  29.669  26.789  1.00  0.00    -0.374 OA
BRANCH   2   3
ATOM      3  C   UNL A   1      32.002  28.425  26.257  1.00  0.00     0.202 C 
BRANCH   3   4
ATOM      4  C   UNL A   1      33.237  28.457  25.350  1.00  0.00     0.261 C 
BRANCH   4   5
ATOM      5  O   UNL A   1      33.982  27.222  25.356  1.00  0.00    -0.459 OA
BRANCH   5   6
ATOM      6  C   UNL A   1      33.513  26.273  24.502  1.00  0.00     0.368 C 
ATOM      7  O   UNL A   1      33.366  26.462  23.293  1.00  0.00    -0.245 OA
BRANCH   6   8
ATOM      8  C   UNL A   1      33.303  24.855  25.159  1.00  0.00     0.195 C 
ATOM      9  C   UNL A   1      32.488  22.456  24.721  1.00  0.00     0.058 C 
ATOM     10  C   UNL A   1      31.434  22.569  25.832  1.00  0.00     0.015 C 
ATOM     11  C   UNL A   1      32.908  23.799  24.103  1.00  0.00     0.096 C 
ATOM     12  C   UNL A   1      31.703  23.689  26.838  1.00  0.00     0.008 C 
ATOM     13  C   UNL A   1      32.151  24.989  26.180  1.00  0.00     0.081 C 
BRANCH   9  14
ATOM     14  S   UNL A   1      32.160  21.214  23.424  1.00  0.00    -0.119 SA
BRANCH  14  15
ATOM     15  C   UNL A   1      32.596  19.649  24.031  1.00  0.00     0.046 A 
ATOM     16  C   UNL A   1      33.276  16.124  24.269  1.00  0.00     0.173 C 
ATOM     17  N   UNL A   1      33.078  17.547  24.405  1.00  0.00    -0.275 N 
ATOM     18  C   UNL A   1      32.821  18.447  23.407  1.00  0.00     0.123 A 
ATOM     19  N   UNL A   1      33.081  18.095  25.633  1.00  0.00    -0.181 NA
ATOM     20  C   UNL A   1      32.841  19.386  25.396  1.00  0.00     0.150 A 
ENDBRANCH  14  15
ENDBRANCH   9  14
BRANCH   8  21
ATOM     21  N   UNL A   1      34.618  24.623  25.804  1.00  0.00    -0.330 N 
ATOM     22  H   UNL A   1      34.420  24.037  26.616  1.00  0.00     0.347 HD
ATOM     23  H   UNL A   1      34.946  25.583  25.899  1.00  0.00     0.347 HD
BRANCH  21  24
ATOM     24  C   UNL A   1      35.762  24.020  25.166  1.00  0.00     0.183 C 
ATOM     25  C   UNL A   1      37.007  23.798  25.977  1.00  0.00     0.071 C 
ATOM     26  C   UNL A   1      36.142  22.631  25.609  1.00  0.00     0.071 C 
ENDBRANCH  21  24
ENDBRANCH   8  21
ENDBRANCH   6   8
ENDBRANCH   5   6
ENDBRANCH   4   5
ENDBRANCH   3   4
ENDBRANCH   2   3
ENDBRANCH   1   2
BRANCH   1  27
ATOM     27  C   UNL A   1      31.649  32.163  26.420  1.00  0.00     0.261 C 
BRANCH  27  28
ATOM     28  O   UNL A   1      32.423  32.153  27.631  1.00  0.00    -0.460 OA
BRANCH  28  29
ATOM     29  C   UNL A   1      33.392  33.097  27.680  1.00  0.00     0.338 C 
ATOM     30  O   UNL A   1      33.240  34.312  27.622  1.00  0.00    -0.246 OA
BRANCH  29  31
ATOM     31  C   UNL A   1      34.693  32.483  28.004  1.00  0.00     0.060 A 
ATOM     32  C   UNL A   1      34.712  31.096  28.198  1.00  0.00     0.016 A 
ATOM     33  C   UNL A   1      35.850  33.243  28.188  1.00  0.00     0.016 A 
ATOM     34  C   UNL A   1      35.873  30.470  28.644  1.00  0.00     0.010 A 
ATOM     35  C   UNL A   1      37.014  32.613  28.643  1.00  0.00     0.010 A 
ATOM     36  C   UNL A   1      37.015  31.232  28.918  1.00  0.00    -0.014 A 
BRANCH  36  37
ATOM     37  C   UNL A   1      38.142  30.611  29.655  1.00  0.00     0.031 A 
ATOM     38  C   UNL A   1      38.368  31.003  31.092  1.00  0.00     0.074 A 
ATOM     39  C   UNL A   1      38.937  29.701  29.068  1.00  0.00     0.049 A 
ATOM     40  N   UNL A   1      39.298  30.608  31.921  1.00  0.00    -0.248 NA
ATOM     41  C   UNL A   1      37.421  31.973  31.669  1.00  0.00     0.031 C 
ATOM     42  C   UNL A   1      38.810  29.231  27.690  1.00  0.00     0.029 A 
ATOM     43  N   UNL A   1      40.026  29.024  29.557  1.00  0.00    -0.354 N 
ATOM     44  C   UNL A   1      39.068  31.299  33.105  1.00  0.00     0.074 A 
ATOM     45  C   UNL A   1      37.918  32.148  32.884  1.00  0.00     0.031 C 
ATOM     46  C   UNL A   1      39.803  28.361  27.434  1.00  0.00     0.029 A 
ATOM     47  C   UNL A   1      40.645  28.231  28.621  1.00  0.00     0.049 A 
ATOM     48  H   UNL A   1      40.335  29.099  30.489  1.00  0.00     0.167 HD
ATOM     49  C   UNL A   1      39.741  31.222  34.276  1.00  0.00     0.034 A 
ATOM     50  C   UNL A   1      41.774  27.499  28.709  1.00  0.00     0.034 A 
ATOM     51  C   UNL A   1      40.866  30.356  34.503  1.00  0.00     0.049 A 
ATOM     52  C   UNL A   1      42.518  27.447  30.019  1.00  0.00     0.074 A 
ATOM     53  C   UNL A   1      41.587  30.173  35.670  1.00  0.00     0.029 A 
ATOM     54  N   UNL A   1      41.437  29.534  33.545  1.00  0.00    -0.354 N 
ATOM     55  N   UNL A   1      42.220  28.016  31.161  1.00  0.00    -0.248 NA
ATOM     56  C   UNL A   1      43.736  26.623  30.060  1.00  0.00     0.031 C 
ATOM     57  C   UNL A   1      42.610  29.254  35.410  1.00  0.00     0.029 A 
ATOM     58  C   UNL A   1      42.509  28.848  34.089  1.00  0.00     0.049 A 
ATOM     59  H   UNL A   1      41.126  29.450  32.616  1.00  0.00     0.167 HD
ATOM     60  C   UNL A   1      43.188  27.590  32.066  1.00  0.00     0.074 A 
ATOM     61  C   UNL A   1      44.071  26.701  31.341  1.00  0.00     0.031 C 
ATOM     62  C   UNL A   1      43.341  27.917  33.372  1.00  0.00     0.034 A 
BRANCH  49  63
ATOM     63  C   UNL A   1      39.262  32.079  35.417  1.00  0.00     0.023 A 
ATOM     64  C   UNL A   1      38.340  31.553  36.344  1.00  0.00     0.012 A 
ATOM     65  C   UNL A   1      39.767  33.380  35.604  1.00  0.00     0.148 A 
ATOM     66  C   UNL A   1      37.907  32.318  37.426  1.00  0.00     0.002 A 
ATOM     67  C   UNL A   1      39.363  34.122  36.707  1.00  0.00     0.091 A 
ATOM     68  F   UNL A   1      40.624  33.870  34.696  1.00  0.00    -0.205 F 
ATOM     69  C   UNL A   1      38.426  33.597  37.613  1.00  0.00     0.022 A 
BRANCH  67  70
ATOM     70  S   UNL A   1      40.028  35.750  37.074  1.00  0.00     0.127 S 
ATOM     71  O   UNL A   1      39.653  36.498  35.875  1.00  0.00    -0.237 OA
ATOM     72  O   UNL A   1      39.288  36.120  38.281  1.00  0.00    -0.237 OA
ATOM     73  O   UNL A   1      41.458  35.563  37.274  1.00  0.00    -0.744 OA
ENDBRANCH  67  70
ENDBRANCH  49  63
BRANCH  50  74
ATOM     74  C   UNL A   1      42.257  26.727  27.528  1.00  0.00     0.023 A 
ATOM     75  C   UNL A   1      42.999  27.379  26.525  1.00  0.00     0.012 A 
ATOM     76  C   UNL A   1      41.990  25.350  27.399  1.00  0.00     0.148 A 
ATOM     77  C   UNL A   1      43.442  26.681  25.401  1.00  0.00     0.002 A 
ATOM     78  C   UNL A   1      42.481  24.648  26.304  1.00  0.00     0.091 A 
ATOM     79  F   UNL A   1      41.263  24.751  28.354  1.00  0.00    -0.205 F 
ATOM     80  C   UNL A   1      43.192  25.315  25.295  1.00  0.00     0.022 A 
BRANCH  78  81
ATOM     81  S   UNL A   1      42.317  22.866  26.152  1.00  0.00     0.127 S 
ATOM     82  O   UNL A   1      43.187  22.394  27.225  1.00  0.00    -0.237 OA
ATOM     83  O   UNL A   1      40.886  22.673  26.389  1.00  0.00    -0.237 OA
ATOM     84  O   UNL A   1      42.746  22.551  24.796  1.00  0.00    -0.744 OA
ENDBRANCH  78  81
ENDBRANCH  50  74
BRANCH  62  85
ATOM     85  C   UNL A   1      44.479  27.281  34.128  1.00  0.00     0.023 A 
ATOM     86  C   UNL A   1      45.740  27.908  34.154  1.00  0.00     0.012 A 
ATOM     87  C   UNL A   1      44.273  26.109  34.883  1.00  0.00     0.148 A 
ATOM     88  C   UNL A   1      46.787  27.362  34.895  1.00  0.00     0.002 A 
ATOM     89  C   UNL A   1      45.307  25.597  35.657  1.00  0.00     0.091 A 
ATOM     90  F   UNL A   1      43.071  25.517  34.831  1.00  0.00    -0.205 F 
ATOM     91  C   UNL A   1      46.568  26.215  35.657  1.00  0.00     0.022 A 
BRANCH  89  92
ATOM     92  S   UNL A   1      45.087  24.182  36.742  1.00  0.00     0.127 S 
ATOM     93  O   UNL A   1      44.629  23.156  35.806  1.00  0.00    -0.237 OA
ATOM     94  O   UNL A   1      46.438  23.973  37.262  1.00  0.00    -0.237 OA
ATOM     95  O   UNL A   1      44.113  24.595  37.745  1.00  0.00    -0.744 OA
ENDBRANCH  89  92
ENDBRANCH  62  85
ENDBRANCH  36  37
ENDBRANCH  29  31
ENDBRANCH  28  29
ENDBRANCH  27  28
ENDBRANCH   1  27
TORSDOF 21
ENDMDL
