MODEL 1
REMARK VINA RESULT:     -11.5      0.000      0.000
REMARK SMILES C[C@@H](C(=O)OCCOCCOC(=O)c1ccc(-c2c3nc(c(-c4cccc(S(=O)(=O)[O-])c4F)c4ccc([nH]4)c(-c4cccc(S(=O)(=O)[O-])c4F)c4nc(c(-c5cccc(S(=O)(=O)[O-])c5F)c5ccc2[nH]5)C=C4)C=C3)cc1)[N@@H+]1CCc2n[nH]c(C(c3ccccc3)c3ccccc3)c2C1
REMARK SMILES IDX 8 1 7 2 6 3 5 4 3 5 4 6 2 7 1 8 77 9 78 10 98 11 79 13 97 14
REMARK SMILES IDX 80 15 83 16 81 17 82 18 84 20 85 21 86 22 90 23 87 24 89 25
REMARK SMILES IDX 88 26 91 27 92 28 96 29 93 30 95 31 94 32 9 33 10 34 11 35
REMARK SMILES IDX 12 36 13 37 14 38 15 39 76 40 16 41 75 42 17 43 18 44 19 45
REMARK SMILES IDX 69 46 20 47 74 48 68 49 70 50 21 51 73 52 67 53 66 54 22 56
REMARK SMILES IDX 54 57 34 58 53 59 35 60 38 61 52 62 71 63 36 64 37 65 51 67
REMARK SMILES IDX 72 68 39 69 23 70 24 71 32 72 25 73 27 74 33 75 26 76 28 77
REMARK SMILES IDX 29 78 30 79 31 80 55 81 56 82 64 83 57 84 59 85 65 86 58 87
REMARK SMILES IDX 60 88 61 89 62 90 63 91 40 92 41 93 49 94 42 95 44 96 50 97
REMARK SMILES IDX 43 98 45 99 46 100 47 101 48 102
REMARK H PARENT 77 12 82 19 70 55 38 66
REMARK Flexibility Score: inf
ROOT
ATOM      1  O   UNL A   1      39.791  20.518  26.375  1.00  0.00    -0.374 OA
ENDROOT
BRANCH   1   2
ATOM      2  C   UNL A   1      38.773  20.631  25.333  1.00  0.00     0.202 C 
BRANCH   2   3
ATOM      3  C   UNL A   1      37.829  22.029  25.221  1.00  0.00     0.261 C 
BRANCH   3   4
ATOM      4  O   UNL A   1      36.528  21.943  24.538  1.00  0.00    -0.459 OA
BRANCH   4   5
ATOM      5  C   UNL A   1      35.979  22.979  23.828  1.00  0.00     0.364 C 
ATOM      6  O   UNL A   1      36.298  23.235  22.671  1.00  0.00    -0.245 OA
BRANCH   5   7
ATOM      7  C   UNL A   1      34.819  23.752  24.604  1.00  0.00     0.292 C 
ATOM      8  C   UNL A   1      35.190  24.232  26.023  1.00  0.00     0.088 C 
BRANCH   7   9
ATOM      9  N   UNL A   1      33.465  23.115  24.399  1.00  0.00    -0.319 N 
ATOM     10  C   UNL A   1      33.296  22.271  23.197  1.00  0.00     0.269 C 
ATOM     11  C   UNL A   1      32.352  24.092  24.441  1.00  0.00     0.303 C 
ATOM     12  H   UNL A   1      33.426  22.486  25.201  1.00  0.00     0.349 HD
ATOM     13  C   UNL A   1      32.699  23.009  21.959  1.00  0.00     0.120 C 
ATOM     14  C   UNL A   1      32.570  25.138  23.343  1.00  0.00     0.052 A 
ATOM     15  C   UNL A   1      32.863  24.495  22.112  1.00  0.00     0.077 A 
ATOM     16  C   UNL A   1      32.608  26.568  23.046  1.00  0.00     0.056 A 
ATOM     17  N   UNL A   1      33.478  25.324  21.285  1.00  0.00    -0.180 NA
ATOM     18  N   UNL A   1      33.565  26.461  22.027  1.00  0.00    -0.281 N 
ATOM     19  H   UNL A   1      34.245  27.152  21.861  1.00  0.00     0.190 HD
BRANCH  16  20
ATOM     20  C   UNL A   1      31.926  28.184  23.433  1.00  0.00     0.098 C 
BRANCH  20  21
ATOM     21  C   UNL A   1      30.412  28.648  22.949  1.00  0.00    -0.035 A 
ATOM     22  C   UNL A   1      29.267  27.924  23.333  1.00  0.00     0.005 A 
ATOM     23  C   UNL A   1      30.117  29.683  22.037  1.00  0.00     0.005 A 
ATOM     24  C   UNL A   1      27.960  28.419  23.157  1.00  0.00     0.000 A 
ATOM     25  C   UNL A   1      28.819  30.182  21.822  1.00  0.00     0.000 A 
ATOM     26  C   UNL A   1      27.739  29.588  22.446  1.00  0.00     0.000 A 
ENDBRANCH  20  21
BRANCH  20  27
ATOM     27  C   UNL A   1      32.370  29.127  24.584  1.00  0.00    -0.035 A 
ATOM     28  C   UNL A   1      33.614  28.935  25.236  1.00  0.00     0.005 A 
ATOM     29  C   UNL A   1      31.432  29.941  25.235  1.00  0.00     0.005 A 
ATOM     30  C   UNL A   1      33.884  29.455  26.502  1.00  0.00     0.000 A 
ATOM     31  C   UNL A   1      31.715  30.490  26.495  1.00  0.00     0.000 A 
ATOM     32  C   UNL A   1      32.926  30.229  27.136  1.00  0.00     0.000 A 
ENDBRANCH  20  27
ENDBRANCH  16  20
ENDBRANCH   7   9
ENDBRANCH   5   7
ENDBRANCH   4   5
ENDBRANCH   3   4
ENDBRANCH   2   3
ENDBRANCH   1   2
BRANCH   1  33
ATOM     33  C   UNL A   1      40.815  21.499  26.748  1.00  0.00     0.202 C 
BRANCH  33  34
ATOM     34  C   UNL A   1      42.520  21.215  26.493  1.00  0.00     0.261 C 
BRANCH  34  35
ATOM     35  O   UNL A   1      43.565  22.300  26.449  1.00  0.00    -0.460 OA
BRANCH  35  36
ATOM     36  C   UNL A   1      43.730  23.266  25.455  1.00  0.00     0.338 C 
ATOM     37  O   UNL A   1      43.353  23.101  24.298  1.00  0.00    -0.246 OA
BRANCH  36  38
ATOM     38  C   UNL A   1      44.387  24.627  25.926  1.00  0.00     0.060 A 
ATOM     39  C   UNL A   1      44.585  25.643  25.014  1.00  0.00     0.016 A 
ATOM     40  C   UNL A   1      44.889  24.969  27.180  1.00  0.00     0.016 A 
ATOM     41  C   UNL A   1      45.301  26.848  25.159  1.00  0.00     0.010 A 
ATOM     42  C   UNL A   1      45.613  26.218  27.393  1.00  0.00     0.010 A 
ATOM     43  C   UNL A   1      45.891  27.157  26.360  1.00  0.00    -0.014 A 
BRANCH  43  44
ATOM     44  C   UNL A   1      46.928  28.274  26.419  1.00  0.00     0.031 A 
ATOM     45  C   UNL A   1      46.429  29.696  26.573  1.00  0.00     0.074 A 
ATOM     46  C   UNL A   1      48.279  28.127  26.510  1.00  0.00     0.049 A 
ATOM     47  N   UNL A   1      47.031  30.832  26.333  1.00  0.00    -0.248 NA
ATOM     48  C   UNL A   1      45.055  29.845  27.078  1.00  0.00     0.031 C 
ATOM     49  C   UNL A   1      49.019  26.868  26.612  1.00  0.00     0.029 A 
ATOM     50  N   UNL A   1      49.293  29.081  26.542  1.00  0.00    -0.354 N 
ATOM     51  C   UNL A   1      46.063  31.815  26.503  1.00  0.00     0.074 A 
ATOM     52  C   UNL A   1      44.855  31.147  26.935  1.00  0.00     0.031 C 
ATOM     53  C   UNL A   1      50.338  27.121  26.713  1.00  0.00     0.029 A 
ATOM     54  C   UNL A   1      50.571  28.552  26.555  1.00  0.00     0.049 A 
ATOM     55  H   UNL A   1      49.114  30.049  26.554  1.00  0.00     0.167 HD
ATOM     56  C   UNL A   1      46.159  33.150  26.302  1.00  0.00     0.034 A 
ATOM     57  C   UNL A   1      51.789  29.124  26.383  1.00  0.00     0.034 A 
ATOM     58  C   UNL A   1      47.383  33.847  26.016  1.00  0.00     0.049 A 
ATOM     59  C   UNL A   1      51.888  30.605  26.096  1.00  0.00     0.074 A 
ATOM     60  C   UNL A   1      47.570  35.195  25.765  1.00  0.00     0.029 A 
ATOM     61  N   UNL A   1      48.636  33.259  25.987  1.00  0.00    -0.354 N 
ATOM     62  N   UNL A   1      50.944  31.515  26.112  1.00  0.00    -0.248 NA
ATOM     63  C   UNL A   1      53.217  31.137  25.745  1.00  0.00     0.031 C 
ATOM     64  C   UNL A   1      48.937  35.421  25.577  1.00  0.00     0.029 A 
ATOM     65  C   UNL A   1      49.601  34.216  25.727  1.00  0.00     0.049 A 
ATOM     66  H   UNL A   1      48.813  32.301  26.131  1.00  0.00     0.167 HD
ATOM     67  C   UNL A   1      51.566  32.719  25.789  1.00  0.00     0.074 A 
ATOM     68  C   UNL A   1      52.973  32.435  25.614  1.00  0.00     0.031 C 
ATOM     69  C   UNL A   1      51.010  33.944  25.622  1.00  0.00     0.034 A 
BRANCH  56  70
ATOM     70  C   UNL A   1      44.882  33.944  26.329  1.00  0.00     0.023 A 
ATOM     71  C   UNL A   1      44.086  34.074  25.176  1.00  0.00     0.012 A 
ATOM     72  C   UNL A   1      44.467  34.551  27.532  1.00  0.00     0.148 A 
ATOM     73  C   UNL A   1      42.914  34.828  25.212  1.00  0.00     0.002 A 
ATOM     74  C   UNL A   1      43.275  35.262  27.572  1.00  0.00     0.091 A 
ATOM     75  F   UNL A   1      45.255  34.435  28.611  1.00  0.00    -0.205 F 
ATOM     76  C   UNL A   1      42.503  35.413  26.409  1.00  0.00     0.022 A 
BRANCH  74  77
ATOM     77  S   UNL A   1      42.634  35.982  29.086  1.00  0.00     0.127 S 
ATOM     78  O   UNL A   1      41.816  37.077  28.570  1.00  0.00    -0.237 OA
ATOM     79  O   UNL A   1      41.874  34.870  29.659  1.00  0.00    -0.237 OA
ATOM     80  O   UNL A   1      43.799  36.381  29.864  1.00  0.00    -0.744 OA
ENDBRANCH  74  77
ENDBRANCH  56  70
BRANCH  57  81
ATOM     81  C   UNL A   1      53.043  28.293  26.394  1.00  0.00     0.023 A 
ATOM     82  C   UNL A   1      53.550  27.759  25.190  1.00  0.00     0.012 A 
ATOM     83  C   UNL A   1      53.720  28.003  27.596  1.00  0.00     0.148 A 
ATOM     84  C   UNL A   1      54.691  26.950  25.188  1.00  0.00     0.002 A 
ATOM     85  C   UNL A   1      54.896  27.258  27.578  1.00  0.00     0.091 A 
ATOM     86  F   UNL A   1      53.198  28.456  28.745  1.00  0.00    -0.205 F 
ATOM     87  C   UNL A   1      55.374  26.715  26.378  1.00  0.00     0.022 A 
BRANCH  85  88
ATOM     88  S   UNL A   1      55.911  27.045  29.045  1.00  0.00     0.127 S 
ATOM     89  O   UNL A   1      57.007  26.224  28.537  1.00  0.00    -0.237 OA
ATOM     90  O   UNL A   1      56.272  28.426  29.369  1.00  0.00    -0.237 OA
ATOM     91  O   UNL A   1      55.040  26.413  30.027  1.00  0.00    -0.744 OA
ENDBRANCH  85  88
ENDBRANCH  57  81
BRANCH  69  92
ATOM     92  C   UNL A   1      51.916  35.095  25.268  1.00  0.00     0.023 A 
ATOM     93  C   UNL A   1      52.176  35.388  23.916  1.00  0.00     0.012 A 
ATOM     94  C   UNL A   1      52.431  35.942  26.270  1.00  0.00     0.148 A 
ATOM     95  C   UNL A   1      52.954  36.493  23.565  1.00  0.00     0.002 A 
ATOM     96  C   UNL A   1      53.171  37.064  25.913  1.00  0.00     0.091 A 
ATOM     97  F   UNL A   1      52.189  35.635  27.553  1.00  0.00    -0.205 F 
ATOM     98  C   UNL A   1      53.440  37.336  24.562  1.00  0.00     0.022 A 
BRANCH  96  99
ATOM     99  S   UNL A   1      53.757  38.253  27.127  1.00  0.00     0.127 S 
ATOM    100  O   UNL A   1      54.710  37.453  27.892  1.00  0.00    -0.237 OA
ATOM    101  O   UNL A   1      54.364  39.286  26.286  1.00  0.00    -0.237 OA
ATOM    102  O   UNL A   1      52.575  38.692  27.856  1.00  0.00    -0.744 OA
ENDBRANCH  96  99
ENDBRANCH  69  92
ENDBRANCH  43  44
ENDBRANCH  36  38
ENDBRANCH  35  36
ENDBRANCH  34  35
ENDBRANCH  33  34
ENDBRANCH   1  33
TORSDOF 21
ENDMDL
MODEL 2
REMARK VINA RESULT:     -11.0      5.475     10.754
REMARK SMILES C[C@@H](C(=O)OCCOCCOC(=O)c1ccc(-c2c3nc(c(-c4cccc(S(=O)(=O)[O-])c4F)c4ccc([nH]4)c(-c4cccc(S(=O)(=O)[O-])c4F)c4nc(c(-c5cccc(S(=O)(=O)[O-])c5F)c5ccc2[nH]5)C=C4)C=C3)cc1)[N@@H+]1CCc2n[nH]c(C(c3ccccc3)c3ccccc3)c2C1
REMARK SMILES IDX 8 1 7 2 6 3 5 4 3 5 4 6 2 7 1 8 77 9 78 10 98 11 79 13 97 14
REMARK SMILES IDX 80 15 83 16 81 17 82 18 84 20 85 21 86 22 90 23 87 24 89 25
REMARK SMILES IDX 88 26 91 27 92 28 96 29 93 30 95 31 94 32 9 33 10 34 11 35
REMARK SMILES IDX 12 36 13 37 14 38 15 39 76 40 16 41 75 42 17 43 18 44 19 45
REMARK SMILES IDX 69 46 20 47 74 48 68 49 70 50 21 51 73 52 67 53 66 54 22 56
REMARK SMILES IDX 54 57 34 58 53 59 35 60 38 61 52 62 71 63 36 64 37 65 51 67
REMARK SMILES IDX 72 68 39 69 23 70 24 71 32 72 25 73 27 74 33 75 26 76 28 77
REMARK SMILES IDX 29 78 30 79 31 80 55 81 56 82 64 83 57 84 59 85 65 86 58 87
REMARK SMILES IDX 60 88 61 89 62 90 63 91 40 92 41 93 49 94 42 95 44 96 50 97
REMARK SMILES IDX 43 98 45 99 46 100 47 101 48 102
REMARK H PARENT 77 12 82 19 70 55 38 66
REMARK Flexibility Score: inf
ROOT
ATOM      1  O   UNL A   1      36.599  34.172  34.465  1.00  0.00    -0.374 OA
ENDROOT
BRANCH   1   2
ATOM      2  C   UNL A   1      35.213  34.036  34.024  1.00  0.00     0.202 C 
BRANCH   2   3
ATOM      3  C   UNL A   1      34.761  32.734  33.046  1.00  0.00     0.261 C 
BRANCH   3   4
ATOM      4  O   UNL A   1      34.058  33.015  31.783  1.00  0.00    -0.459 OA
BRANCH   4   5
ATOM      5  C   UNL A   1      34.440  34.001  30.911  1.00  0.00     0.364 C 
ATOM      6  O   UNL A   1      33.833  35.061  30.800  1.00  0.00    -0.245 OA
BRANCH   5   7
ATOM      7  C   UNL A   1      35.797  33.686  30.133  1.00  0.00     0.292 C 
ATOM      8  C   UNL A   1      37.049  34.391  30.694  1.00  0.00     0.088 C 
BRANCH   7   9
ATOM      9  N   UNL A   1      35.608  33.655  28.635  1.00  0.00    -0.319 N 
ATOM     10  C   UNL A   1      34.296  33.192  28.134  1.00  0.00     0.269 C 
ATOM     11  C   UNL A   1      36.668  32.894  27.932  1.00  0.00     0.303 C 
ATOM     12  H   UNL A   1      35.667  34.649  28.414  1.00  0.00     0.349 HD
ATOM     13  C   UNL A   1      34.231  31.673  27.779  1.00  0.00     0.120 C 
ATOM     14  C   UNL A   1      36.672  31.454  28.454  1.00  0.00     0.052 A 
ATOM     15  C   UNL A   1      35.351  30.934  28.454  1.00  0.00     0.077 A 
ATOM     16  C   UNL A   1      37.508  30.374  28.973  1.00  0.00     0.056 A 
ATOM     17  N   UNL A   1      35.252  29.909  29.285  1.00  0.00    -0.180 NA
ATOM     18  N   UNL A   1      36.510  29.823  29.790  1.00  0.00    -0.281 N 
ATOM     19  H   UNL A   1      36.706  29.407  30.661  1.00  0.00     0.190 HD
BRANCH  16  20
ATOM     20  C   UNL A   1      39.119  29.581  28.911  1.00  0.00     0.098 C 
BRANCH  20  21
ATOM     21  C   UNL A   1      40.065  29.390  30.255  1.00  0.00    -0.035 A 
ATOM     22  C   UNL A   1      39.598  28.694  31.387  1.00  0.00     0.005 A 
ATOM     23  C   UNL A   1      41.328  29.983  30.468  1.00  0.00     0.005 A 
ATOM     24  C   UNL A   1      40.448  28.295  32.439  1.00  0.00     0.000 A 
ATOM     25  C   UNL A   1      42.187  29.623  31.523  1.00  0.00     0.000 A 
ATOM     26  C   UNL A   1      41.767  28.715  32.476  1.00  0.00     0.000 A 
ENDBRANCH  20  21
BRANCH  20  27
ATOM     27  C   UNL A   1      39.627  28.597  27.823  1.00  0.00    -0.035 A 
ATOM     28  C   UNL A   1      39.524  27.196  28.011  1.00  0.00     0.005 A 
ATOM     29  C   UNL A   1      40.504  29.039  26.821  1.00  0.00     0.005 A 
ATOM     30  C   UNL A   1      40.306  26.285  27.301  1.00  0.00     0.000 A 
ATOM     31  C   UNL A   1      41.268  28.121  26.085  1.00  0.00     0.000 A 
ATOM     32  C   UNL A   1      41.187  26.752  26.340  1.00  0.00     0.000 A 
ENDBRANCH  20  27
ENDBRANCH  16  20
ENDBRANCH   7   9
ENDBRANCH   5   7
ENDBRANCH   4   5
ENDBRANCH   3   4
ENDBRANCH   2   3
ENDBRANCH   1   2
BRANCH   1  33
ATOM     33  C   UNL A   1      37.285  33.434  35.531  1.00  0.00     0.202 C 
BRANCH  33  34
ATOM     34  C   UNL A   1      38.078  31.903  35.250  1.00  0.00     0.261 C 
BRANCH  34  35
ATOM     35  O   UNL A   1      39.083  31.655  34.156  1.00  0.00    -0.460 OA
BRANCH  35  36
ATOM     36  C   UNL A   1      38.934  31.944  32.799  1.00  0.00     0.338 C 
ATOM     37  O   UNL A   1      37.968  31.566  32.141  1.00  0.00    -0.246 OA
BRANCH  36  38
ATOM     38  C   UNL A   1      40.069  32.846  32.163  1.00  0.00     0.060 A 
ATOM     39  C   UNL A   1      39.973  33.237  30.844  1.00  0.00     0.016 A 
ATOM     40  C   UNL A   1      41.258  33.290  32.737  1.00  0.00     0.016 A 
ATOM     41  C   UNL A   1      40.930  33.875  30.029  1.00  0.00     0.010 A 
ATOM     42  C   UNL A   1      42.271  33.982  31.946  1.00  0.00     0.010 A 
ATOM     43  C   UNL A   1      42.149  34.230  30.549  1.00  0.00    -0.014 A 
BRANCH  43  44
ATOM     44  C   UNL A   1      43.286  34.606  29.604  1.00  0.00     0.031 A 
ATOM     45  C   UNL A   1      44.142  33.488  29.045  1.00  0.00     0.074 A 
ATOM     46  C   UNL A   1      43.527  35.835  29.069  1.00  0.00     0.049 A 
ATOM     47  N   UNL A   1      45.331  33.528  28.502  1.00  0.00    -0.248 NA
ATOM     48  C   UNL A   1      43.560  32.139  29.107  1.00  0.00     0.031 C 
ATOM     49  C   UNL A   1      42.723  37.045  29.254  1.00  0.00     0.029 A 
ATOM     50  N   UNL A   1      44.545  36.271  28.226  1.00  0.00    -0.354 N 
ATOM     51  C   UNL A   1      45.700  32.201  28.307  1.00  0.00     0.074 A 
ATOM     52  C   UNL A   1      44.581  31.386  28.725  1.00  0.00     0.031 C 
ATOM     53  C   UNL A   1      43.255  38.059  28.547  1.00  0.00     0.029 A 
ATOM     54  C   UNL A   1      44.515  37.627  27.951  1.00  0.00     0.049 A 
ATOM     55  H   UNL A   1      45.229  35.666  27.858  1.00  0.00     0.167 HD
ATOM     56  C   UNL A   1      46.869  31.701  27.843  1.00  0.00     0.034 A 
ATOM     57  C   UNL A   1      45.417  38.452  27.363  1.00  0.00     0.034 A 
ATOM     58  C   UNL A   1      47.933  32.492  27.289  1.00  0.00     0.049 A 
ATOM     59  C   UNL A   1      46.747  37.901  26.901  1.00  0.00     0.074 A 
ATOM     60  C   UNL A   1      49.167  32.073  26.822  1.00  0.00     0.029 A 
ATOM     61  N   UNL A   1      47.873  33.860  27.084  1.00  0.00    -0.354 N 
ATOM     62  N   UNL A   1      47.154  36.656  26.854  1.00  0.00    -0.248 NA
ATOM     63  C   UNL A   1      47.753  38.871  26.431  1.00  0.00     0.031 C 
ATOM     64  C   UNL A   1      49.857  33.191  26.342  1.00  0.00     0.029 A 
ATOM     65  C   UNL A   1      49.045  34.301  26.494  1.00  0.00     0.049 A 
ATOM     66  H   UNL A   1      47.109  34.433  27.322  1.00  0.00     0.167 HD
ATOM     67  C   UNL A   1      48.449  36.694  26.340  1.00  0.00     0.074 A 
ATOM     68  C   UNL A   1      48.751  38.080  26.059  1.00  0.00     0.031 C 
ATOM     69  C   UNL A   1      49.318  35.672  26.150  1.00  0.00     0.034 A 
BRANCH  56  70
ATOM     70  C   UNL A   1      47.081  30.218  27.967  1.00  0.00     0.023 A 
ATOM     71  C   UNL A   1      47.599  29.658  29.150  1.00  0.00     0.012 A 
ATOM     72  C   UNL A   1      46.739  29.374  26.891  1.00  0.00     0.148 A 
ATOM     73  C   UNL A   1      47.807  28.282  29.244  1.00  0.00     0.002 A 
ATOM     74  C   UNL A   1      46.905  28.001  27.009  1.00  0.00     0.091 A 
ATOM     75  F   UNL A   1      46.272  29.933  25.764  1.00  0.00    -0.205 F 
ATOM     76  C   UNL A   1      47.451  27.453  28.181  1.00  0.00     0.022 A 
BRANCH  74  77
ATOM     77  S   UNL A   1      46.405  26.856  25.720  1.00  0.00     0.127 S 
ATOM     78  O   UNL A   1      46.763  25.569  26.312  1.00  0.00    -0.237 OA
ATOM     79  O   UNL A   1      44.966  27.106  25.627  1.00  0.00    -0.237 OA
ATOM     80  O   UNL A   1      47.161  27.234  24.533  1.00  0.00    -0.744 OA
ENDBRANCH  74  77
ENDBRANCH  56  70
BRANCH  57  81
ATOM     81  C   UNL A   1      45.148  39.926  27.232  1.00  0.00     0.023 A 
ATOM     82  C   UNL A   1      44.537  40.435  26.066  1.00  0.00     0.012 A 
ATOM     83  C   UNL A   1      45.522  40.832  28.246  1.00  0.00     0.148 A 
ATOM     84  C   UNL A   1      44.318  41.807  25.911  1.00  0.00     0.002 A 
ATOM     85  C   UNL A   1      45.234  42.188  28.116  1.00  0.00     0.091 A 
ATOM     86  F   UNL A   1      46.161  40.354  29.322  1.00  0.00    -0.205 F 
ATOM     87  C   UNL A   1      44.649  42.682  26.942  1.00  0.00     0.022 A 
BRANCH  85  88
ATOM     88  S   UNL A   1      45.489  43.349  29.465  1.00  0.00     0.127 S 
ATOM     89  O   UNL A   1      44.838  44.552  28.954  1.00  0.00    -0.237 OA
ATOM     90  O   UNL A   1      44.791  42.690  30.570  1.00  0.00    -0.237 OA
ATOM     91  O   UNL A   1      46.934  43.427  29.636  1.00  0.00    -0.744 OA
ENDBRANCH  85  88
ENDBRANCH  57  81
BRANCH  69  92
ATOM     92  C   UNL A   1      50.674  35.987  25.575  1.00  0.00     0.023 A 
ATOM     93  C   UNL A   1      50.863  35.962  24.179  1.00  0.00     0.012 A 
ATOM     94  C   UNL A   1      51.734  36.401  26.407  1.00  0.00     0.148 A 
ATOM     95  C   UNL A   1      52.091  36.321  23.622  1.00  0.00     0.002 A 
ATOM     96  C   UNL A   1      52.941  36.797  25.843  1.00  0.00     0.091 A 
ATOM     97  F   UNL A   1      51.541  36.399  27.734  1.00  0.00    -0.205 F 
ATOM     98  C   UNL A   1      53.125  36.750  24.452  1.00  0.00     0.022 A 
BRANCH  96  99
ATOM     99  S   UNL A   1      54.294  37.448  26.832  1.00  0.00     0.127 S 
ATOM    100  O   UNL A   1      53.649  38.565  27.521  1.00  0.00    -0.237 OA
ATOM    101  O   UNL A   1      54.630  36.313  27.692  1.00  0.00    -0.237 OA
ATOM    102  O   UNL A   1      55.339  37.813  25.885  1.00  0.00    -0.744 OA
ENDBRANCH  96  99
ENDBRANCH  69  92
ENDBRANCH  43  44
ENDBRANCH  36  38
ENDBRANCH  35  36
ENDBRANCH  34  35
ENDBRANCH  33  34
ENDBRANCH   1  33
TORSDOF 21
ENDMDL
MODEL 3
REMARK VINA RESULT:     -11.0     11.592     17.007
REMARK SMILES C[C@@H](C(=O)OCCOCCOC(=O)c1ccc(-c2c3nc(c(-c4cccc(S(=O)(=O)[O-])c4F)c4ccc([nH]4)c(-c4cccc(S(=O)(=O)[O-])c4F)c4nc(c(-c5cccc(S(=O)(=O)[O-])c5F)c5ccc2[nH]5)C=C4)C=C3)cc1)[N@@H+]1CCc2n[nH]c(C(c3ccccc3)c3ccccc3)c2C1
REMARK SMILES IDX 8 1 7 2 6 3 5 4 3 5 4 6 2 7 1 8 77 9 78 10 98 11 79 13 97 14
REMARK SMILES IDX 80 15 83 16 81 17 82 18 84 20 85 21 86 22 90 23 87 24 89 25
REMARK SMILES IDX 88 26 91 27 92 28 96 29 93 30 95 31 94 32 9 33 10 34 11 35
REMARK SMILES IDX 12 36 13 37 14 38 15 39 76 40 16 41 75 42 17 43 18 44 19 45
REMARK SMILES IDX 69 46 20 47 74 48 68 49 70 50 21 51 73 52 67 53 66 54 22 56
REMARK SMILES IDX 54 57 34 58 53 59 35 60 38 61 52 62 71 63 36 64 37 65 51 67
REMARK SMILES IDX 72 68 39 69 23 70 24 71 32 72 25 73 27 74 33 75 26 76 28 77
REMARK SMILES IDX 29 78 30 79 31 80 55 81 56 82 64 83 57 84 59 85 65 86 58 87
REMARK SMILES IDX 60 88 61 89 62 90 63 91 40 92 41 93 49 94 42 95 44 96 50 97
REMARK SMILES IDX 43 98 45 99 46 100 47 101 48 102
REMARK H PARENT 77 12 82 19 70 55 38 66
REMARK Flexibility Score: inf
ROOT
ATOM      1  O   UNL A   1      46.218  20.068  38.530  1.00  0.00    -0.374 OA
ENDROOT
BRANCH   1   2
ATOM      2  C   UNL A   1      46.518  21.140  39.475  1.00  0.00     0.202 C 
BRANCH   2   3
ATOM      3  C   UNL A   1      45.328  21.678  40.549  1.00  0.00     0.261 C 
BRANCH   3   4
ATOM      4  O   UNL A   1      45.362  21.187  41.937  1.00  0.00    -0.459 OA
BRANCH   4   5
ATOM      5  C   UNL A   1      44.549  20.188  42.404  1.00  0.00     0.364 C 
ATOM      6  O   UNL A   1      43.509  19.860  41.842  1.00  0.00    -0.245 OA
BRANCH   5   7
ATOM      7  C   UNL A   1      45.128  19.428  43.682  1.00  0.00     0.292 C 
ATOM      8  C   UNL A   1      45.151  20.259  44.982  1.00  0.00     0.088 C 
BRANCH   7   9
ATOM      9  N   UNL A   1      46.339  18.587  43.352  1.00  0.00    -0.319 N 
ATOM     10  C   UNL A   1      46.675  18.428  41.922  1.00  0.00     0.269 C 
ATOM     11  C   UNL A   1      46.298  17.243  43.974  1.00  0.00     0.303 C 
ATOM     12  H   UNL A   1      47.082  19.153  43.762  1.00  0.00     0.349 HD
ATOM     13  C   UNL A   1      46.090  17.144  41.253  1.00  0.00     0.120 C 
ATOM     14  C   UNL A   1      45.046  16.509  43.482  1.00  0.00     0.052 A 
ATOM     15  C   UNL A   1      44.949  16.607  42.069  1.00  0.00     0.077 A 
ATOM     16  C   UNL A   1      43.877  15.735  43.892  1.00  0.00     0.056 A 
ATOM     17  N   UNL A   1      43.707  16.393  41.669  1.00  0.00    -0.180 NA
ATOM     18  N   UNL A   1      43.057  16.178  42.844  1.00  0.00    -0.281 N 
ATOM     19  H   UNL A   1      42.089  16.322  42.950  1.00  0.00     0.190 HD
BRANCH  16  20
ATOM     20  C   UNL A   1      43.219  14.547  45.069  1.00  0.00     0.098 C 
BRANCH  20  21
ATOM     21  C   UNL A   1      42.757  13.021  44.625  1.00  0.00    -0.035 A 
ATOM     22  C   UNL A   1      41.582  12.799  43.881  1.00  0.00     0.005 A 
ATOM     23  C   UNL A   1      43.376  11.820  45.030  1.00  0.00     0.005 A 
ATOM     24  C   UNL A   1      41.290  11.561  43.274  1.00  0.00     0.000 A 
ATOM     25  C   UNL A   1      43.087  10.566  44.459  1.00  0.00     0.000 A 
ATOM     26  C   UNL A   1      42.082  10.452  43.518  1.00  0.00     0.000 A 
ENDBRANCH  20  21
BRANCH  20  27
ATOM     27  C   UNL A   1      43.420  14.558  46.608  1.00  0.00    -0.035 A 
ATOM     28  C   UNL A   1      44.707  14.362  47.170  1.00  0.00     0.005 A 
ATOM     29  C   UNL A   1      42.323  14.401  47.468  1.00  0.00     0.005 A 
ATOM     30  C   UNL A   1      44.893  13.955  48.492  1.00  0.00     0.000 A 
ATOM     31  C   UNL A   1      42.512  14.021  48.805  1.00  0.00     0.000 A 
ATOM     32  C   UNL A   1      43.789  13.776  49.308  1.00  0.00     0.000 A 
ENDBRANCH  20  27
ENDBRANCH  16  20
ENDBRANCH   7   9
ENDBRANCH   5   7
ENDBRANCH   4   5
ENDBRANCH   3   4
ENDBRANCH   2   3
ENDBRANCH   1   2
BRANCH   1  33
ATOM     33  C   UNL A   1      46.915  19.743  37.280  1.00  0.00     0.202 C 
BRANCH  33  34
ATOM     34  C   UNL A   1      46.478  20.464  35.750  1.00  0.00     0.261 C 
BRANCH  34  35
ATOM     35  O   UNL A   1      45.265  21.331  35.535  1.00  0.00    -0.460 OA
BRANCH  35  36
ATOM     36  C   UNL A   1      45.127  22.679  35.871  1.00  0.00     0.338 C 
ATOM     37  O   UNL A   1      45.180  23.084  37.030  1.00  0.00    -0.246 OA
BRANCH  36  38
ATOM     38  C   UNL A   1      44.953  23.674  34.653  1.00  0.00     0.060 A 
ATOM     39  C   UNL A   1      45.562  24.911  34.687  1.00  0.00     0.016 A 
ATOM     40  C   UNL A   1      44.184  23.521  33.501  1.00  0.00     0.016 A 
ATOM     41  C   UNL A   1      45.404  26.010  33.819  1.00  0.00     0.010 A 
ATOM     42  C   UNL A   1      44.011  24.617  32.553  1.00  0.00     0.010 A 
ATOM     43  C   UNL A   1      44.571  25.913  32.732  1.00  0.00    -0.014 A 
BRANCH  43  44
ATOM     44  C   UNL A   1      44.147  27.183  31.999  1.00  0.00     0.031 A 
ATOM     45  C   UNL A   1      44.888  27.547  30.730  1.00  0.00     0.074 A 
ATOM     46  C   UNL A   1      43.058  27.954  32.270  1.00  0.00     0.049 A 
ATOM     47  N   UNL A   1      44.967  28.690  30.098  1.00  0.00    -0.248 NA
ATOM     48  C   UNL A   1      45.638  26.459  30.085  1.00  0.00     0.031 C 
ATOM     49  C   UNL A   1      42.040  27.707  33.293  1.00  0.00     0.029 A 
ATOM     50  N   UNL A   1      42.613  29.131  31.675  1.00  0.00    -0.354 N 
ATOM     51  C   UNL A   1      45.896  28.496  29.082  1.00  0.00     0.074 A 
ATOM     52  C   UNL A   1      46.299  27.108  29.139  1.00  0.00     0.031 C 
ATOM     53  C   UNL A   1      41.101  28.670  33.245  1.00  0.00     0.029 A 
ATOM     54  C   UNL A   1      41.497  29.686  32.277  1.00  0.00     0.049 A 
ATOM     55  H   UNL A   1      43.056  29.535  30.894  1.00  0.00     0.167 HD
ATOM     56  C   UNL A   1      46.387  29.391  28.193  1.00  0.00     0.034 A 
ATOM     57  C   UNL A   1      40.900  30.896  32.135  1.00  0.00     0.034 A 
ATOM     58  C   UNL A   1      45.894  30.730  28.027  1.00  0.00     0.049 A 
ATOM     59  C   UNL A   1      41.488  31.916  31.187  1.00  0.00     0.074 A 
ATOM     60  C   UNL A   1      46.353  31.719  27.172  1.00  0.00     0.029 A 
ATOM     61  N   UNL A   1      44.803  31.258  28.696  1.00  0.00    -0.354 N 
ATOM     62  N   UNL A   1      42.467  31.777  30.327  1.00  0.00    -0.248 NA
ATOM     63  C   UNL A   1      40.903  33.269  31.204  1.00  0.00     0.031 C 
ATOM     64  C   UNL A   1      45.542  32.847  27.331  1.00  0.00     0.029 A 
ATOM     65  C   UNL A   1      44.569  32.553  28.272  1.00  0.00     0.049 A 
ATOM     66  H   UNL A   1      44.272  30.780  29.373  1.00  0.00     0.167 HD
ATOM     67  C   UNL A   1      42.604  33.012  29.697  1.00  0.00     0.074 A 
ATOM     68  C   UNL A   1      41.588  33.881  30.247  1.00  0.00     0.031 C 
ATOM     69  C   UNL A   1      43.514  33.396  28.769  1.00  0.00     0.034 A 
BRANCH  56  70
ATOM     70  C   UNL A   1      47.565  28.962  27.363  1.00  0.00     0.023 A 
ATOM     71  C   UNL A   1      48.881  29.139  27.828  1.00  0.00     0.012 A 
ATOM     72  C   UNL A   1      47.347  28.355  26.109  1.00  0.00     0.148 A 
ATOM     73  C   UNL A   1      49.964  28.752  27.039  1.00  0.00     0.002 A 
ATOM     74  C   UNL A   1      48.428  27.930  25.350  1.00  0.00     0.091 A 
ATOM     75  F   UNL A   1      46.084  28.219  25.676  1.00  0.00    -0.205 F 
ATOM     76  C   UNL A   1      49.739  28.139  25.807  1.00  0.00     0.022 A 
BRANCH  74  77
ATOM     77  S   UNL A   1      48.228  27.066  23.789  1.00  0.00     0.127 S 
ATOM     78  O   UNL A   1      49.616  26.793  23.422  1.00  0.00    -0.237 OA
ATOM     79  O   UNL A   1      47.459  25.886  24.186  1.00  0.00    -0.237 OA
ATOM     80  O   UNL A   1      47.515  27.983  22.911  1.00  0.00    -0.744 OA
ENDBRANCH  74  77
ENDBRANCH  56  70
BRANCH  57  81
ATOM     81  C   UNL A   1      39.704  31.270  32.967  1.00  0.00     0.023 A 
ATOM     82  C   UNL A   1      38.401  31.094  32.454  1.00  0.00     0.012 A 
ATOM     83  C   UNL A   1      39.851  31.830  34.253  1.00  0.00     0.148 A 
ATOM     84  C   UNL A   1      37.279  31.475  33.197  1.00  0.00     0.002 A 
ATOM     85  C   UNL A   1      38.728  32.139  35.016  1.00  0.00     0.091 A 
ATOM     86  F   UNL A   1      41.090  32.058  34.709  1.00  0.00    -0.205 F 
ATOM     87  C   UNL A   1      37.441  31.981  34.485  1.00  0.00     0.022 A 
BRANCH  85  88
ATOM     88  S   UNL A   1      38.857  32.648  36.735  1.00  0.00     0.127 S 
ATOM     89  O   UNL A   1      37.503  32.401  37.225  1.00  0.00    -0.237 OA
ATOM     90  O   UNL A   1      39.876  31.731  37.248  1.00  0.00    -0.237 OA
ATOM     91  O   UNL A   1      39.277  34.042  36.694  1.00  0.00    -0.744 OA
ENDBRANCH  85  88
ENDBRANCH  57  81
BRANCH  69  92
ATOM     92  C   UNL A   1      43.444  34.807  28.244  1.00  0.00     0.023 A 
ATOM     93  C   UNL A   1      42.745  35.074  27.051  1.00  0.00     0.012 A 
ATOM     94  C   UNL A   1      43.988  35.879  28.980  1.00  0.00     0.148 A 
ATOM     95  C   UNL A   1      42.607  36.382  26.586  1.00  0.00     0.002 A 
ATOM     96  C   UNL A   1      43.812  37.183  28.533  1.00  0.00     0.091 A 
ATOM     97  F   UNL A   1      44.668  35.602  30.102  1.00  0.00    -0.205 F 
ATOM     98  C   UNL A   1      43.129  37.437  27.333  1.00  0.00     0.022 A 
BRANCH  96  99
ATOM     99  S   UNL A   1      44.372  38.605  29.479  1.00  0.00     0.127 S 
ATOM    100  O   UNL A   1      45.799  38.630  29.165  1.00  0.00    -0.237 OA
ATOM    101  O   UNL A   1      43.599  39.699  28.889  1.00  0.00    -0.237 OA
ATOM    102  O   UNL A   1      44.039  38.316  30.867  1.00  0.00    -0.744 OA
ENDBRANCH  96  99
ENDBRANCH  69  92
ENDBRANCH  43  44
ENDBRANCH  36  38
ENDBRANCH  35  36
ENDBRANCH  34  35
ENDBRANCH  33  34
ENDBRANCH   1  33
TORSDOF 21
ENDMDL
