MODEL 1
REMARK VINA RESULT:     -11.6      0.000      0.000
REMARK SMILES CN1C(=O)/C(=N\Nc2cccc(C(=O)OCCOCCOC(=O)c3ccc(-c4c5nc(c(-c6cccc(S(=O)(=O)[O-])c6F)c6ccc([nH]6)c(-c6cccc(S(=O)(=O)[O-])c6F)c6nc(c(-c7cccc(S(=O)(=O)[O-])c7F)c7ccc4[nH]7)C=C6)C=C5)cc3)c2)c2ccccc21
REMARK SMILES IDX 19 1 18 2 17 3 16 4 15 5 13 6 14 7 12 8 8 9 9 10 87 11 10 12
REMARK SMILES IDX 11 13 7 14 6 16 1 17 2 18 3 19 93 20 4 21 5 22 88 23 92 24
REMARK SMILES IDX 89 25 91 26 90 27 20 28 21 29 22 30 23 31 24 32 25 33 86 34
REMARK SMILES IDX 26 35 85 36 27 37 28 38 29 39 79 40 30 41 84 42 78 43 80 44
REMARK SMILES IDX 31 45 83 46 77 47 76 48 32 50 64 51 44 52 63 53 45 54 48 55
REMARK SMILES IDX 62 56 81 57 46 58 47 59 61 61 82 62 49 63 33 64 34 65 42 66
REMARK SMILES IDX 35 67 37 68 43 69 36 70 38 71 39 72 40 73 41 74 65 75 66 76
REMARK SMILES IDX 74 77 67 78 69 79 75 80 68 81 70 82 71 83 72 84 73 85 50 86
REMARK SMILES IDX 51 87 59 88 52 89 54 90 60 91 53 92 55 93 56 94 57 95 58 96
REMARK H PARENT 7 15 80 49 48 60
REMARK Flexibility Score: inf
ROOT
ATOM      1  C   UNL A   1      32.862  31.740  27.515  1.00  0.00     0.202 C 
ENDROOT
BRANCH   1   2
ATOM      2  O   UNL A   1      34.167  31.260  27.183  1.00  0.00    -0.374 OA
BRANCH   2   3
ATOM      3  C   UNL A   1      34.519  30.003  27.773  1.00  0.00     0.202 C 
BRANCH   3   4
ATOM      4  C   UNL A   1      34.616  28.875  26.742  1.00  0.00     0.261 C 
BRANCH   4   5
ATOM      5  O   UNL A   1      33.591  29.042  25.744  1.00  0.00    -0.460 OA
BRANCH   5   6
ATOM      6  C   UNL A   1      32.457  28.326  25.929  1.00  0.00     0.338 C 
ATOM      7  O   UNL A   1      31.812  28.239  26.962  1.00  0.00    -0.246 OA
BRANCH   6   8
ATOM      8  C   UNL A   1      32.012  27.727  24.644  1.00  0.00     0.062 A 
ATOM      9  C   UNL A   1      32.403  26.374  22.657  1.00  0.00     0.057 A 
ATOM     10  C   UNL A   1      31.034  26.487  22.356  1.00  0.00     0.028 A 
ATOM     11  C   UNL A   1      32.891  27.060  23.777  1.00  0.00     0.043 A 
ATOM     12  C   UNL A   1      30.167  27.216  23.172  1.00  0.00     0.003 A 
ATOM     13  C   UNL A   1      30.651  27.812  24.330  1.00  0.00     0.016 A 
BRANCH   9  14
ATOM     14  N   UNL A   1      33.158  25.438  21.917  1.00  0.00    -0.278 N 
ATOM     15  H   UNL A   1      32.913  25.316  20.971  1.00  0.00     0.190 HD
BRANCH  14  16
ATOM     16  N   UNL A   1      34.187  24.694  22.384  1.00  0.00    -0.169 NA
ATOM     17  C   UNL A   1      32.078  21.281  25.215  1.00  0.00     0.153 C 
ATOM     18  N   UNL A   1      33.010  21.988  24.382  1.00  0.00    -0.309 N 
ATOM     19  C   UNL A   1      32.657  22.841  23.347  1.00  0.00     0.279 C 
ATOM     20  C   UNL A   1      34.405  21.891  24.491  1.00  0.00     0.053 A 
ATOM     21  O   UNL A   1      31.574  22.985  22.832  1.00  0.00    -0.267 OA
ATOM     22  C   UNL A   1      33.974  23.560  22.981  1.00  0.00     0.158 C 
ATOM     23  C   UNL A   1      35.033  22.771  23.609  1.00  0.00     0.031 A 
ATOM     24  C   UNL A   1      35.148  21.049  25.295  1.00  0.00     0.027 A 
ATOM     25  C   UNL A   1      36.405  22.841  23.471  1.00  0.00     0.013 A 
ATOM     26  C   UNL A   1      36.540  21.089  25.162  1.00  0.00     0.002 A 
ATOM     27  C   UNL A   1      37.162  21.968  24.255  1.00  0.00     0.001 A 
ENDBRANCH  14  16
ENDBRANCH   9  14
ENDBRANCH   6   8
ENDBRANCH   5   6
ENDBRANCH   4   5
ENDBRANCH   3   4
ENDBRANCH   2   3
ENDBRANCH   1   2
BRANCH   1  28
ATOM     28  C   UNL A   1      32.740  33.259  27.387  1.00  0.00     0.261 C 
BRANCH  28  29
ATOM     29  O   UNL A   1      32.474  33.833  28.678  1.00  0.00    -0.460 OA
BRANCH  29  30
ATOM     30  C   UNL A   1      33.454  34.625  29.171  1.00  0.00     0.338 C 
ATOM     31  O   UNL A   1      33.357  35.803  29.473  1.00  0.00    -0.246 OA
BRANCH  30  32
ATOM     32  C   UNL A   1      34.676  33.825  29.424  1.00  0.00     0.060 A 
ATOM     33  C   UNL A   1      34.595  32.824  30.401  1.00  0.00     0.016 A 
ATOM     34  C   UNL A   1      35.880  34.041  28.742  1.00  0.00     0.016 A 
ATOM     35  C   UNL A   1      35.722  32.076  30.732  1.00  0.00     0.010 A 
ATOM     36  C   UNL A   1      37.014  33.290  29.078  1.00  0.00     0.010 A 
ATOM     37  C   UNL A   1      36.945  32.329  30.098  1.00  0.00    -0.014 A 
BRANCH  37  38
ATOM     38  C   UNL A   1      38.163  31.664  30.610  1.00  0.00     0.031 A 
ATOM     39  C   UNL A   1      38.661  32.017  31.982  1.00  0.00     0.074 A 
ATOM     40  C   UNL A   1      38.789  30.720  29.887  1.00  0.00     0.049 A 
ATOM     41  N   UNL A   1      39.580  31.426  32.701  1.00  0.00    -0.248 NA
ATOM     42  C   UNL A   1      38.034  33.178  32.635  1.00  0.00     0.031 C 
ATOM     43  C   UNL A   1      38.421  30.308  28.535  1.00  0.00     0.029 A 
ATOM     44  N   UNL A   1      39.871  29.936  30.199  1.00  0.00    -0.354 N 
ATOM     45  C   UNL A   1      39.627  32.128  33.897  1.00  0.00     0.074 A 
ATOM     46  C   UNL A   1      38.673  33.211  33.796  1.00  0.00     0.031 C 
ATOM     47  C   UNL A   1      39.270  29.348  28.128  1.00  0.00     0.029 A 
ATOM     48  C   UNL A   1      40.233  29.072  29.195  1.00  0.00     0.049 A 
ATOM     49  H   UNL A   1      40.344  29.987  31.061  1.00  0.00     0.167 HD
ATOM     50  C   UNL A   1      40.370  31.869  34.997  1.00  0.00     0.034 A 
ATOM     51  C   UNL A   1      41.217  28.151  29.149  1.00  0.00     0.034 A 
ATOM     52  C   UNL A   1      41.305  30.785  35.107  1.00  0.00     0.049 A 
ATOM     53  C   UNL A   1      42.068  27.918  30.369  1.00  0.00     0.074 A 
ATOM     54  C   UNL A   1      42.035  30.382  36.212  1.00  0.00     0.029 A 
ATOM     55  N   UNL A   1      41.657  29.944  34.065  1.00  0.00    -0.354 N 
ATOM     56  N   UNL A   1      41.961  28.451  31.563  1.00  0.00    -0.248 NA
ATOM     57  C   UNL A   1      43.154  26.933  30.247  1.00  0.00     0.031 C 
ATOM     58  C   UNL A   1      42.837  29.299  35.831  1.00  0.00     0.029 A 
ATOM     59  C   UNL A   1      42.615  29.040  34.488  1.00  0.00     0.049 A 
ATOM     60  H   UNL A   1      41.280  29.983  33.156  1.00  0.00     0.167 HD
ATOM     61  C   UNL A   1      42.942  27.847  32.340  1.00  0.00     0.074 A 
ATOM     62  C   UNL A   1      43.628  26.899  31.487  1.00  0.00     0.031 C 
ATOM     63  C   UNL A   1      43.256  28.067  33.642  1.00  0.00     0.034 A 
BRANCH  50  64
ATOM     64  C   UNL A   1      40.128  32.732  36.200  1.00  0.00     0.023 A 
ATOM     65  C   UNL A   1      40.886  33.910  36.349  1.00  0.00     0.012 A 
ATOM     66  C   UNL A   1      39.158  32.403  37.163  1.00  0.00     0.148 A 
ATOM     67  C   UNL A   1      40.688  34.746  37.447  1.00  0.00     0.002 A 
ATOM     68  C   UNL A   1      38.956  33.251  38.247  1.00  0.00     0.091 A 
ATOM     69  F   UNL A   1      38.475  31.258  37.029  1.00  0.00    -0.205 F 
ATOM     70  C   UNL A   1      39.718  34.421  38.392  1.00  0.00     0.022 A 
BRANCH  68  71
ATOM     71  S   UNL A   1      37.699  32.884  39.475  1.00  0.00     0.127 S 
ATOM     72  O   UNL A   1      36.491  32.806  38.658  1.00  0.00    -0.237 OA
ATOM     73  O   UNL A   1      38.142  31.601  40.026  1.00  0.00    -0.237 OA
ATOM     74  O   UNL A   1      37.771  33.992  40.419  1.00  0.00    -0.744 OA
ENDBRANCH  68  71
ENDBRANCH  50  64
BRANCH  51  75
ATOM     75  C   UNL A   1      41.388  27.323  27.925  1.00  0.00     0.023 A 
ATOM     76  C   UNL A   1      41.985  27.894  26.785  1.00  0.00     0.012 A 
ATOM     77  C   UNL A   1      41.015  25.966  27.901  1.00  0.00     0.148 A 
ATOM     78  C   UNL A   1      42.199  27.130  25.638  1.00  0.00     0.002 A 
ATOM     79  C   UNL A   1      41.274  25.197  26.772  1.00  0.00     0.091 A 
ATOM     80  F   UNL A   1      40.427  25.449  28.989  1.00  0.00    -0.205 F 
ATOM     81  C   UNL A   1      41.856  25.780  25.635  1.00  0.00     0.022 A 
BRANCH  79  82
ATOM     82  S   UNL A   1      40.986  23.425  26.735  1.00  0.00     0.127 S 
ATOM     83  O   UNL A   1      41.419  23.019  28.067  1.00  0.00    -0.237 OA
ATOM     84  O   UNL A   1      39.543  23.356  26.502  1.00  0.00    -0.237 OA
ATOM     85  O   UNL A   1      41.785  22.920  25.625  1.00  0.00    -0.744 OA
ENDBRANCH  79  82
ENDBRANCH  51  75
BRANCH  63  86
ATOM     86  C   UNL A   1      44.398  27.286  34.227  1.00  0.00     0.023 A 
ATOM     87  C   UNL A   1      45.699  27.818  34.149  1.00  0.00     0.012 A 
ATOM     88  C   UNL A   1      44.183  26.084  34.928  1.00  0.00     0.148 A 
ATOM     89  C   UNL A   1      46.772  27.158  34.750  1.00  0.00     0.002 A 
ATOM     90  C   UNL A   1      45.253  25.448  35.550  1.00  0.00     0.091 A 
ATOM     91  F   UNL A   1      42.941  25.577  34.978  1.00  0.00    -0.205 F 
ATOM     92  C   UNL A   1      46.548  25.980  35.459  1.00  0.00     0.022 A 
BRANCH  90  93
ATOM     93  S   UNL A   1      44.991  23.970  36.536  1.00  0.00     0.127 S 
ATOM     94  O   UNL A   1      44.345  24.507  37.731  1.00  0.00    -0.237 OA
ATOM     95  O   UNL A   1      44.117  23.157  35.688  1.00  0.00    -0.237 OA
ATOM     96  O   UNL A   1      46.325  23.410  36.720  1.00  0.00    -0.744 OA
ENDBRANCH  90  93
ENDBRANCH  63  86
ENDBRANCH  37  38
ENDBRANCH  30  32
ENDBRANCH  29  30
ENDBRANCH  28  29
ENDBRANCH   1  28
TORSDOF 19
ENDMDL
MODEL 2
REMARK VINA RESULT:     -11.5      1.932      3.934
REMARK SMILES CN1C(=O)/C(=N\Nc2cccc(C(=O)OCCOCCOC(=O)c3ccc(-c4c5nc(c(-c6cccc(S(=O)(=O)[O-])c6F)c6ccc([nH]6)c(-c6cccc(S(=O)(=O)[O-])c6F)c6nc(c(-c7cccc(S(=O)(=O)[O-])c7F)c7ccc4[nH]7)C=C6)C=C5)cc3)c2)c2ccccc21
REMARK SMILES IDX 19 1 18 2 17 3 16 4 15 5 13 6 14 7 12 8 8 9 9 10 87 11 10 12
REMARK SMILES IDX 11 13 7 14 6 16 1 17 2 18 3 19 93 20 4 21 5 22 88 23 92 24
REMARK SMILES IDX 89 25 91 26 90 27 20 28 21 29 22 30 23 31 24 32 25 33 86 34
REMARK SMILES IDX 26 35 85 36 27 37 28 38 29 39 79 40 30 41 84 42 78 43 80 44
REMARK SMILES IDX 31 45 83 46 77 47 76 48 32 50 64 51 44 52 63 53 45 54 48 55
REMARK SMILES IDX 62 56 81 57 46 58 47 59 61 61 82 62 49 63 33 64 34 65 42 66
REMARK SMILES IDX 35 67 37 68 43 69 36 70 38 71 39 72 40 73 41 74 65 75 66 76
REMARK SMILES IDX 74 77 67 78 69 79 75 80 68 81 70 82 71 83 72 84 73 85 50 86
REMARK SMILES IDX 51 87 59 88 52 89 54 90 60 91 53 92 55 93 56 94 57 95 58 96
REMARK H PARENT 7 15 80 49 48 60
REMARK Flexibility Score: inf
ROOT
ATOM      1  C   UNL A   1      32.003  28.373  26.487  1.00  0.00     0.202 C 
ENDROOT
BRANCH   1   2
ATOM      2  O   UNL A   1      31.074  27.465  27.086  1.00  0.00    -0.374 OA
BRANCH   2   3
ATOM      3  C   UNL A   1      30.987  26.183  26.454  1.00  0.00     0.202 C 
BRANCH   3   4
ATOM      4  C   UNL A   1      32.142  25.255  26.841  1.00  0.00     0.261 C 
BRANCH   4   5
ATOM      5  O   UNL A   1      31.618  24.052  27.434  1.00  0.00    -0.460 OA
BRANCH   5   6
ATOM      6  C   UNL A   1      32.343  22.926  27.238  1.00  0.00     0.338 C 
ATOM      7  O   UNL A   1      32.630  22.091  28.081  1.00  0.00    -0.246 OA
BRANCH   6   8
ATOM      8  C   UNL A   1      32.663  22.766  25.796  1.00  0.00     0.062 A 
ATOM      9  C   UNL A   1      32.226  23.196  23.439  1.00  0.00     0.057 A 
ATOM     10  C   UNL A   1      33.452  22.576  23.137  1.00  0.00     0.028 A 
ATOM     11  C   UNL A   1      31.813  23.224  24.778  1.00  0.00     0.043 A 
ATOM     12  C   UNL A   1      34.266  22.047  24.139  1.00  0.00     0.003 A 
ATOM     13  C   UNL A   1      33.885  22.167  25.470  1.00  0.00     0.016 A 
BRANCH   9  14
ATOM     14  N   UNL A   1      31.579  23.903  22.402  1.00  0.00    -0.278 N 
ATOM     15  H   UNL A   1      31.697  23.559  21.487  1.00  0.00     0.190 HD
BRANCH  14  16
ATOM     16  N   UNL A   1      30.812  25.009  22.547  1.00  0.00    -0.169 NA
ATOM     17  C   UNL A   1      34.013  28.719  22.861  1.00  0.00     0.153 C 
ATOM     18  N   UNL A   1      32.816  27.954  22.655  1.00  0.00    -0.309 N 
ATOM     19  C   UNL A   1      32.780  26.651  22.181  1.00  0.00     0.279 C 
ATOM     20  C   UNL A   1      31.518  28.434  22.885  1.00  0.00     0.053 A 
ATOM     21  O   UNL A   1      33.673  26.014  21.676  1.00  0.00    -0.267 OA
ATOM     22  C   UNL A   1      31.325  26.197  22.427  1.00  0.00     0.158 C 
ATOM     23  C   UNL A   1      30.575  27.425  22.688  1.00  0.00     0.031 A 
ATOM     24  C   UNL A   1      31.121  29.712  23.223  1.00  0.00     0.027 A 
ATOM     25  C   UNL A   1      29.215  27.639  22.794  1.00  0.00     0.013 A 
ATOM     26  C   UNL A   1      29.748  29.960  23.321  1.00  0.00     0.002 A 
ATOM     27  C   UNL A   1      28.804  28.938  23.101  1.00  0.00     0.001 A 
ENDBRANCH  14  16
ENDBRANCH   9  14
ENDBRANCH   6   8
ENDBRANCH   5   6
ENDBRANCH   4   5
ENDBRANCH   3   4
ENDBRANCH   2   3
ENDBRANCH   1   2
BRANCH   1  28
ATOM     28  C   UNL A   1      31.949  29.769  27.109  1.00  0.00     0.261 C 
BRANCH  28  29
ATOM     29  O   UNL A   1      32.936  30.612  26.492  1.00  0.00    -0.460 OA
BRANCH  29  30
ATOM     30  C   UNL A   1      33.415  31.609  27.272  1.00  0.00     0.338 C 
ATOM     31  O   UNL A   1      32.807  32.599  27.644  1.00  0.00    -0.246 OA
BRANCH  30  32
ATOM     32  C   UNL A   1      34.783  31.280  27.737  1.00  0.00     0.060 A 
ATOM     33  C   UNL A   1      35.087  29.926  27.924  1.00  0.00     0.016 A 
ATOM     34  C   UNL A   1      35.752  32.257  28.000  1.00  0.00     0.016 A 
ATOM     35  C   UNL A   1      36.333  29.549  28.418  1.00  0.00     0.010 A 
ATOM     36  C   UNL A   1      37.004  31.877  28.499  1.00  0.00     0.010 A 
ATOM     37  C   UNL A   1      37.285  30.525  28.741  1.00  0.00    -0.014 A 
BRANCH  37  38
ATOM     38  C   UNL A   1      38.515  30.111  29.450  1.00  0.00     0.031 A 
ATOM     39  C   UNL A   1      38.749  30.604  30.848  1.00  0.00     0.074 A 
ATOM     40  C   UNL A   1      39.389  29.264  28.878  1.00  0.00     0.049 A 
ATOM     41  N   UNL A   1      39.647  30.218  31.718  1.00  0.00    -0.248 NA
ATOM     42  C   UNL A   1      37.848  31.661  31.337  1.00  0.00     0.031 C 
ATOM     43  C   UNL A   1      39.289  28.736  27.520  1.00  0.00     0.029 A 
ATOM     44  N   UNL A   1      40.535  28.700  29.379  1.00  0.00    -0.354 N 
ATOM     45  C   UNL A   1      39.406  30.968  32.861  1.00  0.00     0.074 A 
ATOM     46  C   UNL A   1      38.303  31.857  32.566  1.00  0.00     0.031 C 
ATOM     47  C   UNL A   1      40.338  27.928  27.291  1.00  0.00     0.029 A 
ATOM     48  C   UNL A   1      41.176  27.874  28.489  1.00  0.00     0.049 A 
ATOM     49  H   UNL A   1      40.867  28.871  30.290  1.00  0.00     0.167 HD
ATOM     50  C   UNL A   1      40.022  30.892  34.063  1.00  0.00     0.034 A 
ATOM     51  C   UNL A   1      42.300  27.142  28.633  1.00  0.00     0.034 A 
ATOM     52  C   UNL A   1      41.105  29.998  34.365  1.00  0.00     0.049 A 
ATOM     53  C   UNL A   1      43.000  27.117  29.966  1.00  0.00     0.074 A 
ATOM     54  C   UNL A   1      41.731  29.780  35.579  1.00  0.00     0.029 A 
ATOM     55  N   UNL A   1      41.737  29.190  33.435  1.00  0.00    -0.354 N 
ATOM     56  N   UNL A   1      42.638  27.672  31.097  1.00  0.00    -0.248 NA
ATOM     57  C   UNL A   1      44.245  26.338  30.051  1.00  0.00     0.031 C 
ATOM     58  C   UNL A   1      42.752  28.843  35.378  1.00  0.00     0.029 A 
ATOM     59  C   UNL A   1      42.767  28.492  34.037  1.00  0.00     0.049 A 
ATOM     60  H   UNL A   1      41.490  29.123  32.484  1.00  0.00     0.167 HD
ATOM     61  C   UNL A   1      43.591  27.287  32.034  1.00  0.00     0.074 A 
ATOM     62  C   UNL A   1      44.541  26.441  31.341  1.00  0.00     0.031 C 
ATOM     63  C   UNL A   1      43.677  27.614  33.348  1.00  0.00     0.034 A 
BRANCH  50  64
ATOM     64  C   UNL A   1      39.470  31.748  35.165  1.00  0.00     0.023 A 
ATOM     65  C   UNL A   1      38.472  31.209  36.002  1.00  0.00     0.012 A 
ATOM     66  C   UNL A   1      39.936  33.054  35.391  1.00  0.00     0.148 A 
ATOM     67  C   UNL A   1      37.937  31.966  37.043  1.00  0.00     0.002 A 
ATOM     68  C   UNL A   1      39.409  33.796  36.443  1.00  0.00     0.091 A 
ATOM     69  F   UNL A   1      40.855  33.566  34.561  1.00  0.00    -0.205 F 
ATOM     70  C   UNL A   1      38.411  33.256  37.270  1.00  0.00     0.022 A 
BRANCH  68  71
ATOM     71  S   UNL A   1      40.008  35.453  36.786  1.00  0.00     0.127 S 
ATOM     72  O   UNL A   1      41.454  35.253  36.817  1.00  0.00    -0.237 OA
ATOM     73  O   UNL A   1      39.526  36.222  35.635  1.00  0.00    -0.237 OA
ATOM     74  O   UNL A   1      39.379  35.818  38.049  1.00  0.00    -0.744 OA
ENDBRANCH  68  71
ENDBRANCH  50  64
BRANCH  51  75
ATOM     75  C   UNL A   1      42.780  26.308  27.498  1.00  0.00     0.023 A 
ATOM     76  C   UNL A   1      43.723  26.842  26.601  1.00  0.00     0.012 A 
ATOM     77  C   UNL A   1      42.350  24.977  27.336  1.00  0.00     0.148 A 
ATOM     78  C   UNL A   1      44.225  26.068  25.554  1.00  0.00     0.002 A 
ATOM     79  C   UNL A   1      42.889  24.195  26.321  1.00  0.00     0.091 A 
ATOM     80  F   UNL A   1      41.434  24.496  28.188  1.00  0.00    -0.205 F 
ATOM     81  C   UNL A   1      43.818  24.742  25.421  1.00  0.00     0.022 A 
BRANCH  79  82
ATOM     82  S   UNL A   1      42.519  22.445  26.162  1.00  0.00     0.127 S 
ATOM     83  O   UNL A   1      43.347  22.063  25.023  1.00  0.00    -0.237 OA
ATOM     84  O   UNL A   1      42.961  21.922  27.455  1.00  0.00    -0.237 OA
ATOM     85  O   UNL A   1      41.078  22.364  25.956  1.00  0.00    -0.744 OA
ENDBRANCH  79  82
ENDBRANCH  51  75
BRANCH  63  86
ATOM     86  C   UNL A   1      44.844  27.076  34.127  1.00  0.00     0.023 A 
ATOM     87  C   UNL A   1      46.044  27.811  34.155  1.00  0.00     0.012 A 
ATOM     88  C   UNL A   1      44.732  25.903  34.898  1.00  0.00     0.148 A 
ATOM     89  C   UNL A   1      47.120  27.381  34.930  1.00  0.00     0.002 A 
ATOM     90  C   UNL A   1      45.801  25.498  35.693  1.00  0.00     0.091 A 
ATOM     91  F   UNL A   1      43.591  25.200  34.847  1.00  0.00    -0.205 F 
ATOM     92  C   UNL A   1      46.996  26.232  35.708  1.00  0.00     0.022 A 
BRANCH  90  93
ATOM     93  S   UNL A   1      45.651  24.064  36.765  1.00  0.00     0.127 S 
ATOM     94  O   UNL A   1      45.313  23.005  35.817  1.00  0.00    -0.237 OA
ATOM     95  O   UNL A   1      46.987  23.949  37.352  1.00  0.00    -0.237 OA
ATOM     96  O   UNL A   1      44.613  24.429  37.722  1.00  0.00    -0.744 OA
ENDBRANCH  90  93
ENDBRANCH  63  86
ENDBRANCH  37  38
ENDBRANCH  30  32
ENDBRANCH  29  30
ENDBRANCH  28  29
ENDBRANCH   1  28
TORSDOF 19
ENDMDL
MODEL 3
REMARK VINA RESULT:     -11.3      5.487      9.729
REMARK SMILES CN1C(=O)/C(=N\Nc2cccc(C(=O)OCCOCCOC(=O)c3ccc(-c4c5nc(c(-c6cccc(S(=O)(=O)[O-])c6F)c6ccc([nH]6)c(-c6cccc(S(=O)(=O)[O-])c6F)c6nc(c(-c7cccc(S(=O)(=O)[O-])c7F)c7ccc4[nH]7)C=C6)C=C5)cc3)c2)c2ccccc21
REMARK SMILES IDX 19 1 18 2 17 3 16 4 15 5 13 6 14 7 12 8 8 9 9 10 87 11 10 12
REMARK SMILES IDX 11 13 7 14 6 16 1 17 2 18 3 19 93 20 4 21 5 22 88 23 92 24
REMARK SMILES IDX 89 25 91 26 90 27 20 28 21 29 22 30 23 31 24 32 25 33 86 34
REMARK SMILES IDX 26 35 85 36 27 37 28 38 29 39 79 40 30 41 84 42 78 43 80 44
REMARK SMILES IDX 31 45 83 46 77 47 76 48 32 50 64 51 44 52 63 53 45 54 48 55
REMARK SMILES IDX 62 56 81 57 46 58 47 59 61 61 82 62 49 63 33 64 34 65 42 66
REMARK SMILES IDX 35 67 37 68 43 69 36 70 38 71 39 72 40 73 41 74 65 75 66 76
REMARK SMILES IDX 74 77 67 78 69 79 75 80 68 81 70 82 71 83 72 84 73 85 50 86
REMARK SMILES IDX 51 87 59 88 52 89 54 90 60 91 53 92 55 93 56 94 57 95 58 96
REMARK H PARENT 7 15 80 49 48 60
REMARK Flexibility Score: inf
ROOT
ATOM      1  C   UNL A   1      38.799  20.551  25.507  1.00  0.00     0.202 C 
ENDROOT
BRANCH   1   2
ATOM      2  O   UNL A   1      37.652  20.377  24.670  1.00  0.00    -0.374 OA
BRANCH   2   3
ATOM      3  C   UNL A   1      36.692  21.439  24.731  1.00  0.00     0.202 C 
BRANCH   3   4
ATOM      4  C   UNL A   1      35.462  21.073  25.565  1.00  0.00     0.261 C 
BRANCH   4   5
ATOM      5  O   UNL A   1      34.651  20.127  24.843  1.00  0.00    -0.460 OA
BRANCH   5   6
ATOM      6  C   UNL A   1      33.355  20.041  25.222  1.00  0.00     0.338 C 
ATOM      7  O   UNL A   1      32.878  19.232  26.002  1.00  0.00    -0.246 OA
BRANCH   6   8
ATOM      8  C   UNL A   1      32.573  21.162  24.639  1.00  0.00     0.062 A 
ATOM      9  C   UNL A   1      31.032  23.037  24.840  1.00  0.00     0.057 A 
ATOM     10  C   UNL A   1      31.306  23.358  23.498  1.00  0.00     0.028 A 
ATOM     11  C   UNL A   1      31.628  21.889  25.379  1.00  0.00     0.043 A 
ATOM     12  C   UNL A   1      32.186  22.592  22.732  1.00  0.00     0.003 A 
ATOM     13  C   UNL A   1      32.841  21.512  23.311  1.00  0.00     0.016 A 
BRANCH   9  14
ATOM     14  N   UNL A   1      30.318  23.986  25.605  1.00  0.00    -0.278 N 
ATOM     15  H   UNL A   1      29.370  23.790  25.785  1.00  0.00     0.190 HD
BRANCH  14  16
ATOM     16  N   UNL A   1      30.814  25.137  26.114  1.00  0.00    -0.169 NA
ATOM     17  C   UNL A   1      30.030  28.491  22.614  1.00  0.00     0.153 C 
ATOM     18  N   UNL A   1      30.276  27.862  23.881  1.00  0.00    -0.309 N 
ATOM     19  C   UNL A   1      29.787  26.621  24.257  1.00  0.00     0.279 C 
ATOM     20  C   UNL A   1      31.028  28.434  24.918  1.00  0.00     0.053 A 
ATOM     21  O   UNL A   1      28.936  25.957  23.716  1.00  0.00    -0.267 OA
ATOM     22  C   UNL A   1      30.565  26.279  25.547  1.00  0.00     0.158 C 
ATOM     23  C   UNL A   1      31.167  27.539  25.980  1.00  0.00     0.031 A 
ATOM     24  C   UNL A   1      31.563  29.705  24.992  1.00  0.00     0.027 A 
ATOM     25  C   UNL A   1      31.816  27.866  27.154  1.00  0.00     0.013 A 
ATOM     26  C   UNL A   1      32.211  30.066  26.179  1.00  0.00     0.002 A 
ATOM     27  C   UNL A   1      32.329  29.161  27.251  1.00  0.00     0.001 A 
ENDBRANCH  14  16
ENDBRANCH   9  14
ENDBRANCH   6   8
ENDBRANCH   5   6
ENDBRANCH   4   5
ENDBRANCH   3   4
ENDBRANCH   2   3
ENDBRANCH   1   2
BRANCH   1  28
ATOM     28  C   UNL A   1      39.505  19.231  25.821  1.00  0.00     0.261 C 
BRANCH  28  29
ATOM     29  O   UNL A   1      40.891  19.324  25.450  1.00  0.00    -0.460 OA
BRANCH  29  30
ATOM     30  C   UNL A   1      41.753  19.519  26.475  1.00  0.00     0.338 C 
ATOM     31  O   UNL A   1      42.380  18.660  27.073  1.00  0.00    -0.246 OA
BRANCH  30  32
ATOM     32  C   UNL A   1      41.939  20.969  26.715  1.00  0.00     0.060 A 
ATOM     33  C   UNL A   1      42.019  21.799  25.590  1.00  0.00     0.016 A 
ATOM     34  C   UNL A   1      42.047  21.519  27.999  1.00  0.00     0.016 A 
ATOM     35  C   UNL A   1      42.256  23.163  25.741  1.00  0.00     0.010 A 
ATOM     36  C   UNL A   1      42.288  22.891  28.150  1.00  0.00     0.010 A 
ATOM     37  C   UNL A   1      42.426  23.709  27.020  1.00  0.00    -0.014 A 
BRANCH  37  38
ATOM     38  C   UNL A   1      42.876  25.114  27.139  1.00  0.00     0.031 A 
ATOM     39  C   UNL A   1      41.931  26.134  27.704  1.00  0.00     0.074 A 
ATOM     40  C   UNL A   1      44.127  25.469  26.797  1.00  0.00     0.049 A 
ATOM     41  N   UNL A   1      42.174  27.363  28.077  1.00  0.00    -0.248 NA
ATOM     42  C   UNL A   1      40.532  25.711  27.886  1.00  0.00     0.031 C 
ATOM     43  C   UNL A   1      45.128  24.581  26.213  1.00  0.00     0.029 A 
ATOM     44  N   UNL A   1      44.763  26.680  26.898  1.00  0.00    -0.354 N 
ATOM     45  C   UNL A   1      40.967  27.854  28.556  1.00  0.00     0.074 A 
ATOM     46  C   UNL A   1      39.984  26.805  28.394  1.00  0.00     0.031 C 
ATOM     47  C   UNL A   1      46.256  25.280  25.999  1.00  0.00     0.029 A 
ATOM     48  C   UNL A   1      46.058  26.661  26.441  1.00  0.00     0.049 A 
ATOM     49  H   UNL A   1      44.333  27.487  27.263  1.00  0.00     0.167 HD
ATOM     50  C   UNL A   1      40.711  29.057  29.119  1.00  0.00     0.034 A 
ATOM     51  C   UNL A   1      46.984  27.641  26.402  1.00  0.00     0.034 A 
ATOM     52  C   UNL A   1      41.688  30.094  29.297  1.00  0.00     0.049 A 
ATOM     53  C   UNL A   1      46.656  28.990  26.985  1.00  0.00     0.074 A 
ATOM     54  C   UNL A   1      41.550  31.310  29.943  1.00  0.00     0.029 A 
ATOM     55  N   UNL A   1      42.982  30.044  28.807  1.00  0.00    -0.354 N 
ATOM     56  N   UNL A   1      45.576  29.372  27.623  1.00  0.00    -0.248 NA
ATOM     57  C   UNL A   1      47.688  30.033  26.874  1.00  0.00     0.031 C 
ATOM     58  C   UNL A   1      42.763  32.001  29.833  1.00  0.00     0.029 A 
ATOM     59  C   UNL A   1      43.648  31.219  29.107  1.00  0.00     0.049 A 
ATOM     60  H   UNL A   1      43.372  29.284  28.316  1.00  0.00     0.167 HD
ATOM     61  C   UNL A   1      45.808  30.686  28.014  1.00  0.00     0.074 A 
ATOM     62  C   UNL A   1      47.136  31.033  27.553  1.00  0.00     0.031 C 
ATOM     63  C   UNL A   1      44.988  31.534  28.685  1.00  0.00     0.034 A 
BRANCH  50  64
ATOM     64  C   UNL A   1      39.329  29.274  29.662  1.00  0.00     0.023 A 
ATOM     65  C   UNL A   1      39.018  28.766  30.939  1.00  0.00     0.012 A 
ATOM     66  C   UNL A   1      38.354  29.983  28.940  1.00  0.00     0.148 A 
ATOM     67  C   UNL A   1      37.749  28.951  31.485  1.00  0.00     0.002 A 
ATOM     68  C   UNL A   1      37.095  30.177  29.499  1.00  0.00     0.091 A 
ATOM     69  F   UNL A   1      38.652  30.423  27.709  1.00  0.00    -0.205 F 
ATOM     70  C   UNL A   1      36.790  29.664  30.769  1.00  0.00     0.022 A 
BRANCH  68  71
ATOM     71  S   UNL A   1      35.837  31.112  28.622  1.00  0.00     0.127 S 
ATOM     72  O   UNL A   1      34.810  31.273  29.647  1.00  0.00    -0.237 OA
ATOM     73  O   UNL A   1      36.536  32.348  28.264  1.00  0.00    -0.237 OA
ATOM     74  O   UNL A   1      35.486  30.275  27.482  1.00  0.00    -0.744 OA
ENDBRANCH  68  71
ENDBRANCH  50  64
BRANCH  51  75
ATOM     75  C   UNL A   1      48.338  27.347  25.860  1.00  0.00     0.023 A 
ATOM     76  C   UNL A   1      49.324  26.825  26.718  1.00  0.00     0.012 A 
ATOM     77  C   UNL A   1      48.637  27.531  24.497  1.00  0.00     0.148 A 
ATOM     78  C   UNL A   1      50.589  26.497  26.228  1.00  0.00     0.002 A 
ATOM     79  C   UNL A   1      49.882  27.157  24.005  1.00  0.00     0.091 A 
ATOM     80  F   UNL A   1      47.691  28.051  23.703  1.00  0.00    -0.205 F 
ATOM     81  C   UNL A   1      50.864  26.652  24.872  1.00  0.00     0.022 A 
BRANCH  79  82
ATOM     82  S   UNL A   1      50.271  27.200  22.253  1.00  0.00     0.127 S 
ATOM     83  O   UNL A   1      49.236  26.338  21.692  1.00  0.00    -0.237 OA
ATOM     84  O   UNL A   1      50.130  28.623  21.943  1.00  0.00    -0.237 OA
ATOM     85  O   UNL A   1      51.638  26.706  22.141  1.00  0.00    -0.744 OA
ENDBRANCH  79  82
ENDBRANCH  51  75
BRANCH  63  86
ATOM     86  C   UNL A   1      45.489  32.925  28.951  1.00  0.00     0.023 A 
ATOM     87  C   UNL A   1      46.313  33.151  30.070  1.00  0.00     0.012 A 
ATOM     88  C   UNL A   1      45.226  33.983  28.061  1.00  0.00     0.148 A 
ATOM     89  C   UNL A   1      46.859  34.413  30.305  1.00  0.00     0.002 A 
ATOM     90  C   UNL A   1      45.799  35.231  28.286  1.00  0.00     0.091 A 
ATOM     91  F   UNL A   1      44.422  33.761  27.010  1.00  0.00    -0.205 F 
ATOM     92  C   UNL A   1      46.612  35.450  29.408  1.00  0.00     0.022 A 
BRANCH  90  93
ATOM     93  S   UNL A   1      45.565  36.571  27.111  1.00  0.00     0.127 S 
ATOM     94  O   UNL A   1      46.357  36.122  25.970  1.00  0.00    -0.237 OA
ATOM     95  O   UNL A   1      44.118  36.564  26.886  1.00  0.00    -0.237 OA
ATOM     96  O   UNL A   1      46.049  37.757  27.808  1.00  0.00    -0.744 OA
ENDBRANCH  90  93
ENDBRANCH  63  86
ENDBRANCH  37  38
ENDBRANCH  30  32
ENDBRANCH  29  30
ENDBRANCH  28  29
ENDBRANCH   1  28
TORSDOF 19
ENDMDL
