MODEL 1
REMARK VINA RESULT:      -9.3      0.000      0.000
REMARK SMILES CCc1nc(COC)cc(OCC(=O)OCCOCCOC(=O)c2ccc(-c3c4nc(c(-c5cccc(S(=O)(=O)[O-])c5F)c5ccc([nH]5)c(-c5cccc(S(=O)(=O)[O-])c5F)c5nc(c(-c6cccc(S(=O)(=O)[O-])c6F)c6ccc3[nH]6)C=C5)C=C4)cc2)n1
REMARK SMILES IDX 17 1 16 2 15 3 13 4 14 5 12 6 11 7 10 8 3 9 4 10 87 11 5 12
REMARK SMILES IDX 9 13 2 14 1 15 6 16 7 17 8 18 18 19 19 20 20 21 21 22 22 23
REMARK SMILES IDX 23 24 24 25 25 26 86 27 26 28 85 29 27 30 28 31 29 32 79 33
REMARK SMILES IDX 30 34 84 35 78 36 80 37 31 38 83 39 77 40 76 41 32 43 64 44
REMARK SMILES IDX 44 45 63 46 45 47 48 48 62 49 81 50 46 51 47 52 61 54 82 55
REMARK SMILES IDX 49 56 33 57 34 58 42 59 35 60 37 61 43 62 36 63 38 64 39 65
REMARK SMILES IDX 40 66 41 67 65 68 66 69 74 70 67 71 69 72 75 73 68 74 70 75
REMARK SMILES IDX 71 76 72 77 73 78 50 79 51 80 59 81 52 82 54 83 60 84 53 85
REMARK SMILES IDX 55 86 56 87 57 88 58 89
REMARK H PARENT 80 42 48 53
REMARK Flexibility Score: inf
ROOT
ATOM      1  C   UNL A   1      42.990  17.951  26.614  1.00  0.00     0.202 C 
ENDROOT
BRANCH   1   2
ATOM      2  C   UNL A   1      43.623  18.667  25.417  1.00  0.00     0.261 C 
BRANCH   2   3
ATOM      3  O   UNL A   1      44.982  18.272  25.124  1.00  0.00    -0.461 OA
BRANCH   3   4
ATOM      4  C   UNL A   1      45.903  19.271  25.070  1.00  0.00     0.344 C 
ATOM      5  O   UNL A   1      47.115  19.097  24.974  1.00  0.00    -0.248 OA
BRANCH   4   6
ATOM      6  C   UNL A   1      45.307  20.684  25.178  1.00  0.00     0.353 C 
BRANCH   6   7
ATOM      7  O   UNL A   1      45.892  21.709  25.947  1.00  0.00    -0.466 OA
BRANCH   7   8
ATOM      8  C   UNL A   1      45.631  23.026  25.713  1.00  0.00     0.217 A 
ATOM      9  C   UNL A   1      46.429  25.130  26.189  1.00  0.00     0.132 A 
ATOM     10  N   UNL A   1      45.278  25.726  25.837  1.00  0.00    -0.235 NA
ATOM     11  N   UNL A   1      46.635  23.805  26.147  1.00  0.00    -0.198 NA
ATOM     12  C   UNL A   1      44.277  24.932  25.403  1.00  0.00     0.074 A 
ATOM     13  C   UNL A   1      44.439  23.556  25.263  1.00  0.00     0.094 A 
BRANCH   9  14
ATOM     14  C   UNL A   1      47.543  25.997  26.708  1.00  0.00     0.074 C 
ATOM     15  C   UNL A   1      48.301  25.318  27.835  1.00  0.00     0.012 C 
ENDBRANCH   9  14
BRANCH  12  16
ATOM     16  C   UNL A   1      42.929  25.577  25.110  1.00  0.00     0.216 C 
BRANCH  16  17
ATOM     17  O   UNL A   1      42.970  26.852  24.456  1.00  0.00    -0.378 OA
ATOM     18  C   UNL A   1      42.430  27.924  25.220  1.00  0.00     0.195 C 
ENDBRANCH  16  17
ENDBRANCH  12  16
ENDBRANCH   7   8
ENDBRANCH   6   7
ENDBRANCH   4   6
ENDBRANCH   3   4
ENDBRANCH   2   3
ENDBRANCH   1   2
BRANCH   1  19
ATOM     19  O   UNL A   1      42.543  18.745  27.701  1.00  0.00    -0.374 OA
BRANCH  19  20
ATOM     20  C   UNL A   1      42.208  20.104  27.479  1.00  0.00     0.202 C 
BRANCH  20  21
ATOM     21  C   UNL A   1      40.759  20.526  27.220  1.00  0.00     0.261 C 
BRANCH  21  22
ATOM     22  O   UNL A   1      40.362  21.779  27.710  1.00  0.00    -0.460 OA
BRANCH  22  23
ATOM     23  C   UNL A   1      39.719  22.592  26.860  1.00  0.00     0.338 C 
ATOM     24  O   UNL A   1      38.987  22.313  25.933  1.00  0.00    -0.246 OA
BRANCH  23  25
ATOM     25  C   UNL A   1      40.073  23.904  27.393  1.00  0.00     0.060 A 
ATOM     26  C   UNL A   1      41.136  23.994  28.288  1.00  0.00     0.016 A 
ATOM     27  C   UNL A   1      39.468  25.039  26.835  1.00  0.00     0.016 A 
ATOM     28  C   UNL A   1      41.573  25.252  28.674  1.00  0.00     0.010 A 
ATOM     29  C   UNL A   1      39.922  26.293  27.205  1.00  0.00     0.010 A 
ATOM     30  C   UNL A   1      40.950  26.397  28.153  1.00  0.00    -0.014 A 
BRANCH  30  31
ATOM     31  C   UNL A   1      41.285  27.715  28.712  1.00  0.00     0.031 A 
ATOM     32  C   UNL A   1      42.733  28.069  28.854  1.00  0.00     0.074 A 
ATOM     33  C   UNL A   1      40.303  28.554  29.081  1.00  0.00     0.049 A 
ATOM     34  N   UNL A   1      43.270  29.179  29.280  1.00  0.00    -0.248 NA
ATOM     35  C   UNL A   1      43.711  27.033  28.473  1.00  0.00     0.031 C 
ATOM     36  C   UNL A   1      38.871  28.259  29.015  1.00  0.00     0.029 A 
ATOM     37  N   UNL A   1      40.364  29.817  29.604  1.00  0.00    -0.354 N 
ATOM     38  C   UNL A   1      44.641  28.966  29.246  1.00  0.00     0.074 A 
ATOM     39  C   UNL A   1      44.860  27.619  28.775  1.00  0.00     0.031 C 
ATOM     40  C   UNL A   1      38.187  29.311  29.496  1.00  0.00     0.029 A 
ATOM     41  C   UNL A   1      39.134  30.339  29.919  1.00  0.00     0.049 A 
ATOM     42  H   UNL A   1      41.209  30.304  29.740  1.00  0.00     0.167 HD
ATOM     43  C   UNL A   1      45.628  29.833  29.566  1.00  0.00     0.034 A 
ATOM     44  C   UNL A   1      38.821  31.514  30.498  1.00  0.00     0.034 A 
ATOM     45  C   UNL A   1      45.381  31.174  30.012  1.00  0.00     0.049 A 
ATOM     46  C   UNL A   1      39.941  32.468  30.819  1.00  0.00     0.074 A 
ATOM     47  C   UNL A   1      46.296  32.169  30.294  1.00  0.00     0.029 A 
ATOM     48  N   UNL A   1      44.121  31.699  30.259  1.00  0.00    -0.354 N 
ATOM     49  N   UNL A   1      41.231  32.317  30.633  1.00  0.00    -0.248 NA
ATOM     50  C   UNL A   1      39.565  33.767  31.391  1.00  0.00     0.031 C 
ATOM     51  C   UNL A   1      45.590  33.288  30.745  1.00  0.00     0.029 A 
ATOM     52  C   UNL A   1      44.234  33.002  30.708  1.00  0.00     0.049 A 
ATOM     53  H   UNL A   1      43.273  31.217  30.132  1.00  0.00     0.167 HD
ATOM     54  C   UNL A   1      41.819  33.510  31.034  1.00  0.00     0.074 A 
ATOM     55  C   UNL A   1      40.739  34.382  31.452  1.00  0.00     0.031 C 
ATOM     56  C   UNL A   1      43.130  33.854  31.070  1.00  0.00     0.034 A 
BRANCH  43  57
ATOM     57  C   UNL A   1      47.049  29.360  29.432  1.00  0.00     0.023 A 
ATOM     58  C   UNL A   1      47.633  28.587  30.457  1.00  0.00     0.012 A 
ATOM     59  C   UNL A   1      47.789  29.639  28.268  1.00  0.00     0.148 A 
ATOM     60  C   UNL A   1      48.943  28.124  30.336  1.00  0.00     0.002 A 
ATOM     61  C   UNL A   1      49.076  29.135  28.135  1.00  0.00     0.091 A 
ATOM     62  F   UNL A   1      47.224  30.400  27.321  1.00  0.00    -0.205 F 
ATOM     63  C   UNL A   1      49.659  28.386  29.171  1.00  0.00     0.022 A 
BRANCH  61  64
ATOM     64  S   UNL A   1      50.052  29.354  26.644  1.00  0.00     0.127 S 
ATOM     65  O   UNL A   1      51.287  28.651  26.993  1.00  0.00    -0.237 OA
ATOM     66  O   UNL A   1      49.230  28.679  25.640  1.00  0.00    -0.237 OA
ATOM     67  O   UNL A   1      50.187  30.791  26.456  1.00  0.00    -0.744 OA
ENDBRANCH  61  64
ENDBRANCH  43  57
BRANCH  44  68
ATOM     68  C   UNL A   1      37.398  31.859  30.768  1.00  0.00     0.023 A 
ATOM     69  C   UNL A   1      36.824  31.549  32.016  1.00  0.00     0.012 A 
ATOM     70  C   UNL A   1      36.617  32.524  29.801  1.00  0.00     0.148 A 
ATOM     71  C   UNL A   1      35.491  31.862  32.283  1.00  0.00     0.002 A 
ATOM     72  C   UNL A   1      35.307  32.884  30.095  1.00  0.00     0.091 A 
ATOM     73  F   UNL A   1      37.175  32.799  28.614  1.00  0.00    -0.205 F 
ATOM     74  C   UNL A   1      34.736  32.538  31.328  1.00  0.00     0.022 A 
BRANCH  72  75
ATOM     75  S   UNL A   1      34.313  33.875  28.974  1.00  0.00     0.127 S 
ATOM     76  O   UNL A   1      35.265  34.899  28.554  1.00  0.00    -0.237 OA
ATOM     77  O   UNL A   1      33.957  32.901  27.941  1.00  0.00    -0.237 OA
ATOM     78  O   UNL A   1      33.182  34.343  29.765  1.00  0.00    -0.744 OA
ENDBRANCH  72  75
ENDBRANCH  44  68
BRANCH  56  79
ATOM     79  C   UNL A   1      43.468  35.240  31.547  1.00  0.00     0.023 A 
ATOM     80  C   UNL A   1      43.696  36.267  30.611  1.00  0.00     0.012 A 
ATOM     81  C   UNL A   1      43.473  35.538  32.923  1.00  0.00     0.148 A 
ATOM     82  C   UNL A   1      43.957  37.568  31.041  1.00  0.00     0.002 A 
ATOM     83  C   UNL A   1      43.679  36.845  33.342  1.00  0.00     0.091 A 
ATOM     84  F   UNL A   1      43.270  34.540  33.795  1.00  0.00    -0.205 F 
ATOM     85  C   UNL A   1      43.935  37.858  32.403  1.00  0.00     0.022 A 
BRANCH  83  86
ATOM     86  S   UNL A   1      43.565  37.329  35.067  1.00  0.00     0.127 S 
ATOM     87  O   UNL A   1      42.187  36.966  35.388  1.00  0.00    -0.237 OA
ATOM     88  O   UNL A   1      44.581  36.482  35.693  1.00  0.00    -0.237 OA
ATOM     89  O   UNL A   1      43.862  38.755  35.106  1.00  0.00    -0.744 OA
ENDBRANCH  83  86
ENDBRANCH  56  79
ENDBRANCH  30  31
ENDBRANCH  23  25
ENDBRANCH  22  23
ENDBRANCH  21  22
ENDBRANCH  20  21
ENDBRANCH  19  20
ENDBRANCH   1  19
TORSDOF 22
ENDMDL
MODEL 2
REMARK VINA RESULT:      -9.1      5.554      9.760
REMARK SMILES CCc1nc(COC)cc(OCC(=O)OCCOCCOC(=O)c2ccc(-c3c4nc(c(-c5cccc(S(=O)(=O)[O-])c5F)c5ccc([nH]5)c(-c5cccc(S(=O)(=O)[O-])c5F)c5nc(c(-c6cccc(S(=O)(=O)[O-])c6F)c6ccc3[nH]6)C=C5)C=C4)cc2)n1
REMARK SMILES IDX 17 1 16 2 15 3 13 4 14 5 12 6 11 7 10 8 3 9 4 10 87 11 5 12
REMARK SMILES IDX 9 13 2 14 1 15 6 16 7 17 8 18 18 19 19 20 20 21 21 22 22 23
REMARK SMILES IDX 23 24 24 25 25 26 86 27 26 28 85 29 27 30 28 31 29 32 79 33
REMARK SMILES IDX 30 34 84 35 78 36 80 37 31 38 83 39 77 40 76 41 32 43 64 44
REMARK SMILES IDX 44 45 63 46 45 47 48 48 62 49 81 50 46 51 47 52 61 54 82 55
REMARK SMILES IDX 49 56 33 57 34 58 42 59 35 60 37 61 43 62 36 63 38 64 39 65
REMARK SMILES IDX 40 66 41 67 65 68 66 69 74 70 67 71 69 72 75 73 68 74 70 75
REMARK SMILES IDX 71 76 72 77 73 78 50 79 51 80 59 81 52 82 54 83 60 84 53 85
REMARK SMILES IDX 55 86 56 87 57 88 58 89
REMARK H PARENT 80 42 48 53
REMARK Flexibility Score: inf
ROOT
ATOM      1  C   UNL A   1      31.637  27.487  25.402  1.00  0.00     0.202 C 
ENDROOT
BRANCH   1   2
ATOM      2  C   UNL A   1      30.814  26.712  26.436  1.00  0.00     0.261 C 
BRANCH   2   3
ATOM      3  O   UNL A   1      30.198  25.504  25.936  1.00  0.00    -0.461 OA
BRANCH   3   4
ATOM      4  C   UNL A   1      30.884  24.347  26.143  1.00  0.00     0.344 C 
ATOM      5  O   UNL A   1      30.876  23.710  27.193  1.00  0.00    -0.248 OA
BRANCH   4   6
ATOM      6  C   UNL A   1      31.728  23.892  24.942  1.00  0.00     0.353 C 
BRANCH   6   7
ATOM      7  O   UNL A   1      31.677  22.587  24.415  1.00  0.00    -0.466 OA
BRANCH   7   8
ATOM      8  C   UNL A   1      32.606  21.642  24.734  1.00  0.00     0.217 A 
ATOM      9  C   UNL A   1      34.873  21.257  24.679  1.00  0.00     0.132 A 
ATOM     10  N   UNL A   1      34.726  19.931  24.841  1.00  0.00    -0.235 NA
ATOM     11  N   UNL A   1      33.853  22.126  24.614  1.00  0.00    -0.198 NA
ATOM     12  C   UNL A   1      33.468  19.458  24.959  1.00  0.00     0.074 A 
ATOM     13  C   UNL A   1      32.363  20.305  24.975  1.00  0.00     0.094 A 
BRANCH   9  14
ATOM     14  C   UNL A   1      36.266  21.798  24.510  1.00  0.00     0.074 C 
ATOM     15  C   UNL A   1      36.333  22.836  23.403  1.00  0.00     0.012 C 
ENDBRANCH   9  14
BRANCH  12  16
ATOM     16  C   UNL A   1      33.276  17.949  25.027  1.00  0.00     0.216 C 
BRANCH  16  17
ATOM     17  O   UNL A   1      32.979  17.295  23.785  1.00  0.00    -0.378 OA
ATOM     18  C   UNL A   1      34.065  16.560  23.232  1.00  0.00     0.195 C 
ENDBRANCH  16  17
ENDBRANCH  12  16
ENDBRANCH   7   8
ENDBRANCH   6   7
ENDBRANCH   4   6
ENDBRANCH   3   4
ENDBRANCH   2   3
ENDBRANCH   1   2
BRANCH   1  19
ATOM     19  O   UNL A   1      30.977  28.486  24.642  1.00  0.00    -0.374 OA
BRANCH  19  20
ATOM     20  C   UNL A   1      31.355  29.843  24.796  1.00  0.00     0.202 C 
BRANCH  20  21
ATOM     21  C   UNL A   1      31.702  30.411  26.176  1.00  0.00     0.261 C 
BRANCH  21  22
ATOM     22  O   UNL A   1      33.042  30.755  26.404  1.00  0.00    -0.460 OA
BRANCH  22  23
ATOM     23  C   UNL A   1      33.274  31.878  27.099  1.00  0.00     0.338 C 
ATOM     24  O   UNL A   1      32.632  32.907  27.136  1.00  0.00    -0.246 OA
BRANCH  23  25
ATOM     25  C   UNL A   1      34.464  31.507  27.858  1.00  0.00     0.060 A 
ATOM     26  C   UNL A   1      34.641  30.170  28.205  1.00  0.00     0.016 A 
ATOM     27  C   UNL A   1      35.474  32.464  28.032  1.00  0.00     0.016 A 
ATOM     28  C   UNL A   1      35.841  29.789  28.787  1.00  0.00     0.010 A 
ATOM     29  C   UNL A   1      36.678  32.075  28.593  1.00  0.00     0.010 A 
ATOM     30  C   UNL A   1      36.846  30.745  29.004  1.00  0.00    -0.014 A 
BRANCH  30  31
ATOM     31  C   UNL A   1      38.030  30.379  29.795  1.00  0.00     0.031 A 
ATOM     32  C   UNL A   1      39.021  29.440  29.180  1.00  0.00     0.074 A 
ATOM     33  C   UNL A   1      38.189  30.879  31.031  1.00  0.00     0.049 A 
ATOM     34  N   UNL A   1      40.152  29.006  29.663  1.00  0.00    -0.248 NA
ATOM     35  C   UNL A   1      38.694  28.910  27.842  1.00  0.00     0.031 C 
ATOM     36  C   UNL A   1      37.243  31.764  31.713  1.00  0.00     0.029 A 
ATOM     37  N   UNL A   1      39.198  30.700  31.938  1.00  0.00    -0.354 N 
ATOM     38  C   UNL A   1      40.655  28.134  28.707  1.00  0.00     0.074 A 
ATOM     39  C   UNL A   1      39.704  28.084  27.622  1.00  0.00     0.031 C 
ATOM     40  C   UNL A   1      37.710  32.036  32.943  1.00  0.00     0.029 A 
ATOM     41  C   UNL A   1      38.975  31.333  33.136  1.00  0.00     0.049 A 
ATOM     42  H   UNL A   1      40.005  30.168  31.749  1.00  0.00     0.167 HD
ATOM     43  C   UNL A   1      41.821  27.451  28.733  1.00  0.00     0.034 A 
ATOM     44  C   UNL A   1      39.714  31.325  34.262  1.00  0.00     0.034 A 
ATOM     45  C   UNL A   1      42.758  27.537  29.816  1.00  0.00     0.049 A 
ATOM     46  C   UNL A   1      41.020  30.577  34.251  1.00  0.00     0.074 A 
ATOM     47  C   UNL A   1      44.005  26.953  29.924  1.00  0.00     0.029 A 
ATOM     48  N   UNL A   1      42.536  28.241  30.991  1.00  0.00    -0.354 N 
ATOM     49  N   UNL A   1      41.564  29.883  33.278  1.00  0.00    -0.248 NA
ATOM     50  C   UNL A   1      41.833  30.638  35.471  1.00  0.00     0.031 C 
ATOM     51  C   UNL A   1      44.524  27.276  31.181  1.00  0.00     0.029 A 
ATOM     52  C   UNL A   1      43.616  28.092  31.841  1.00  0.00     0.049 A 
ATOM     53  H   UNL A   1      41.729  28.768  31.190  1.00  0.00     0.167 HD
ATOM     54  C   UNL A   1      42.795  29.452  33.756  1.00  0.00     0.074 A 
ATOM     55  C   UNL A   1      42.926  29.984  35.098  1.00  0.00     0.031 C 
ATOM     56  C   UNL A   1      43.729  28.677  33.152  1.00  0.00     0.034 A 
BRANCH  43  57
ATOM     57  C   UNL A   1      42.146  26.572  27.557  1.00  0.00     0.023 A 
ATOM     58  C   UNL A   1      42.904  27.084  26.483  1.00  0.00     0.012 A 
ATOM     59  C   UNL A   1      41.741  25.224  27.539  1.00  0.00     0.148 A 
ATOM     60  C   UNL A   1      43.231  26.273  25.397  1.00  0.00     0.002 A 
ATOM     61  C   UNL A   1      42.110  24.411  26.475  1.00  0.00     0.091 A 
ATOM     62  F   UNL A   1      40.996  24.768  28.554  1.00  0.00    -0.205 F 
ATOM     63  C   UNL A   1      42.846  24.935  25.398  1.00  0.00     0.022 A 
BRANCH  61  64
ATOM     64  S   UNL A   1      41.728  22.658  26.419  1.00  0.00     0.127 S 
ATOM     65  O   UNL A   1      42.367  22.255  25.167  1.00  0.00    -0.237 OA
ATOM     66  O   UNL A   1      42.388  22.163  27.627  1.00  0.00    -0.237 OA
ATOM     67  O   UNL A   1      40.275  22.560  26.434  1.00  0.00    -0.744 OA
ENDBRANCH  61  64
ENDBRANCH  43  57
BRANCH  44  68
ATOM     68  C   UNL A   1      39.254  32.077  35.463  1.00  0.00     0.023 A 
ATOM     69  C   UNL A   1      38.398  31.459  36.394  1.00  0.00     0.012 A 
ATOM     70  C   UNL A   1      39.689  33.396  35.702  1.00  0.00     0.148 A 
ATOM     71  C   UNL A   1      37.955  32.151  37.522  1.00  0.00     0.002 A 
ATOM     72  C   UNL A   1      39.289  34.061  36.856  1.00  0.00     0.091 A 
ATOM     73  F   UNL A   1      40.492  33.975  34.798  1.00  0.00    -0.205 F 
ATOM     74  C   UNL A   1      38.408  33.447  37.758  1.00  0.00     0.022 A 
BRANCH  72  75
ATOM     75  S   UNL A   1      39.935  35.676  37.303  1.00  0.00     0.127 S 
ATOM     76  O   UNL A   1      39.128  36.008  38.474  1.00  0.00    -0.237 OA
ATOM     77  O   UNL A   1      41.339  35.374  37.586  1.00  0.00    -0.237 OA
ATOM     78  O   UNL A   1      39.730  36.517  36.131  1.00  0.00    -0.744 OA
ENDBRANCH  72  75
ENDBRANCH  44  68
BRANCH  56  79
ATOM     79  C   UNL A   1      44.987  28.383  33.923  1.00  0.00     0.023 A 
ATOM     80  C   UNL A   1      46.074  29.277  33.857  1.00  0.00     0.012 A 
ATOM     81  C   UNL A   1      45.054  27.267  34.778  1.00  0.00     0.148 A 
ATOM     82  C   UNL A   1      47.224  29.044  34.609  1.00  0.00     0.002 A 
ATOM     83  C   UNL A   1      46.182  27.071  35.564  1.00  0.00     0.091 A 
ATOM     84  F   UNL A   1      44.014  26.422  34.810  1.00  0.00    -0.205 F 
ATOM     85  C   UNL A   1      47.272  27.950  35.470  1.00  0.00     0.022 A 
BRANCH  83  86
ATOM     86  S   UNL A   1      46.287  25.751  36.777  1.00  0.00     0.127 S 
ATOM     87  O   UNL A   1      47.606  25.989  37.361  1.00  0.00    -0.237 OA
ATOM     88  O   UNL A   1      45.164  26.056  37.663  1.00  0.00    -0.237 OA
ATOM     89  O   UNL A   1      46.148  24.508  36.031  1.00  0.00    -0.744 OA
ENDBRANCH  83  86
ENDBRANCH  56  79
ENDBRANCH  30  31
ENDBRANCH  23  25
ENDBRANCH  22  23
ENDBRANCH  21  22
ENDBRANCH  20  21
ENDBRANCH  19  20
ENDBRANCH   1  19
TORSDOF 22
ENDMDL
MODEL 3
REMARK VINA RESULT:      -9.1      5.781     11.275
REMARK SMILES CCc1nc(COC)cc(OCC(=O)OCCOCCOC(=O)c2ccc(-c3c4nc(c(-c5cccc(S(=O)(=O)[O-])c5F)c5ccc([nH]5)c(-c5cccc(S(=O)(=O)[O-])c5F)c5nc(c(-c6cccc(S(=O)(=O)[O-])c6F)c6ccc3[nH]6)C=C5)C=C4)cc2)n1
REMARK SMILES IDX 17 1 16 2 15 3 13 4 14 5 12 6 11 7 10 8 3 9 4 10 87 11 5 12
REMARK SMILES IDX 9 13 2 14 1 15 6 16 7 17 8 18 18 19 19 20 20 21 21 22 22 23
REMARK SMILES IDX 23 24 24 25 25 26 86 27 26 28 85 29 27 30 28 31 29 32 79 33
REMARK SMILES IDX 30 34 84 35 78 36 80 37 31 38 83 39 77 40 76 41 32 43 64 44
REMARK SMILES IDX 44 45 63 46 45 47 48 48 62 49 81 50 46 51 47 52 61 54 82 55
REMARK SMILES IDX 49 56 33 57 34 58 42 59 35 60 37 61 43 62 36 63 38 64 39 65
REMARK SMILES IDX 40 66 41 67 65 68 66 69 74 70 67 71 69 72 75 73 68 74 70 75
REMARK SMILES IDX 71 76 72 77 73 78 50 79 51 80 59 81 52 82 54 83 60 84 53 85
REMARK SMILES IDX 55 86 56 87 57 88 58 89
REMARK H PARENT 80 42 48 53
REMARK Flexibility Score: inf
ROOT
ATOM      1  C   UNL A   1      32.094  27.779  24.951  1.00  0.00     0.202 C 
ENDROOT
BRANCH   1   2
ATOM      2  C   UNL A   1      31.998  26.557  25.871  1.00  0.00     0.261 C 
BRANCH   2   3
ATOM      3  O   UNL A   1      31.522  25.352  25.230  1.00  0.00    -0.461 OA
BRANCH   3   4
ATOM      4  C   UNL A   1      31.357  24.266  26.032  1.00  0.00     0.344 C 
ATOM      5  O   UNL A   1      31.587  24.249  27.238  1.00  0.00    -0.248 OA
BRANCH   4   6
ATOM      6  C   UNL A   1      30.878  23.005  25.295  1.00  0.00     0.353 C 
BRANCH   6   7
ATOM      7  O   UNL A   1      31.647  22.348  24.315  1.00  0.00    -0.466 OA
BRANCH   7   8
ATOM      8  C   UNL A   1      32.673  21.513  24.641  1.00  0.00     0.217 A 
ATOM      9  C   UNL A   1      34.971  21.419  24.691  1.00  0.00     0.132 A 
ATOM     10  N   UNL A   1      34.988  20.080  24.787  1.00  0.00    -0.235 NA
ATOM     11  N   UNL A   1      33.852  22.156  24.610  1.00  0.00    -0.198 NA
ATOM     12  C   UNL A   1      33.797  19.446  24.816  1.00  0.00     0.074 A 
ATOM     13  C   UNL A   1      32.592  20.146  24.810  1.00  0.00     0.094 A 
BRANCH   9  14
ATOM     14  C   UNL A   1      36.289  22.139  24.622  1.00  0.00     0.074 C 
ATOM     15  C   UNL A   1      36.559  22.681  23.228  1.00  0.00     0.012 C 
ENDBRANCH   9  14
BRANCH  12  16
ATOM     16  C   UNL A   1      33.797  17.924  24.808  1.00  0.00     0.216 C 
BRANCH  16  17
ATOM     17  O   UNL A   1      32.713  17.291  25.502  1.00  0.00    -0.378 OA
ATOM     18  C   UNL A   1      32.821  15.875  25.597  1.00  0.00     0.195 C 
ENDBRANCH  16  17
ENDBRANCH  12  16
ENDBRANCH   7   8
ENDBRANCH   6   7
ENDBRANCH   4   6
ENDBRANCH   3   4
ENDBRANCH   2   3
ENDBRANCH   1   2
BRANCH   1  19
ATOM     19  O   UNL A   1      31.186  28.846  25.170  1.00  0.00    -0.374 OA
BRANCH  19  20
ATOM     20  C   UNL A   1      31.682  30.108  25.582  1.00  0.00     0.202 C 
BRANCH  20  21
ATOM     21  C   UNL A   1      32.493  30.251  26.873  1.00  0.00     0.261 C 
BRANCH  21  22
ATOM     22  O   UNL A   1      33.779  30.801  26.760  1.00  0.00    -0.460 OA
BRANCH  22  23
ATOM     23  C   UNL A   1      34.094  31.796  27.602  1.00  0.00     0.338 C 
ATOM     24  O   UNL A   1      33.488  32.819  27.846  1.00  0.00    -0.246 OA
BRANCH  23  25
ATOM     25  C   UNL A   1      35.320  31.285  28.206  1.00  0.00     0.060 A 
ATOM     26  C   UNL A   1      36.471  32.066  28.135  1.00  0.00     0.016 A 
ATOM     27  C   UNL A   1      35.247  30.133  29.001  1.00  0.00     0.016 A 
ATOM     28  C   UNL A   1      37.594  31.658  28.840  1.00  0.00     0.010 A 
ATOM     29  C   UNL A   1      36.363  29.741  29.720  1.00  0.00     0.010 A 
ATOM     30  C   UNL A   1      37.547  30.484  29.608  1.00  0.00    -0.014 A 
BRANCH  30  31
ATOM     31  C   UNL A   1      38.789  29.954  30.190  1.00  0.00     0.031 A 
ATOM     32  C   UNL A   1      39.231  30.498  31.514  1.00  0.00     0.074 A 
ATOM     33  C   UNL A   1      39.490  29.018  29.531  1.00  0.00     0.049 A 
ATOM     34  N   UNL A   1      40.261  30.160  32.238  1.00  0.00    -0.248 NA
ATOM     35  C   UNL A   1      38.406  31.571  32.101  1.00  0.00     0.031 C 
ATOM     36  C   UNL A   1      39.145  28.474  28.216  1.00  0.00     0.029 A 
ATOM     37  N   UNL A   1      40.647  28.372  29.870  1.00  0.00    -0.354 N 
ATOM     38  C   UNL A   1      40.226  30.995  33.347  1.00  0.00     0.074 A 
ATOM     39  C   UNL A   1      39.086  31.867  33.198  1.00  0.00     0.031 C 
ATOM     40  C   UNL A   1      40.085  27.586  27.851  1.00  0.00     0.029 A 
ATOM     41  C   UNL A   1      41.101  27.515  28.898  1.00  0.00     0.049 A 
ATOM     42  H   UNL A   1      41.110  28.510  30.729  1.00  0.00     0.167 HD
ATOM     43  C   UNL A   1      41.069  31.014  34.403  1.00  0.00     0.034 A 
ATOM     44  C   UNL A   1      42.222  26.770  28.864  1.00  0.00     0.034 A 
ATOM     45  C   UNL A   1      42.184  30.120  34.535  1.00  0.00     0.049 A 
ATOM     46  C   UNL A   1      43.127  26.792  30.067  1.00  0.00     0.074 A 
ATOM     47  C   UNL A   1      43.063  29.991  35.592  1.00  0.00     0.029 A 
ATOM     48  N   UNL A   1      42.581  29.213  33.563  1.00  0.00    -0.354 N 
ATOM     49  N   UNL A   1      42.997  27.471  31.183  1.00  0.00    -0.248 NA
ATOM     50  C   UNL A   1      44.309  25.923  30.027  1.00  0.00     0.031 C 
ATOM     51  C   UNL A   1      44.015  29.028  35.245  1.00  0.00     0.029 A 
ATOM     52  C   UNL A   1      43.707  28.531  33.987  1.00  0.00     0.049 A 
ATOM     53  H   UNL A   1      42.129  29.075  32.700  1.00  0.00     0.167 HD
ATOM     54  C   UNL A   1      44.061  27.088  31.991  1.00  0.00     0.074 A 
ATOM     55  C   UNL A   1      44.812  26.099  31.242  1.00  0.00     0.031 C 
ATOM     56  C   UNL A   1      44.399  27.519  33.231  1.00  0.00     0.034 A 
BRANCH  43  57
ATOM     57  C   UNL A   1      40.807  32.016  35.493  1.00  0.00     0.023 A 
ATOM     58  C   UNL A   1      41.659  33.130  35.644  1.00  0.00     0.012 A 
ATOM     59  C   UNL A   1      39.688  31.881  36.336  1.00  0.00     0.148 A 
ATOM     60  C   UNL A   1      41.415  34.079  36.636  1.00  0.00     0.002 A 
ATOM     61  C   UNL A   1      39.426  32.854  37.291  1.00  0.00     0.091 A 
ATOM     62  F   UNL A   1      38.911  30.799  36.194  1.00  0.00    -0.205 F 
ATOM     63  C   UNL A   1      40.293  33.948  37.450  1.00  0.00     0.022 A 
BRANCH  61  64
ATOM     64  S   UNL A   1      37.967  32.816  38.337  1.00  0.00     0.127 S 
ATOM     65  O   UNL A   1      38.093  34.078  39.066  1.00  0.00    -0.237 OA
ATOM     66  O   UNL A   1      36.887  32.786  37.352  1.00  0.00    -0.237 OA
ATOM     67  O   UNL A   1      38.085  31.614  39.150  1.00  0.00    -0.744 OA
ENDBRANCH  61  64
ENDBRANCH  43  57
BRANCH  44  68
ATOM     68  C   UNL A   1      42.521  25.922  27.677  1.00  0.00     0.023 A 
ATOM     69  C   UNL A   1      43.321  26.428  26.634  1.00  0.00     0.012 A 
ATOM     70  C   UNL A   1      42.040  24.600  27.591  1.00  0.00     0.148 A 
ATOM     71  C   UNL A   1      43.607  25.648  25.514  1.00  0.00     0.002 A 
ATOM     72  C   UNL A   1      42.375  23.809  26.498  1.00  0.00     0.091 A 
ATOM     73  F   UNL A   1      41.267  24.139  28.585  1.00  0.00    -0.205 F 
ATOM     74  C   UNL A   1      43.143  24.336  25.450  1.00  0.00     0.022 A 
BRANCH  72  75
ATOM     75  S   UNL A   1      41.934  22.070  26.404  1.00  0.00     0.127 S 
ATOM     76  O   UNL A   1      42.695  21.630  25.238  1.00  0.00    -0.237 OA
ATOM     77  O   UNL A   1      42.423  21.563  27.687  1.00  0.00    -0.237 OA
ATOM     78  O   UNL A   1      40.484  22.041  26.265  1.00  0.00    -0.744 OA
ENDBRANCH  72  75
ENDBRANCH  44  68
BRANCH  56  79
ATOM     79  C   UNL A   1      45.614  26.904  33.870  1.00  0.00     0.023 A 
ATOM     80  C   UNL A   1      46.888  27.454  33.627  1.00  0.00     0.012 A 
ATOM     81  C   UNL A   1      45.478  25.836  34.777  1.00  0.00     0.148 A 
ATOM     82  C   UNL A   1      48.014  26.926  34.255  1.00  0.00     0.002 A 
ATOM     83  C   UNL A   1      46.597  25.352  35.440  1.00  0.00     0.091 A 
ATOM     84  F   UNL A   1      44.257  25.319  34.979  1.00  0.00    -0.205 F 
ATOM     85  C   UNL A   1      47.867  25.886  35.170  1.00  0.00     0.022 A 
BRANCH  83  86
ATOM     86  S   UNL A   1      46.487  24.088  36.710  1.00  0.00     0.127 S 
ATOM     87  O   UNL A   1      46.059  22.924  35.936  1.00  0.00    -0.237 OA
ATOM     88  O   UNL A   1      47.864  24.021  37.201  1.00  0.00    -0.237 OA
ATOM     89  O   UNL A   1      45.523  24.580  37.685  1.00  0.00    -0.744 OA
ENDBRANCH  83  86
ENDBRANCH  56  79
ENDBRANCH  30  31
ENDBRANCH  23  25
ENDBRANCH  22  23
ENDBRANCH  21  22
ENDBRANCH  20  21
ENDBRANCH  19  20
ENDBRANCH   1  19
TORSDOF 22
ENDMDL
