MODEL 1
REMARK VINA RESULT:     -11.8      0.000      0.000
REMARK SMILES O=C(Cn1cc(/C=C2\SC(N3CCOCC3)=[NH+]C2=O)c2ccccc21)OCCOCCOC(=O)c1ccc(-c2c3nc(c(-c4cccc(S(=O)(=O)[O-])c4F)c4ccc([nH]4)c(-c4cccc(S(=O)(=O)[O-])c4F)c4nc(c(-c5cccc(S(=O)(=O)[O-])c5F)c5ccc2[nH]5)C=C4)C=C3)cc1
REMARK SMILES IDX 30 1 29 2 28 3 27 4 26 5 2 6 1 7 3 8 4 9 5 10 25 11 6 12
REMARK SMILES IDX 20 13 24 14 21 15 23 16 22 17 7 18 8 19 9 20 18 21 10 22
REMARK SMILES IDX 17 23 19 24 11 25 12 27 16 28 13 29 15 30 14 31 31 32 32 33
REMARK SMILES IDX 33 34 34 35 35 36 36 37 97 38 37 39 96 40 38 41 39 42 40 43
REMARK SMILES IDX 90 44 41 45 95 46 89 47 91 48 42 49 94 50 88 51 87 52 43 54
REMARK SMILES IDX 75 55 55 56 74 57 56 58 59 59 73 60 92 61 57 62 58 63 72 65
REMARK SMILES IDX 93 66 60 67 44 68 45 69 53 70 46 71 48 72 54 73 47 74 49 75
REMARK SMILES IDX 50 76 51 77 52 78 76 79 77 80 85 81 78 82 80 83 86 84 79 85
REMARK SMILES IDX 81 86 82 87 83 88 84 89 61 90 62 91 70 92 63 93 65 94 71 95
REMARK SMILES IDX 64 96 66 97 67 98 68 99 69 100
REMARK H PARENT 17 26 91 53 59 64
REMARK Flexibility Score: inf
ROOT
ATOM      1  C   UNL A   1      35.220  32.624  28.037  1.00  0.00     0.202 C 
ENDROOT
BRANCH   1   2
ATOM      2  O   UNL A   1      34.450  31.488  27.654  1.00  0.00    -0.374 OA
BRANCH   2   3
ATOM      3  C   UNL A   1      35.139  30.240  27.625  1.00  0.00     0.202 C 
BRANCH   3   4
ATOM      4  C   UNL A   1      34.414  29.097  26.898  1.00  0.00     0.261 C 
BRANCH   4   5
ATOM      5  O   UNL A   1      33.226  28.617  27.551  1.00  0.00    -0.462 OA
BRANCH   5   6
ATOM      6  C   UNL A   1      31.988  28.721  27.021  1.00  0.00     0.326 C 
ATOM      7  O   UNL A   1      31.267  27.723  26.974  1.00  0.00    -0.250 OA
BRANCH   6   8
ATOM      8  C   UNL A   1      31.637  29.984  26.278  1.00  0.00     0.244 C 
BRANCH   8   9
ATOM      9  N   UNL A   1      31.486  29.846  24.837  1.00  0.00    -0.336 N 
ATOM     10  C   UNL A   1      32.354  29.073  24.103  1.00  0.00     0.095 A 
ATOM     11  C   UNL A   1      30.377  30.124  24.064  1.00  0.00     0.049 A 
ATOM     12  C   UNL A   1      31.626  28.559  23.058  1.00  0.00     0.001 A 
ATOM     13  C   UNL A   1      30.328  29.119  23.094  1.00  0.00     0.007 A 
ATOM     14  C   UNL A   1      29.366  31.081  24.126  1.00  0.00     0.027 A 
ATOM     15  C   UNL A   1      29.125  28.895  22.402  1.00  0.00     0.011 A 
ATOM     16  C   UNL A   1      28.157  30.807  23.502  1.00  0.00     0.002 A 
ATOM     17  C   UNL A   1      28.028  29.705  22.686  1.00  0.00     0.001 A 
BRANCH  12  18
ATOM     18  C   UNL A   1      32.104  27.507  22.238  1.00  0.00     0.034 C 
ATOM     19  C   UNL A   1      32.109  26.232  22.638  1.00  0.00     0.110 C 
ATOM     20  S   UNL A   1      31.479  25.616  24.111  1.00  0.00     0.006 SA
ATOM     21  C   UNL A   1      32.853  25.163  21.940  1.00  0.00     0.346 C 
ATOM     22  C   UNL A   1      32.449  24.184  23.895  1.00  0.00     0.319 C 
ATOM     23  N   UNL A   1      33.091  24.093  22.773  1.00  0.00    -0.200 N 
ATOM     24  O   UNL A   1      33.271  25.264  20.786  1.00  0.00    -0.240 OA
ATOM     25  N   UNL A   1      32.553  23.323  24.947  1.00  0.00    -0.251 N 
ATOM     26  H   UNL A   1      33.683  23.341  22.541  1.00  0.00     0.316 HD
ATOM     27  C   UNL A   1      31.419  22.879  25.762  1.00  0.00     0.265 C 
ATOM     28  C   UNL A   1      33.832  22.714  25.296  1.00  0.00     0.265 C 
ATOM     29  C   UNL A   1      31.756  23.006  27.252  1.00  0.00     0.206 C 
ATOM     30  C   UNL A   1      34.070  22.885  26.805  1.00  0.00     0.206 C 
ATOM     31  O   UNL A   1      32.988  22.331  27.572  1.00  0.00    -0.373 OA
ENDBRANCH  12  18
ENDBRANCH   8   9
ENDBRANCH   6   8
ENDBRANCH   5   6
ENDBRANCH   4   5
ENDBRANCH   3   4
ENDBRANCH   2   3
ENDBRANCH   1   2
BRANCH   1  32
ATOM     32  C   UNL A   1      35.047  33.082  29.493  1.00  0.00     0.261 C 
BRANCH  32  33
ATOM     33  O   UNL A   1      34.969  31.963  30.395  1.00  0.00    -0.460 OA
BRANCH  33  34
ATOM     34  C   UNL A   1      35.776  32.029  31.491  1.00  0.00     0.338 C 
ATOM     35  O   UNL A   1      35.462  32.437  32.594  1.00  0.00    -0.246 OA
BRANCH  34  36
ATOM     36  C   UNL A   1      36.995  31.231  31.205  1.00  0.00     0.060 A 
ATOM     37  C   UNL A   1      36.946  29.845  31.049  1.00  0.00     0.016 A 
ATOM     38  C   UNL A   1      38.234  31.888  31.310  1.00  0.00     0.016 A 
ATOM     39  C   UNL A   1      38.140  29.125  31.026  1.00  0.00     0.010 A 
ATOM     40  C   UNL A   1      39.426  31.161  31.305  1.00  0.00     0.010 A 
ATOM     41  C   UNL A   1      39.383  29.775  31.168  1.00  0.00    -0.014 A 
BRANCH  41  42
ATOM     42  C   UNL A   1      40.592  28.977  30.899  1.00  0.00     0.031 A 
ATOM     43  C   UNL A   1      41.359  28.694  32.140  1.00  0.00     0.074 A 
ATOM     44  C   UNL A   1      40.992  28.423  29.732  1.00  0.00     0.049 A 
ATOM     45  N   UNL A   1      42.521  29.141  32.494  1.00  0.00    -0.248 NA
ATOM     46  C   UNL A   1      40.651  27.933  33.182  1.00  0.00     0.031 C 
ATOM     47  C   UNL A   1      40.214  28.307  28.501  1.00  0.00     0.029 A 
ATOM     48  N   UNL A   1      42.172  27.790  29.417  1.00  0.00    -0.354 N 
ATOM     49  C   UNL A   1      42.784  28.508  33.705  1.00  0.00     0.074 A 
ATOM     50  C   UNL A   1      41.543  27.942  34.169  1.00  0.00     0.031 C 
ATOM     51  C   UNL A   1      40.878  27.528  27.620  1.00  0.00     0.029 A 
ATOM     52  C   UNL A   1      42.136  27.100  28.204  1.00  0.00     0.049 A 
ATOM     53  H   UNL A   1      42.970  27.821  29.994  1.00  0.00     0.167 HD
ATOM     54  C   UNL A   1      44.046  28.220  34.115  1.00  0.00     0.034 A 
ATOM     55  C   UNL A   1      43.013  26.167  27.748  1.00  0.00     0.034 A 
ATOM     56  C   UNL A   1      45.055  28.977  33.438  1.00  0.00     0.049 A 
ATOM     57  C   UNL A   1      44.276  26.316  28.509  1.00  0.00     0.074 A 
ATOM     58  C   UNL A   1      45.337  30.316  33.278  1.00  0.00     0.029 A 
ATOM     59  N   UNL A   1      45.811  28.305  32.513  1.00  0.00    -0.354 N 
ATOM     60  N   UNL A   1      45.124  27.297  28.377  1.00  0.00    -0.248 NA
ATOM     61  C   UNL A   1      44.454  25.489  29.690  1.00  0.00     0.031 C 
ATOM     62  C   UNL A   1      45.932  30.420  31.990  1.00  0.00     0.029 A 
ATOM     63  C   UNL A   1      46.012  29.137  31.446  1.00  0.00     0.049 A 
ATOM     64  H   UNL A   1      46.151  27.385  32.602  1.00  0.00     0.167 HD
ATOM     65  C   UNL A   1      45.665  27.465  29.646  1.00  0.00     0.074 A 
ATOM     66  C   UNL A   1      45.298  26.258  30.376  1.00  0.00     0.031 C 
ATOM     67  C   UNL A   1      46.115  28.681  30.072  1.00  0.00     0.034 A 
BRANCH  54  68
ATOM     68  C   UNL A   1      44.361  26.948  34.848  1.00  0.00     0.023 A 
ATOM     69  C   UNL A   1      45.103  27.013  36.041  1.00  0.00     0.012 A 
ATOM     70  C   UNL A   1      44.168  25.673  34.265  1.00  0.00     0.148 A 
ATOM     71  C   UNL A   1      45.608  25.852  36.639  1.00  0.00     0.002 A 
ATOM     72  C   UNL A   1      44.587  24.521  34.909  1.00  0.00     0.091 A 
ATOM     73  F   UNL A   1      43.693  25.584  33.016  1.00  0.00    -0.205 F 
ATOM     74  C   UNL A   1      45.329  24.605  36.088  1.00  0.00     0.022 A 
BRANCH  72  75
ATOM     75  S   UNL A   1      44.182  22.900  34.257  1.00  0.00     0.127 S 
ATOM     76  O   UNL A   1      42.724  22.951  34.235  1.00  0.00    -0.237 OA
ATOM     77  O   UNL A   1      44.828  22.932  32.944  1.00  0.00    -0.237 OA
ATOM     78  O   UNL A   1      44.783  21.956  35.191  1.00  0.00    -0.744 OA
ENDBRANCH  72  75
ENDBRANCH  54  68
BRANCH  55  79
ATOM     79  C   UNL A   1      42.767  24.980  26.873  1.00  0.00     0.023 A 
ATOM     80  C   UNL A   1      43.641  24.702  25.798  1.00  0.00     0.012 A 
ATOM     81  C   UNL A   1      41.839  23.972  27.220  1.00  0.00     0.148 A 
ATOM     82  C   UNL A   1      43.614  23.466  25.130  1.00  0.00     0.002 A 
ATOM     83  C   UNL A   1      41.783  22.766  26.526  1.00  0.00     0.091 A 
ATOM     84  F   UNL A   1      41.072  24.125  28.305  1.00  0.00    -0.205 F 
ATOM     85  C   UNL A   1      42.683  22.498  25.493  1.00  0.00     0.022 A 
BRANCH  83  86
ATOM     86  S   UNL A   1      40.562  21.519  26.959  1.00  0.00     0.127 S 
ATOM     87  O   UNL A   1      39.297  22.200  26.671  1.00  0.00    -0.237 OA
ATOM     88  O   UNL A   1      40.892  20.432  26.045  1.00  0.00    -0.237 OA
ATOM     89  O   UNL A   1      40.776  21.255  28.378  1.00  0.00    -0.744 OA
ENDBRANCH  83  86
ENDBRANCH  55  79
BRANCH  67  90
ATOM     90  C   UNL A   1      46.448  29.744  29.056  1.00  0.00     0.023 A 
ATOM     91  C   UNL A   1      47.744  29.905  28.537  1.00  0.00     0.012 A 
ATOM     92  C   UNL A   1      45.389  30.458  28.465  1.00  0.00     0.148 A 
ATOM     93  C   UNL A   1      47.975  30.742  27.441  1.00  0.00     0.002 A 
ATOM     94  C   UNL A   1      45.620  31.260  27.354  1.00  0.00     0.091 A 
ATOM     95  F   UNL A   1      44.157  30.295  28.973  1.00  0.00    -0.205 F 
ATOM     96  C   UNL A   1      46.913  31.398  26.834  1.00  0.00     0.022 A 
BRANCH  94  97
ATOM     97  S   UNL A   1      44.302  32.116  26.491  1.00  0.00     0.127 S 
ATOM     98  O   UNL A   1      45.014  32.709  25.360  1.00  0.00    -0.237 OA
ATOM     99  O   UNL A   1      43.404  31.015  26.139  1.00  0.00    -0.237 OA
ATOM    100  O   UNL A   1      43.750  33.075  27.439  1.00  0.00    -0.744 OA
ENDBRANCH  94  97
ENDBRANCH  67  90
ENDBRANCH  41  42
ENDBRANCH  34  36
ENDBRANCH  33  34
ENDBRANCH  32  33
ENDBRANCH   1  32
TORSDOF 19
ENDMDL
MODEL 2
REMARK VINA RESULT:     -11.7      3.246      9.325
REMARK SMILES O=C(Cn1cc(/C=C2\SC(N3CCOCC3)=[NH+]C2=O)c2ccccc21)OCCOCCOC(=O)c1ccc(-c2c3nc(c(-c4cccc(S(=O)(=O)[O-])c4F)c4ccc([nH]4)c(-c4cccc(S(=O)(=O)[O-])c4F)c4nc(c(-c5cccc(S(=O)(=O)[O-])c5F)c5ccc2[nH]5)C=C4)C=C3)cc1
REMARK SMILES IDX 30 1 29 2 28 3 27 4 26 5 2 6 1 7 3 8 4 9 5 10 25 11 6 12
REMARK SMILES IDX 20 13 24 14 21 15 23 16 22 17 7 18 8 19 9 20 18 21 10 22
REMARK SMILES IDX 17 23 19 24 11 25 12 27 16 28 13 29 15 30 14 31 31 32 32 33
REMARK SMILES IDX 33 34 34 35 35 36 36 37 97 38 37 39 96 40 38 41 39 42 40 43
REMARK SMILES IDX 90 44 41 45 95 46 89 47 91 48 42 49 94 50 88 51 87 52 43 54
REMARK SMILES IDX 75 55 55 56 74 57 56 58 59 59 73 60 92 61 57 62 58 63 72 65
REMARK SMILES IDX 93 66 60 67 44 68 45 69 53 70 46 71 48 72 54 73 47 74 49 75
REMARK SMILES IDX 50 76 51 77 52 78 76 79 77 80 85 81 78 82 80 83 86 84 79 85
REMARK SMILES IDX 81 86 82 87 83 88 84 89 61 90 62 91 70 92 63 93 65 94 71 95
REMARK SMILES IDX 64 96 66 97 67 98 68 99 69 100
REMARK H PARENT 17 26 91 53 59 64
REMARK Flexibility Score: inf
ROOT
ATOM      1  C   UNL A   1      40.719  22.082  27.242  1.00  0.00     0.202 C 
ENDROOT
BRANCH   1   2
ATOM      2  O   UNL A   1      39.532  22.284  26.480  1.00  0.00    -0.374 OA
BRANCH   2   3
ATOM      3  C   UNL A   1      38.929  23.573  26.582  1.00  0.00     0.202 C 
BRANCH   3   4
ATOM      4  C   UNL A   1      37.457  23.654  26.153  1.00  0.00     0.261 C 
BRANCH   4   5
ATOM      5  O   UNL A   1      37.233  23.602  24.733  1.00  0.00    -0.462 OA
BRANCH   5   6
ATOM      6  C   UNL A   1      36.655  22.554  24.106  1.00  0.00     0.326 C 
ATOM      7  O   UNL A   1      35.912  22.762  23.146  1.00  0.00    -0.250 OA
BRANCH   6   8
ATOM      8  C   UNL A   1      36.736  21.200  24.763  1.00  0.00     0.244 C 
BRANCH   8   9
ATOM      9  N   UNL A   1      35.493  20.700  25.331  1.00  0.00    -0.336 N 
ATOM     10  C   UNL A   1      34.708  21.496  26.130  1.00  0.00     0.095 A 
ATOM     11  C   UNL A   1      34.758  19.598  24.941  1.00  0.00     0.049 A 
ATOM     12  C   UNL A   1      33.409  21.101  25.913  1.00  0.00     0.001 A 
ATOM     13  C   UNL A   1      33.418  19.975  25.057  1.00  0.00     0.007 A 
ATOM     14  C   UNL A   1      35.087  18.343  24.434  1.00  0.00     0.027 A 
ATOM     15  C   UNL A   1      32.437  19.228  24.383  1.00  0.00     0.011 A 
ATOM     16  C   UNL A   1      34.130  17.654  23.703  1.00  0.00     0.002 A 
ATOM     17  C   UNL A   1      32.833  18.116  23.644  1.00  0.00     0.001 A 
BRANCH  12  18
ATOM     18  C   UNL A   1      32.296  21.859  26.352  1.00  0.00     0.034 C 
ATOM     19  C   UNL A   1      31.872  22.951  25.708  1.00  0.00     0.110 C 
ATOM     20  S   UNL A   1      32.489  23.576  24.234  1.00  0.00     0.006 SA
ATOM     21  C   UNL A   1      30.914  23.916  26.285  1.00  0.00     0.346 C 
ATOM     22  C   UNL A   1      31.754  25.112  24.610  1.00  0.00     0.319 C 
ATOM     23  N   UNL A   1      31.005  25.142  25.666  1.00  0.00    -0.200 N 
ATOM     24  O   UNL A   1      30.191  23.666  27.251  1.00  0.00    -0.240 OA
ATOM     25  N   UNL A   1      32.099  26.185  23.843  1.00  0.00    -0.251 N 
ATOM     26  H   UNL A   1      30.549  25.953  25.990  1.00  0.00     0.316 HD
ATOM     27  C   UNL A   1      32.172  26.161  22.379  1.00  0.00     0.265 C 
ATOM     28  C   UNL A   1      32.357  27.487  24.447  1.00  0.00     0.265 C 
ATOM     29  C   UNL A   1      33.487  26.791  21.905  1.00  0.00     0.206 C 
ATOM     30  C   UNL A   1      33.686  28.036  23.900  1.00  0.00     0.206 C 
ATOM     31  O   UNL A   1      33.672  28.106  22.465  1.00  0.00    -0.373 OA
ENDBRANCH  12  18
ENDBRANCH   8   9
ENDBRANCH   6   8
ENDBRANCH   5   6
ENDBRANCH   4   5
ENDBRANCH   3   4
ENDBRANCH   2   3
ENDBRANCH   1   2
BRANCH   1  32
ATOM     32  C   UNL A   1      41.985  21.774  26.429  1.00  0.00     0.261 C 
BRANCH  32  33
ATOM     33  O   UNL A   1      42.066  22.590  25.246  1.00  0.00    -0.460 OA
BRANCH  33  34
ATOM     34  C   UNL A   1      43.179  23.367  25.138  1.00  0.00     0.338 C 
ATOM     35  O   UNL A   1      44.090  23.217  24.344  1.00  0.00    -0.246 OA
BRANCH  34  36
ATOM     36  C   UNL A   1      42.947  24.604  25.927  1.00  0.00     0.060 A 
ATOM     37  C   UNL A   1      43.575  24.820  27.155  1.00  0.00     0.016 A 
ATOM     38  C   UNL A   1      41.910  25.454  25.502  1.00  0.00     0.016 A 
ATOM     39  C   UNL A   1      43.139  25.872  27.960  1.00  0.00     0.010 A 
ATOM     40  C   UNL A   1      41.465  26.494  26.320  1.00  0.00     0.010 A 
ATOM     41  C   UNL A   1      42.075  26.704  27.555  1.00  0.00    -0.014 A 
BRANCH  41  42
ATOM     42  C   UNL A   1      41.837  27.923  28.349  1.00  0.00     0.031 A 
ATOM     43  C   UNL A   1      42.885  28.951  28.117  1.00  0.00     0.074 A 
ATOM     44  C   UNL A   1      40.777  28.223  29.132  1.00  0.00     0.049 A 
ATOM     45  N   UNL A   1      43.795  29.378  28.933  1.00  0.00    -0.248 NA
ATOM     46  C   UNL A   1      43.019  29.442  26.736  1.00  0.00     0.031 C 
ATOM     47  C   UNL A   1      39.512  27.496  29.218  1.00  0.00     0.029 A 
ATOM     48  N   UNL A   1      40.585  29.284  29.986  1.00  0.00    -0.354 N 
ATOM     49  C   UNL A   1      44.457  30.376  28.225  1.00  0.00     0.074 A 
ATOM     50  C   UNL A   1      44.077  30.241  26.841  1.00  0.00     0.031 C 
ATOM     51  C   UNL A   1      38.635  28.205  29.960  1.00  0.00     0.029 A 
ATOM     52  C   UNL A   1      39.268  29.426  30.425  1.00  0.00     0.049 A 
ATOM     53  H   UNL A   1      41.312  29.890  30.263  1.00  0.00     0.167 HD
ATOM     54  C   UNL A   1      45.036  31.440  28.838  1.00  0.00     0.034 A 
ATOM     55  C   UNL A   1      38.701  30.501  31.033  1.00  0.00     0.034 A 
ATOM     56  C   UNL A   1      45.279  31.233  30.233  1.00  0.00     0.049 A 
ATOM     57  C   UNL A   1      39.790  31.338  31.591  1.00  0.00     0.074 A 
ATOM     58  C   UNL A   1      45.992  30.323  30.982  1.00  0.00     0.029 A 
ATOM     59  N   UNL A   1      44.459  31.900  31.107  1.00  0.00    -0.354 N 
ATOM     60  N   UNL A   1      40.519  31.032  32.628  1.00  0.00    -0.248 NA
ATOM     61  C   UNL A   1      40.293  32.427  30.772  1.00  0.00     0.031 C 
ATOM     62  C   UNL A   1      45.270  30.195  32.201  1.00  0.00     0.029 A 
ATOM     63  C   UNL A   1      44.173  31.057  32.146  1.00  0.00     0.049 A 
ATOM     64  H   UNL A   1      44.133  32.823  31.004  1.00  0.00     0.167 HD
ATOM     65  C   UNL A   1      41.761  31.594  32.361  1.00  0.00     0.074 A 
ATOM     66  C   UNL A   1      41.526  32.528  31.267  1.00  0.00     0.031 C 
ATOM     67  C   UNL A   1      42.910  31.051  32.859  1.00  0.00     0.034 A 
BRANCH  54  68
ATOM     68  C   UNL A   1      44.998  32.813  28.230  1.00  0.00     0.023 A 
ATOM     69  C   UNL A   1      43.763  33.475  28.113  1.00  0.00     0.012 A 
ATOM     70  C   UNL A   1      46.105  33.363  27.542  1.00  0.00     0.148 A 
ATOM     71  C   UNL A   1      43.645  34.650  27.360  1.00  0.00     0.002 A 
ATOM     72  C   UNL A   1      46.005  34.574  26.877  1.00  0.00     0.091 A 
ATOM     73  F   UNL A   1      47.228  32.644  27.416  1.00  0.00    -0.205 F 
ATOM     74  C   UNL A   1      44.770  35.213  26.764  1.00  0.00     0.022 A 
BRANCH  72  75
ATOM     75  S   UNL A   1      47.451  35.357  26.160  1.00  0.00     0.127 S 
ATOM     76  O   UNL A   1      47.787  34.422  25.090  1.00  0.00    -0.237 OA
ATOM     77  O   UNL A   1      46.910  36.642  25.717  1.00  0.00    -0.237 OA
ATOM     78  O   UNL A   1      48.407  35.461  27.254  1.00  0.00    -0.744 OA
ENDBRANCH  72  75
ENDBRANCH  54  68
BRANCH  55  79
ATOM     79  C   UNL A   1      37.296  31.004  30.955  1.00  0.00     0.023 A 
ATOM     80  C   UNL A   1      36.600  31.341  32.138  1.00  0.00     0.012 A 
ATOM     81  C   UNL A   1      36.707  31.399  29.732  1.00  0.00     0.148 A 
ATOM     82  C   UNL A   1      35.398  32.068  32.101  1.00  0.00     0.002 A 
ATOM     83  C   UNL A   1      35.492  32.079  29.697  1.00  0.00     0.091 A 
ATOM     84  F   UNL A   1      37.376  31.221  28.588  1.00  0.00    -0.205 F 
ATOM     85  C   UNL A   1      34.842  32.436  30.880  1.00  0.00     0.022 A 
BRANCH  83  86
ATOM     86  S   UNL A   1      34.742  32.528  28.126  1.00  0.00     0.127 S 
ATOM     87  O   UNL A   1      33.552  33.274  28.542  1.00  0.00    -0.237 OA
ATOM     88  O   UNL A   1      35.785  33.336  27.505  1.00  0.00    -0.237 OA
ATOM     89  O   UNL A   1      34.439  31.257  27.475  1.00  0.00    -0.744 OA
ENDBRANCH  83  86
ENDBRANCH  55  79
BRANCH  67  90
ATOM     90  C   UNL A   1      42.835  30.122  34.044  1.00  0.00     0.023 A 
ATOM     91  C   UNL A   1      42.333  28.814  33.941  1.00  0.00     0.012 A 
ATOM     92  C   UNL A   1      43.470  30.510  35.239  1.00  0.00     0.148 A 
ATOM     93  C   UNL A   1      42.480  27.906  34.995  1.00  0.00     0.002 A 
ATOM     94  C   UNL A   1      43.646  29.593  36.268  1.00  0.00     0.091 A 
ATOM     95  F   UNL A   1      43.943  31.763  35.324  1.00  0.00    -0.205 F 
ATOM     96  C   UNL A   1      43.158  28.286  36.145  1.00  0.00     0.022 A 
BRANCH  94  97
ATOM     97  S   UNL A   1      44.535  29.990  37.772  1.00  0.00     0.127 S 
ATOM     98  O   UNL A   1      44.626  28.685  38.425  1.00  0.00    -0.237 OA
ATOM     99  O   UNL A   1      45.802  30.503  37.251  1.00  0.00    -0.237 OA
ATOM    100  O   UNL A   1      43.723  30.973  38.478  1.00  0.00    -0.744 OA
ENDBRANCH  94  97
ENDBRANCH  67  90
ENDBRANCH  41  42
ENDBRANCH  34  36
ENDBRANCH  33  34
ENDBRANCH  32  33
ENDBRANCH   1  32
TORSDOF 19
ENDMDL
MODEL 3
REMARK VINA RESULT:     -11.5      1.835      2.123
REMARK SMILES O=C(Cn1cc(/C=C2\SC(N3CCOCC3)=[NH+]C2=O)c2ccccc21)OCCOCCOC(=O)c1ccc(-c2c3nc(c(-c4cccc(S(=O)(=O)[O-])c4F)c4ccc([nH]4)c(-c4cccc(S(=O)(=O)[O-])c4F)c4nc(c(-c5cccc(S(=O)(=O)[O-])c5F)c5ccc2[nH]5)C=C4)C=C3)cc1
REMARK SMILES IDX 30 1 29 2 28 3 27 4 26 5 2 6 1 7 3 8 4 9 5 10 25 11 6 12
REMARK SMILES IDX 20 13 24 14 21 15 23 16 22 17 7 18 8 19 9 20 18 21 10 22
REMARK SMILES IDX 17 23 19 24 11 25 12 27 16 28 13 29 15 30 14 31 31 32 32 33
REMARK SMILES IDX 33 34 34 35 35 36 36 37 97 38 37 39 96 40 38 41 39 42 40 43
REMARK SMILES IDX 90 44 41 45 95 46 89 47 91 48 42 49 94 50 88 51 87 52 43 54
REMARK SMILES IDX 75 55 55 56 74 57 56 58 59 59 73 60 92 61 57 62 58 63 72 65
REMARK SMILES IDX 93 66 60 67 44 68 45 69 53 70 46 71 48 72 54 73 47 74 49 75
REMARK SMILES IDX 50 76 51 77 52 78 76 79 77 80 85 81 78 82 80 83 86 84 79 85
REMARK SMILES IDX 81 86 82 87 83 88 84 89 61 90 62 91 70 92 63 93 65 94 71 95
REMARK SMILES IDX 64 96 66 97 67 98 68 99 69 100
REMARK H PARENT 17 26 91 53 59 64
REMARK Flexibility Score: inf
ROOT
ATOM      1  C   UNL A   1      35.168  32.607  28.078  1.00  0.00     0.202 C 
ENDROOT
BRANCH   1   2
ATOM      2  O   UNL A   1      34.417  31.487  27.617  1.00  0.00    -0.374 OA
BRANCH   2   3
ATOM      3  C   UNL A   1      35.096  30.233  27.610  1.00  0.00     0.202 C 
BRANCH   3   4
ATOM      4  C   UNL A   1      34.407  29.107  26.823  1.00  0.00     0.261 C 
BRANCH   4   5
ATOM      5  O   UNL A   1      33.211  28.586  27.428  1.00  0.00    -0.462 OA
BRANCH   5   6
ATOM      6  C   UNL A   1      31.976  28.753  26.906  1.00  0.00     0.326 C 
ATOM      7  O   UNL A   1      31.193  27.803  26.897  1.00  0.00    -0.250 OA
BRANCH   6   8
ATOM      8  C   UNL A   1      31.698  30.013  26.126  1.00  0.00     0.244 C 
BRANCH   8   9
ATOM      9  N   UNL A   1      31.482  29.834  24.698  1.00  0.00    -0.336 N 
ATOM     10  C   UNL A   1      32.334  29.065  23.942  1.00  0.00     0.095 A 
ATOM     11  C   UNL A   1      30.330  30.065  23.973  1.00  0.00     0.049 A 
ATOM     12  C   UNL A   1      31.570  28.506  22.946  1.00  0.00     0.001 A 
ATOM     13  C   UNL A   1      30.261  29.035  23.032  1.00  0.00     0.007 A 
ATOM     14  C   UNL A   1      29.300  30.999  24.062  1.00  0.00     0.027 A 
ATOM     15  C   UNL A   1      29.033  28.765  22.404  1.00  0.00     0.011 A 
ATOM     16  C   UNL A   1      28.070  30.679  23.504  1.00  0.00     0.002 A 
ATOM     17  C   UNL A   1      27.930  29.554  22.722  1.00  0.00     0.001 A 
BRANCH  12  18
ATOM     18  C   UNL A   1      32.035  27.446  22.129  1.00  0.00     0.034 C 
ATOM     19  C   UNL A   1      32.065  26.177  22.550  1.00  0.00     0.110 C 
ATOM     20  S   UNL A   1      31.486  25.580  24.050  1.00  0.00     0.006 SA
ATOM     21  C   UNL A   1      32.800  25.105  21.847  1.00  0.00     0.346 C 
ATOM     22  C   UNL A   1      32.464  24.154  23.829  1.00  0.00     0.319 C 
ATOM     23  N   UNL A   1      33.073  24.051  22.690  1.00  0.00    -0.200 N 
ATOM     24  O   UNL A   1      33.183  25.192  20.680  1.00  0.00    -0.240 OA
ATOM     25  N   UNL A   1      32.608  23.312  24.891  1.00  0.00    -0.251 N 
ATOM     26  H   UNL A   1      33.667  23.302  22.453  1.00  0.00     0.316 HD
ATOM     27  C   UNL A   1      31.503  22.870  25.746  1.00  0.00     0.265 C 
ATOM     28  C   UNL A   1      33.903  22.722  25.212  1.00  0.00     0.265 C 
ATOM     29  C   UNL A   1      31.882  23.025  27.224  1.00  0.00     0.206 C 
ATOM     30  C   UNL A   1      34.183  22.920  26.711  1.00  0.00     0.206 C 
ATOM     31  O   UNL A   1      33.130  22.368  27.518  1.00  0.00    -0.373 OA
ENDBRANCH  12  18
ENDBRANCH   8   9
ENDBRANCH   6   8
ENDBRANCH   5   6
ENDBRANCH   4   5
ENDBRANCH   3   4
ENDBRANCH   2   3
ENDBRANCH   1   2
BRANCH   1  32
ATOM     32  C   UNL A   1      35.066  32.899  29.583  1.00  0.00     0.261 C 
BRANCH  32  33
ATOM     33  O   UNL A   1      35.191  31.698  30.365  1.00  0.00    -0.460 OA
BRANCH  33  34
ATOM     34  C   UNL A   1      35.946  31.803  31.494  1.00  0.00     0.338 C 
ATOM     35  O   UNL A   1      35.589  32.267  32.561  1.00  0.00    -0.246 OA
BRANCH  34  36
ATOM     36  C   UNL A   1      37.163  30.974  31.303  1.00  0.00     0.060 A 
ATOM     37  C   UNL A   1      37.106  29.579  31.280  1.00  0.00     0.016 A 
ATOM     38  C   UNL A   1      38.406  31.631  31.362  1.00  0.00     0.016 A 
ATOM     39  C   UNL A   1      38.295  28.854  31.344  1.00  0.00     0.010 A 
ATOM     40  C   UNL A   1      39.592  30.900  31.444  1.00  0.00     0.010 A 
ATOM     41  C   UNL A   1      39.542  29.507  31.440  1.00  0.00    -0.014 A 
BRANCH  41  42
ATOM     42  C   UNL A   1      40.748  28.680  31.266  1.00  0.00     0.031 A 
ATOM     43  C   UNL A   1      41.478  28.484  32.546  1.00  0.00     0.074 A 
ATOM     44  C   UNL A   1      41.173  28.036  30.156  1.00  0.00     0.049 A 
ATOM     45  N   UNL A   1      42.634  28.946  32.898  1.00  0.00    -0.248 NA
ATOM     46  C   UNL A   1      40.732  27.810  33.622  1.00  0.00     0.031 C 
ATOM     47  C   UNL A   1      40.429  27.835  28.915  1.00  0.00     0.029 A 
ATOM     48  N   UNL A   1      42.355  27.370  29.922  1.00  0.00    -0.354 N 
ATOM     49  C   UNL A   1      42.857  28.404  34.160  1.00  0.00     0.074 A 
ATOM     50  C   UNL A   1      41.597  27.886  34.630  1.00  0.00     0.031 C 
ATOM     51  C   UNL A   1      41.107  26.986  28.115  1.00  0.00     0.029 A 
ATOM     52  C   UNL A   1      42.344  26.592  28.764  1.00  0.00     0.049 A 
ATOM     53  H   UNL A   1      43.136  27.437  30.518  1.00  0.00     0.167 HD
ATOM     54  C   UNL A   1      44.103  28.136  34.626  1.00  0.00     0.034 A 
ATOM     55  C   UNL A   1      43.223  25.619  28.404  1.00  0.00     0.034 A 
ATOM     56  C   UNL A   1      45.139  28.830  33.923  1.00  0.00     0.049 A 
ATOM     57  C   UNL A   1      44.466  25.812  29.188  1.00  0.00     0.074 A 
ATOM     58  C   UNL A   1      45.440  30.151  33.671  1.00  0.00     0.029 A 
ATOM     59  N   UNL A   1      45.913  28.083  33.073  1.00  0.00    -0.354 N 
ATOM     60  N   UNL A   1      45.329  26.773  29.007  1.00  0.00    -0.248 NA
ATOM     61  C   UNL A   1      44.602  25.075  30.432  1.00  0.00     0.031 C 
ATOM     62  C   UNL A   1      46.072  30.152  32.396  1.00  0.00     0.029 A 
ATOM     63  C   UNL A   1      46.153  28.831  31.953  1.00  0.00     0.049 A 
ATOM     64  H   UNL A   1      46.239  27.170  33.240  1.00  0.00     0.167 HD
ATOM     65  C   UNL A   1      45.836  27.032  30.274  1.00  0.00     0.074 A 
ATOM     66  C   UNL A   1      45.436  25.886  31.082  1.00  0.00     0.031 C 
ATOM     67  C   UNL A   1      46.288  28.272  30.621  1.00  0.00     0.034 A 
BRANCH  54  68
ATOM     68  C   UNL A   1      44.384  26.920  35.462  1.00  0.00     0.023 A 
ATOM     69  C   UNL A   1      44.210  25.645  34.894  1.00  0.00     0.012 A 
ATOM     70  C   UNL A   1      44.568  26.994  36.863  1.00  0.00     0.148 A 
ATOM     71  C   UNL A   1      44.243  24.493  35.688  1.00  0.00     0.002 A 
ATOM     72  C   UNL A   1      44.695  25.848  37.630  1.00  0.00     0.091 A 
ATOM     73  F   UNL A   1      44.488  28.181  37.477  1.00  0.00    -0.205 F 
ATOM     74  C   UNL A   1      44.512  24.591  37.051  1.00  0.00     0.022 A 
BRANCH  72  75
ATOM     75  S   UNL A   1      45.108  25.943  39.372  1.00  0.00     0.127 S 
ATOM     76  O   UNL A   1      45.204  24.530  39.726  1.00  0.00    -0.237 OA
ATOM     77  O   UNL A   1      46.380  26.666  39.342  1.00  0.00    -0.237 OA
ATOM     78  O   UNL A   1      44.015  26.691  39.980  1.00  0.00    -0.744 OA
ENDBRANCH  72  75
ENDBRANCH  54  68
BRANCH  55  79
ATOM     79  C   UNL A   1      42.987  24.372  27.615  1.00  0.00     0.023 A 
ATOM     80  C   UNL A   1      41.689  23.816  27.544  1.00  0.00     0.012 A 
ATOM     81  C   UNL A   1      43.954  23.853  26.724  1.00  0.00     0.148 A 
ATOM     82  C   UNL A   1      41.367  22.821  26.606  1.00  0.00     0.002 A 
ATOM     83  C   UNL A   1      43.643  22.834  25.826  1.00  0.00     0.091 A 
ATOM     84  F   UNL A   1      45.162  24.422  26.656  1.00  0.00    -0.205 F 
ATOM     85  C   UNL A   1      42.344  22.328  25.747  1.00  0.00     0.022 A 
BRANCH  83  86
ATOM     86  S   UNL A   1      44.905  22.161  24.737  1.00  0.00     0.127 S 
ATOM     87  O   UNL A   1      44.237  20.991  24.161  1.00  0.00    -0.237 OA
ATOM     88  O   UNL A   1      45.127  23.259  23.804  1.00  0.00    -0.237 OA
ATOM     89  O   UNL A   1      46.022  21.825  25.614  1.00  0.00    -0.744 OA
ENDBRANCH  83  86
ENDBRANCH  55  79
BRANCH  67  90
ATOM     90  C   UNL A   1      46.661  29.252  29.537  1.00  0.00     0.023 A 
ATOM     91  C   UNL A   1      47.968  29.350  29.033  1.00  0.00     0.012 A 
ATOM     92  C   UNL A   1      45.627  29.942  28.877  1.00  0.00     0.148 A 
ATOM     93  C   UNL A   1      48.237  30.101  27.884  1.00  0.00     0.002 A 
ATOM     94  C   UNL A   1      45.894  30.657  27.715  1.00  0.00     0.091 A 
ATOM     95  F   UNL A   1      44.384  29.841  29.371  1.00  0.00    -0.205 F 
ATOM     96  C   UNL A   1      47.199  30.732  27.211  1.00  0.00     0.022 A 
BRANCH  94  97
ATOM     97  S   UNL A   1      44.610  31.474  26.769  1.00  0.00     0.127 S 
ATOM     98  O   UNL A   1      44.158  32.508  27.698  1.00  0.00    -0.237 OA
ATOM     99  O   UNL A   1      45.356  31.974  25.613  1.00  0.00    -0.237 OA
ATOM    100  O   UNL A   1      43.619  30.451  26.460  1.00  0.00    -0.744 OA
ENDBRANCH  94  97
ENDBRANCH  67  90
ENDBRANCH  41  42
ENDBRANCH  34  36
ENDBRANCH  33  34
ENDBRANCH  32  33
ENDBRANCH   1  32
TORSDOF 19
ENDMDL
