MODEL 1
REMARK VINA RESULT:     -11.9      0.000      0.000
REMARK SMILES [NH3+][C@H](CS[C@@H]1CC(=O)N(c2ccc3ccccc3c2)C1=O)C(=O)OCCOCCOC(=O)c1ccc(-c2c3nc(c(-c4cccc(S(=O)(=O)[O-])c4F)c4ccc([nH]4)c(-c4cccc(S(=O)(=O)[O-])c4F)c4nc(c(-c5cccc(S(=O)(=O)[O-])c5F)c5ccc2[nH]5)C=C4)C=C3)cc1
REMARK SMILES IDX 26 1 25 2 24 3 22 4 23 5 2 6 1 7 3 11 4 12 5 13 6 14 20 15
REMARK SMILES IDX 7 16 9 17 21 18 8 19 10 20 11 21 19 22 12 23 18 24 13 25
REMARK SMILES IDX 17 26 14 27 16 28 15 29 27 30 28 31 29 32 30 33 31 34 32 35
REMARK SMILES IDX 33 36 34 37 95 38 35 39 94 40 36 41 37 42 38 43 88 44 39 45
REMARK SMILES IDX 93 46 87 47 89 48 40 49 92 50 86 51 85 52 41 54 73 55 53 56
REMARK SMILES IDX 72 57 54 58 57 59 71 60 90 61 55 62 56 63 70 65 91 66 58 67
REMARK SMILES IDX 42 68 43 69 51 70 44 71 46 72 52 73 45 74 47 75 48 76 49 77
REMARK SMILES IDX 50 78 74 79 75 80 83 81 76 82 78 83 84 84 77 85 79 86 80 87
REMARK SMILES IDX 81 88 82 89 59 90 60 91 68 92 61 93 63 94 69 95 62 96 64 97
REMARK SMILES IDX 65 98 66 99 67 100
REMARK H PARENT 1 8 1 9 1 10 89 53 57 64
REMARK Flexibility Score: inf
ROOT
ATOM      1  C   UNL A   1      33.472  29.021  25.050  1.00  0.00     0.202 C 
ENDROOT
BRANCH   1   2
ATOM      2  C   UNL A   1      33.661  28.258  23.731  1.00  0.00     0.261 C 
BRANCH   2   3
ATOM      3  O   UNL A   1      32.398  28.279  23.033  1.00  0.00    -0.459 OA
BRANCH   3   4
ATOM      4  C   UNL A   1      31.928  27.041  22.714  1.00  0.00     0.365 C 
ATOM      5  O   UNL A   1      32.607  26.143  22.233  1.00  0.00    -0.245 OA
BRANCH   4   6
ATOM      6  C   UNL A   1      30.444  26.905  23.095  1.00  0.00     0.301 C 
BRANCH   6   7
ATOM      7  N   UNL A   1      29.921  28.179  23.624  1.00  0.00    -0.345 N 
ATOM      8  H   UNL A   1      29.182  27.988  24.302  1.00  0.00     0.345 HD
ATOM      9  H   UNL A   1      29.543  28.737  22.859  1.00  0.00     0.345 HD
ATOM     10  H   UNL A   1      30.675  28.692  24.080  1.00  0.00     0.345 HD
ENDBRANCH   6   7
BRANCH   6  11
ATOM     11  C   UNL A   1      30.225  25.665  24.000  1.00  0.00     0.147 C 
BRANCH  11  12
ATOM     12  S   UNL A   1      30.286  25.909  25.823  1.00  0.00    -0.141 SA
BRANCH  12  13
ATOM     13  C   UNL A   1      31.726  24.906  26.392  1.00  0.00     0.146 C 
ATOM     14  C   UNL A   1      33.056  25.458  25.936  1.00  0.00     0.125 C 
ATOM     15  C   UNL A   1      31.772  23.447  26.004  1.00  0.00     0.247 C 
ATOM     16  C   UNL A   1      33.866  24.239  25.591  1.00  0.00     0.235 C 
ATOM     17  N   UNL A   1      33.067  23.125  25.637  1.00  0.00    -0.250 N 
ATOM     18  O   UNL A   1      30.809  22.708  26.085  1.00  0.00    -0.273 OA
ATOM     19  O   UNL A   1      35.019  24.315  25.184  1.00  0.00    -0.274 OA
BRANCH  17  20
ATOM     20  C   UNL A   1      33.518  21.827  25.240  1.00  0.00     0.052 A 
ATOM     21  C   UNL A   1      34.786  21.343  25.549  1.00  0.00     0.027 A 
ATOM     22  C   UNL A   1      32.707  20.983  24.483  1.00  0.00     0.035 A 
ATOM     23  C   UNL A   1      35.138  20.010  25.248  1.00  0.00     0.011 A 
ATOM     24  C   UNL A   1      33.112  19.723  23.990  1.00  0.00    -0.016 A 
ATOM     25  C   UNL A   1      34.301  19.177  24.480  1.00  0.00    -0.018 A 
ATOM     26  C   UNL A   1      32.357  18.975  23.061  1.00  0.00     0.009 A 
ATOM     27  C   UNL A   1      34.583  17.823  24.195  1.00  0.00     0.009 A 
ATOM     28  C   UNL A   1      32.675  17.662  22.735  1.00  0.00     0.001 A 
ATOM     29  C   UNL A   1      33.760  17.065  23.351  1.00  0.00     0.001 A 
ENDBRANCH  17  20
ENDBRANCH  12  13
ENDBRANCH  11  12
ENDBRANCH   6  11
ENDBRANCH   4   6
ENDBRANCH   3   4
ENDBRANCH   2   3
ENDBRANCH   1   2
BRANCH   1  30
ATOM     30  O   UNL A   1      32.154  29.064  25.558  1.00  0.00    -0.374 OA
BRANCH  30  31
ATOM     31  C   UNL A   1      31.717  30.415  25.803  1.00  0.00     0.202 C 
BRANCH  31  32
ATOM     32  C   UNL A   1      32.401  31.226  26.941  1.00  0.00     0.261 C 
BRANCH  32  33
ATOM     33  O   UNL A   1      32.307  32.679  26.824  1.00  0.00    -0.460 OA
BRANCH  33  34
ATOM     34  C   UNL A   1      33.055  33.381  27.732  1.00  0.00     0.338 C 
ATOM     35  O   UNL A   1      32.675  34.415  28.270  1.00  0.00    -0.246 OA
BRANCH  34  36
ATOM     36  C   UNL A   1      34.383  32.781  28.107  1.00  0.00     0.060 A 
ATOM     37  C   UNL A   1      34.372  31.517  28.718  1.00  0.00     0.016 A 
ATOM     38  C   UNL A   1      35.614  33.438  28.001  1.00  0.00     0.016 A 
ATOM     39  C   UNL A   1      35.556  30.899  29.167  1.00  0.00     0.010 A 
ATOM     40  C   UNL A   1      36.805  32.829  28.485  1.00  0.00     0.010 A 
ATOM     41  C   UNL A   1      36.791  31.551  29.078  1.00  0.00    -0.014 A 
BRANCH  41  42
ATOM     42  C   UNL A   1      37.991  30.945  29.753  1.00  0.00     0.031 A 
ATOM     43  C   UNL A   1      38.315  31.344  31.171  1.00  0.00     0.074 A 
ATOM     44  C   UNL A   1      38.764  29.999  29.177  1.00  0.00     0.049 A 
ATOM     45  N   UNL A   1      39.247  30.891  31.971  1.00  0.00    -0.248 NA
ATOM     46  C   UNL A   1      37.473  32.395  31.760  1.00  0.00     0.031 C 
ATOM     47  C   UNL A   1      38.602  29.502  27.820  1.00  0.00     0.029 A 
ATOM     48  N   UNL A   1      39.847  29.289  29.657  1.00  0.00    -0.354 N 
ATOM     49  C   UNL A   1      39.108  31.598  33.159  1.00  0.00     0.074 A 
ATOM     50  C   UNL A   1      38.012  32.525  32.965  1.00  0.00     0.031 C 
ATOM     51  C   UNL A   1      39.535  28.567  27.568  1.00  0.00     0.029 A 
ATOM     52  C   UNL A   1      40.403  28.423  28.738  1.00  0.00     0.049 A 
ATOM     53  H   UNL A   1      40.192  29.391  30.573  1.00  0.00     0.167 HD
ATOM     54  C   UNL A   1      39.812  31.487  34.313  1.00  0.00     0.034 A 
ATOM     55  C   UNL A   1      41.494  27.626  28.810  1.00  0.00     0.034 A 
ATOM     56  C   UNL A   1      40.924  30.598  34.523  1.00  0.00     0.049 A 
ATOM     57  C   UNL A   1      42.299  27.565  30.089  1.00  0.00     0.074 A 
ATOM     58  C   UNL A   1      41.689  30.437  35.668  1.00  0.00     0.029 A 
ATOM     59  N   UNL A   1      41.449  29.739  33.574  1.00  0.00    -0.354 N 
ATOM     60  N   UNL A   1      42.081  28.164  31.233  1.00  0.00    -0.248 NA
ATOM     61  C   UNL A   1      43.487  26.694  30.095  1.00  0.00     0.031 C 
ATOM     62  C   UNL A   1      42.695  29.504  35.399  1.00  0.00     0.029 A 
ATOM     63  C   UNL A   1      42.531  29.050  34.102  1.00  0.00     0.049 A 
ATOM     64  H   UNL A   1      41.104  29.632  32.658  1.00  0.00     0.167 HD
ATOM     65  C   UNL A   1      43.075  27.715  32.099  1.00  0.00     0.074 A 
ATOM     66  C   UNL A   1      43.882  26.773  31.357  1.00  0.00     0.031 C 
ATOM     67  C   UNL A   1      43.306  28.067  33.389  1.00  0.00     0.034 A 
BRANCH  54  68
ATOM     68  C   UNL A   1      39.379  32.357  35.464  1.00  0.00     0.023 A 
ATOM     69  C   UNL A   1      38.506  31.833  36.440  1.00  0.00     0.012 A 
ATOM     70  C   UNL A   1      39.866  33.671  35.605  1.00  0.00     0.148 A 
ATOM     71  C   UNL A   1      38.097  32.615  37.519  1.00  0.00     0.002 A 
ATOM     72  C   UNL A   1      39.488  34.429  36.707  1.00  0.00     0.091 A 
ATOM     73  F   UNL A   1      40.682  34.155  34.658  1.00  0.00    -0.205 F 
ATOM     74  C   UNL A   1      38.593  33.907  37.656  1.00  0.00     0.022 A 
BRANCH  72  75
ATOM     75  S   UNL A   1      40.130  36.077  37.017  1.00  0.00     0.127 S 
ATOM     76  O   UNL A   1      39.323  36.495  38.163  1.00  0.00    -0.237 OA
ATOM     77  O   UNL A   1      41.534  35.805  37.328  1.00  0.00    -0.237 OA
ATOM     78  O   UNL A   1      39.911  36.834  35.792  1.00  0.00    -0.744 OA
ENDBRANCH  72  75
ENDBRANCH  54  68
BRANCH  55  79
ATOM     79  C   UNL A   1      41.929  26.813  27.630  1.00  0.00     0.023 A 
ATOM     80  C   UNL A   1      42.547  27.436  26.527  1.00  0.00     0.012 A 
ATOM     81  C   UNL A   1      41.677  25.428  27.575  1.00  0.00     0.148 A 
ATOM     82  C   UNL A   1      42.859  26.707  25.376  1.00  0.00     0.002 A 
ATOM     83  C   UNL A   1      42.049  24.696  26.453  1.00  0.00     0.091 A 
ATOM     84  F   UNL A   1      41.063  24.853  28.618  1.00  0.00    -0.205 F 
ATOM     85  C   UNL A   1      42.619  25.336  25.343  1.00  0.00     0.022 A 
BRANCH  83  86
ATOM     86  S   UNL A   1      41.886  22.909  26.378  1.00  0.00     0.127 S 
ATOM     87  O   UNL A   1      42.639  22.489  27.556  1.00  0.00    -0.237 OA
ATOM     88  O   UNL A   1      40.436  22.734  26.476  1.00  0.00    -0.237 OA
ATOM     89  O   UNL A   1      42.450  22.519  25.092  1.00  0.00    -0.744 OA
ENDBRANCH  83  86
ENDBRANCH  55  79
BRANCH  67  90
ATOM     90  C   UNL A   1      44.445  27.394  34.118  1.00  0.00     0.023 A 
ATOM     91  C   UNL A   1      45.719  27.997  34.162  1.00  0.00     0.012 A 
ATOM     92  C   UNL A   1      44.236  26.184  34.811  1.00  0.00     0.148 A 
ATOM     93  C   UNL A   1      46.772  27.387  34.846  1.00  0.00     0.002 A 
ATOM     94  C   UNL A   1      45.276  25.609  35.534  1.00  0.00     0.091 A 
ATOM     95  F   UNL A   1      43.025  25.612  34.746  1.00  0.00    -0.205 F 
ATOM     96  C   UNL A   1      46.549  26.201  35.540  1.00  0.00     0.022 A 
BRANCH  94  97
ATOM     97  S   UNL A   1      45.056  24.134  36.536  1.00  0.00     0.127 S 
ATOM     98  O   UNL A   1      44.125  23.356  35.721  1.00  0.00    -0.237 OA
ATOM     99  O   UNL A   1      46.414  23.593  36.595  1.00  0.00    -0.237 OA
ATOM    100  O   UNL A   1      44.532  24.592  37.816  1.00  0.00    -0.744 OA
ENDBRANCH  94  97
ENDBRANCH  67  90
ENDBRANCH  41  42
ENDBRANCH  34  36
ENDBRANCH  33  34
ENDBRANCH  32  33
ENDBRANCH  31  32
ENDBRANCH  30  31
ENDBRANCH   1  30
TORSDOF 22
ENDMDL
MODEL 2
REMARK VINA RESULT:     -11.2      1.594      2.179
REMARK SMILES [NH3+][C@H](CS[C@@H]1CC(=O)N(c2ccc3ccccc3c2)C1=O)C(=O)OCCOCCOC(=O)c1ccc(-c2c3nc(c(-c4cccc(S(=O)(=O)[O-])c4F)c4ccc([nH]4)c(-c4cccc(S(=O)(=O)[O-])c4F)c4nc(c(-c5cccc(S(=O)(=O)[O-])c5F)c5ccc2[nH]5)C=C4)C=C3)cc1
REMARK SMILES IDX 26 1 25 2 24 3 22 4 23 5 2 6 1 7 3 11 4 12 5 13 6 14 20 15
REMARK SMILES IDX 7 16 9 17 21 18 8 19 10 20 11 21 19 22 12 23 18 24 13 25
REMARK SMILES IDX 17 26 14 27 16 28 15 29 27 30 28 31 29 32 30 33 31 34 32 35
REMARK SMILES IDX 33 36 34 37 95 38 35 39 94 40 36 41 37 42 38 43 88 44 39 45
REMARK SMILES IDX 93 46 87 47 89 48 40 49 92 50 86 51 85 52 41 54 73 55 53 56
REMARK SMILES IDX 72 57 54 58 57 59 71 60 90 61 55 62 56 63 70 65 91 66 58 67
REMARK SMILES IDX 42 68 43 69 51 70 44 71 46 72 52 73 45 74 47 75 48 76 49 77
REMARK SMILES IDX 50 78 74 79 75 80 83 81 76 82 78 83 84 84 77 85 79 86 80 87
REMARK SMILES IDX 81 88 82 89 59 90 60 91 68 92 61 93 63 94 69 95 62 96 64 97
REMARK SMILES IDX 65 98 66 99 67 100
REMARK H PARENT 1 8 1 9 1 10 89 53 57 64
REMARK Flexibility Score: inf
ROOT
ATOM      1  C   UNL A   1      33.668  28.984  24.975  1.00  0.00     0.202 C 
ENDROOT
BRANCH   1   2
ATOM      2  C   UNL A   1      33.666  28.259  23.621  1.00  0.00     0.261 C 
BRANCH   2   3
ATOM      3  O   UNL A   1      32.490  28.683  22.902  1.00  0.00    -0.459 OA
BRANCH   3   4
ATOM      4  C   UNL A   1      31.771  27.654  22.372  1.00  0.00     0.365 C 
ATOM      5  O   UNL A   1      32.253  26.722  21.744  1.00  0.00    -0.245 OA
BRANCH   4   6
ATOM      6  C   UNL A   1      30.279  27.792  22.724  1.00  0.00     0.301 C 
BRANCH   6   7
ATOM      7  N   UNL A   1      30.019  29.075  23.405  1.00  0.00    -0.345 N 
ATOM      8  H   UNL A   1      29.118  29.029  23.883  1.00  0.00     0.345 HD
ATOM      9  H   UNL A   1      30.001  29.828  22.719  1.00  0.00     0.345 HD
ATOM     10  H   UNL A   1      30.756  29.252  24.088  1.00  0.00     0.345 HD
ENDBRANCH   6   7
BRANCH   6  11
ATOM     11  C   UNL A   1      29.774  26.527  23.464  1.00  0.00     0.147 C 
BRANCH  11  12
ATOM     12  S   UNL A   1      30.271  26.304  25.222  1.00  0.00    -0.141 SA
BRANCH  12  13
ATOM     13  C   UNL A   1      30.433  24.480  25.446  1.00  0.00     0.146 C 
ATOM     14  C   UNL A   1      30.441  24.055  26.896  1.00  0.00     0.125 C 
ATOM     15  C   UNL A   1      31.639  23.796  24.849  1.00  0.00     0.247 C 
ATOM     16  C   UNL A   1      31.460  22.951  26.954  1.00  0.00     0.235 C 
ATOM     17  N   UNL A   1      32.118  22.865  25.754  1.00  0.00    -0.250 N 
ATOM     18  O   UNL A   1      32.039  24.021  23.722  1.00  0.00    -0.273 OA
ATOM     19  O   UNL A   1      31.724  22.360  27.995  1.00  0.00    -0.274 OA
BRANCH  17  20
ATOM     20  C   UNL A   1      33.228  21.990  25.535  1.00  0.00     0.052 A 
ATOM     21  C   UNL A   1      33.077  20.629  25.289  1.00  0.00     0.027 A 
ATOM     22  C   UNL A   1      34.538  22.462  25.594  1.00  0.00     0.035 A 
ATOM     23  C   UNL A   1      34.193  19.832  24.953  1.00  0.00     0.011 A 
ATOM     24  C   UNL A   1      35.683  21.644  25.466  1.00  0.00    -0.016 A 
ATOM     25  C   UNL A   1      35.508  20.333  25.020  1.00  0.00    -0.018 A 
ATOM     26  C   UNL A   1      36.993  22.100  25.729  1.00  0.00     0.009 A 
ATOM     27  C   UNL A   1      36.652  19.594  24.645  1.00  0.00     0.009 A 
ATOM     28  C   UNL A   1      38.117  21.344  25.417  1.00  0.00     0.001 A 
ATOM     29  C   UNL A   1      37.944  20.108  24.818  1.00  0.00     0.001 A 
ENDBRANCH  17  20
ENDBRANCH  12  13
ENDBRANCH  11  12
ENDBRANCH   6  11
ENDBRANCH   4   6
ENDBRANCH   3   4
ENDBRANCH   2   3
ENDBRANCH   1   2
BRANCH   1  30
ATOM     30  O   UNL A   1      32.413  29.102  25.615  1.00  0.00    -0.374 OA
BRANCH  30  31
ATOM     31  C   UNL A   1      32.019  30.479  25.774  1.00  0.00     0.202 C 
BRANCH  31  32
ATOM     32  C   UNL A   1      32.492  31.248  27.041  1.00  0.00     0.261 C 
BRANCH  32  33
ATOM     33  O   UNL A   1      32.339  32.700  26.990  1.00  0.00    -0.460 OA
BRANCH  33  34
ATOM     34  C   UNL A   1      33.117  33.395  27.877  1.00  0.00     0.338 C 
ATOM     35  O   UNL A   1      32.763  34.436  28.422  1.00  0.00    -0.246 OA
BRANCH  34  36
ATOM     36  C   UNL A   1      34.445  32.778  28.223  1.00  0.00     0.060 A 
ATOM     37  C   UNL A   1      34.431  31.554  28.911  1.00  0.00     0.016 A 
ATOM     38  C   UNL A   1      35.687  33.389  28.017  1.00  0.00     0.016 A 
ATOM     39  C   UNL A   1      35.618  30.928  29.339  1.00  0.00     0.010 A 
ATOM     40  C   UNL A   1      36.884  32.775  28.478  1.00  0.00     0.010 A 
ATOM     41  C   UNL A   1      36.865  31.536  29.149  1.00  0.00    -0.014 A 
BRANCH  41  42
ATOM     42  C   UNL A   1      38.080  30.935  29.800  1.00  0.00     0.031 A 
ATOM     43  C   UNL A   1      38.394  31.286  31.233  1.00  0.00     0.074 A 
ATOM     44  C   UNL A   1      38.878  30.034  29.188  1.00  0.00     0.049 A 
ATOM     45  N   UNL A   1      39.338  30.825  32.016  1.00  0.00    -0.248 NA
ATOM     46  C   UNL A   1      37.524  32.289  31.863  1.00  0.00     0.031 C 
ATOM     47  C   UNL A   1      38.729  29.587  27.812  1.00  0.00     0.029 A 
ATOM     48  N   UNL A   1      39.980  29.333  29.641  1.00  0.00    -0.354 N 
ATOM     49  C   UNL A   1      39.180  31.480  33.231  1.00  0.00     0.074 A 
ATOM     50  C   UNL A   1      38.060  32.385  33.073  1.00  0.00     0.031 C 
ATOM     51  C   UNL A   1      39.687  28.688  27.523  1.00  0.00     0.029 A 
ATOM     52  C   UNL A   1      40.558  28.520  28.688  1.00  0.00     0.049 A 
ATOM     53  H   UNL A   1      40.321  29.408  30.560  1.00  0.00     0.167 HD
ATOM     54  C   UNL A   1      39.886  31.342  34.380  1.00  0.00     0.034 A 
ATOM     55  C   UNL A   1      41.669  27.750  28.730  1.00  0.00     0.034 A 
ATOM     56  C   UNL A   1      41.022  30.475  34.556  1.00  0.00     0.049 A 
ATOM     57  C   UNL A   1      42.476  27.659  30.006  1.00  0.00     0.074 A 
ATOM     58  C   UNL A   1      41.790  30.289  35.694  1.00  0.00     0.029 A 
ATOM     59  N   UNL A   1      41.569  29.669  33.574  1.00  0.00    -0.354 N 
ATOM     60  N   UNL A   1      42.242  28.206  31.173  1.00  0.00    -0.248 NA
ATOM     61  C   UNL A   1      43.687  26.820  29.978  1.00  0.00     0.031 C 
ATOM     62  C   UNL A   1      42.821  29.393  35.389  1.00  0.00     0.029 A 
ATOM     63  C   UNL A   1      42.668  28.987  34.075  1.00  0.00     0.049 A 
ATOM     64  H   UNL A   1      41.227  29.589  32.654  1.00  0.00     0.167 HD
ATOM     65  C   UNL A   1      43.248  27.749  32.022  1.00  0.00     0.074 A 
ATOM     66  C   UNL A   1      44.080  26.859  31.243  1.00  0.00     0.031 C 
ATOM     67  C   UNL A   1      43.470  28.055  33.324  1.00  0.00     0.034 A 
BRANCH  54  68
ATOM     68  C   UNL A   1      39.431  32.154  35.565  1.00  0.00     0.023 A 
ATOM     69  C   UNL A   1      39.796  33.513  35.657  1.00  0.00     0.012 A 
ATOM     70  C   UNL A   1      38.609  31.589  36.559  1.00  0.00     0.148 A 
ATOM     71  C   UNL A   1      39.381  34.288  36.739  1.00  0.00     0.002 A 
ATOM     72  C   UNL A   1      38.162  32.380  37.612  1.00  0.00     0.091 A 
ATOM     73  F   UNL A   1      38.286  30.292  36.461  1.00  0.00    -0.205 F 
ATOM     74  C   UNL A   1      38.559  33.724  37.710  1.00  0.00     0.022 A 
BRANCH  72  75
ATOM     75  S   UNL A   1      37.039  31.772  38.873  1.00  0.00     0.127 S 
ATOM     76  O   UNL A   1      36.879  30.373  38.475  1.00  0.00    -0.237 OA
ATOM     77  O   UNL A   1      37.815  31.971  40.097  1.00  0.00    -0.237 OA
ATOM     78  O   UNL A   1      35.837  32.588  38.772  1.00  0.00    -0.744 OA
ENDBRANCH  72  75
ENDBRANCH  54  68
BRANCH  55  79
ATOM     79  C   UNL A   1      42.127  26.996  27.518  1.00  0.00     0.023 A 
ATOM     80  C   UNL A   1      42.681  27.685  26.420  1.00  0.00     0.012 A 
ATOM     81  C   UNL A   1      41.956  25.601  27.430  1.00  0.00     0.148 A 
ATOM     82  C   UNL A   1      43.010  27.007  25.243  1.00  0.00     0.002 A 
ATOM     83  C   UNL A   1      42.346  24.923  26.280  1.00  0.00     0.091 A 
ATOM     84  F   UNL A   1      41.401  24.962  28.469  1.00  0.00    -0.205 F 
ATOM     85  C   UNL A   1      42.852  25.626  25.176  1.00  0.00     0.022 A 
BRANCH  83  86
ATOM     86  S   UNL A   1      42.288  23.132  26.158  1.00  0.00     0.127 S 
ATOM     87  O   UNL A   1      40.863  22.865  26.329  1.00  0.00    -0.237 OA
ATOM     88  O   UNL A   1      42.801  22.905  24.807  1.00  0.00    -0.237 OA
ATOM     89  O   UNL A   1      43.157  22.640  27.220  1.00  0.00    -0.744 OA
ENDBRANCH  83  86
ENDBRANCH  55  79
BRANCH  67  90
ATOM     90  C   UNL A   1      44.626  27.383  34.027  1.00  0.00     0.023 A 
ATOM     91  C   UNL A   1      45.911  27.963  33.998  1.00  0.00     0.012 A 
ATOM     92  C   UNL A   1      44.424  26.200  34.767  1.00  0.00     0.148 A 
ATOM     93  C   UNL A   1      46.981  27.354  34.657  1.00  0.00     0.002 A 
ATOM     94  C   UNL A   1      45.483  25.628  35.465  1.00  0.00     0.091 A 
ATOM     95  F   UNL A   1      43.202  25.650  34.772  1.00  0.00    -0.205 F 
ATOM     96  C   UNL A   1      46.766  26.195  35.399  1.00  0.00     0.022 A 
BRANCH  94  97
ATOM     97  S   UNL A   1      45.279  24.191  36.523  1.00  0.00     0.127 S 
ATOM     98  O   UNL A   1      44.334  24.689  37.522  1.00  0.00    -0.237 OA
ATOM     99  O   UNL A   1      44.724  23.202  35.599  1.00  0.00    -0.237 OA
ATOM    100  O   UNL A   1      46.607  23.869  37.026  1.00  0.00    -0.744 OA
ENDBRANCH  94  97
ENDBRANCH  67  90
ENDBRANCH  41  42
ENDBRANCH  34  36
ENDBRANCH  33  34
ENDBRANCH  32  33
ENDBRANCH  31  32
ENDBRANCH  30  31
ENDBRANCH   1  30
TORSDOF 22
ENDMDL
MODEL 3
REMARK VINA RESULT:     -10.8      1.701      2.265
REMARK SMILES [NH3+][C@H](CS[C@@H]1CC(=O)N(c2ccc3ccccc3c2)C1=O)C(=O)OCCOCCOC(=O)c1ccc(-c2c3nc(c(-c4cccc(S(=O)(=O)[O-])c4F)c4ccc([nH]4)c(-c4cccc(S(=O)(=O)[O-])c4F)c4nc(c(-c5cccc(S(=O)(=O)[O-])c5F)c5ccc2[nH]5)C=C4)C=C3)cc1
REMARK SMILES IDX 26 1 25 2 24 3 22 4 23 5 2 6 1 7 3 11 4 12 5 13 6 14 20 15
REMARK SMILES IDX 7 16 9 17 21 18 8 19 10 20 11 21 19 22 12 23 18 24 13 25
REMARK SMILES IDX 17 26 14 27 16 28 15 29 27 30 28 31 29 32 30 33 31 34 32 35
REMARK SMILES IDX 33 36 34 37 95 38 35 39 94 40 36 41 37 42 38 43 88 44 39 45
REMARK SMILES IDX 93 46 87 47 89 48 40 49 92 50 86 51 85 52 41 54 73 55 53 56
REMARK SMILES IDX 72 57 54 58 57 59 71 60 90 61 55 62 56 63 70 65 91 66 58 67
REMARK SMILES IDX 42 68 43 69 51 70 44 71 46 72 52 73 45 74 47 75 48 76 49 77
REMARK SMILES IDX 50 78 74 79 75 80 83 81 76 82 78 83 84 84 77 85 79 86 80 87
REMARK SMILES IDX 81 88 82 89 59 90 60 91 68 92 61 93 63 94 69 95 62 96 64 97
REMARK SMILES IDX 65 98 66 99 67 100
REMARK H PARENT 1 8 1 9 1 10 89 53 57 64
REMARK Flexibility Score: inf
ROOT
ATOM      1  C   UNL A   1      32.909  29.176  24.554  1.00  0.00     0.202 C 
ENDROOT
BRANCH   1   2
ATOM      2  C   UNL A   1      31.463  29.132  24.039  1.00  0.00     0.261 C 
BRANCH   2   3
ATOM      3  O   UNL A   1      30.678  28.407  25.009  1.00  0.00    -0.459 OA
BRANCH   3   4
ATOM      4  C   UNL A   1      30.811  27.054  24.921  1.00  0.00     0.365 C 
ATOM      5  O   UNL A   1      30.783  26.420  23.874  1.00  0.00    -0.245 OA
BRANCH   4   6
ATOM      6  C   UNL A   1      31.061  26.438  26.308  1.00  0.00     0.301 C 
BRANCH   6   7
ATOM      7  N   UNL A   1      31.373  27.487  27.297  1.00  0.00    -0.345 N 
ATOM      8  H   UNL A   1      31.558  28.367  26.813  1.00  0.00     0.345 HD
ATOM      9  H   UNL A   1      32.197  27.216  27.833  1.00  0.00     0.345 HD
ATOM     10  H   UNL A   1      30.580  27.606  27.928  1.00  0.00     0.345 HD
ENDBRANCH   6   7
BRANCH   6  11
ATOM     11  C   UNL A   1      32.088  25.280  26.214  1.00  0.00     0.147 C 
BRANCH  11  12
ATOM     12  S   UNL A   1      33.789  25.684  25.640  1.00  0.00    -0.141 SA
BRANCH  12  13
ATOM     13  C   UNL A   1      34.337  24.204  24.685  1.00  0.00     0.146 C 
ATOM     14  C   UNL A   1      33.622  24.049  23.363  1.00  0.00     0.125 C 
ATOM     15  C   UNL A   1      34.210  22.850  25.341  1.00  0.00     0.247 C 
ATOM     16  C   UNL A   1      33.397  22.568  23.234  1.00  0.00     0.235 C 
ATOM     17  N   UNL A   1      33.742  21.943  24.406  1.00  0.00    -0.250 N 
ATOM     18  O   UNL A   1      34.546  22.636  26.491  1.00  0.00    -0.273 OA
ATOM     19  O   UNL A   1      32.837  22.074  22.262  1.00  0.00    -0.274 OA
BRANCH  17  20
ATOM     20  C   UNL A   1      33.528  20.548  24.638  1.00  0.00     0.052 A 
ATOM     21  C   UNL A   1      32.284  20.024  24.976  1.00  0.00     0.027 A 
ATOM     22  C   UNL A   1      34.581  19.637  24.570  1.00  0.00     0.035 A 
ATOM     23  C   UNL A   1      32.095  18.628  25.069  1.00  0.00     0.011 A 
ATOM     24  C   UNL A   1      34.460  18.260  24.864  1.00  0.00    -0.016 A 
ATOM     25  C   UNL A   1      33.176  17.727  24.998  1.00  0.00    -0.018 A 
ATOM     26  C   UNL A   1      35.568  17.395  24.987  1.00  0.00     0.009 A 
ATOM     27  C   UNL A   1      33.035  16.322  25.034  1.00  0.00     0.009 A 
ATOM     28  C   UNL A   1      35.423  16.016  25.086  1.00  0.00     0.001 A 
ATOM     29  C   UNL A   1      34.150  15.475  25.050  1.00  0.00     0.001 A 
ENDBRANCH  17  20
ENDBRANCH  12  13
ENDBRANCH  11  12
ENDBRANCH   6  11
ENDBRANCH   4   6
ENDBRANCH   3   4
ENDBRANCH   2   3
ENDBRANCH   1   2
BRANCH   1  30
ATOM     30  O   UNL A   1      33.094  29.756  25.829  1.00  0.00    -0.374 OA
BRANCH  30  31
ATOM     31  C   UNL A   1      32.104  30.766  26.108  1.00  0.00     0.202 C 
BRANCH  31  32
ATOM     32  C   UNL A   1      32.335  31.724  27.312  1.00  0.00     0.261 C 
BRANCH  32  33
ATOM     33  O   UNL A   1      32.776  33.073  26.969  1.00  0.00    -0.460 OA
BRANCH  33  34
ATOM     34  C   UNL A   1      33.160  33.844  28.034  1.00  0.00     0.338 C 
ATOM     35  O   UNL A   1      32.571  34.860  28.385  1.00  0.00    -0.246 OA
BRANCH  34  36
ATOM     36  C   UNL A   1      34.338  33.345  28.827  1.00  0.00     0.060 A 
ATOM     37  C   UNL A   1      35.603  33.415  28.221  1.00  0.00     0.016 A 
ATOM     38  C   UNL A   1      34.251  32.709  30.070  1.00  0.00     0.016 A 
ATOM     39  C   UNL A   1      36.758  32.913  28.852  1.00  0.00     0.010 A 
ATOM     40  C   UNL A   1      35.412  32.172  30.694  1.00  0.00     0.010 A 
ATOM     41  C   UNL A   1      36.681  32.264  30.090  1.00  0.00    -0.014 A 
BRANCH  41  42
ATOM     42  C   UNL A   1      37.900  31.566  30.628  1.00  0.00     0.031 A 
ATOM     43  C   UNL A   1      38.389  31.907  32.013  1.00  0.00     0.074 A 
ATOM     44  C   UNL A   1      38.550  30.590  29.958  1.00  0.00     0.049 A 
ATOM     45  N   UNL A   1      39.365  31.376  32.707  1.00  0.00    -0.248 NA
ATOM     46  C   UNL A   1      37.679  32.992  32.705  1.00  0.00     0.031 C 
ATOM     47  C   UNL A   1      38.222  30.139  28.615  1.00  0.00     0.029 A 
ATOM     48  N   UNL A   1      39.627  29.801  30.313  1.00  0.00    -0.354 N 
ATOM     49  C   UNL A   1      39.390  32.058  33.917  1.00  0.00     0.074 A 
ATOM     50  C   UNL A   1      38.342  33.057  33.852  1.00  0.00     0.031 C 
ATOM     51  C   UNL A   1      39.064  29.156  28.251  1.00  0.00     0.029 A 
ATOM     52  C   UNL A   1      40.033  28.927  29.325  1.00  0.00     0.049 A 
ATOM     53  H   UNL A   1      40.067  29.857  31.191  1.00  0.00     0.167 HD
ATOM     54  C   UNL A   1      40.196  31.874  34.991  1.00  0.00     0.034 A 
ATOM     55  C   UNL A   1      41.071  28.062  29.272  1.00  0.00     0.034 A 
ATOM     56  C   UNL A   1      41.264  30.913  35.071  1.00  0.00     0.049 A 
ATOM     57  C   UNL A   1      41.993  27.917  30.461  1.00  0.00     0.074 A 
ATOM     58  C   UNL A   1      42.126  30.674  36.129  1.00  0.00     0.029 A 
ATOM     59  N   UNL A   1      41.635  30.048  34.056  1.00  0.00    -0.354 N 
ATOM     60  N   UNL A   1      41.929  28.499  31.633  1.00  0.00    -0.248 NA
ATOM     61  C   UNL A   1      43.118  26.974  30.330  1.00  0.00     0.031 C 
ATOM     62  C   UNL A   1      43.039  29.687  35.742  1.00  0.00     0.029 A 
ATOM     63  C   UNL A   1      42.717  29.279  34.459  1.00  0.00     0.049 A 
ATOM     64  H   UNL A   1      41.196  29.986  33.178  1.00  0.00     0.167 HD
ATOM     65  C   UNL A   1      42.973  27.966  32.386  1.00  0.00     0.074 A 
ATOM     66  C   UNL A   1      43.641  26.995  31.547  1.00  0.00     0.031 C 
ATOM     67  C   UNL A   1      43.353  28.269  33.652  1.00  0.00     0.034 A 
BRANCH  54  68
ATOM     68  C   UNL A   1      39.936  32.739  36.197  1.00  0.00     0.023 A 
ATOM     69  C   UNL A   1      40.598  33.979  36.317  1.00  0.00     0.012 A 
ATOM     70  C   UNL A   1      39.011  32.350  37.184  1.00  0.00     0.148 A 
ATOM     71  C   UNL A   1      40.370  34.801  37.420  1.00  0.00     0.002 A 
ATOM     72  C   UNL A   1      38.755  33.195  38.258  1.00  0.00     0.091 A 
ATOM     73  F   UNL A   1      38.404  31.161  37.059  1.00  0.00    -0.205 F 
ATOM     74  C   UNL A   1      39.444  34.413  38.383  1.00  0.00     0.022 A 
BRANCH  72  75
ATOM     75  S   UNL A   1      37.526  32.825  39.513  1.00  0.00     0.127 S 
ATOM     76  O   UNL A   1      36.295  32.810  38.724  1.00  0.00    -0.237 OA
ATOM     77  O   UNL A   1      37.960  31.511  39.989  1.00  0.00    -0.237 OA
ATOM     78  O   UNL A   1      37.620  33.893  40.498  1.00  0.00    -0.744 OA
ENDBRANCH  72  75
ENDBRANCH  54  68
BRANCH  55  79
ATOM     79  C   UNL A   1      41.334  27.254  28.038  1.00  0.00     0.023 A 
ATOM     80  C   UNL A   1      41.881  27.866  26.891  1.00  0.00     0.012 A 
ATOM     81  C   UNL A   1      40.986  25.891  27.980  1.00  0.00     0.148 A 
ATOM     82  C   UNL A   1      42.030  27.150  25.700  1.00  0.00     0.002 A 
ATOM     83  C   UNL A   1      41.197  25.167  26.811  1.00  0.00     0.091 A 
ATOM     84  F   UNL A   1      40.441  25.328  29.067  1.00  0.00    -0.205 F 
ATOM     85  C   UNL A   1      41.697  25.799  25.663  1.00  0.00     0.022 A 
BRANCH  83  86
ATOM     86  S   UNL A   1      40.910  23.397  26.716  1.00  0.00     0.127 S 
ATOM     87  O   UNL A   1      39.492  23.340  26.370  1.00  0.00    -0.237 OA
ATOM     88  O   UNL A   1      41.824  22.999  25.645  1.00  0.00    -0.237 OA
ATOM     89  O   UNL A   1      41.263  22.872  28.030  1.00  0.00    -0.744 OA
ENDBRANCH  83  86
ENDBRANCH  55  79
BRANCH  67  90
ATOM     90  C   UNL A   1      44.513  27.507  34.249  1.00  0.00     0.023 A 
ATOM     91  C   UNL A   1      45.830  27.989  34.108  1.00  0.00     0.012 A 
ATOM     92  C   UNL A   1      44.289  26.337  35.003  1.00  0.00     0.148 A 
ATOM     93  C   UNL A   1      46.906  27.297  34.670  1.00  0.00     0.002 A 
ATOM     94  C   UNL A   1      45.359  25.682  35.604  1.00  0.00     0.091 A 
ATOM     95  F   UNL A   1      43.034  25.879  35.115  1.00  0.00    -0.205 F 
ATOM     96  C   UNL A   1      46.670  26.152  35.425  1.00  0.00     0.022 A 
BRANCH  94  97
ATOM     97  S   UNL A   1      45.141  24.255  36.674  1.00  0.00     0.127 S 
ATOM     98  O   UNL A   1      44.231  24.782  37.690  1.00  0.00    -0.237 OA
ATOM     99  O   UNL A   1      44.542  23.276  35.767  1.00  0.00    -0.237 OA
ATOM    100  O   UNL A   1      46.471  23.902  37.150  1.00  0.00    -0.744 OA
ENDBRANCH  94  97
ENDBRANCH  67  90
ENDBRANCH  41  42
ENDBRANCH  34  36
ENDBRANCH  33  34
ENDBRANCH  32  33
ENDBRANCH  31  32
ENDBRANCH  30  31
ENDBRANCH   1  30
TORSDOF 22
ENDMDL
