MODEL 1
REMARK VINA RESULT:     -10.7      0.000      0.000
REMARK SMILES C[C@H](CNC(=O)Cc1ccc(F)c(F)c1)C(=O)OCCOCCOC(=O)c1ccc(-c2c3nc(c(-c4cccc(S(=O)(=O)[O-])c4F)c4ccc([nH]4)c(-c4cccc(S(=O)(=O)[O-])c4F)c4nc(c(-c5cccc(S(=O)(=O)[O-])c5F)c5ccc2[nH]5)C=C4)C=C3)cc1
REMARK SMILES IDX 20 1 19 2 18 3 16 4 17 5 2 6 1 7 3 8 4 9 5 10 6 12 7 13 8 14
REMARK SMILES IDX 9 15 15 16 10 17 13 18 11 19 14 20 12 21 21 22 22 23 23 24
REMARK SMILES IDX 24 25 25 26 26 27 27 28 28 29 89 30 29 31 88 32 30 33 31 34
REMARK SMILES IDX 32 35 82 36 33 37 87 38 81 39 83 40 34 41 86 42 80 43 79 44
REMARK SMILES IDX 35 46 67 47 47 48 66 49 48 50 51 51 65 52 84 53 49 54 50 55
REMARK SMILES IDX 64 57 85 58 52 59 36 60 37 61 45 62 38 63 40 64 46 65 39 66
REMARK SMILES IDX 41 67 42 68 43 69 44 70 68 71 69 72 77 73 70 74 72 75 78 76
REMARK SMILES IDX 71 77 73 78 74 79 75 80 76 81 53 82 54 83 62 84 55 85 57 86
REMARK SMILES IDX 63 87 56 88 58 89 59 90 60 91 61 92
REMARK H PARENT 4 11 83 45 51 56
REMARK Flexibility Score: inf
ROOT
ATOM      1  C   UNL A   1      34.866  22.949  26.365  1.00  0.00     0.202 C 
ENDROOT
BRANCH   1   2
ATOM      2  C   UNL A   1      33.754  22.155  27.054  1.00  0.00     0.261 C 
BRANCH   2   3
ATOM      3  O   UNL A   1      32.459  22.560  26.579  1.00  0.00    -0.463 OA
BRANCH   3   4
ATOM      4  C   UNL A   1      31.986  21.867  25.514  1.00  0.00     0.310 C 
ATOM      5  O   UNL A   1      32.004  20.646  25.398  1.00  0.00    -0.252 OA
BRANCH   4   6
ATOM      6  C   UNL A   1      31.414  22.763  24.439  1.00  0.00     0.115 C 
ATOM      7  C   UNL A   1      32.370  22.749  23.256  1.00  0.00     0.022 C 
BRANCH   6   8
ATOM      8  C   UNL A   1      30.947  24.160  24.887  1.00  0.00     0.130 C 
BRANCH   8   9
ATOM      9  N   UNL A   1      31.987  25.165  24.993  1.00  0.00    -0.355 N 
ATOM     10  C   UNL A   1      32.294  26.224  24.191  1.00  0.00     0.224 C 
ATOM     11  H   UNL A   1      32.571  25.066  25.779  1.00  0.00     0.163 HD
ATOM     12  O   UNL A   1      33.143  27.022  24.591  1.00  0.00    -0.275 OA
BRANCH  10  13
ATOM     13  C   UNL A   1      31.599  26.426  22.853  1.00  0.00     0.135 C 
BRANCH  13  14
ATOM     14  C   UNL A   1      30.443  27.400  22.905  1.00  0.00    -0.036 A 
ATOM     15  C   UNL A   1      29.206  27.013  23.443  1.00  0.00     0.007 A 
ATOM     16  C   UNL A   1      30.573  28.701  22.395  1.00  0.00     0.046 A 
ATOM     17  C   UNL A   1      28.103  27.866  23.399  1.00  0.00     0.043 A 
ATOM     18  C   UNL A   1      29.478  29.566  22.396  1.00  0.00     0.159 A 
ATOM     19  C   UNL A   1      28.245  29.140  22.872  1.00  0.00     0.158 A 
ATOM     20  F   UNL A   1      29.621  30.816  21.936  1.00  0.00    -0.204 F 
ATOM     21  F   UNL A   1      27.181  29.954  22.836  1.00  0.00    -0.204 F 
ENDBRANCH  13  14
ENDBRANCH  10  13
ENDBRANCH   8   9
ENDBRANCH   6   8
ENDBRANCH   4   6
ENDBRANCH   3   4
ENDBRANCH   2   3
ENDBRANCH   1   2
BRANCH   1  22
ATOM     22  O   UNL A   1      35.479  22.350  25.222  1.00  0.00    -0.374 OA
BRANCH  22  23
ATOM     23  C   UNL A   1      35.603  20.930  25.196  1.00  0.00     0.202 C 
BRANCH  23  24
ATOM     24  C   UNL A   1      37.007  20.341  25.013  1.00  0.00     0.261 C 
BRANCH  24  25
ATOM     25  O   UNL A   1      38.025  21.355  24.993  1.00  0.00    -0.460 OA
BRANCH  25  26
ATOM     26  C   UNL A   1      39.062  21.102  25.824  1.00  0.00     0.338 C 
ATOM     27  O   UNL A   1      39.735  20.074  25.861  1.00  0.00    -0.246 OA
BRANCH  26  28
ATOM     28  C   UNL A   1      39.449  22.304  26.580  1.00  0.00     0.060 A 
ATOM     29  C   UNL A   1      38.790  23.493  26.242  1.00  0.00     0.016 A 
ATOM     30  C   UNL A   1      40.502  22.308  27.499  1.00  0.00     0.016 A 
ATOM     31  C   UNL A   1      39.254  24.706  26.729  1.00  0.00     0.010 A 
ATOM     32  C   UNL A   1      40.970  23.535  27.987  1.00  0.00     0.010 A 
ATOM     33  C   UNL A   1      40.394  24.739  27.542  1.00  0.00    -0.014 A 
BRANCH  33  34
ATOM     34  C   UNL A   1      41.088  26.040  27.704  1.00  0.00     0.031 A 
ATOM     35  C   UNL A   1      40.392  27.138  28.468  1.00  0.00     0.074 A 
ATOM     36  C   UNL A   1      42.351  26.207  27.278  1.00  0.00     0.049 A 
ATOM     37  N   UNL A   1      40.846  28.306  28.840  1.00  0.00    -0.248 NA
ATOM     38  C   UNL A   1      38.999  26.881  28.875  1.00  0.00     0.031 C 
ATOM     39  C   UNL A   1      43.134  25.214  26.544  1.00  0.00     0.029 A 
ATOM     40  N   UNL A   1      43.199  27.277  27.409  1.00  0.00    -0.354 N 
ATOM     41  C   UNL A   1      39.792  28.933  29.494  1.00  0.00     0.074 A 
ATOM     42  C   UNL A   1      38.668  28.023  29.458  1.00  0.00     0.031 C 
ATOM     43  C   UNL A   1      44.349  25.725  26.283  1.00  0.00     0.029 A 
ATOM     44  C   UNL A   1      44.426  27.082  26.819  1.00  0.00     0.049 A 
ATOM     45  H   UNL A   1      42.953  28.106  27.880  1.00  0.00     0.167 HD
ATOM     46  C   UNL A   1      39.764  30.148  30.091  1.00  0.00     0.034 A 
ATOM     47  C   UNL A   1      45.486  27.909  26.725  1.00  0.00     0.034 A 
ATOM     48  C   UNL A   1      40.891  31.038  30.153  1.00  0.00     0.049 A 
ATOM     49  C   UNL A   1      45.427  29.258  27.393  1.00  0.00     0.074 A 
ATOM     50  C   UNL A   1      40.981  32.269  30.776  1.00  0.00     0.029 A 
ATOM     51  N   UNL A   1      42.121  30.795  29.564  1.00  0.00    -0.354 N 
ATOM     52  N   UNL A   1      44.465  29.784  28.113  1.00  0.00    -0.248 NA
ATOM     53  C   UNL A   1      46.618  30.111  27.272  1.00  0.00     0.031 C 
ATOM     54  C   UNL A   1      42.259  32.786  30.537  1.00  0.00     0.029 A 
ATOM     55  C   UNL A   1      42.975  31.860  29.797  1.00  0.00     0.049 A 
ATOM     56  H   UNL A   1      42.354  29.986  29.054  1.00  0.00     0.167 HD
ATOM     57  C   UNL A   1      44.951  31.007  28.566  1.00  0.00     0.074 A 
ATOM     58  C   UNL A   1      46.299  31.133  28.053  1.00  0.00     0.031 C 
ATOM     59  C   UNL A   1      44.335  31.944  29.329  1.00  0.00     0.034 A 
BRANCH  46  60
ATOM     60  C   UNL A   1      38.474  30.580  30.739  1.00  0.00     0.023 A 
ATOM     61  C   UNL A   1      38.233  30.279  32.094  1.00  0.00     0.012 A 
ATOM     62  C   UNL A   1      37.522  31.326  30.017  1.00  0.00     0.148 A 
ATOM     63  C   UNL A   1      37.049  30.685  32.712  1.00  0.00     0.002 A 
ATOM     64  C   UNL A   1      36.366  31.766  30.651  1.00  0.00     0.091 A 
ATOM     65  F   UNL A   1      37.757  31.580  28.721  1.00  0.00    -0.205 F 
ATOM     66  C   UNL A   1      36.123  31.437  31.994  1.00  0.00     0.022 A 
BRANCH  64  67
ATOM     67  S   UNL A   1      35.151  32.804  29.833  1.00  0.00     0.127 S 
ATOM     68  O   UNL A   1      34.629  31.899  28.811  1.00  0.00    -0.237 OA
ATOM     69  O   UNL A   1      34.217  33.100  30.920  1.00  0.00    -0.237 OA
ATOM     70  O   UNL A   1      35.882  33.960  29.331  1.00  0.00    -0.744 OA
ENDBRANCH  64  67
ENDBRANCH  46  60
BRANCH  47  71
ATOM     71  C   UNL A   1      46.718  27.462  26.015  1.00  0.00     0.023 A 
ATOM     72  C   UNL A   1      46.870  27.736  24.642  1.00  0.00     0.012 A 
ATOM     73  C   UNL A   1      47.741  26.775  26.695  1.00  0.00     0.148 A 
ATOM     74  C   UNL A   1      48.002  27.305  23.952  1.00  0.00     0.002 A 
ATOM     75  C   UNL A   1      48.892  26.397  26.014  1.00  0.00     0.091 A 
ATOM     76  F   UNL A   1      47.570  26.508  27.998  1.00  0.00    -0.205 F 
ATOM     77  C   UNL A   1      49.017  26.644  24.639  1.00  0.00     0.022 A 
BRANCH  75  78
ATOM     78  S   UNL A   1      50.301  25.652  26.842  1.00  0.00     0.127 S 
ATOM     79  O   UNL A   1      49.721  24.420  27.369  1.00  0.00    -0.237 OA
ATOM     80  O   UNL A   1      51.239  25.468  25.733  1.00  0.00    -0.237 OA
ATOM     81  O   UNL A   1      50.731  26.624  27.838  1.00  0.00    -0.744 OA
ENDBRANCH  75  78
ENDBRANCH  47  71
BRANCH  59  82
ATOM     82  C   UNL A   1      45.126  33.171  29.705  1.00  0.00     0.023 A 
ATOM     83  C   UNL A   1      45.997  33.137  30.812  1.00  0.00     0.012 A 
ATOM     84  C   UNL A   1      45.052  34.339  28.921  1.00  0.00     0.148 A 
ATOM     85  C   UNL A   1      46.750  34.259  31.156  1.00  0.00     0.002 A 
ATOM     86  C   UNL A   1      45.844  35.436  29.238  1.00  0.00     0.091 A 
ATOM     87  F   UNL A   1      44.205  34.360  27.881  1.00  0.00    -0.205 F 
ATOM     88  C   UNL A   1      46.683  35.403  30.364  1.00  0.00     0.022 A 
BRANCH  86  89
ATOM     89  S   UNL A   1      45.895  36.909  28.212  1.00  0.00     0.127 S 
ATOM     90  O   UNL A   1      44.532  37.417  28.351  1.00  0.00    -0.237 OA
ATOM     91  O   UNL A   1      46.918  37.718  28.875  1.00  0.00    -0.237 OA
ATOM     92  O   UNL A   1      46.263  36.452  26.879  1.00  0.00    -0.744 OA
ENDBRANCH  86  89
ENDBRANCH  59  82
ENDBRANCH  33  34
ENDBRANCH  26  28
ENDBRANCH  25  26
ENDBRANCH  24  25
ENDBRANCH  23  24
ENDBRANCH  22  23
ENDBRANCH   1  22
TORSDOF 21
ENDMDL
MODEL 2
REMARK VINA RESULT:     -10.6      1.862      2.122
REMARK SMILES C[C@H](CNC(=O)Cc1ccc(F)c(F)c1)C(=O)OCCOCCOC(=O)c1ccc(-c2c3nc(c(-c4cccc(S(=O)(=O)[O-])c4F)c4ccc([nH]4)c(-c4cccc(S(=O)(=O)[O-])c4F)c4nc(c(-c5cccc(S(=O)(=O)[O-])c5F)c5ccc2[nH]5)C=C4)C=C3)cc1
REMARK SMILES IDX 20 1 19 2 18 3 16 4 17 5 2 6 1 7 3 8 4 9 5 10 6 12 7 13 8 14
REMARK SMILES IDX 9 15 15 16 10 17 13 18 11 19 14 20 12 21 21 22 22 23 23 24
REMARK SMILES IDX 24 25 25 26 26 27 27 28 28 29 89 30 29 31 88 32 30 33 31 34
REMARK SMILES IDX 32 35 82 36 33 37 87 38 81 39 83 40 34 41 86 42 80 43 79 44
REMARK SMILES IDX 35 46 67 47 47 48 66 49 48 50 51 51 65 52 84 53 49 54 50 55
REMARK SMILES IDX 64 57 85 58 52 59 36 60 37 61 45 62 38 63 40 64 46 65 39 66
REMARK SMILES IDX 41 67 42 68 43 69 44 70 68 71 69 72 77 73 70 74 72 75 78 76
REMARK SMILES IDX 71 77 73 78 74 79 75 80 76 81 53 82 54 83 62 84 55 85 57 86
REMARK SMILES IDX 63 87 56 88 58 89 59 90 60 91 61 92
REMARK H PARENT 4 11 83 45 51 56
REMARK Flexibility Score: inf
ROOT
ATOM      1  C   UNL A   1      35.231  22.125  26.144  1.00  0.00     0.202 C 
ENDROOT
BRANCH   1   2
ATOM      2  C   UNL A   1      34.087  21.299  26.735  1.00  0.00     0.261 C 
BRANCH   2   3
ATOM      3  O   UNL A   1      32.939  21.315  25.870  1.00  0.00    -0.463 OA
BRANCH   3   4
ATOM      4  C   UNL A   1      32.647  20.137  25.266  1.00  0.00     0.310 C 
ATOM      5  O   UNL A   1      32.853  19.026  25.743  1.00  0.00    -0.252 OA
BRANCH   4   6
ATOM      6  C   UNL A   1      32.025  20.318  23.899  1.00  0.00     0.115 C 
ATOM      7  C   UNL A   1      32.478  19.163  23.020  1.00  0.00     0.022 C 
BRANCH   6   8
ATOM      8  C   UNL A   1      32.155  21.715  23.266  1.00  0.00     0.130 C 
BRANCH   8   9
ATOM      9  N   UNL A   1      33.508  22.151  22.981  1.00  0.00    -0.355 N 
ATOM     10  C   UNL A   1      34.016  23.392  22.734  1.00  0.00     0.224 C 
ATOM     11  H   UNL A   1      34.175  21.426  22.963  1.00  0.00     0.163 HD
ATOM     12  O   UNL A   1      35.240  23.511  22.670  1.00  0.00    -0.275 OA
BRANCH  10  13
ATOM     13  C   UNL A   1      33.104  24.597  22.563  1.00  0.00     0.135 C 
BRANCH  13  14
ATOM     14  C   UNL A   1      33.026  25.484  23.785  1.00  0.00    -0.036 A 
ATOM     15  C   UNL A   1      33.632  26.750  23.789  1.00  0.00     0.007 A 
ATOM     16  C   UNL A   1      32.368  25.053  24.948  1.00  0.00     0.046 A 
ATOM     17  C   UNL A   1      33.659  27.532  24.944  1.00  0.00     0.043 A 
ATOM     18  C   UNL A   1      32.358  25.860  26.086  1.00  0.00     0.159 A 
ATOM     19  C   UNL A   1      33.022  27.081  26.090  1.00  0.00     0.158 A 
ATOM     20  F   UNL A   1      31.701  25.454  27.180  1.00  0.00    -0.204 F 
ATOM     21  F   UNL A   1      33.050  27.839  27.195  1.00  0.00    -0.204 F 
ENDBRANCH  13  14
ENDBRANCH  10  13
ENDBRANCH   8   9
ENDBRANCH   6   8
ENDBRANCH   4   6
ENDBRANCH   3   4
ENDBRANCH   2   3
ENDBRANCH   1   2
BRANCH   1  22
ATOM     22  O   UNL A   1      35.882  21.598  24.986  1.00  0.00    -0.374 OA
BRANCH  22  23
ATOM     23  C   UNL A   1      36.218  20.213  24.979  1.00  0.00     0.202 C 
BRANCH  23  24
ATOM     24  C   UNL A   1      37.705  19.841  24.931  1.00  0.00     0.261 C 
BRANCH  24  25
ATOM     25  O   UNL A   1      38.558  20.974  25.162  1.00  0.00    -0.460 OA
BRANCH  25  26
ATOM     26  C   UNL A   1      39.509  20.757  26.099  1.00  0.00     0.338 C 
ATOM     27  O   UNL A   1      40.146  19.718  26.268  1.00  0.00    -0.246 OA
BRANCH  26  28
ATOM     28  C   UNL A   1      39.863  22.000  26.803  1.00  0.00     0.060 A 
ATOM     29  C   UNL A   1      39.140  23.146  26.446  1.00  0.00     0.016 A 
ATOM     30  C   UNL A   1      40.941  22.083  27.687  1.00  0.00     0.016 A 
ATOM     31  C   UNL A   1      39.562  24.395  26.879  1.00  0.00     0.010 A 
ATOM     32  C   UNL A   1      41.367  23.346  28.119  1.00  0.00     0.010 A 
ATOM     33  C   UNL A   1      40.723  24.507  27.653  1.00  0.00    -0.014 A 
BRANCH  33  34
ATOM     34  C   UNL A   1      41.361  25.842  27.751  1.00  0.00     0.031 A 
ATOM     35  C   UNL A   1      40.638  26.933  28.500  1.00  0.00     0.074 A 
ATOM     36  C   UNL A   1      42.602  26.051  27.280  1.00  0.00     0.049 A 
ATOM     37  N   UNL A   1      41.049  28.133  28.818  1.00  0.00    -0.248 NA
ATOM     38  C   UNL A   1      39.272  26.628  28.959  1.00  0.00     0.031 C 
ATOM     39  C   UNL A   1      43.407  25.070  26.555  1.00  0.00     0.029 A 
ATOM     40  N   UNL A   1      43.403  27.162  27.349  1.00  0.00    -0.354 N 
ATOM     41  C   UNL A   1      39.987  28.733  29.485  1.00  0.00     0.074 A 
ATOM     42  C   UNL A   1      38.907  27.774  29.514  1.00  0.00     0.031 C 
ATOM     43  C   UNL A   1      44.589  25.625  26.238  1.00  0.00     0.029 A 
ATOM     44  C   UNL A   1      44.619  27.003  26.727  1.00  0.00     0.049 A 
ATOM     45  H   UNL A   1      43.134  27.995  27.800  1.00  0.00     0.167 HD
ATOM     46  C   UNL A   1      39.921  29.966  30.042  1.00  0.00     0.034 A 
ATOM     47  C   UNL A   1      45.637  27.873  26.573  1.00  0.00     0.034 A 
ATOM     48  C   UNL A   1      41.008  30.907  30.040  1.00  0.00     0.049 A 
ATOM     49  C   UNL A   1      45.536  29.240  27.198  1.00  0.00     0.074 A 
ATOM     50  C   UNL A   1      41.060  32.162  30.618  1.00  0.00     0.029 A 
ATOM     51  N   UNL A   1      42.230  30.700  29.420  1.00  0.00    -0.354 N 
ATOM     52  N   UNL A   1      44.573  29.747  27.930  1.00  0.00    -0.248 NA
ATOM     53  C   UNL A   1      46.682  30.140  27.011  1.00  0.00     0.031 C 
ATOM     54  C   UNL A   1      42.305  32.727  30.322  1.00  0.00     0.029 A 
ATOM     55  C   UNL A   1      43.041  31.809  29.591  1.00  0.00     0.049 A 
ATOM     56  H   UNL A   1      42.484  29.886  28.930  1.00  0.00     0.167 HD
ATOM     57  C   UNL A   1      45.015  31.005  28.327  1.00  0.00     0.074 A 
ATOM     58  C   UNL A   1      46.341  31.174  27.768  1.00  0.00     0.031 C 
ATOM     59  C   UNL A   1      44.380  31.939  29.077  1.00  0.00     0.034 A 
BRANCH  46  60
ATOM     60  C   UNL A   1      38.634  30.362  30.715  1.00  0.00     0.023 A 
ATOM     61  C   UNL A   1      38.414  30.024  32.066  1.00  0.00     0.012 A 
ATOM     62  C   UNL A   1      37.660  31.109  30.023  1.00  0.00     0.148 A 
ATOM     63  C   UNL A   1      37.232  30.397  32.708  1.00  0.00     0.002 A 
ATOM     64  C   UNL A   1      36.506  31.515  30.682  1.00  0.00     0.091 A 
ATOM     65  F   UNL A   1      37.876  31.398  28.731  1.00  0.00    -0.205 F 
ATOM     66  C   UNL A   1      36.285  31.150  32.020  1.00  0.00     0.022 A 
BRANCH  64  67
ATOM     67  S   UNL A   1      35.264  32.553  29.905  1.00  0.00     0.127 S 
ATOM     68  O   UNL A   1      34.770  31.678  28.843  1.00  0.00    -0.237 OA
ATOM     69  O   UNL A   1      34.320  32.777  30.999  1.00  0.00    -0.237 OA
ATOM     70  O   UNL A   1      35.964  33.749  29.454  1.00  0.00    -0.744 OA
ENDBRANCH  64  67
ENDBRANCH  46  60
BRANCH  47  71
ATOM     71  C   UNL A   1      46.866  27.458  25.839  1.00  0.00     0.023 A 
ATOM     72  C   UNL A   1      46.966  27.694  24.455  1.00  0.00     0.012 A 
ATOM     73  C   UNL A   1      47.939  26.837  26.508  1.00  0.00     0.148 A 
ATOM     74  C   UNL A   1      48.096  27.292  23.743  1.00  0.00     0.002 A 
ATOM     75  C   UNL A   1      49.085  26.488  25.804  1.00  0.00     0.091 A 
ATOM     76  F   UNL A   1      47.817  26.604  27.823  1.00  0.00    -0.205 F 
ATOM     77  C   UNL A   1      49.159  26.698  24.419  1.00  0.00     0.022 A 
BRANCH  75  78
ATOM     78  S   UNL A   1      50.549  25.831  26.611  1.00  0.00     0.127 S 
ATOM     79  O   UNL A   1      50.040  24.592  27.193  1.00  0.00    -0.237 OA
ATOM     80  O   UNL A   1      51.461  25.653  25.480  1.00  0.00    -0.237 OA
ATOM     81  O   UNL A   1      50.965  26.852  27.563  1.00  0.00    -0.744 OA
ENDBRANCH  75  78
ENDBRANCH  47  71
BRANCH  59  82
ATOM     82  C   UNL A   1      45.125  33.213  29.388  1.00  0.00     0.023 A 
ATOM     83  C   UNL A   1      45.979  33.275  30.506  1.00  0.00     0.012 A 
ATOM     84  C   UNL A   1      45.025  34.327  28.532  1.00  0.00     0.148 A 
ATOM     85  C   UNL A   1      46.690  34.441  30.791  1.00  0.00     0.002 A 
ATOM     86  C   UNL A   1      45.776  35.467  28.792  1.00  0.00     0.091 A 
ATOM     87  F   UNL A   1      44.194  34.256  27.482  1.00  0.00    -0.205 F 
ATOM     88  C   UNL A   1      46.598  35.531  29.929  1.00  0.00     0.022 A 
BRANCH  86  89
ATOM     89  S   UNL A   1      45.794  36.875  27.678  1.00  0.00     0.127 S 
ATOM     90  O   UNL A   1      46.530  37.866  28.461  1.00  0.00    -0.237 OA
ATOM     91  O   UNL A   1      46.521  36.351  26.521  1.00  0.00    -0.237 OA
ATOM     92  O   UNL A   1      44.398  37.193  27.415  1.00  0.00    -0.744 OA
ENDBRANCH  86  89
ENDBRANCH  59  82
ENDBRANCH  33  34
ENDBRANCH  26  28
ENDBRANCH  25  26
ENDBRANCH  24  25
ENDBRANCH  23  24
ENDBRANCH  22  23
ENDBRANCH   1  22
TORSDOF 21
ENDMDL
MODEL 3
REMARK VINA RESULT:     -10.5      5.399      8.363
REMARK SMILES C[C@H](CNC(=O)Cc1ccc(F)c(F)c1)C(=O)OCCOCCOC(=O)c1ccc(-c2c3nc(c(-c4cccc(S(=O)(=O)[O-])c4F)c4ccc([nH]4)c(-c4cccc(S(=O)(=O)[O-])c4F)c4nc(c(-c5cccc(S(=O)(=O)[O-])c5F)c5ccc2[nH]5)C=C4)C=C3)cc1
REMARK SMILES IDX 20 1 19 2 18 3 16 4 17 5 2 6 1 7 3 8 4 9 5 10 6 12 7 13 8 14
REMARK SMILES IDX 9 15 15 16 10 17 13 18 11 19 14 20 12 21 21 22 22 23 23 24
REMARK SMILES IDX 24 25 25 26 26 27 27 28 28 29 89 30 29 31 88 32 30 33 31 34
REMARK SMILES IDX 32 35 82 36 33 37 87 38 81 39 83 40 34 41 86 42 80 43 79 44
REMARK SMILES IDX 35 46 67 47 47 48 66 49 48 50 51 51 65 52 84 53 49 54 50 55
REMARK SMILES IDX 64 57 85 58 52 59 36 60 37 61 45 62 38 63 40 64 46 65 39 66
REMARK SMILES IDX 41 67 42 68 43 69 44 70 68 71 69 72 77 73 70 74 72 75 78 76
REMARK SMILES IDX 71 77 73 78 74 79 75 80 76 81 53 82 54 83 62 84 55 85 57 86
REMARK SMILES IDX 63 87 56 88 58 89 59 90 60 91 61 92
REMARK H PARENT 4 11 83 45 51 56
REMARK Flexibility Score: inf
ROOT
ATOM      1  C   UNL A   1      32.659  29.532  25.532  1.00  0.00     0.202 C 
ENDROOT
BRANCH   1   2
ATOM      2  C   UNL A   1      33.407  28.262  25.944  1.00  0.00     0.261 C 
BRANCH   2   3
ATOM      3  O   UNL A   1      33.976  27.605  24.800  1.00  0.00    -0.463 OA
BRANCH   3   4
ATOM      4  C   UNL A   1      33.864  26.254  24.788  1.00  0.00     0.310 C 
ATOM      5  O   UNL A   1      34.489  25.484  25.510  1.00  0.00    -0.252 OA
BRANCH   4   6
ATOM      6  C   UNL A   1      32.867  25.758  23.764  1.00  0.00     0.115 C 
ATOM      7  C   UNL A   1      32.983  26.637  22.529  1.00  0.00     0.022 C 
BRANCH   6   8
ATOM      8  C   UNL A   1      31.431  25.519  24.267  1.00  0.00     0.130 C 
BRANCH   8   9
ATOM      9  N   UNL A   1      31.315  25.043  25.631  1.00  0.00    -0.355 N 
ATOM     10  C   UNL A   1      31.266  23.777  26.136  1.00  0.00     0.224 C 
ATOM     11  H   UNL A   1      31.262  25.755  26.309  1.00  0.00     0.163 HD
ATOM     12  O   UNL A   1      31.318  23.643  27.360  1.00  0.00    -0.275 OA
BRANCH  10  13
ATOM     13  C   UNL A   1      31.171  22.566  25.221  1.00  0.00     0.135 C 
BRANCH  13  14
ATOM     14  C   UNL A   1      32.433  21.735  25.171  1.00  0.00    -0.036 A 
ATOM     15  C   UNL A   1      33.694  22.352  25.135  1.00  0.00     0.007 A 
ATOM     16  C   UNL A   1      32.373  20.333  25.134  1.00  0.00     0.046 A 
ATOM     17  C   UNL A   1      34.859  21.600  24.981  1.00  0.00     0.043 A 
ATOM     18  C   UNL A   1      33.545  19.585  25.026  1.00  0.00     0.159 A 
ATOM     19  C   UNL A   1      34.778  20.217  24.925  1.00  0.00     0.158 A 
ATOM     20  F   UNL A   1      33.479  18.247  25.024  1.00  0.00    -0.204 F 
ATOM     21  F   UNL A   1      35.902  19.502  24.779  1.00  0.00    -0.204 F 
ENDBRANCH  13  14
ENDBRANCH  10  13
ENDBRANCH   8   9
ENDBRANCH   6   8
ENDBRANCH   4   6
ENDBRANCH   3   4
ENDBRANCH   2   3
ENDBRANCH   1   2
BRANCH   1  22
ATOM     22  O   UNL A   1      32.721  30.641  26.430  1.00  0.00    -0.374 OA
BRANCH  22  23
ATOM     23  C   UNL A   1      31.606  31.529  26.475  1.00  0.00     0.202 C 
BRANCH  23  24
ATOM     24  C   UNL A   1      31.739  32.798  27.326  1.00  0.00     0.261 C 
BRANCH  24  25
ATOM     25  O   UNL A   1      33.051  33.378  27.238  1.00  0.00    -0.460 OA
BRANCH  25  26
ATOM     26  C   UNL A   1      33.681  33.485  28.429  1.00  0.00     0.338 C 
ATOM     27  O   UNL A   1      33.228  33.995  29.453  1.00  0.00    -0.246 OA
BRANCH  26  28
ATOM     28  C   UNL A   1      34.942  32.726  28.440  1.00  0.00     0.060 A 
ATOM     29  C   UNL A   1      34.893  31.444  29.002  1.00  0.00     0.016 A 
ATOM     30  C   UNL A   1      36.158  33.282  28.036  1.00  0.00     0.016 A 
ATOM     31  C   UNL A   1      36.070  30.759  29.270  1.00  0.00     0.010 A 
ATOM     32  C   UNL A   1      37.344  32.590  28.310  1.00  0.00     0.010 A 
ATOM     33  C   UNL A   1      37.303  31.361  28.996  1.00  0.00    -0.014 A 
BRANCH  33  34
ATOM     34  C   UNL A   1      38.508  30.797  29.652  1.00  0.00     0.031 A 
ATOM     35  C   UNL A   1      38.801  31.188  31.078  1.00  0.00     0.074 A 
ATOM     36  C   UNL A   1      39.264  29.875  29.034  1.00  0.00     0.049 A 
ATOM     37  N   UNL A   1      39.718  30.734  31.891  1.00  0.00    -0.248 NA
ATOM     38  C   UNL A   1      37.939  32.226  31.672  1.00  0.00     0.031 C 
ATOM     39  C   UNL A   1      39.069  29.404  27.663  1.00  0.00     0.029 A 
ATOM     40  N   UNL A   1      40.347  29.165  29.485  1.00  0.00    -0.354 N 
ATOM     41  C   UNL A   1      39.565  31.446  33.075  1.00  0.00     0.074 A 
ATOM     42  C   UNL A   1      38.476  32.375  32.873  1.00  0.00     0.031 C 
ATOM     43  C   UNL A   1      40.009  28.486  27.382  1.00  0.00     0.029 A 
ATOM     44  C   UNL A   1      40.877  28.313  28.545  1.00  0.00     0.049 A 
ATOM     45  H   UNL A   1      40.712  29.258  30.395  1.00  0.00     0.167 HD
ATOM     46  C   UNL A   1      40.253  31.326  34.235  1.00  0.00     0.034 A 
ATOM     47  C   UNL A   1      41.941  27.490  28.621  1.00  0.00     0.034 A 
ATOM     48  C   UNL A   1      41.315  30.380  34.444  1.00  0.00     0.049 A 
ATOM     49  C   UNL A   1      42.694  27.379  29.921  1.00  0.00     0.074 A 
ATOM     50  C   UNL A   1      42.043  30.146  35.596  1.00  0.00     0.029 A 
ATOM     51  N   UNL A   1      41.807  29.519  33.476  1.00  0.00    -0.354 N 
ATOM     52  N   UNL A   1      42.457  27.971  31.068  1.00  0.00    -0.248 NA
ATOM     53  C   UNL A   1      43.835  26.453  29.950  1.00  0.00     0.031 C 
ATOM     54  C   UNL A   1      42.997  29.161  35.316  1.00  0.00     0.029 A 
ATOM     55  C   UNL A   1      42.838  28.759  34.000  1.00  0.00     0.049 A 
ATOM     56  H   UNL A   1      41.473  29.458  32.552  1.00  0.00     0.167 HD
ATOM     57  C   UNL A   1      43.390  27.457  31.963  1.00  0.00     0.074 A 
ATOM     58  C   UNL A   1      44.183  26.493  31.229  1.00  0.00     0.031 C 
ATOM     59  C   UNL A   1      43.580  27.761  33.271  1.00  0.00     0.034 A 
BRANCH  46  60
ATOM     60  C   UNL A   1      39.868  32.233  35.374  1.00  0.00     0.023 A 
ATOM     61  C   UNL A   1      40.413  33.530  35.456  1.00  0.00     0.012 A 
ATOM     62  C   UNL A   1      38.931  31.815  36.340  1.00  0.00     0.148 A 
ATOM     63  C   UNL A   1      40.055  34.386  36.498  1.00  0.00     0.002 A 
ATOM     64  C   UNL A   1      38.545  32.690  37.349  1.00  0.00     0.091 A 
ATOM     65  F   UNL A   1      38.444  30.568  36.261  1.00  0.00    -0.205 F 
ATOM     66  C   UNL A   1      39.114  33.970  37.436  1.00  0.00     0.022 A 
BRANCH  64  67
ATOM     67  S   UNL A   1      37.283  32.274  38.557  1.00  0.00     0.127 S 
ATOM     68  O   UNL A   1      36.134  33.026  38.055  1.00  0.00    -0.237 OA
ATOM     69  O   UNL A   1      37.177  30.823  38.406  1.00  0.00    -0.237 OA
ATOM     70  O   UNL A   1      37.802  32.712  39.846  1.00  0.00    -0.744 OA
ENDBRANCH  64  67
ENDBRANCH  46  60
BRANCH  47  71
ATOM     71  C   UNL A   1      42.326  26.661  27.443  1.00  0.00     0.023 A 
ATOM     72  C   UNL A   1      43.033  27.249  26.377  1.00  0.00     0.012 A 
ATOM     73  C   UNL A   1      42.001  25.292  27.379  1.00  0.00     0.148 A 
ATOM     74  C   UNL A   1      43.381  26.498  25.254  1.00  0.00     0.002 A 
ATOM     75  C   UNL A   1      42.399  24.537  26.283  1.00  0.00     0.091 A 
ATOM     76  F   UNL A   1      41.312  24.754  28.396  1.00  0.00    -0.205 F 
ATOM     77  C   UNL A   1      43.073  25.141  25.211  1.00  0.00     0.022 A 
BRANCH  75  78
ATOM     78  S   UNL A   1      42.154  22.759  26.196  1.00  0.00     0.127 S 
ATOM     79  O   UNL A   1      42.878  22.300  27.379  1.00  0.00    -0.237 OA
ATOM     80  O   UNL A   1      40.697  22.652  26.284  1.00  0.00    -0.237 OA
ATOM     81  O   UNL A   1      42.712  22.348  24.915  1.00  0.00    -0.744 OA
ENDBRANCH  75  78
ENDBRANCH  47  71
BRANCH  59  82
ATOM     82  C   UNL A   1      44.653  27.008  34.017  1.00  0.00     0.023 A 
ATOM     83  C   UNL A   1      45.957  27.535  34.098  1.00  0.00     0.012 A 
ATOM     84  C   UNL A   1      44.350  25.809  34.691  1.00  0.00     0.148 A 
ATOM     85  C   UNL A   1      46.952  26.860  34.803  1.00  0.00     0.002 A 
ATOM     86  C   UNL A   1      45.333  25.168  35.435  1.00  0.00     0.091 A 
ATOM     87  F   UNL A   1      43.108  25.312  34.588  1.00  0.00    -0.205 F 
ATOM     88  C   UNL A   1      46.638  25.684  35.480  1.00  0.00     0.022 A 
BRANCH  86  89
ATOM     89  S   UNL A   1      44.986  23.707  36.420  1.00  0.00     0.127 S 
ATOM     90  O   UNL A   1      46.332  23.222  36.720  1.00  0.00    -0.237 OA
ATOM     91  O   UNL A   1      44.270  24.264  37.568  1.00  0.00    -0.237 OA
ATOM     92  O   UNL A   1      44.179  22.838  35.574  1.00  0.00    -0.744 OA
ENDBRANCH  86  89
ENDBRANCH  59  82
ENDBRANCH  33  34
ENDBRANCH  26  28
ENDBRANCH  25  26
ENDBRANCH  24  25
ENDBRANCH  23  24
ENDBRANCH  22  23
ENDBRANCH   1  22
TORSDOF 21
ENDMDL
