MODEL 1
REMARK VINA RESULT:      -9.4      0.000      0.000
REMARK SMILES COc1c(Cl)cc(C(=O)OCCOCCOC(=O)c2ccc(-c3c4nc(c(-c5cccc(S(=O)(=O)[O-])c5F)c5ccc([nH]5)c(-c5cccc(S(=O)(=O)[O-])c5F)c5nc(c(-c6cccc(S(=O)(=O)[O-])c6F)c6ccc3[nH]6)C=C5)C=C4)cc2)cc1NC(=S)NC(=O)c1ccccc1F
REMARK SMILES IDX 12 1 11 2 10 3 8 4 9 5 7 6 3 7 4 8 83 9 5 10 6 11 82 12 2 13
REMARK SMILES IDX 1 14 84 15 85 17 86 18 87 19 88 20 89 22 90 23 91 24 95 25
REMARK SMILES IDX 92 26 94 27 96 28 93 29 13 30 14 31 15 32 16 33 17 34 18 35
REMARK SMILES IDX 19 36 20 37 81 38 21 39 80 40 22 41 23 42 24 43 74 44 25 45
REMARK SMILES IDX 79 46 73 47 75 48 26 49 78 50 72 51 71 52 27 54 59 55 39 56
REMARK SMILES IDX 58 57 40 58 43 59 57 60 76 61 41 62 42 63 56 65 77 66 44 67
REMARK SMILES IDX 28 68 29 69 37 70 30 71 32 72 38 73 31 74 33 75 34 76 35 77
REMARK SMILES IDX 36 78 60 79 61 80 69 81 62 82 64 83 70 84 63 85 65 86 66 87
REMARK SMILES IDX 67 88 68 89 45 90 46 91 54 92 47 93 49 94 55 95 48 96 50 97
REMARK SMILES IDX 51 98 52 99 53 100
REMARK H PARENT 84 16 87 21 75 53 43 64
REMARK Flexibility Score: inf
ROOT
ATOM      1  C   UNL A   1      34.260  34.566  30.614  1.00  0.00     0.202 C 
ENDROOT
BRANCH   1   2
ATOM      2  C   UNL A   1      34.644  33.085  30.569  1.00  0.00     0.261 C 
BRANCH   2   3
ATOM      3  O   UNL A   1      35.066  32.759  29.238  1.00  0.00    -0.460 OA
BRANCH   3   4
ATOM      4  C   UNL A   1      35.687  31.597  28.957  1.00  0.00     0.338 C 
ATOM      5  O   UNL A   1      36.684  31.171  29.513  1.00  0.00    -0.246 OA
BRANCH   4   6
ATOM      6  C   UNL A   1      34.817  30.727  28.011  1.00  0.00     0.063 A 
ATOM      7  C   UNL A   1      32.246  29.360  25.843  1.00  0.00     0.160 A 
ATOM      8  C   UNL A   1      32.182  31.070  26.415  1.00  0.00     0.086 A 
ATOM      9  C   UNL A   1      33.550  28.271  26.266  1.00  0.00     0.085 A 
ATOM     10  Cl  UNL A   1      30.825  32.088  26.084  1.00  0.00    -0.080 Cl
ATOM     11  C   UNL A   1      33.444  31.798  27.464  1.00  0.00     0.040 A 
ATOM     12  C   UNL A   1      34.706  28.825  27.350  1.00  0.00     0.045 A 
BRANCH   7  13
ATOM     13  O   UNL A   1      31.183  28.641  25.348  1.00  0.00    -0.493 OA
ATOM     14  C   UNL A   1      30.834  28.778  23.990  1.00  0.00     0.278 C 
ENDBRANCH   7  13
BRANCH   9  15
ATOM     15  N   UNL A   1      34.018  27.101  25.642  1.00  0.00    -0.329 N 
ATOM     16  H   UNL A   1      34.746  27.239  24.992  1.00  0.00     0.169 HD
BRANCH  15  17
ATOM     17  C   UNL A   1      33.613  25.782  25.799  1.00  0.00     0.177 C 
ATOM     18  S   UNL A   1      34.803  24.618  25.564  1.00  0.00    -0.040 S 
BRANCH  17  19
ATOM     19  N   UNL A   1      32.311  25.276  26.167  1.00  0.00    -0.299 N 
ATOM     20  C   UNL A   1      31.038  24.518  25.938  1.00  0.00     0.260 C 
ATOM     21  H   UNL A   1      32.194  25.622  27.081  1.00  0.00     0.172 HD
ATOM     22  O   UNL A   1      30.103  24.621  26.726  1.00  0.00    -0.269 OA
BRANCH  20  23
ATOM     23  C   UNL A   1      30.820  23.701  24.690  1.00  0.00     0.075 A 
ATOM     24  C   UNL A   1      30.848  24.908  23.421  1.00  0.00     0.017 A 
ATOM     25  C   UNL A   1      31.808  22.188  24.650  1.00  0.00     0.135 A 
ATOM     26  C   UNL A   1      32.115  24.782  22.186  1.00  0.00     0.001 A 
ATOM     27  C   UNL A   1      33.109  21.915  23.455  1.00  0.00     0.040 A 
ATOM     28  F   UNL A   1      31.947  21.512  25.803  1.00  0.00    -0.206 F 
ATOM     29  C   UNL A   1      33.391  23.204  22.216  1.00  0.00     0.003 A 
ENDBRANCH  20  23
ENDBRANCH  17  19
ENDBRANCH  15  17
ENDBRANCH   9  15
ENDBRANCH   4   6
ENDBRANCH   3   4
ENDBRANCH   2   3
ENDBRANCH   1   2
BRANCH   1  30
ATOM     30  O   UNL A   1      34.265  35.172  31.910  1.00  0.00    -0.374 OA
BRANCH  30  31
ATOM     31  C   UNL A   1      35.391  34.890  32.738  1.00  0.00     0.202 C 
BRANCH  31  32
ATOM     32  C   UNL A   1      35.127  34.671  34.236  1.00  0.00     0.261 C 
BRANCH  32  33
ATOM     33  O   UNL A   1      35.529  33.369  34.698  1.00  0.00    -0.460 OA
BRANCH  33  34
ATOM     34  C   UNL A   1      36.613  33.384  35.513  1.00  0.00     0.338 C 
ATOM     35  O   UNL A   1      36.604  33.438  36.733  1.00  0.00    -0.246 OA
BRANCH  34  36
ATOM     36  C   UNL A   1      37.856  33.154  34.751  1.00  0.00     0.060 A 
ATOM     37  C   UNL A   1      37.791  32.248  33.685  1.00  0.00     0.016 A 
ATOM     38  C   UNL A   1      39.078  33.702  35.139  1.00  0.00     0.016 A 
ATOM     39  C   UNL A   1      38.959  31.819  33.060  1.00  0.00     0.010 A 
ATOM     40  C   UNL A   1      40.251  33.276  34.502  1.00  0.00     0.010 A 
ATOM     41  C   UNL A   1      40.203  32.291  33.496  1.00  0.00    -0.014 A 
BRANCH  41  42
ATOM     42  C   UNL A   1      41.450  31.667  32.978  1.00  0.00     0.031 A 
ATOM     43  C   UNL A   1      42.177  32.300  31.820  1.00  0.00     0.074 A 
ATOM     44  C   UNL A   1      41.948  30.555  33.551  1.00  0.00     0.049 A 
ATOM     45  N   UNL A   1      43.262  31.904  31.207  1.00  0.00    -0.248 NA
ATOM     46  C   UNL A   1      41.605  33.543  31.274  1.00  0.00     0.031 C 
ATOM     47  C   UNL A   1      41.353  29.855  34.688  1.00  0.00     0.029 A 
ATOM     48  N   UNL A   1      43.060  29.810  33.241  1.00  0.00    -0.354 N 
ATOM     49  C   UNL A   1      43.479  32.816  30.181  1.00  0.00     0.074 A 
ATOM     50  C   UNL A   1      42.407  33.786  30.248  1.00  0.00     0.031 C 
ATOM     51  C   UNL A   1      42.100  28.776  34.975  1.00  0.00     0.029 A 
ATOM     52  C   UNL A   1      43.194  28.679  34.013  1.00  0.00     0.049 A 
ATOM     53  H   UNL A   1      43.698  30.061  32.535  1.00  0.00     0.167 HD
ATOM     54  C   UNL A   1      44.479  32.848  29.267  1.00  0.00     0.034 A 
ATOM     55  C   UNL A   1      44.076  27.663  33.932  1.00  0.00     0.034 A 
ATOM     56  C   UNL A   1      45.547  31.885  29.205  1.00  0.00     0.049 A 
ATOM     57  C   UNL A   1      45.146  27.697  32.873  1.00  0.00     0.074 A 
ATOM     58  C   UNL A   1      46.634  31.865  28.348  1.00  0.00     0.029 A 
ATOM     59  N   UNL A   1      45.648  30.758  30.004  1.00  0.00    -0.354 N 
ATOM     60  N   UNL A   1      45.390  28.617  31.970  1.00  0.00    -0.248 NA
ATOM     61  C   UNL A   1      46.084  26.565  32.838  1.00  0.00     0.031 C 
ATOM     62  C   UNL A   1      47.350  30.687  28.578  1.00  0.00     0.029 A 
ATOM     63  C   UNL A   1      46.761  30.020  29.639  1.00  0.00     0.049 A 
ATOM     64  H   UNL A   1      45.022  30.518  30.725  1.00  0.00     0.167 HD
ATOM     65  C   UNL A   1      46.534  28.200  31.298  1.00  0.00     0.074 A 
ATOM     66  C   UNL A   1      46.943  26.952  31.906  1.00  0.00     0.031 C 
ATOM     67  C   UNL A   1      47.187  28.798  30.271  1.00  0.00     0.034 A 
BRANCH  54  68
ATOM     68  C   UNL A   1      44.461  33.946  28.233  1.00  0.00     0.023 A 
ATOM     69  C   UNL A   1      43.775  33.770  27.015  1.00  0.00     0.012 A 
ATOM     70  C   UNL A   1      45.072  35.186  28.508  1.00  0.00     0.148 A 
ATOM     71  C   UNL A   1      43.731  34.797  26.070  1.00  0.00     0.002 A 
ATOM     72  C   UNL A   1      44.979  36.221  27.586  1.00  0.00     0.091 A 
ATOM     73  F   UNL A   1      45.730  35.331  29.667  1.00  0.00    -0.205 F 
ATOM     74  C   UNL A   1      44.322  36.024  26.362  1.00  0.00     0.022 A 
BRANCH  72  75
ATOM     75  S   UNL A   1      45.637  37.862  27.901  1.00  0.00     0.127 S 
ATOM     76  O   UNL A   1      46.163  38.226  26.586  1.00  0.00    -0.237 OA
ATOM     77  O   UNL A   1      44.440  38.598  28.305  1.00  0.00    -0.237 OA
ATOM     78  O   UNL A   1      46.640  37.704  28.946  1.00  0.00    -0.744 OA
ENDBRANCH  72  75
ENDBRANCH  54  68
BRANCH  55  79
ATOM     79  C   UNL A   1      43.992  26.517  34.880  1.00  0.00     0.023 A 
ATOM     80  C   UNL A   1      43.372  25.319  34.477  1.00  0.00     0.012 A 
ATOM     81  C   UNL A   1      44.504  26.619  36.189  1.00  0.00     0.148 A 
ATOM     82  C   UNL A   1      43.218  24.261  35.374  1.00  0.00     0.002 A 
ATOM     83  C   UNL A   1      44.402  25.541  37.058  1.00  0.00     0.091 A 
ATOM     84  F   UNL A   1      45.083  27.770  36.556  1.00  0.00    -0.205 F 
ATOM     85  C   UNL A   1      43.741  24.369  36.661  1.00  0.00     0.022 A 
BRANCH  83  86
ATOM     86  S   UNL A   1      45.139  25.547  38.695  1.00  0.00     0.127 S 
ATOM     87  O   UNL A   1      46.517  25.934  38.400  1.00  0.00    -0.237 OA
ATOM     88  O   UNL A   1      44.344  26.570  39.375  1.00  0.00    -0.237 OA
ATOM     89  O   UNL A   1      44.965  24.199  39.216  1.00  0.00    -0.744 OA
ENDBRANCH  83  86
ENDBRANCH  55  79
BRANCH  67  90
ATOM     90  C   UNL A   1      48.463  28.162  29.781  1.00  0.00     0.023 A 
ATOM     91  C   UNL A   1      49.692  28.425  30.417  1.00  0.00     0.012 A 
ATOM     92  C   UNL A   1      48.424  27.248  28.708  1.00  0.00     0.148 A 
ATOM     93  C   UNL A   1      50.868  27.823  29.964  1.00  0.00     0.002 A 
ATOM     94  C   UNL A   1      49.587  26.606  28.302  1.00  0.00     0.091 A 
ATOM     95  F   UNL A   1      47.248  27.019  28.106  1.00  0.00    -0.205 F 
ATOM     96  C   UNL A   1      50.813  26.907  28.917  1.00  0.00     0.022 A 
BRANCH  94  97
ATOM     97  S   UNL A   1      49.596  25.342  27.027  1.00  0.00     0.127 S 
ATOM     98  O   UNL A   1      49.327  26.130  25.825  1.00  0.00    -0.237 OA
ATOM     99  O   UNL A   1      50.961  24.822  27.123  1.00  0.00    -0.237 OA
ATOM    100  O   UNL A   1      48.556  24.390  27.390  1.00  0.00    -0.744 OA
ENDBRANCH  94  97
ENDBRANCH  67  90
ENDBRANCH  41  42
ENDBRANCH  34  36
ENDBRANCH  33  34
ENDBRANCH  32  33
ENDBRANCH  31  32
ENDBRANCH  30  31
ENDBRANCH   1  30
TORSDOF 22
ENDMDL
MODEL 2
REMARK VINA RESULT:      -9.4      5.197      8.560
REMARK SMILES COc1c(Cl)cc(C(=O)OCCOCCOC(=O)c2ccc(-c3c4nc(c(-c5cccc(S(=O)(=O)[O-])c5F)c5ccc([nH]5)c(-c5cccc(S(=O)(=O)[O-])c5F)c5nc(c(-c6cccc(S(=O)(=O)[O-])c6F)c6ccc3[nH]6)C=C5)C=C4)cc2)cc1NC(=S)NC(=O)c1ccccc1F
REMARK SMILES IDX 12 1 11 2 10 3 8 4 9 5 7 6 3 7 4 8 83 9 5 10 6 11 82 12 2 13
REMARK SMILES IDX 1 14 84 15 85 17 86 18 87 19 88 20 89 22 90 23 91 24 95 25
REMARK SMILES IDX 92 26 94 27 96 28 93 29 13 30 14 31 15 32 16 33 17 34 18 35
REMARK SMILES IDX 19 36 20 37 81 38 21 39 80 40 22 41 23 42 24 43 74 44 25 45
REMARK SMILES IDX 79 46 73 47 75 48 26 49 78 50 72 51 71 52 27 54 59 55 39 56
REMARK SMILES IDX 58 57 40 58 43 59 57 60 76 61 41 62 42 63 56 65 77 66 44 67
REMARK SMILES IDX 28 68 29 69 37 70 30 71 32 72 38 73 31 74 33 75 34 76 35 77
REMARK SMILES IDX 36 78 60 79 61 80 69 81 62 82 64 83 70 84 63 85 65 86 66 87
REMARK SMILES IDX 67 88 68 89 45 90 46 91 54 92 47 93 49 94 55 95 48 96 50 97
REMARK SMILES IDX 51 98 52 99 53 100
REMARK H PARENT 84 16 87 21 75 53 43 64
REMARK Flexibility Score: inf
ROOT
ATOM      1  C   UNL A   1      35.790  30.903  27.691  1.00  0.00     0.202 C 
ENDROOT
BRANCH   1   2
ATOM      2  C   UNL A   1      34.486  30.102  27.703  1.00  0.00     0.261 C 
BRANCH   2   3
ATOM      3  O   UNL A   1      33.383  31.017  27.680  1.00  0.00    -0.460 OA
BRANCH   3   4
ATOM      4  C   UNL A   1      32.321  30.825  26.875  1.00  0.00     0.338 C 
ATOM      5  O   UNL A   1      31.612  31.703  26.411  1.00  0.00    -0.246 OA
BRANCH   4   6
ATOM      6  C   UNL A   1      32.267  29.355  26.380  1.00  0.00     0.063 A 
ATOM      7  C   UNL A   1      32.463  26.255  24.503  1.00  0.00     0.160 A 
ATOM      8  C   UNL A   1      33.185  27.783  23.871  1.00  0.00     0.086 A 
ATOM      9  C   UNL A   1      31.657  26.161  26.054  1.00  0.00     0.085 A 
ATOM     10  Cl  UNL A   1      33.867  27.877  22.287  1.00  0.00    -0.080 Cl
ATOM     11  C   UNL A   1      33.138  29.333  24.776  1.00  0.00     0.040 A 
ATOM     12  C   UNL A   1      31.450  27.590  26.911  1.00  0.00     0.045 A 
BRANCH   7  13
ATOM     13  O   UNL A   1      32.152  25.146  23.751  1.00  0.00    -0.493 OA
ATOM     14  C   UNL A   1      31.218  25.266  22.703  1.00  0.00     0.278 C 
ENDBRANCH   7  13
BRANCH   9  15
ATOM     15  N   UNL A   1      31.406  25.068  26.902  1.00  0.00    -0.329 N 
ATOM     16  H   UNL A   1      30.982  25.296  27.762  1.00  0.00     0.169 HD
BRANCH  15  17
ATOM     17  C   UNL A   1      31.664  23.715  26.715  1.00  0.00     0.177 C 
ATOM     18  S   UNL A   1      30.500  22.861  25.853  1.00  0.00    -0.040 S 
BRANCH  17  19
ATOM     19  N   UNL A   1      32.812  22.949  27.137  1.00  0.00    -0.299 N 
ATOM     20  C   UNL A   1      34.137  22.274  26.943  1.00  0.00     0.260 C 
ATOM     21  H   UNL A   1      32.616  22.767  28.085  1.00  0.00     0.172 HD
ATOM     22  O   UNL A   1      34.588  21.529  27.807  1.00  0.00    -0.269 OA
BRANCH  20  23
ATOM     23  C   UNL A   1      34.900  22.395  25.649  1.00  0.00     0.075 A 
ATOM     24  C   UNL A   1      36.005  23.716  25.965  1.00  0.00     0.017 A 
ATOM     25  C   UNL A   1      35.419  20.798  24.979  1.00  0.00     0.135 A 
ATOM     26  C   UNL A   1      37.744  23.374  25.902  1.00  0.00     0.001 A 
ATOM     27  C   UNL A   1      37.136  20.321  24.841  1.00  0.00     0.040 A 
ATOM     28  F   UNL A   1      34.554  19.776  25.082  1.00  0.00    -0.206 F 
ATOM     29  C   UNL A   1      38.384  21.528  25.355  1.00  0.00     0.003 A 
ENDBRANCH  20  23
ENDBRANCH  17  19
ENDBRANCH  15  17
ENDBRANCH   9  15
ENDBRANCH   4   6
ENDBRANCH   3   4
ENDBRANCH   2   3
ENDBRANCH   1   2
BRANCH   1  30
ATOM     30  O   UNL A   1      35.659  32.311  27.904  1.00  0.00    -0.374 OA
BRANCH  30  31
ATOM     31  C   UNL A   1      36.706  32.942  28.639  1.00  0.00     0.202 C 
BRANCH  31  32
ATOM     32  C   UNL A   1      36.641  32.860  30.171  1.00  0.00     0.261 C 
BRANCH  32  33
ATOM     33  O   UNL A   1      36.232  34.094  30.789  1.00  0.00    -0.460 OA
BRANCH  33  34
ATOM     34  C   UNL A   1      35.550  33.929  31.950  1.00  0.00     0.338 C 
ATOM     35  O   UNL A   1      34.348  33.754  32.068  1.00  0.00    -0.246 OA
BRANCH  34  36
ATOM     36  C   UNL A   1      36.472  33.817  33.097  1.00  0.00     0.060 A 
ATOM     37  C   UNL A   1      37.702  34.480  32.993  1.00  0.00     0.016 A 
ATOM     38  C   UNL A   1      36.206  32.986  34.186  1.00  0.00     0.016 A 
ATOM     39  C   UNL A   1      38.703  34.246  33.933  1.00  0.00     0.010 A 
ATOM     40  C   UNL A   1      37.212  32.761  35.134  1.00  0.00     0.010 A 
ATOM     41  C   UNL A   1      38.484  33.346  34.983  1.00  0.00    -0.014 A 
BRANCH  41  42
ATOM     42  C   UNL A   1      39.622  32.935  35.848  1.00  0.00     0.031 A 
ATOM     43  C   UNL A   1      39.991  33.772  37.046  1.00  0.00     0.074 A 
ATOM     44  C   UNL A   1      40.310  31.807  35.585  1.00  0.00     0.049 A 
ATOM     45  N   UNL A   1      40.958  33.601  37.910  1.00  0.00    -0.248 NA
ATOM     46  C   UNL A   1      39.165  34.964  37.304  1.00  0.00     0.031 C 
ATOM     47  C   UNL A   1      40.043  30.900  34.470  1.00  0.00     0.029 A 
ATOM     48  N   UNL A   1      41.385  31.245  36.228  1.00  0.00    -0.354 N 
ATOM     49  C   UNL A   1      40.888  34.679  38.784  1.00  0.00     0.074 A 
ATOM     50  C   UNL A   1      39.785  35.506  38.342  1.00  0.00     0.031 C 
ATOM     51  C   UNL A   1      40.938  29.898  34.500  1.00  0.00     0.029 A 
ATOM     52  C   UNL A   1      41.870  30.119  35.603  1.00  0.00     0.049 A 
ATOM     53  H   UNL A   1      41.773  31.612  37.056  1.00  0.00     0.167 HD
ATOM     54  C   UNL A   1      41.667  34.957  39.857  1.00  0.00     0.034 A 
ATOM     55  C   UNL A   1      42.961  29.373  35.865  1.00  0.00     0.034 A 
ATOM     56  C   UNL A   1      42.760  34.131  40.297  1.00  0.00     0.049 A 
ATOM     57  C   UNL A   1      43.840  29.735  37.034  1.00  0.00     0.074 A 
ATOM     58  C   UNL A   1      43.571  34.304  41.405  1.00  0.00     0.029 A 
ATOM     59  N   UNL A   1      43.216  33.002  39.639  1.00  0.00    -0.354 N 
ATOM     60  N   UNL A   1      43.702  30.705  37.904  1.00  0.00    -0.248 NA
ATOM     61  C   UNL A   1      45.011  28.879  37.275  1.00  0.00     0.031 C 
ATOM     62  C   UNL A   1      44.566  33.322  41.375  1.00  0.00     0.029 A 
ATOM     63  C   UNL A   1      44.319  32.485  40.300  1.00  0.00     0.049 A 
ATOM     64  H   UNL A   1      42.817  32.622  38.824  1.00  0.00     0.167 HD
ATOM     65  C   UNL A   1      44.736  30.546  38.821  1.00  0.00     0.074 A 
ATOM     66  C   UNL A   1      45.483  29.378  38.408  1.00  0.00     0.031 C 
ATOM     67  C   UNL A   1      45.037  31.299  39.908  1.00  0.00     0.034 A 
BRANCH  54  68
ATOM     68  C   UNL A   1      41.388  36.224  40.628  1.00  0.00     0.023 A 
ATOM     69  C   UNL A   1      40.438  36.233  41.669  1.00  0.00     0.012 A 
ATOM     70  C   UNL A   1      42.129  37.393  40.359  1.00  0.00     0.148 A 
ATOM     71  C   UNL A   1      40.202  37.396  42.403  1.00  0.00     0.002 A 
ATOM     72  C   UNL A   1      41.926  38.531  41.128  1.00  0.00     0.091 A 
ATOM     73  F   UNL A   1      43.019  37.369  39.357  1.00  0.00    -0.205 F 
ATOM     74  C   UNL A   1      40.953  38.540  42.140  1.00  0.00     0.022 A 
BRANCH  72  75
ATOM     75  S   UNL A   1      42.898  40.027  40.922  1.00  0.00     0.127 S 
ATOM     76  O   UNL A   1      42.396  40.530  39.644  1.00  0.00    -0.237 OA
ATOM     77  O   UNL A   1      42.498  40.814  42.088  1.00  0.00    -0.237 OA
ATOM     78  O   UNL A   1      44.293  39.608  40.916  1.00  0.00    -0.744 OA
ENDBRANCH  72  75
ENDBRANCH  54  68
BRANCH  55  79
ATOM     79  C   UNL A   1      43.295  28.201  35.007  1.00  0.00     0.023 A 
ATOM     80  C   UNL A   1      43.927  28.402  33.764  1.00  0.00     0.012 A 
ATOM     81  C   UNL A   1      42.967  26.891  35.407  1.00  0.00     0.148 A 
ATOM     82  C   UNL A   1      44.182  27.325  32.914  1.00  0.00     0.002 A 
ATOM     83  C   UNL A   1      43.278  25.817  34.583  1.00  0.00     0.091 A 
ATOM     84  F   UNL A   1      42.358  26.723  36.589  1.00  0.00    -0.205 F 
ATOM     85  C   UNL A   1      43.864  26.033  33.327  1.00  0.00     0.022 A 
BRANCH  83  86
ATOM     86  S   UNL A   1      43.007  24.112  35.076  1.00  0.00     0.127 S 
ATOM     87  O   UNL A   1      43.897  23.990  36.229  1.00  0.00    -0.237 OA
ATOM     88  O   UNL A   1      41.580  24.119  35.397  1.00  0.00    -0.237 OA
ATOM     89  O   UNL A   1      43.363  23.302  33.920  1.00  0.00    -0.744 OA
ENDBRANCH  83  86
ENDBRANCH  55  79
BRANCH  67  90
ATOM     90  C   UNL A   1      46.177  30.848  40.785  1.00  0.00     0.023 A 
ATOM     91  C   UNL A   1      47.481  31.345  40.588  1.00  0.00     0.012 A 
ATOM     92  C   UNL A   1      45.932  29.961  41.853  1.00  0.00     0.148 A 
ATOM     93  C   UNL A   1      48.529  30.931  41.413  1.00  0.00     0.002 A 
ATOM     94  C   UNL A   1      46.966  29.601  42.707  1.00  0.00     0.091 A 
ATOM     95  F   UNL A   1      44.688  29.488  42.018  1.00  0.00    -0.205 F 
ATOM     96  C   UNL A   1      48.270  30.071  42.477  1.00  0.00     0.022 A 
BRANCH  94  97
ATOM     97  S   UNL A   1      46.708  28.575  44.158  1.00  0.00     0.127 S 
ATOM     98  O   UNL A   1      47.939  27.787  44.187  1.00  0.00    -0.237 OA
ATOM     99  O   UNL A   1      46.596  29.574  45.222  1.00  0.00    -0.237 OA
ATOM    100  O   UNL A   1      45.491  27.816  43.907  1.00  0.00    -0.744 OA
ENDBRANCH  94  97
ENDBRANCH  67  90
ENDBRANCH  41  42
ENDBRANCH  34  36
ENDBRANCH  33  34
ENDBRANCH  32  33
ENDBRANCH  31  32
ENDBRANCH  30  31
ENDBRANCH   1  30
TORSDOF 22
ENDMDL
MODEL 3
REMARK VINA RESULT:      -9.2      7.307     14.729
REMARK SMILES COc1c(Cl)cc(C(=O)OCCOCCOC(=O)c2ccc(-c3c4nc(c(-c5cccc(S(=O)(=O)[O-])c5F)c5ccc([nH]5)c(-c5cccc(S(=O)(=O)[O-])c5F)c5nc(c(-c6cccc(S(=O)(=O)[O-])c6F)c6ccc3[nH]6)C=C5)C=C4)cc2)cc1NC(=S)NC(=O)c1ccccc1F
REMARK SMILES IDX 12 1 11 2 10 3 8 4 9 5 7 6 3 7 4 8 83 9 5 10 6 11 82 12 2 13
REMARK SMILES IDX 1 14 84 15 85 17 86 18 87 19 88 20 89 22 90 23 91 24 95 25
REMARK SMILES IDX 92 26 94 27 96 28 93 29 13 30 14 31 15 32 16 33 17 34 18 35
REMARK SMILES IDX 19 36 20 37 81 38 21 39 80 40 22 41 23 42 24 43 74 44 25 45
REMARK SMILES IDX 79 46 73 47 75 48 26 49 78 50 72 51 71 52 27 54 59 55 39 56
REMARK SMILES IDX 58 57 40 58 43 59 57 60 76 61 41 62 42 63 56 65 77 66 44 67
REMARK SMILES IDX 28 68 29 69 37 70 30 71 32 72 38 73 31 74 33 75 34 76 35 77
REMARK SMILES IDX 36 78 60 79 61 80 69 81 62 82 64 83 70 84 63 85 65 86 66 87
REMARK SMILES IDX 67 88 68 89 45 90 46 91 54 92 47 93 49 94 55 95 48 96 50 97
REMARK SMILES IDX 51 98 52 99 53 100
REMARK H PARENT 84 16 87 21 75 53 43 64
REMARK Flexibility Score: inf
ROOT
ATOM      1  C   UNL A   1      48.432  37.931  25.614  1.00  0.00     0.202 C 
ENDROOT
BRANCH   1   2
ATOM      2  C   UNL A   1      49.258  37.976  26.902  1.00  0.00     0.261 C 
BRANCH   2   3
ATOM      3  O   UNL A   1      48.365  37.944  28.024  1.00  0.00    -0.460 OA
BRANCH   3   4
ATOM      4  C   UNL A   1      48.222  39.001  28.845  1.00  0.00     0.338 C 
ATOM      5  O   UNL A   1      49.124  39.565  29.442  1.00  0.00    -0.246 OA
BRANCH   4   6
ATOM      6  C   UNL A   1      46.793  39.595  28.730  1.00  0.00     0.063 A 
ATOM      7  C   UNL A   1      43.338  40.594  29.220  1.00  0.00     0.160 A 
ATOM      8  C   UNL A   1      44.273  39.776  30.527  1.00  0.00     0.086 A 
ATOM      9  C   UNL A   1      44.033  40.982  27.661  1.00  0.00     0.085 A 
ATOM     10  Cl  UNL A   1      43.530  39.295  32.011  1.00  0.00    -0.080 Cl
ATOM     11  C   UNL A   1      45.992  39.289  30.341  1.00  0.00     0.040 A 
ATOM     12  C   UNL A   1      45.594  40.446  27.350  1.00  0.00     0.045 A 
BRANCH   7  13
ATOM     13  O   UNL A   1      41.966  40.680  29.150  1.00  0.00    -0.493 OA
ATOM     14  C   UNL A   1      41.268  41.357  30.168  1.00  0.00     0.278 C 
ENDBRANCH   7  13
BRANCH   9  15
ATOM     15  N   UNL A   1      43.666  41.935  26.695  1.00  0.00    -0.329 N 
ATOM     16  H   UNL A   1      42.696  42.072  26.592  1.00  0.00     0.169 HD
BRANCH  15  17
ATOM     17  C   UNL A   1      44.460  42.714  25.862  1.00  0.00     0.177 C 
ATOM     18  S   UNL A   1      45.186  44.049  26.582  1.00  0.00    -0.040 S 
BRANCH  17  19
ATOM     19  N   UNL A   1      44.771  42.515  24.466  1.00  0.00    -0.299 N 
ATOM     20  C   UNL A   1      44.613  42.757  22.995  1.00  0.00     0.260 C 
ATOM     21  H   UNL A   1      45.490  41.843  24.497  1.00  0.00     0.172 HD
ATOM     22  O   UNL A   1      45.169  42.026  22.181  1.00  0.00    -0.269 OA
BRANCH  20  23
ATOM     23  C   UNL A   1      43.687  43.823  22.467  1.00  0.00     0.075 A 
ATOM     24  C   UNL A   1      44.772  44.894  21.605  1.00  0.00     0.017 A 
ATOM     25  C   UNL A   1      42.169  43.154  21.751  1.00  0.00     0.135 A 
ATOM     26  C   UNL A   1      44.523  45.096  19.860  1.00  0.00     0.001 A 
ATOM     27  C   UNL A   1      41.777  43.294  20.013  1.00  0.00     0.040 A 
ATOM     28  F   UNL A   1      41.600  42.110  22.377  1.00  0.00    -0.206 F 
ATOM     29  C   UNL A   1      42.945  44.193  18.962  1.00  0.00     0.003 A 
ENDBRANCH  20  23
ENDBRANCH  17  19
ENDBRANCH  15  17
ENDBRANCH   9  15
ENDBRANCH   4   6
ENDBRANCH   3   4
ENDBRANCH   2   3
ENDBRANCH   1   2
BRANCH   1  30
ATOM     30  O   UNL A   1      48.721  36.848  24.726  1.00  0.00    -0.374 OA
BRANCH  30  31
ATOM     31  C   UNL A   1      49.090  35.611  25.332  1.00  0.00     0.202 C 
BRANCH  31  32
ATOM     32  C   UNL A   1      47.962  34.614  25.643  1.00  0.00     0.261 C 
BRANCH  32  33
ATOM     33  O   UNL A   1      46.651  35.130  25.351  1.00  0.00    -0.460 OA
BRANCH  33  34
ATOM     34  C   UNL A   1      45.639  34.373  25.843  1.00  0.00     0.338 C 
ATOM     35  O   UNL A   1      45.105  33.426  25.289  1.00  0.00    -0.246 OA
BRANCH  34  36
ATOM     36  C   UNL A   1      45.345  34.725  27.246  1.00  0.00     0.060 A 
ATOM     37  C   UNL A   1      45.654  33.767  28.221  1.00  0.00     0.016 A 
ATOM     38  C   UNL A   1      44.670  35.895  27.594  1.00  0.00     0.016 A 
ATOM     39  C   UNL A   1      45.212  33.935  29.530  1.00  0.00     0.010 A 
ATOM     40  C   UNL A   1      44.235  36.065  28.914  1.00  0.00     0.010 A 
ATOM     41  C   UNL A   1      44.456  35.062  29.878  1.00  0.00    -0.014 A 
BRANCH  41  42
ATOM     42  C   UNL A   1      43.803  35.126  31.212  1.00  0.00     0.031 A 
ATOM     43  C   UNL A   1      42.467  34.460  31.423  1.00  0.00     0.074 A 
ATOM     44  C   UNL A   1      44.405  35.753  32.240  1.00  0.00     0.049 A 
ATOM     45  N   UNL A   1      41.723  34.419  32.498  1.00  0.00    -0.248 NA
ATOM     46  C   UNL A   1      41.889  33.749  30.270  1.00  0.00     0.031 C 
ATOM     47  C   UNL A   1      45.704  36.421  32.174  1.00  0.00     0.029 A 
ATOM     48  N   UNL A   1      43.994  35.945  33.536  1.00  0.00    -0.354 N 
ATOM     49  C   UNL A   1      40.574  33.721  32.143  1.00  0.00     0.074 A 
ATOM     50  C   UNL A   1      40.716  33.361  30.748  1.00  0.00     0.031 C 
ATOM     51  C   UNL A   1      45.980  36.958  33.374  1.00  0.00     0.029 A 
ATOM     52  C   UNL A   1      44.857  36.718  34.277  1.00  0.00     0.049 A 
ATOM     53  H   UNL A   1      43.160  35.566  33.900  1.00  0.00     0.167 HD
ATOM     54  C   UNL A   1      39.500  33.405  32.907  1.00  0.00     0.034 A 
ATOM     55  C   UNL A   1      44.741  37.208  35.527  1.00  0.00     0.034 A 
ATOM     56  C   UNL A   1      39.364  33.760  34.295  1.00  0.00     0.049 A 
ATOM     57  C   UNL A   1      43.513  36.885  36.336  1.00  0.00     0.074 A 
ATOM     58  C   UNL A   1      38.336  33.437  35.164  1.00  0.00     0.029 A 
ATOM     59  N   UNL A   1      40.260  34.540  35.007  1.00  0.00    -0.354 N 
ATOM     60  N   UNL A   1      42.480  36.145  36.014  1.00  0.00    -0.248 NA
ATOM     61  C   UNL A   1      43.447  37.442  37.696  1.00  0.00     0.031 C 
ATOM     62  C   UNL A   1      38.573  34.085  36.380  1.00  0.00     0.029 A 
ATOM     63  C   UNL A   1      39.793  34.736  36.296  1.00  0.00     0.049 A 
ATOM     64  H   UNL A   1      41.103  34.901  34.650  1.00  0.00     0.167 HD
ATOM     65  C   UNL A   1      41.669  36.106  37.144  1.00  0.00     0.074 A 
ATOM     66  C   UNL A   1      42.338  36.886  38.163  1.00  0.00     0.031 C 
ATOM     67  C   UNL A   1      40.480  35.480  37.320  1.00  0.00     0.034 A 
BRANCH  54  68
ATOM     68  C   UNL A   1      38.363  32.656  32.257  1.00  0.00     0.023 A 
ATOM     69  C   UNL A   1      38.294  31.251  32.340  1.00  0.00     0.012 A 
ATOM     70  C   UNL A   1      37.321  33.362  31.624  1.00  0.00     0.148 A 
ATOM     71  C   UNL A   1      37.227  30.558  31.766  1.00  0.00     0.002 A 
ATOM     72  C   UNL A   1      36.236  32.670  31.102  1.00  0.00     0.091 A 
ATOM     73  F   UNL A   1      37.410  34.697  31.545  1.00  0.00    -0.205 F 
ATOM     74  C   UNL A   1      36.193  31.269  31.159  1.00  0.00     0.022 A 
BRANCH  72  75
ATOM     75  S   UNL A   1      34.818  33.497  30.373  1.00  0.00     0.127 S 
ATOM     76  O   UNL A   1      34.130  32.382  29.723  1.00  0.00    -0.237 OA
ATOM     77  O   UNL A   1      34.137  34.031  31.552  1.00  0.00    -0.237 OA
ATOM     78  O   UNL A   1      35.356  34.504  29.468  1.00  0.00    -0.744 OA
ENDBRANCH  72  75
ENDBRANCH  54  68
BRANCH  55  79
ATOM     79  C   UNL A   1      45.818  38.062  36.103  1.00  0.00     0.023 A 
ATOM     80  C   UNL A   1      46.871  37.468  36.827  1.00  0.00     0.012 A 
ATOM     81  C   UNL A   1      45.790  39.463  35.958  1.00  0.00     0.148 A 
ATOM     82  C   UNL A   1      47.849  38.256  37.435  1.00  0.00     0.002 A 
ATOM     83  C   UNL A   1      46.799  40.238  36.514  1.00  0.00     0.091 A 
ATOM     84  F   UNL A   1      44.775  40.009  35.273  1.00  0.00    -0.205 F 
ATOM     85  C   UNL A   1      47.817  39.639  37.272  1.00  0.00     0.022 A 
BRANCH  83  86
ATOM     86  S   UNL A   1      46.902  42.013  36.267  1.00  0.00     0.127 S 
ATOM     87  O   UNL A   1      48.115  42.347  37.009  1.00  0.00    -0.237 OA
ATOM     88  O   UNL A   1      47.025  42.103  34.812  1.00  0.00    -0.237 OA
ATOM     89  O   UNL A   1      45.666  42.563  36.806  1.00  0.00    -0.744 OA
ENDBRANCH  83  86
ENDBRANCH  55  79
BRANCH  67  90
ATOM     90  C   UNL A   1      39.849  35.536  38.689  1.00  0.00     0.023 A 
ATOM     91  C   UNL A   1      39.184  36.697  39.131  1.00  0.00     0.012 A 
ATOM     92  C   UNL A   1      39.873  34.397  39.519  1.00  0.00     0.148 A 
ATOM     93  C   UNL A   1      38.593  36.736  40.395  1.00  0.00     0.002 A 
ATOM     94  C   UNL A   1      39.230  34.422  40.749  1.00  0.00     0.091 A 
ATOM     95  F   UNL A   1      40.520  33.305  39.087  1.00  0.00    -0.205 F 
ATOM     96  C   UNL A   1      38.605  35.598  41.197  1.00  0.00     0.022 A 
BRANCH  94  97
ATOM     97  S   UNL A   1      39.112  32.976  41.807  1.00  0.00     0.127 S 
ATOM     98  O   UNL A   1      37.896  33.262  42.566  1.00  0.00    -0.237 OA
ATOM     99  O   UNL A   1      38.982  31.893  40.831  1.00  0.00    -0.237 OA
ATOM    100  O   UNL A   1      40.339  32.944  42.590  1.00  0.00    -0.744 OA
ENDBRANCH  94  97
ENDBRANCH  67  90
ENDBRANCH  41  42
ENDBRANCH  34  36
ENDBRANCH  33  34
ENDBRANCH  32  33
ENDBRANCH  31  32
ENDBRANCH  30  31
ENDBRANCH   1  30
TORSDOF 22
ENDMDL
