MODEL 1
REMARK VINA RESULT:     -10.0      0.000      0.000
REMARK SMILES Cc1ccc(S(=O)(=O)n2cc(C(=O)C(=O)N[C@@H](Cc3c[nH]c4ccccc34)C(=O)NCC(=O)OCCOCCOC(=O)c3ccc(-c4c5nc(c(-c6cccc(S(=O)(=O)[O-])c6F)c6ccc([nH]6)c(-c6cccc(S(=O)(=O)[O-])c6F)c6nc(c(-c7cccc(S(=O)(=O)[O-])c7F)c7ccc4[nH]7)C=C6)C=C5)cc3)c3ccccc32)cc1
REMARK SMILES IDX 35 1 34 2 32 3 33 4 31 5 30 6 28 7 29 8 17 10 16 11 14 12
REMARK SMILES IDX 15 13 12 15 13 16 11 17 9 18 10 19 111 20 106 21 110 22
REMARK SMILES IDX 107 23 109 24 108 25 6 26 7 27 8 28 5 29 1 30 2 31 3 32
REMARK SMILES IDX 113 33 4 34 112 35 18 36 19 37 20 38 27 39 21 40 22 41 26 42
REMARK SMILES IDX 23 44 25 45 24 46 36 47 37 48 38 49 39 50 40 51 41 52 42 53
REMARK SMILES IDX 43 54 44 55 105 56 45 57 104 58 46 59 47 60 48 61 98 62
REMARK SMILES IDX 49 63 103 64 97 65 99 66 50 67 102 68 96 69 95 70 51 72
REMARK SMILES IDX 83 73 63 74 82 75 64 76 67 77 81 78 100 79 65 80 66 81 80 83
REMARK SMILES IDX 101 84 68 85 52 86 53 87 61 88 54 89 56 90 62 91 55 92 57 93
REMARK SMILES IDX 58 94 59 95 60 96 84 97 85 98 93 99 86 100 88 101 94 102
REMARK SMILES IDX 87 103 89 104 90 105 91 106 92 107 69 108 70 109 78 110
REMARK SMILES IDX 71 111 73 112 79 113 72 114 74 115 75 116 76 117 77 118
REMARK H PARENT 30 9 16 14 21 43 99 71 67 82
REMARK Flexibility Score: inf
ROOT
ATOM      1  C   UNL A   1      44.126  24.695  26.256  1.00  0.00     0.261 C 
ENDROOT
BRANCH   1   2
ATOM      2  O   UNL A   1      43.464  25.920  26.459  1.00  0.00    -0.462 OA
BRANCH   2   3
ATOM      3  C   UNL A   1      42.376  25.927  25.651  1.00  0.00     0.325 C 
ATOM      4  O   UNL A   1      42.239  26.551  24.626  1.00  0.00    -0.250 OA
BRANCH   3   5
ATOM      5  C   UNL A   1      41.410  24.910  26.117  1.00  0.00     0.238 C 
BRANCH   5   6
ATOM      6  N   UNL A   1      40.049  25.250  26.424  1.00  0.00    -0.343 N 
ATOM      7  C   UNL A   1      39.089  24.366  26.810  1.00  0.00     0.243 C 
ATOM      8  O   UNL A   1      38.071  24.827  27.335  1.00  0.00    -0.273 OA
ATOM      9  H   UNL A   1      39.790  26.197  26.350  1.00  0.00     0.164 HD
BRANCH   7  10
ATOM     10  C   UNL A   1      39.307  22.826  26.671  1.00  0.00     0.176 C 
BRANCH  10  11
ATOM     11  N   UNL A   1      38.830  22.228  25.391  1.00  0.00    -0.337 N 
ATOM     12  C   UNL A   1      37.538  21.854  25.003  1.00  0.00     0.293 C 
ATOM     13  O   UNL A   1      37.396  20.999  24.134  1.00  0.00    -0.265 OA
ATOM     14  H   UNL A   1      39.530  22.074  24.716  1.00  0.00     0.164 HD
BRANCH  12  15
ATOM     15  C   UNL A   1      36.269  22.480  25.632  1.00  0.00     0.252 C 
ATOM     16  O   UNL A   1      36.129  22.326  26.843  1.00  0.00    -0.283 OA
BRANCH  15  17
ATOM     17  C   UNL A   1      35.187  23.123  24.826  1.00  0.00     0.054 A 
ATOM     18  N   UNL A   1      33.897  24.418  23.471  1.00  0.00    -0.240 N 
ATOM     19  C   UNL A   1      34.895  24.455  24.454  1.00  0.00     0.117 A 
ATOM     20  C   UNL A   1      33.677  23.055  23.176  1.00  0.00     0.065 A 
ATOM     21  C   UNL A   1      34.087  22.371  24.312  1.00  0.00     0.012 A 
ATOM     22  C   UNL A   1      32.856  22.445  22.204  1.00  0.00     0.028 A 
ATOM     23  C   UNL A   1      33.458  21.146  24.617  1.00  0.00     0.011 A 
ATOM     24  C   UNL A   1      32.181  21.284  22.568  1.00  0.00     0.002 A 
ATOM     25  C   UNL A   1      32.439  20.670  23.786  1.00  0.00     0.001 A 
BRANCH  18  26
ATOM     26  S   UNL A   1      32.401  25.295  23.296  1.00  0.00     0.268 S 
ATOM     27  O   UNL A   1      31.495  24.509  24.123  1.00  0.00    -0.201 OA
ATOM     28  O   UNL A   1      32.288  25.268  21.837  1.00  0.00    -0.201 OA
BRANCH  26  29
ATOM     29  C   UNL A   1      31.823  26.935  23.541  1.00  0.00     0.088 A 
ATOM     30  C   UNL A   1      29.282  30.450  23.497  1.00  0.00     0.044 C 
ATOM     31  C   UNL A   1      30.198  29.262  23.585  1.00  0.00    -0.051 A 
ATOM     32  C   UNL A   1      29.595  28.018  23.595  1.00  0.00     0.005 A 
ATOM     33  C   UNL A   1      31.612  29.333  23.606  1.00  0.00     0.005 A 
ATOM     34  C   UNL A   1      30.396  26.893  23.594  1.00  0.00     0.022 A 
ATOM     35  C   UNL A   1      32.440  28.169  23.576  1.00  0.00     0.022 A 
ENDBRANCH  26  29
ENDBRANCH  18  26
ENDBRANCH  15  17
ENDBRANCH  12  15
ENDBRANCH  10  11
BRANCH  10  36
ATOM     36  C   UNL A   1      40.726  22.287  27.137  1.00  0.00     0.072 C 
BRANCH  36  37
ATOM     37  C   UNL A   1      41.317  20.978  26.615  1.00  0.00    -0.020 A 
ATOM     38  C   UNL A   1      40.845  19.698  26.870  1.00  0.00     0.087 A 
ATOM     39  C   UNL A   1      42.520  20.789  25.830  1.00  0.00     0.003 A 
ATOM     40  N   UNL A   1      41.764  18.781  26.416  1.00  0.00    -0.361 N 
ATOM     41  C   UNL A   1      42.846  19.429  25.875  1.00  0.00     0.046 A 
ATOM     42  C   UNL A   1      43.449  21.665  25.244  1.00  0.00     0.010 A 
ATOM     43  H   UNL A   1      41.660  17.803  26.469  1.00  0.00     0.166 HD
ATOM     44  C   UNL A   1      44.095  18.916  25.494  1.00  0.00     0.026 A 
ATOM     45  C   UNL A   1      44.675  21.153  24.808  1.00  0.00     0.001 A 
ATOM     46  C   UNL A   1      45.022  19.818  24.986  1.00  0.00     0.002 A 
ENDBRANCH  36  37
ENDBRANCH  10  36
ENDBRANCH   7  10
ENDBRANCH   5   6
ENDBRANCH   3   5
ENDBRANCH   2   3
ENDBRANCH   1   2
BRANCH   1  47
ATOM     47  C   UNL A   1      45.309  24.867  25.277  1.00  0.00     0.202 C 
BRANCH  47  48
ATOM     48  O   UNL A   1      45.540  26.224  24.972  1.00  0.00    -0.374 OA
BRANCH  48  49
ATOM     49  C   UNL A   1      46.899  26.623  25.094  1.00  0.00     0.202 C 
BRANCH  49  50
ATOM     50  C   UNL A   1      47.912  25.937  26.106  1.00  0.00     0.261 C 
BRANCH  50  51
ATOM     51  O   UNL A   1      48.208  26.737  27.346  1.00  0.00    -0.460 OA
BRANCH  51  52
ATOM     52  C   UNL A   1      49.048  27.830  27.548  1.00  0.00     0.338 C 
ATOM     53  O   UNL A   1      50.206  27.868  27.152  1.00  0.00    -0.246 OA
BRANCH  52  54
ATOM     54  C   UNL A   1      48.364  29.127  27.943  1.00  0.00     0.060 A 
ATOM     55  C   UNL A   1      48.369  29.593  29.265  1.00  0.00     0.016 A 
ATOM     56  C   UNL A   1      47.616  29.858  27.030  1.00  0.00     0.016 A 
ATOM     57  C   UNL A   1      47.357  30.457  29.737  1.00  0.00     0.010 A 
ATOM     58  C   UNL A   1      46.558  30.639  27.497  1.00  0.00     0.010 A 
ATOM     59  C   UNL A   1      46.342  30.837  28.876  1.00  0.00    -0.014 A 
BRANCH  59  60
ATOM     60  C   UNL A   1      44.978  31.260  29.272  1.00  0.00     0.031 A 
ATOM     61  C   UNL A   1      44.740  32.725  29.398  1.00  0.00     0.074 A 
ATOM     62  C   UNL A   1      43.913  30.408  29.256  1.00  0.00     0.049 A 
ATOM     63  N   UNL A   1      43.589  33.291  29.364  1.00  0.00    -0.248 NA
ATOM     64  C   UNL A   1      45.829  33.693  29.535  1.00  0.00     0.031 C 
ATOM     65  C   UNL A   1      42.501  30.783  29.120  1.00  0.00     0.029 A 
ATOM     66  N   UNL A   1      43.838  29.018  29.374  1.00  0.00    -0.354 N 
ATOM     67  C   UNL A   1      43.759  34.650  29.370  1.00  0.00     0.074 A 
ATOM     68  C   UNL A   1      45.180  34.857  29.414  1.00  0.00     0.031 C 
ATOM     69  C   UNL A   1      41.702  29.718  29.273  1.00  0.00     0.029 A 
ATOM     70  C   UNL A   1      42.537  28.653  29.763  1.00  0.00     0.049 A 
ATOM     71  H   UNL A   1      44.581  28.391  29.211  1.00  0.00     0.167 HD
ATOM     72  C   UNL A   1      42.651  35.431  29.339  1.00  0.00     0.034 A 
ATOM     73  C   UNL A   1      42.305  28.091  30.987  1.00  0.00     0.034 A 
ATOM     74  C   UNL A   1      41.495  34.673  29.869  1.00  0.00     0.049 A 
ATOM     75  C   UNL A   1      41.617  29.080  31.923  1.00  0.00     0.074 A 
ATOM     76  C   UNL A   1      40.255  34.287  29.399  1.00  0.00     0.029 A 
ATOM     77  N   UNL A   1      41.644  34.020  31.108  1.00  0.00    -0.354 N 
ATOM     78  N   UNL A   1      41.683  30.385  31.771  1.00  0.00    -0.248 NA
ATOM     79  C   UNL A   1      40.659  28.705  32.962  1.00  0.00     0.031 C 
ATOM     80  C   UNL A   1      39.745  33.282  30.281  1.00  0.00     0.029 A 
ATOM     81  C   UNL A   1      40.640  33.092  31.326  1.00  0.00     0.049 A 
ATOM     82  H   UNL A   1      42.374  34.201  31.743  1.00  0.00     0.167 HD
ATOM     83  C   UNL A   1      40.780  31.004  32.585  1.00  0.00     0.074 A 
ATOM     84  C   UNL A   1      40.187  29.908  33.341  1.00  0.00     0.031 C 
ATOM     85  C   UNL A   1      40.527  32.351  32.584  1.00  0.00     0.034 A 
BRANCH  72  86
ATOM     86  C   UNL A   1      42.606  36.847  28.783  1.00  0.00     0.023 A 
ATOM     87  C   UNL A   1      42.103  37.022  27.475  1.00  0.00     0.012 A 
ATOM     88  C   UNL A   1      43.144  38.014  29.395  1.00  0.00     0.148 A 
ATOM     89  C   UNL A   1      42.128  38.260  26.815  1.00  0.00     0.002 A 
ATOM     90  C   UNL A   1      43.106  39.265  28.764  1.00  0.00     0.091 A 
ATOM     91  F   UNL A   1      43.786  37.921  30.564  1.00  0.00    -0.205 F 
ATOM     92  C   UNL A   1      42.613  39.387  27.465  1.00  0.00     0.022 A 
BRANCH  90  93
ATOM     93  S   UNL A   1      43.676  40.785  29.556  1.00  0.00     0.127 S 
ATOM     94  O   UNL A   1      44.062  41.606  28.409  1.00  0.00    -0.237 OA
ATOM     95  O   UNL A   1      42.473  41.243  30.253  1.00  0.00    -0.237 OA
ATOM     96  O   UNL A   1      44.773  40.402  30.437  1.00  0.00    -0.744 OA
ENDBRANCH  90  93
ENDBRANCH  72  86
BRANCH  73  97
ATOM     97  C   UNL A   1      43.236  26.947  31.229  1.00  0.00     0.023 A 
ATOM     98  C   UNL A   1      43.391  26.090  30.105  1.00  0.00     0.012 A 
ATOM     99  C   UNL A   1      44.304  27.045  32.132  1.00  0.00     0.148 A 
ATOM    100  C   UNL A   1      44.634  25.582  29.736  1.00  0.00     0.002 A 
ATOM    101  C   UNL A   1      45.537  26.479  31.788  1.00  0.00     0.091 A 
ATOM    102  F   UNL A   1      44.132  27.761  33.250  1.00  0.00    -0.205 F 
ATOM    103  C   UNL A   1      45.720  25.822  30.558  1.00  0.00     0.022 A 
BRANCH 101 104
ATOM    104  S   UNL A   1      47.000  26.644  32.813  1.00  0.00     0.127 S 
ATOM    105  O   UNL A   1      48.031  26.078  31.949  1.00  0.00    -0.237 OA
ATOM    106  O   UNL A   1      47.087  28.093  32.989  1.00  0.00    -0.237 OA
ATOM    107  O   UNL A   1      46.711  25.901  34.030  1.00  0.00    -0.744 OA
ENDBRANCH 101 104
ENDBRANCH  73  97
BRANCH  85 108
ATOM    108  C   UNL A   1      40.093  33.093  33.835  1.00  0.00     0.023 A 
ATOM    109  C   UNL A   1      38.808  33.668  33.936  1.00  0.00     0.012 A 
ATOM    110  C   UNL A   1      40.857  33.031  35.029  1.00  0.00     0.148 A 
ATOM    111  C   UNL A   1      38.326  34.201  35.133  1.00  0.00     0.002 A 
ATOM    112  C   UNL A   1      40.323  33.450  36.242  1.00  0.00     0.091 A 
ATOM    113  F   UNL A   1      42.113  32.567  35.004  1.00  0.00    -0.205 F 
ATOM    114  C   UNL A   1      39.071  34.067  36.293  1.00  0.00     0.022 A 
BRANCH 112 115
ATOM    115  S   UNL A   1      41.123  33.044  37.800  1.00  0.00     0.127 S 
ATOM    116  O   UNL A   1      41.400  31.620  37.632  1.00  0.00    -0.237 OA
ATOM    117  O   UNL A   1      42.307  33.906  37.771  1.00  0.00    -0.237 OA
ATOM    118  O   UNL A   1      40.158  33.392  38.834  1.00  0.00    -0.744 OA
ENDBRANCH 112 115
ENDBRANCH  85 108
ENDBRANCH  59  60
ENDBRANCH  52  54
ENDBRANCH  51  52
ENDBRANCH  50  51
ENDBRANCH  49  50
ENDBRANCH  48  49
ENDBRANCH  47  48
ENDBRANCH   1  47
TORSDOF 26
ENDMDL
MODEL 2
REMARK VINA RESULT:      -9.7      5.335     12.396
REMARK SMILES Cc1ccc(S(=O)(=O)n2cc(C(=O)C(=O)N[C@@H](Cc3c[nH]c4ccccc34)C(=O)NCC(=O)OCCOCCOC(=O)c3ccc(-c4c5nc(c(-c6cccc(S(=O)(=O)[O-])c6F)c6ccc([nH]6)c(-c6cccc(S(=O)(=O)[O-])c6F)c6nc(c(-c7cccc(S(=O)(=O)[O-])c7F)c7ccc4[nH]7)C=C6)C=C5)cc3)c3ccccc32)cc1
REMARK SMILES IDX 35 1 34 2 32 3 33 4 31 5 30 6 28 7 29 8 17 10 16 11 14 12
REMARK SMILES IDX 15 13 12 15 13 16 11 17 9 18 10 19 111 20 106 21 110 22
REMARK SMILES IDX 107 23 109 24 108 25 6 26 7 27 8 28 5 29 1 30 2 31 3 32
REMARK SMILES IDX 113 33 4 34 112 35 18 36 19 37 20 38 27 39 21 40 22 41 26 42
REMARK SMILES IDX 23 44 25 45 24 46 36 47 37 48 38 49 39 50 40 51 41 52 42 53
REMARK SMILES IDX 43 54 44 55 105 56 45 57 104 58 46 59 47 60 48 61 98 62
REMARK SMILES IDX 49 63 103 64 97 65 99 66 50 67 102 68 96 69 95 70 51 72
REMARK SMILES IDX 83 73 63 74 82 75 64 76 67 77 81 78 100 79 65 80 66 81 80 83
REMARK SMILES IDX 101 84 68 85 52 86 53 87 61 88 54 89 56 90 62 91 55 92 57 93
REMARK SMILES IDX 58 94 59 95 60 96 84 97 85 98 93 99 86 100 88 101 94 102
REMARK SMILES IDX 87 103 89 104 90 105 91 106 92 107 69 108 70 109 78 110
REMARK SMILES IDX 71 111 73 112 79 113 72 114 74 115 75 116 76 117 77 118
REMARK H PARENT 30 9 16 14 21 43 99 71 67 82
REMARK Flexibility Score: inf
ROOT
ATOM      1  C   UNL A   1      40.942  22.333  27.303  1.00  0.00     0.261 C 
ENDROOT
BRANCH   1   2
ATOM      2  O   UNL A   1      40.110  23.395  26.904  1.00  0.00    -0.462 OA
BRANCH   2   3
ATOM      3  C   UNL A   1      40.829  24.537  27.026  1.00  0.00     0.325 C 
ATOM      4  O   UNL A   1      42.025  24.656  26.910  1.00  0.00    -0.250 OA
BRANCH   3   5
ATOM      5  C   UNL A   1      39.909  25.686  27.159  1.00  0.00     0.238 C 
BRANCH   5   6
ATOM      6  N   UNL A   1      40.275  27.000  26.708  1.00  0.00    -0.343 N 
ATOM      7  C   UNL A   1      40.502  28.070  27.518  1.00  0.00     0.243 C 
ATOM      8  O   UNL A   1      41.104  29.031  27.031  1.00  0.00    -0.273 OA
ATOM      9  H   UNL A   1      40.371  27.137  25.738  1.00  0.00     0.164 HD
BRANCH   7  10
ATOM     10  C   UNL A   1      40.092  28.043  29.024  1.00  0.00     0.176 C 
BRANCH  10  11
ATOM     11  N   UNL A   1      41.152  27.576  29.964  1.00  0.00    -0.337 N 
ATOM     12  C   UNL A   1      42.346  28.198  30.349  1.00  0.00     0.293 C 
ATOM     13  O   UNL A   1      43.277  27.511  30.757  1.00  0.00    -0.265 OA
ATOM     14  H   UNL A   1      40.987  26.698  30.375  1.00  0.00     0.164 HD
BRANCH  12  15
ATOM     15  C   UNL A   1      42.542  29.732  30.280  1.00  0.00     0.252 C 
ATOM     16  O   UNL A   1      41.732  30.414  30.904  1.00  0.00    -0.283 OA
BRANCH  15  17
ATOM     17  C   UNL A   1      43.563  30.390  29.408  1.00  0.00     0.054 A 
ATOM     18  N   UNL A   1      44.816  31.251  27.716  1.00  0.00    -0.240 N 
ATOM     19  C   UNL A   1      44.055  30.141  28.108  1.00  0.00     0.117 A 
ATOM     20  C   UNL A   1      44.680  32.211  28.741  1.00  0.00     0.065 A 
ATOM     21  C   UNL A   1      44.358  31.480  29.876  1.00  0.00     0.012 A 
ATOM     22  C   UNL A   1      45.151  33.538  28.826  1.00  0.00     0.028 A 
ATOM     23  C   UNL A   1      44.757  31.986  31.131  1.00  0.00     0.011 A 
ATOM     24  C   UNL A   1      45.619  33.976  30.062  1.00  0.00     0.002 A 
ATOM     25  C   UNL A   1      45.474  33.186  31.193  1.00  0.00     0.001 A 
BRANCH  18  26
ATOM     26  S   UNL A   1      46.404  31.383  27.007  1.00  0.00     0.268 S 
ATOM     27  O   UNL A   1      46.206  30.751  25.710  1.00  0.00    -0.201 OA
ATOM     28  O   UNL A   1      47.178  30.710  28.052  1.00  0.00    -0.201 OA
BRANCH  26  29
ATOM     29  C   UNL A   1      47.561  32.653  26.646  1.00  0.00     0.088 A 
ATOM     30  C   UNL A   1      49.434  36.111  24.817  1.00  0.00     0.044 C 
ATOM     31  C   UNL A   1      48.826  34.933  25.524  1.00  0.00    -0.051 A 
ATOM     32  C   UNL A   1      47.445  34.862  25.529  1.00  0.00     0.005 A 
ATOM     33  C   UNL A   1      49.563  33.887  26.129  1.00  0.00     0.005 A 
ATOM     34  C   UNL A   1      46.840  33.757  26.096  1.00  0.00     0.022 A 
ATOM     35  C   UNL A   1      48.938  32.731  26.690  1.00  0.00     0.022 A 
ENDBRANCH  26  29
ENDBRANCH  18  26
ENDBRANCH  15  17
ENDBRANCH  12  15
ENDBRANCH  10  11
BRANCH  10  36
ATOM     36  C   UNL A   1      39.294  29.313  29.543  1.00  0.00     0.072 C 
BRANCH  36  37
ATOM     37  C   UNL A   1      37.951  29.736  28.948  1.00  0.00    -0.020 A 
ATOM     38  C   UNL A   1      37.536  29.557  27.635  1.00  0.00     0.087 A 
ATOM     39  C   UNL A   1      36.881  30.475  29.587  1.00  0.00     0.003 A 
ATOM     40  N   UNL A   1      36.374  30.263  27.431  1.00  0.00    -0.361 N 
ATOM     41  C   UNL A   1      36.015  30.919  28.581  1.00  0.00     0.046 A 
ATOM     42  C   UNL A   1      36.669  30.952  30.890  1.00  0.00     0.010 A 
ATOM     43  H   UNL A   1      35.871  30.291  26.584  1.00  0.00     0.166 HD
ATOM     44  C   UNL A   1      35.042  31.911  28.777  1.00  0.00     0.026 A 
ATOM     45  C   UNL A   1      35.663  31.899  31.106  1.00  0.00     0.001 A 
ATOM     46  C   UNL A   1      34.904  32.419  30.063  1.00  0.00     0.002 A 
ENDBRANCH  36  37
ENDBRANCH  10  36
ENDBRANCH   7  10
ENDBRANCH   5   6
ENDBRANCH   3   5
ENDBRANCH   2   3
ENDBRANCH   1   2
BRANCH   1  47
ATOM     47  C   UNL A   1      40.512  21.014  26.624  1.00  0.00     0.202 C 
BRANCH  47  48
ATOM     48  O   UNL A   1      41.528  20.501  25.792  1.00  0.00    -0.374 OA
BRANCH  48  49
ATOM     49  C   UNL A   1      42.828  20.990  26.097  1.00  0.00     0.202 C 
BRANCH  49  50
ATOM     50  C   UNL A   1      44.122  20.569  25.281  1.00  0.00     0.261 C 
BRANCH  50  51
ATOM     51  O   UNL A   1      45.201  21.617  25.219  1.00  0.00    -0.460 OA
BRANCH  51  52
ATOM     52  C   UNL A   1      45.134  22.978  24.930  1.00  0.00     0.338 C 
ATOM     53  O   UNL A   1      44.682  23.421  23.882  1.00  0.00    -0.246 OA
BRANCH  52  54
ATOM     54  C   UNL A   1      45.292  23.915  26.115  1.00  0.00     0.060 A 
ATOM     55  C   UNL A   1      45.696  25.247  25.956  1.00  0.00     0.016 A 
ATOM     56  C   UNL A   1      45.141  23.464  27.419  1.00  0.00     0.016 A 
ATOM     57  C   UNL A   1      46.330  25.948  27.005  1.00  0.00     0.010 A 
ATOM     58  C   UNL A   1      45.845  24.105  28.440  1.00  0.00     0.010 A 
ATOM     59  C   UNL A   1      46.561  25.297  28.204  1.00  0.00    -0.014 A 
BRANCH  59  60
ATOM     60  C   UNL A   1      47.623  25.627  29.184  1.00  0.00     0.031 A 
ATOM     61  C   UNL A   1      49.030  25.546  28.700  1.00  0.00     0.074 A 
ATOM     62  C   UNL A   1      47.359  26.238  30.374  1.00  0.00     0.049 A 
ATOM     63  N   UNL A   1      50.034  26.127  29.250  1.00  0.00    -0.248 NA
ATOM     64  C   UNL A   1      49.409  24.812  27.492  1.00  0.00     0.031 C 
ATOM     65  C   UNL A   1      48.293  27.052  31.161  1.00  0.00     0.029 A 
ATOM     66  N   UNL A   1      46.208  26.264  31.166  1.00  0.00    -0.354 N 
ATOM     67  C   UNL A   1      51.139  25.949  28.461  1.00  0.00     0.074 A 
ATOM     68  C   UNL A   1      50.688  25.172  27.340  1.00  0.00     0.031 C 
ATOM     69  C   UNL A   1      47.758  27.396  32.340  1.00  0.00     0.029 A 
ATOM     70  C   UNL A   1      46.556  26.618  32.482  1.00  0.00     0.049 A 
ATOM     71  H   UNL A   1      45.296  26.064  30.852  1.00  0.00     0.167 HD
ATOM     72  C   UNL A   1      52.311  26.491  28.876  1.00  0.00     0.034 A 
ATOM     73  C   UNL A   1      46.422  25.722  33.505  1.00  0.00     0.034 A 
ATOM     74  C   UNL A   1      52.280  26.675  30.345  1.00  0.00     0.049 A 
ATOM     75  C   UNL A   1      47.782  25.209  33.967  1.00  0.00     0.074 A 
ATOM     76  C   UNL A   1      52.407  27.736  31.220  1.00  0.00     0.029 A 
ATOM     77  N   UNL A   1      51.898  25.578  31.141  1.00  0.00    -0.354 N 
ATOM     78  N   UNL A   1      48.855  25.222  33.207  1.00  0.00    -0.248 NA
ATOM     79  C   UNL A   1      48.098  24.830  35.343  1.00  0.00     0.031 C 
ATOM     80  C   UNL A   1      51.944  27.304  32.503  1.00  0.00     0.029 A 
ATOM     81  C   UNL A   1      51.588  25.963  32.434  1.00  0.00     0.049 A 
ATOM     82  H   UNL A   1      51.856  24.649  30.817  1.00  0.00     0.167 HD
ATOM     83  C   UNL A   1      49.966  24.945  33.949  1.00  0.00     0.074 A 
ATOM     84  C   UNL A   1      49.434  24.670  35.278  1.00  0.00     0.031 C 
ATOM     85  C   UNL A   1      51.250  24.989  33.474  1.00  0.00     0.034 A 
BRANCH  72  86
ATOM     86  C   UNL A   1      53.449  26.901  27.952  1.00  0.00     0.023 A 
ATOM     87  C   UNL A   1      54.632  26.130  27.987  1.00  0.00     0.012 A 
ATOM     88  C   UNL A   1      53.502  28.070  27.141  1.00  0.00     0.148 A 
ATOM     89  C   UNL A   1      55.786  26.485  27.272  1.00  0.00     0.002 A 
ATOM     90  C   UNL A   1      54.630  28.388  26.373  1.00  0.00     0.091 A 
ATOM     91  F   UNL A   1      52.493  28.947  27.166  1.00  0.00    -0.205 F 
ATOM     92  C   UNL A   1      55.782  27.603  26.451  1.00  0.00     0.022 A 
BRANCH  90  93
ATOM     93  S   UNL A   1      54.690  29.799  25.247  1.00  0.00     0.127 S 
ATOM     94  O   UNL A   1      55.900  29.526  24.472  1.00  0.00    -0.237 OA
ATOM     95  O   UNL A   1      53.442  29.652  24.496  1.00  0.00    -0.237 OA
ATOM     96  O   UNL A   1      54.751  30.990  26.086  1.00  0.00    -0.744 OA
ENDBRANCH  90  93
ENDBRANCH  72  86
BRANCH  73  97
ATOM     97  C   UNL A   1      45.056  25.113  33.498  1.00  0.00     0.023 A 
ATOM     98  C   UNL A   1      45.065  23.694  33.422  1.00  0.00     0.012 A 
ATOM     99  C   UNL A   1      43.971  25.730  34.136  1.00  0.00     0.148 A 
ATOM    100  C   UNL A   1      44.200  22.913  34.185  1.00  0.00     0.002 A 
ATOM    101  C   UNL A   1      43.066  24.938  34.851  1.00  0.00     0.091 A 
ATOM    102  F   UNL A   1      43.895  27.066  34.119  1.00  0.00    -0.205 F 
ATOM    103  C   UNL A   1      43.230  23.544  34.941  1.00  0.00     0.022 A 
BRANCH 101 104
ATOM    104  S   UNL A   1      41.710  25.630  35.801  1.00  0.00     0.127 S 
ATOM    105  O   UNL A   1      41.170  24.442  36.453  1.00  0.00    -0.237 OA
ATOM    106  O   UNL A   1      42.407  26.549  36.700  1.00  0.00    -0.237 OA
ATOM    107  O   UNL A   1      40.841  26.274  34.829  1.00  0.00    -0.744 OA
ENDBRANCH 101 104
ENDBRANCH  73  97
BRANCH  85 108
ATOM    108  C   UNL A   1      52.345  24.091  34.020  1.00  0.00     0.023 A 
ATOM    109  C   UNL A   1      53.093  24.458  35.158  1.00  0.00     0.012 A 
ATOM    110  C   UNL A   1      52.497  22.756  33.564  1.00  0.00     0.148 A 
ATOM    111  C   UNL A   1      53.982  23.577  35.779  1.00  0.00     0.002 A 
ATOM    112  C   UNL A   1      53.286  21.848  34.259  1.00  0.00     0.091 A 
ATOM    113  F   UNL A   1      51.877  22.349  32.448  1.00  0.00    -0.205 F 
ATOM    114  C   UNL A   1      54.057  22.263  35.347  1.00  0.00     0.022 A 
BRANCH 112 115
ATOM    115  S   UNL A   1      53.200  20.085  33.915  1.00  0.00     0.127 S 
ATOM    116  O   UNL A   1      53.663  20.027  32.530  1.00  0.00    -0.237 OA
ATOM    117  O   UNL A   1      54.136  19.534  34.896  1.00  0.00    -0.237 OA
ATOM    118  O   UNL A   1      51.810  19.713  34.143  1.00  0.00    -0.744 OA
ENDBRANCH 112 115
ENDBRANCH  85 108
ENDBRANCH  59  60
ENDBRANCH  52  54
ENDBRANCH  51  52
ENDBRANCH  50  51
ENDBRANCH  49  50
ENDBRANCH  48  49
ENDBRANCH  47  48
ENDBRANCH   1  47
TORSDOF 26
ENDMDL
MODEL 3
REMARK VINA RESULT:      -9.7      5.684     12.146
REMARK SMILES Cc1ccc(S(=O)(=O)n2cc(C(=O)C(=O)N[C@@H](Cc3c[nH]c4ccccc34)C(=O)NCC(=O)OCCOCCOC(=O)c3ccc(-c4c5nc(c(-c6cccc(S(=O)(=O)[O-])c6F)c6ccc([nH]6)c(-c6cccc(S(=O)(=O)[O-])c6F)c6nc(c(-c7cccc(S(=O)(=O)[O-])c7F)c7ccc4[nH]7)C=C6)C=C5)cc3)c3ccccc32)cc1
REMARK SMILES IDX 35 1 34 2 32 3 33 4 31 5 30 6 28 7 29 8 17 10 16 11 14 12
REMARK SMILES IDX 15 13 12 15 13 16 11 17 9 18 10 19 111 20 106 21 110 22
REMARK SMILES IDX 107 23 109 24 108 25 6 26 7 27 8 28 5 29 1 30 2 31 3 32
REMARK SMILES IDX 113 33 4 34 112 35 18 36 19 37 20 38 27 39 21 40 22 41 26 42
REMARK SMILES IDX 23 44 25 45 24 46 36 47 37 48 38 49 39 50 40 51 41 52 42 53
REMARK SMILES IDX 43 54 44 55 105 56 45 57 104 58 46 59 47 60 48 61 98 62
REMARK SMILES IDX 49 63 103 64 97 65 99 66 50 67 102 68 96 69 95 70 51 72
REMARK SMILES IDX 83 73 63 74 82 75 64 76 67 77 81 78 100 79 65 80 66 81 80 83
REMARK SMILES IDX 101 84 68 85 52 86 53 87 61 88 54 89 56 90 62 91 55 92 57 93
REMARK SMILES IDX 58 94 59 95 60 96 84 97 85 98 93 99 86 100 88 101 94 102
REMARK SMILES IDX 87 103 89 104 90 105 91 106 92 107 69 108 70 109 78 110
REMARK SMILES IDX 71 111 73 112 79 113 72 114 74 115 75 116 76 117 77 118
REMARK H PARENT 30 9 16 14 21 43 99 71 67 82
REMARK Flexibility Score: inf
ROOT
ATOM      1  C   UNL A   1      41.585  23.644  28.631  1.00  0.00     0.261 C 
ENDROOT
BRANCH   1   2
ATOM      2  O   UNL A   1      40.589  24.415  28.005  1.00  0.00    -0.462 OA
BRANCH   2   3
ATOM      3  C   UNL A   1      40.791  25.704  28.369  1.00  0.00     0.325 C 
ATOM      4  O   UNL A   1      41.851  26.279  28.447  1.00  0.00    -0.250 OA
BRANCH   3   5
ATOM      5  C   UNL A   1      39.486  26.387  28.504  1.00  0.00     0.238 C 
BRANCH   5   6
ATOM      6  N   UNL A   1      39.016  26.866  29.774  1.00  0.00    -0.343 N 
ATOM      7  C   UNL A   1      38.740  28.166  30.067  1.00  0.00     0.243 C 
ATOM      8  O   UNL A   1      38.058  28.389  31.072  1.00  0.00    -0.273 OA
ATOM      9  H   UNL A   1      38.882  26.202  30.488  1.00  0.00     0.164 HD
BRANCH   7  10
ATOM     10  C   UNL A   1      39.196  29.321  29.120  1.00  0.00     0.176 C 
BRANCH  10  11
ATOM     11  N   UNL A   1      38.121  30.270  28.711  1.00  0.00    -0.337 N 
ATOM     12  C   UNL A   1      37.650  31.422  29.352  1.00  0.00     0.293 C 
ATOM     13  O   UNL A   1      36.510  31.814  29.124  1.00  0.00    -0.265 OA
ATOM     14  H   UNL A   1      37.674  30.054  27.861  1.00  0.00     0.164 HD
BRANCH  12  15
ATOM     15  C   UNL A   1      38.517  32.230  30.348  1.00  0.00     0.252 C 
ATOM     16  O   UNL A   1      39.216  33.119  29.866  1.00  0.00    -0.283 OA
BRANCH  15  17
ATOM     17  C   UNL A   1      38.629  31.892  31.800  1.00  0.00     0.054 A 
ATOM     18  N   UNL A   1      38.400  31.103  33.922  1.00  0.00    -0.240 N 
ATOM     19  C   UNL A   1      37.695  31.606  32.820  1.00  0.00     0.117 A 
ATOM     20  C   UNL A   1      39.746  30.982  33.513  1.00  0.00     0.065 A 
ATOM     21  C   UNL A   1      39.888  31.892  32.474  1.00  0.00     0.012 A 
ATOM     22  C   UNL A   1      40.865  30.445  34.183  1.00  0.00     0.028 A 
ATOM     23  C   UNL A   1      41.155  32.477  32.269  1.00  0.00     0.011 A 
ATOM     24  C   UNL A   1      42.083  31.100  34.027  1.00  0.00     0.002 A 
ATOM     25  C   UNL A   1      42.214  32.142  33.120  1.00  0.00     0.001 A 
BRANCH  18  26
ATOM     26  S   UNL A   1      38.345  31.496  35.619  1.00  0.00     0.268 S 
ATOM     27  O   UNL A   1      38.406  30.177  36.234  1.00  0.00    -0.201 OA
ATOM     28  O   UNL A   1      37.100  32.267  35.635  1.00  0.00    -0.201 OA
BRANCH  26  29
ATOM     29  C   UNL A   1      39.247  32.492  36.749  1.00  0.00     0.088 A 
ATOM     30  C   UNL A   1      40.324  35.734  39.421  1.00  0.00     0.044 C 
ATOM     31  C   UNL A   1      39.999  34.558  38.544  1.00  0.00    -0.051 A 
ATOM     32  C   UNL A   1      38.659  34.264  38.379  1.00  0.00     0.005 A 
ATOM     33  C   UNL A   1      40.957  33.781  37.850  1.00  0.00     0.005 A 
ATOM     34  C   UNL A   1      38.305  33.243  37.518  1.00  0.00     0.022 A 
ATOM     35  C   UNL A   1      40.591  32.744  36.938  1.00  0.00     0.022 A 
ENDBRANCH  26  29
ENDBRANCH  18  26
ENDBRANCH  15  17
ENDBRANCH  12  15
ENDBRANCH  10  11
BRANCH  10  36
ATOM     36  C   UNL A   1      40.561  30.032  29.508  1.00  0.00     0.072 C 
BRANCH  36  37
ATOM     37  C   UNL A   1      41.634  29.340  30.347  1.00  0.00    -0.020 A 
ATOM     38  C   UNL A   1      41.436  28.314  31.261  1.00  0.00     0.087 A 
ATOM     39  C   UNL A   1      43.046  29.657  30.433  1.00  0.00     0.003 A 
ATOM     40  N   UNL A   1      42.596  28.114  31.971  1.00  0.00    -0.361 N 
ATOM     41  C   UNL A   1      43.559  28.999  31.557  1.00  0.00     0.046 A 
ATOM     42  C   UNL A   1      43.881  30.573  29.774  1.00  0.00     0.010 A 
ATOM     43  H   UNL A   1      42.718  27.435  32.673  1.00  0.00     0.166 HD
ATOM     44  C   UNL A   1      44.802  29.302  32.134  1.00  0.00     0.026 A 
ATOM     45  C   UNL A   1      45.145  30.840  30.310  1.00  0.00     0.001 A 
ATOM     46  C   UNL A   1      45.576  30.267  31.501  1.00  0.00     0.002 A 
ENDBRANCH  36  37
ENDBRANCH  10  36
ENDBRANCH   7  10
ENDBRANCH   5   6
ENDBRANCH   3   5
ENDBRANCH   2   3
ENDBRANCH   1   2
BRANCH   1  47
ATOM     47  C   UNL A   1      42.369  22.812  27.592  1.00  0.00     0.202 C 
BRANCH  47  48
ATOM     48  O   UNL A   1      41.822  22.944  26.299  1.00  0.00    -0.374 OA
BRANCH  48  49
ATOM     49  C   UNL A   1      42.649  23.660  25.390  1.00  0.00     0.202 C 
BRANCH  49  50
ATOM     50  C   UNL A   1      43.635  22.945  24.374  1.00  0.00     0.261 C 
BRANCH  50  51
ATOM     51  O   UNL A   1      45.066  22.855  24.835  1.00  0.00    -0.460 OA
BRANCH  51  52
ATOM     52  C   UNL A   1      46.070  23.820  24.886  1.00  0.00     0.338 C 
ATOM     53  O   UNL A   1      46.646  24.241  23.892  1.00  0.00    -0.246 OA
BRANCH  52  54
ATOM     54  C   UNL A   1      46.164  24.609  26.180  1.00  0.00     0.060 A 
ATOM     55  C   UNL A   1      46.624  25.933  26.207  1.00  0.00     0.016 A 
ATOM     56  C   UNL A   1      45.893  24.021  27.408  1.00  0.00     0.016 A 
ATOM     57  C   UNL A   1      47.196  26.483  27.376  1.00  0.00     0.010 A 
ATOM     58  C   UNL A   1      46.535  24.513  28.547  1.00  0.00     0.010 A 
ATOM     59  C   UNL A   1      47.307  25.691  28.505  1.00  0.00    -0.014 A 
BRANCH  59  60
ATOM     60  C   UNL A   1      48.298  25.863  29.594  1.00  0.00     0.031 A 
ATOM     61  C   UNL A   1      49.735  25.759  29.215  1.00  0.00     0.074 A 
ATOM     62  C   UNL A   1      47.964  26.362  30.818  1.00  0.00     0.049 A 
ATOM     63  N   UNL A   1      50.715  26.227  29.900  1.00  0.00    -0.248 NA
ATOM     64  C   UNL A   1      50.180  25.133  27.969  1.00  0.00     0.031 C 
ATOM     65  C   UNL A   1      48.864  27.041  31.757  1.00  0.00     0.029 A 
ATOM     66  N   UNL A   1      46.753  26.367  31.516  1.00  0.00    -0.354 N 
ATOM     67  C   UNL A   1      51.872  26.073  29.186  1.00  0.00     0.074 A 
ATOM     68  C   UNL A   1      51.482  25.440  27.956  1.00  0.00     0.031 C 
ATOM     69  C   UNL A   1      48.249  27.290  32.921  1.00  0.00     0.029 A 
ATOM     70  C   UNL A   1      47.006  26.565  32.886  1.00  0.00     0.049 A 
ATOM     71  H   UNL A   1      45.862  26.249  31.113  1.00  0.00     0.167 HD
ATOM     72  C   UNL A   1      53.029  26.508  29.745  1.00  0.00     0.034 A 
ATOM     73  C   UNL A   1      46.748  25.578  33.795  1.00  0.00     0.034 A 
ATOM     74  C   UNL A   1      52.885  26.541  31.219  1.00  0.00     0.049 A 
ATOM     75  C   UNL A   1      48.041  24.949  34.303  1.00  0.00     0.074 A 
ATOM     76  C   UNL A   1      52.986  27.499  32.209  1.00  0.00     0.029 A 
ATOM     77  N   UNL A   1      52.390  25.390  31.861  1.00  0.00    -0.354 N 
ATOM     78  N   UNL A   1      49.173  24.984  33.635  1.00  0.00    -0.248 NA
ATOM     79  C   UNL A   1      48.226  24.415  35.651  1.00  0.00     0.031 C 
ATOM     80  C   UNL A   1      52.399  26.962  33.399  1.00  0.00     0.029 A 
ATOM     81  C   UNL A   1      51.991  25.656  33.160  1.00  0.00     0.049 A 
ATOM     82  H   UNL A   1      52.334  24.503  31.438  1.00  0.00     0.167 HD
ATOM     83  C   UNL A   1      50.206  24.574  34.428  1.00  0.00     0.074 A 
ATOM     84  C   UNL A   1      49.554  24.192  35.674  1.00  0.00     0.031 C 
ATOM     85  C   UNL A   1      51.526  24.599  34.061  1.00  0.00     0.034 A 
BRANCH  72  86
ATOM     86  C   UNL A   1      54.256  26.950  28.962  1.00  0.00     0.023 A 
ATOM     87  C   UNL A   1      55.144  25.947  28.514  1.00  0.00     0.012 A 
ATOM     88  C   UNL A   1      54.682  28.290  28.740  1.00  0.00     0.148 A 
ATOM     89  C   UNL A   1      56.366  26.244  27.891  1.00  0.00     0.002 A 
ATOM     90  C   UNL A   1      55.869  28.587  28.057  1.00  0.00     0.091 A 
ATOM     91  F   UNL A   1      53.991  29.306  29.267  1.00  0.00    -0.205 F 
ATOM     92  C   UNL A   1      56.722  27.562  27.646  1.00  0.00     0.022 A 
BRANCH  90  93
ATOM     93  S   UNL A   1      56.382  30.272  27.660  1.00  0.00     0.127 S 
ATOM     94  O   UNL A   1      55.101  30.974  27.581  1.00  0.00    -0.237 OA
ATOM     95  O   UNL A   1      57.200  30.631  28.819  1.00  0.00    -0.237 OA
ATOM     96  O   UNL A   1      57.119  30.192  26.404  1.00  0.00    -0.744 OA
ENDBRANCH  90  93
ENDBRANCH  72  86
BRANCH  73  97
ATOM     97  C   UNL A   1      45.363  25.045  33.616  1.00  0.00     0.023 A 
ATOM     98  C   UNL A   1      45.313  23.638  33.422  1.00  0.00     0.012 A 
ATOM     99  C   UNL A   1      44.253  25.666  34.206  1.00  0.00     0.148 A 
ATOM    100  C   UNL A   1      44.346  22.846  34.037  1.00  0.00     0.002 A 
ATOM    101  C   UNL A   1      43.251  24.869  34.770  1.00  0.00     0.091 A 
ATOM    102  F   UNL A   1      44.241  27.002  34.295  1.00  0.00    -0.205 F 
ATOM    103  C   UNL A   1      43.341  23.465  34.756  1.00  0.00     0.022 A 
BRANCH 101 104
ATOM    104  S   UNL A   1      41.846  25.555  35.652  1.00  0.00     0.127 S 
ATOM    105  O   UNL A   1      42.491  26.141  36.823  1.00  0.00    -0.237 OA
ATOM    106  O   UNL A   1      41.333  26.532  34.692  1.00  0.00    -0.237 OA
ATOM    107  O   UNL A   1      40.959  24.432  35.909  1.00  0.00    -0.744 OA
ENDBRANCH 101 104
ENDBRANCH  73  97
BRANCH  85 108
ATOM    108  C   UNL A   1      52.531  23.594  34.592  1.00  0.00     0.023 A 
ATOM    109  C   UNL A   1      53.231  23.824  35.795  1.00  0.00     0.012 A 
ATOM    110  C   UNL A   1      52.630  22.291  34.038  1.00  0.00     0.148 A 
ATOM    111  C   UNL A   1      54.027  22.842  36.390  1.00  0.00     0.002 A 
ATOM    112  C   UNL A   1      53.322  21.283  34.700  1.00  0.00     0.091 A 
ATOM    113  F   UNL A   1      52.055  22.012  32.861  1.00  0.00    -0.205 F 
ATOM    114  C   UNL A   1      54.050  21.564  35.858  1.00  0.00     0.022 A 
BRANCH 112 115
ATOM    115  S   UNL A   1      53.151  19.561  34.211  1.00  0.00     0.127 S 
ATOM    116  O   UNL A   1      51.707  19.363  34.313  1.00  0.00    -0.237 OA
ATOM    117  O   UNL A   1      53.671  19.578  32.842  1.00  0.00    -0.237 OA
ATOM    118  O   UNL A   1      53.971  18.808  35.151  1.00  0.00    -0.744 OA
ENDBRANCH 112 115
ENDBRANCH  85 108
ENDBRANCH  59  60
ENDBRANCH  52  54
ENDBRANCH  51  52
ENDBRANCH  50  51
ENDBRANCH  49  50
ENDBRANCH  48  49
ENDBRANCH  47  48
ENDBRANCH   1  47
TORSDOF 26
ENDMDL
