MODEL 1
REMARK VINA RESULT:     -11.6      0.000      0.000
REMARK SMILES Cn1ncc(C(=O)NCc2ccc(F)cc2)c1C(=O)OCCOCCOC(=O)c1ccc(-c2c3nc(c(-c4cccc(S(=O)(=O)[O-])c4F)c4ccc([nH]4)c(-c4cccc(S(=O)(=O)[O-])c4F)c4nc(c(-c5cccc(S(=O)(=O)[O-])c5F)c5ccc2[nH]5)C=C4)C=C3)cc1
REMARK SMILES IDX 23 1 22 2 21 3 20 4 18 5 19 6 17 7 1 8 2 9 3 10 4 11 5 12
REMARK SMILES IDX 6 13 7 14 8 15 9 17 10 18 11 19 16 20 12 21 15 22 13 23
REMARK SMILES IDX 14 24 24 25 25 26 26 27 27 28 28 29 29 30 30 31 91 32 31 33
REMARK SMILES IDX 90 34 32 35 33 36 34 37 84 38 35 39 89 40 83 41 85 42 36 43
REMARK SMILES IDX 88 44 82 45 81 46 37 48 69 49 49 50 68 51 50 52 53 53 67 54
REMARK SMILES IDX 86 55 51 56 52 57 66 59 87 60 54 61 38 62 39 63 47 64 40 65
REMARK SMILES IDX 42 66 48 67 41 68 43 69 44 70 45 71 46 72 70 73 71 74 79 75
REMARK SMILES IDX 72 76 74 77 80 78 73 79 75 80 76 81 77 82 78 83 55 84 56 85
REMARK SMILES IDX 64 86 57 87 59 88 65 89 58 90 60 91 61 92 62 93 63 94
REMARK H PARENT 8 16 85 47 53 58
REMARK Flexibility Score: inf
ROOT
ATOM      1  O   UNL A   1      32.348  30.719  27.123  1.00  0.00    -0.374 OA
ENDROOT
BRANCH   1   2
ATOM      2  C   UNL A   1      31.929  29.399  26.763  1.00  0.00     0.202 C 
BRANCH   2   3
ATOM      3  C   UNL A   1      32.964  28.334  27.146  1.00  0.00     0.261 C 
BRANCH   3   4
ATOM      4  O   UNL A   1      33.225  27.526  25.988  1.00  0.00    -0.459 OA
BRANCH   4   5
ATOM      5  C   UNL A   1      32.563  26.346  25.899  1.00  0.00     0.357 C 
ATOM      6  O   UNL A   1      31.565  26.055  26.546  1.00  0.00    -0.244 OA
BRANCH   5   7
ATOM      7  C   UNL A   1      33.090  25.588  24.794  1.00  0.00     0.159 A 
ATOM      8  C   UNL A   1      33.774  23.424  26.008  1.00  0.00     0.174 C 
ATOM      9  N   UNL A   1      33.579  24.292  24.863  1.00  0.00    -0.261 N 
ATOM     10  N   UNL A   1      33.889  23.776  23.662  1.00  0.00    -0.180 NA
ATOM     11  C   UNL A   1      33.665  24.775  22.819  1.00  0.00     0.150 A 
ATOM     12  C   UNL A   1      33.249  25.972  23.457  1.00  0.00     0.092 A 
BRANCH  12  13
ATOM     13  C   UNL A   1      33.038  27.199  22.694  1.00  0.00     0.255 C 
ATOM     14  O   UNL A   1      34.017  27.823  22.274  1.00  0.00    -0.269 OA
ATOM     15  N   UNL A   1      31.831  27.824  22.525  1.00  0.00    -0.348 N 
ATOM     16  H   UNL A   1      31.913  28.747  22.191  1.00  0.00     0.164 HD
BRANCH  15  17
ATOM     17  C   UNL A   1      30.464  27.415  22.735  1.00  0.00     0.152 C 
BRANCH  17  18
ATOM     18  C   UNL A   1      29.503  28.504  23.154  1.00  0.00    -0.029 A 
ATOM     19  C   UNL A   1      30.039  29.752  23.533  1.00  0.00     0.008 A 
ATOM     20  C   UNL A   1      28.118  28.398  22.961  1.00  0.00     0.008 A 
ATOM     21  C   UNL A   1      29.215  30.869  23.684  1.00  0.00     0.039 A 
ATOM     22  C   UNL A   1      27.295  29.520  23.114  1.00  0.00     0.039 A 
ATOM     23  C   UNL A   1      27.853  30.746  23.461  1.00  0.00     0.123 A 
ATOM     24  F   UNL A   1      27.066  31.826  23.565  1.00  0.00    -0.207 F 
ENDBRANCH  17  18
ENDBRANCH  15  17
ENDBRANCH  12  13
ENDBRANCH   5   7
ENDBRANCH   4   5
ENDBRANCH   3   4
ENDBRANCH   2   3
ENDBRANCH   1   2
BRANCH   1  25
ATOM     25  C   UNL A   1      31.569  31.789  26.575  1.00  0.00     0.202 C 
BRANCH  25  26
ATOM     26  C   UNL A   1      31.953  33.145  27.163  1.00  0.00     0.261 C 
BRANCH  26  27
ATOM     27  O   UNL A   1      33.373  33.279  27.085  1.00  0.00    -0.460 OA
BRANCH  27  28
ATOM     28  C   UNL A   1      33.938  33.916  28.136  1.00  0.00     0.338 C 
ATOM     29  O   UNL A   1      33.498  34.873  28.747  1.00  0.00    -0.246 OA
BRANCH  28  30
ATOM     30  C   UNL A   1      35.096  33.112  28.574  1.00  0.00     0.060 A 
ATOM     31  C   UNL A   1      34.851  31.810  29.025  1.00  0.00     0.016 A 
ATOM     32  C   UNL A   1      36.405  33.600  28.479  1.00  0.00     0.016 A 
ATOM     33  C   UNL A   1      35.912  31.007  29.430  1.00  0.00     0.010 A 
ATOM     34  C   UNL A   1      37.466  32.794  28.872  1.00  0.00     0.010 A 
ATOM     35  C   UNL A   1      37.216  31.513  29.386  1.00  0.00    -0.014 A 
BRANCH  35  36
ATOM     36  C   UNL A   1      38.316  30.781  30.040  1.00  0.00     0.031 A 
ATOM     37  C   UNL A   1      38.650  31.133  31.460  1.00  0.00     0.074 A 
ATOM     38  C   UNL A   1      39.019  29.859  29.361  1.00  0.00     0.049 A 
ATOM     39  N   UNL A   1      39.606  30.674  32.218  1.00  0.00    -0.248 NA
ATOM     40  C   UNL A   1      37.799  32.149  32.105  1.00  0.00     0.031 C 
ATOM     41  C   UNL A   1      38.774  29.467  27.974  1.00  0.00     0.029 A 
ATOM     42  N   UNL A   1      40.097  29.109  29.743  1.00  0.00    -0.354 N 
ATOM     43  C   UNL A   1      39.490  31.361  33.420  1.00  0.00     0.074 A 
ATOM     44  C   UNL A   1      38.387  32.284  33.284  1.00  0.00     0.031 C 
ATOM     45  C   UNL A   1      39.696  28.559  27.613  1.00  0.00     0.029 A 
ATOM     46  C   UNL A   1      40.604  28.327  28.733  1.00  0.00     0.049 A 
ATOM     47  H   UNL A   1      40.474  29.127  30.652  1.00  0.00     0.167 HD
ATOM     48  C   UNL A   1      40.227  31.216  34.544  1.00  0.00     0.034 A 
ATOM     49  C   UNL A   1      41.689  27.526  28.720  1.00  0.00     0.034 A 
ATOM     50  C   UNL A   1      41.305  30.276  34.667  1.00  0.00     0.049 A 
ATOM     51  C   UNL A   1      42.496  27.381  29.983  1.00  0.00     0.074 A 
ATOM     52  C   UNL A   1      42.085  30.007  35.774  1.00  0.00     0.029 A 
ATOM     53  N   UNL A   1      41.757  29.457  33.642  1.00  0.00    -0.354 N 
ATOM     54  N   UNL A   1      42.307  27.950  31.150  1.00  0.00    -0.248 NA
ATOM     55  C   UNL A   1      43.644  26.465  29.941  1.00  0.00     0.031 C 
ATOM     56  C   UNL A   1      43.028  29.040  35.413  1.00  0.00     0.029 A 
ATOM     57  C   UNL A   1      42.815  28.687  34.088  1.00  0.00     0.049 A 
ATOM     58  H   UNL A   1      41.381  29.430  32.733  1.00  0.00     0.167 HD
ATOM     59  C   UNL A   1      43.290  27.440  31.990  1.00  0.00     0.074 A 
ATOM     60  C   UNL A   1      44.065  26.504  31.199  1.00  0.00     0.031 C 
ATOM     61  C   UNL A   1      43.538  27.726  33.292  1.00  0.00     0.034 A 
BRANCH  48  62
ATOM     62  C   UNL A   1      39.865  32.062  35.732  1.00  0.00     0.023 A 
ATOM     63  C   UNL A   1      40.525  33.291  35.939  1.00  0.00     0.012 A 
ATOM     64  C   UNL A   1      38.836  31.673  36.612  1.00  0.00     0.148 A 
ATOM     65  C   UNL A   1      40.186  34.108  37.017  1.00  0.00     0.002 A 
ATOM     66  C   UNL A   1      38.473  32.513  37.658  1.00  0.00     0.091 A 
ATOM     67  F   UNL A   1      38.242  30.489  36.416  1.00  0.00    -0.205 F 
ATOM     68  C   UNL A   1      39.153  33.725  37.868  1.00  0.00     0.022 A 
BRANCH  66  69
ATOM     69  S   UNL A   1      37.105  32.149  38.762  1.00  0.00     0.127 S 
ATOM     70  O   UNL A   1      37.017  30.693  38.651  1.00  0.00    -0.237 OA
ATOM     71  O   UNL A   1      37.610  32.634  40.047  1.00  0.00    -0.237 OA
ATOM     72  O   UNL A   1      35.961  32.884  38.242  1.00  0.00    -0.744 OA
ENDBRANCH  66  69
ENDBRANCH  48  62
BRANCH  49  73
ATOM     73  C   UNL A   1      42.016  26.761  27.485  1.00  0.00     0.023 A 
ATOM     74  C   UNL A   1      42.656  27.417  26.417  1.00  0.00     0.012 A 
ATOM     75  C   UNL A   1      41.778  25.375  27.398  1.00  0.00     0.148 A 
ATOM     76  C   UNL A   1      43.045  26.708  25.278  1.00  0.00     0.002 A 
ATOM     77  C   UNL A   1      42.217  24.666  26.287  1.00  0.00     0.091 A 
ATOM     78  F   UNL A   1      41.158  24.772  28.422  1.00  0.00    -0.205 F 
ATOM     79  C   UNL A   1      42.838  25.333  25.219  1.00  0.00     0.022 A 
BRANCH  77  80
ATOM     80  S   UNL A   1      42.130  22.874  26.186  1.00  0.00     0.127 S 
ATOM     81  O   UNL A   1      42.745  22.616  24.886  1.00  0.00    -0.237 OA
ATOM     82  O   UNL A   1      42.934  22.471  27.341  1.00  0.00    -0.237 OA
ATOM     83  O   UNL A   1      40.716  22.540  26.293  1.00  0.00    -0.744 OA
ENDBRANCH  77  80
ENDBRANCH  49  73
BRANCH  61  84
ATOM     84  C   UNL A   1      44.680  27.016  33.968  1.00  0.00     0.023 A 
ATOM     85  C   UNL A   1      45.975  27.564  33.905  1.00  0.00     0.012 A 
ATOM     86  C   UNL A   1      44.441  25.887  34.778  1.00  0.00     0.148 A 
ATOM     87  C   UNL A   1      47.021  26.990  34.626  1.00  0.00     0.002 A 
ATOM     88  C   UNL A   1      45.476  25.350  35.532  1.00  0.00     0.091 A 
ATOM     89  F   UNL A   1      43.201  25.375  34.810  1.00  0.00    -0.205 F 
ATOM     90  C   UNL A   1      46.768  25.895  35.451  1.00  0.00     0.022 A 
BRANCH  88  91
ATOM     91  S   UNL A   1      45.221  24.013  36.704  1.00  0.00     0.127 S 
ATOM     92  O   UNL A   1      46.583  23.768  37.177  1.00  0.00    -0.237 OA
ATOM     93  O   UNL A   1      44.334  24.631  37.690  1.00  0.00    -0.237 OA
ATOM     94  O   UNL A   1      44.618  22.924  35.946  1.00  0.00    -0.744 OA
ENDBRANCH  88  91
ENDBRANCH  61  84
ENDBRANCH  35  36
ENDBRANCH  28  30
ENDBRANCH  27  28
ENDBRANCH  26  27
ENDBRANCH  25  26
ENDBRANCH   1  25
TORSDOF 20
ENDMDL
MODEL 2
REMARK VINA RESULT:     -11.5      5.508      8.833
REMARK SMILES Cn1ncc(C(=O)NCc2ccc(F)cc2)c1C(=O)OCCOCCOC(=O)c1ccc(-c2c3nc(c(-c4cccc(S(=O)(=O)[O-])c4F)c4ccc([nH]4)c(-c4cccc(S(=O)(=O)[O-])c4F)c4nc(c(-c5cccc(S(=O)(=O)[O-])c5F)c5ccc2[nH]5)C=C4)C=C3)cc1
REMARK SMILES IDX 23 1 22 2 21 3 20 4 18 5 19 6 17 7 1 8 2 9 3 10 4 11 5 12
REMARK SMILES IDX 6 13 7 14 8 15 9 17 10 18 11 19 16 20 12 21 15 22 13 23
REMARK SMILES IDX 14 24 24 25 25 26 26 27 27 28 28 29 29 30 30 31 91 32 31 33
REMARK SMILES IDX 90 34 32 35 33 36 34 37 84 38 35 39 89 40 83 41 85 42 36 43
REMARK SMILES IDX 88 44 82 45 81 46 37 48 69 49 49 50 68 51 50 52 53 53 67 54
REMARK SMILES IDX 86 55 51 56 52 57 66 59 87 60 54 61 38 62 39 63 47 64 40 65
REMARK SMILES IDX 42 66 48 67 41 68 43 69 44 70 45 71 46 72 70 73 71 74 79 75
REMARK SMILES IDX 72 76 74 77 80 78 73 79 75 80 76 81 77 82 78 83 55 84 56 85
REMARK SMILES IDX 64 86 57 87 59 88 65 89 58 90 60 91 61 92 62 93 63 94
REMARK H PARENT 8 16 85 47 53 58
REMARK Flexibility Score: inf
ROOT
ATOM      1  O   UNL A   1      35.585  22.653  24.981  1.00  0.00    -0.374 OA
ENDROOT
BRANCH   1   2
ATOM      2  C   UNL A   1      35.799  24.051  25.200  1.00  0.00     0.202 C 
BRANCH   2   3
ATOM      3  C   UNL A   1      34.612  24.903  24.736  1.00  0.00     0.261 C 
BRANCH   3   4
ATOM      4  O   UNL A   1      33.572  24.018  24.290  1.00  0.00    -0.459 OA
BRANCH   4   5
ATOM      5  C   UNL A   1      32.387  24.584  23.955  1.00  0.00     0.357 C 
ATOM      6  O   UNL A   1      32.068  24.918  22.821  1.00  0.00    -0.244 OA
BRANCH   5   7
ATOM      7  C   UNL A   1      31.501  24.538  25.090  1.00  0.00     0.159 A 
ATOM      8  C   UNL A   1      30.077  26.635  24.645  1.00  0.00     0.174 C 
ATOM      9  N   UNL A   1      30.470  25.429  25.347  1.00  0.00    -0.261 N 
ATOM     10  N   UNL A   1      29.718  25.081  26.405  1.00  0.00    -0.180 NA
ATOM     11  C   UNL A   1      30.316  23.994  26.876  1.00  0.00     0.150 A 
ATOM     12  C   UNL A   1      31.490  23.640  26.164  1.00  0.00     0.092 A 
BRANCH  12  13
ATOM     13  C   UNL A   1      32.323  22.520  26.593  1.00  0.00     0.255 C 
ATOM     14  O   UNL A   1      32.899  22.581  27.685  1.00  0.00    -0.269 OA
ATOM     15  N   UNL A   1      32.661  21.445  25.815  1.00  0.00    -0.348 N 
ATOM     16  H   UNL A   1      33.408  20.918  26.181  1.00  0.00     0.164 HD
BRANCH  15  17
ATOM     17  C   UNL A   1      32.152  20.923  24.571  1.00  0.00     0.152 C 
BRANCH  17  18
ATOM     18  C   UNL A   1      32.856  19.699  24.029  1.00  0.00    -0.029 A 
ATOM     19  C   UNL A   1      34.002  19.237  24.709  1.00  0.00     0.008 A 
ATOM     20  C   UNL A   1      32.291  18.886  23.036  1.00  0.00     0.008 A 
ATOM     21  C   UNL A   1      34.548  17.985  24.423  1.00  0.00     0.039 A 
ATOM     22  C   UNL A   1      32.841  17.631  22.752  1.00  0.00     0.039 A 
ATOM     23  C   UNL A   1      33.955  17.187  23.457  1.00  0.00     0.123 A 
ATOM     24  F   UNL A   1      34.452  15.968  23.210  1.00  0.00    -0.207 F 
ENDBRANCH  17  18
ENDBRANCH  15  17
ENDBRANCH  12  13
ENDBRANCH   5   7
ENDBRANCH   4   5
ENDBRANCH   3   4
ENDBRANCH   2   3
ENDBRANCH   1   2
BRANCH   1  25
ATOM     25  C   UNL A   1      36.448  22.035  24.020  1.00  0.00     0.202 C 
BRANCH  25  26
ATOM     26  C   UNL A   1      37.254  20.885  24.620  1.00  0.00     0.261 C 
BRANCH  26  27
ATOM     27  O   UNL A   1      37.724  21.292  25.906  1.00  0.00    -0.460 OA
BRANCH  27  28
ATOM     28  C   UNL A   1      39.038  21.063  26.126  1.00  0.00     0.338 C 
ATOM     29  O   UNL A   1      39.676  20.067  25.834  1.00  0.00    -0.246 OA
BRANCH  28  30
ATOM     30  C   UNL A   1      39.640  22.328  26.589  1.00  0.00     0.060 A 
ATOM     31  C   UNL A   1      39.088  23.524  26.114  1.00  0.00     0.016 A 
ATOM     32  C   UNL A   1      40.681  22.345  27.525  1.00  0.00     0.016 A 
ATOM     33  C   UNL A   1      39.608  24.742  26.536  1.00  0.00     0.010 A 
ATOM     34  C   UNL A   1      41.194  23.562  27.957  1.00  0.00     0.010 A 
ATOM     35  C   UNL A   1      40.685  24.759  27.431  1.00  0.00    -0.014 A 
BRANCH  35  36
ATOM     36  C   UNL A   1      41.408  26.016  27.694  1.00  0.00     0.031 A 
ATOM     37  C   UNL A   1      40.696  27.091  28.463  1.00  0.00     0.074 A 
ATOM     38  C   UNL A   1      42.651  26.200  27.219  1.00  0.00     0.049 A 
ATOM     39  N   UNL A   1      41.099  28.294  28.761  1.00  0.00    -0.248 NA
ATOM     40  C   UNL A   1      39.341  26.769  28.946  1.00  0.00     0.031 C 
ATOM     41  C   UNL A   1      43.411  25.217  26.449  1.00  0.00     0.029 A 
ATOM     42  N   UNL A   1      43.476  27.288  27.293  1.00  0.00    -0.354 N 
ATOM     43  C   UNL A   1      40.043  28.882  29.444  1.00  0.00     0.074 A 
ATOM     44  C   UNL A   1      38.970  27.915  29.496  1.00  0.00     0.031 C 
ATOM     45  C   UNL A   1      44.590  25.759  26.101  1.00  0.00     0.029 A 
ATOM     46  C   UNL A   1      44.654  27.129  26.604  1.00  0.00     0.049 A 
ATOM     47  H   UNL A   1      43.250  28.106  27.792  1.00  0.00     0.167 HD
ATOM     48  C   UNL A   1      39.982  30.115  29.997  1.00  0.00     0.034 A 
ATOM     49  C   UNL A   1      45.660  28.002  26.396  1.00  0.00     0.034 A 
ATOM     50  C   UNL A   1      41.067  31.054  29.954  1.00  0.00     0.049 A 
ATOM     51  C   UNL A   1      45.571  29.370  27.019  1.00  0.00     0.074 A 
ATOM     52  C   UNL A   1      41.137  32.310  30.526  1.00  0.00     0.029 A 
ATOM     53  N   UNL A   1      42.269  30.840  29.296  1.00  0.00    -0.354 N 
ATOM     54  N   UNL A   1      44.615  29.874  27.762  1.00  0.00    -0.248 NA
ATOM     55  C   UNL A   1      46.708  30.277  26.806  1.00  0.00     0.031 C 
ATOM     56  C   UNL A   1      42.375  32.867  30.192  1.00  0.00     0.029 A 
ATOM     57  C   UNL A   1      43.086  31.946  29.437  1.00  0.00     0.049 A 
ATOM     58  H   UNL A   1      42.505  30.022  28.801  1.00  0.00     0.167 HD
ATOM     59  C   UNL A   1      45.044  31.144  28.131  1.00  0.00     0.074 A 
ATOM     60  C   UNL A   1      46.356  31.326  27.540  1.00  0.00     0.031 C 
ATOM     61  C   UNL A   1      44.409  32.080  28.879  1.00  0.00     0.034 A 
BRANCH  48  62
ATOM     62  C   UNL A   1      38.723  30.495  30.724  1.00  0.00     0.023 A 
ATOM     63  C   UNL A   1      38.598  30.204  32.098  1.00  0.00     0.012 A 
ATOM     64  C   UNL A   1      37.689  31.190  30.067  1.00  0.00     0.148 A 
ATOM     65  C   UNL A   1      37.452  30.574  32.801  1.00  0.00     0.002 A 
ATOM     66  C   UNL A   1      36.570  31.595  30.785  1.00  0.00     0.091 A 
ATOM     67  F   UNL A   1      37.814  31.431  28.755  1.00  0.00    -0.205 F 
ATOM     68  C   UNL A   1      36.445  31.279  32.148  1.00  0.00     0.022 A 
BRANCH  66  69
ATOM     69  S   UNL A   1      35.255  32.575  30.055  1.00  0.00     0.127 S 
ATOM     70  O   UNL A   1      35.977  33.778  29.643  1.00  0.00    -0.237 OA
ATOM     71  O   UNL A   1      34.811  31.721  28.953  1.00  0.00    -0.237 OA
ATOM     72  O   UNL A   1      34.267  32.771  31.108  1.00  0.00    -0.744 OA
ENDBRANCH  66  69
ENDBRANCH  48  62
BRANCH  49  73
ATOM     73  C   UNL A   1      46.852  27.569  25.616  1.00  0.00     0.023 A 
ATOM     74  C   UNL A   1      46.903  27.825  24.233  1.00  0.00     0.012 A 
ATOM     75  C   UNL A   1      47.970  26.987  26.249  1.00  0.00     0.148 A 
ATOM     76  C   UNL A   1      48.040  27.500  23.491  1.00  0.00     0.002 A 
ATOM     77  C   UNL A   1      49.118  26.718  25.515  1.00  0.00     0.091 A 
ATOM     78  F   UNL A   1      47.896  26.743  27.565  1.00  0.00    -0.205 F 
ATOM     79  C   UNL A   1      49.151  26.960  24.133  1.00  0.00     0.022 A 
BRANCH  77  80
ATOM     80  S   UNL A   1      50.646  26.164  26.280  1.00  0.00     0.127 S 
ATOM     81  O   UNL A   1      50.909  27.236  27.238  1.00  0.00    -0.237 OA
ATOM     82  O   UNL A   1      50.238  24.891  26.875  1.00  0.00    -0.237 OA
ATOM     83  O   UNL A   1      51.610  26.038  25.195  1.00  0.00    -0.744 OA
ENDBRANCH  77  80
ENDBRANCH  49  73
BRANCH  61  84
ATOM     84  C   UNL A   1      45.116  33.385  29.129  1.00  0.00     0.023 A 
ATOM     85  C   UNL A   1      45.939  33.524  30.263  1.00  0.00     0.012 A 
ATOM     86  C   UNL A   1      45.072  34.418  28.170  1.00  0.00     0.148 A 
ATOM     87  C   UNL A   1      46.699  34.678  30.447  1.00  0.00     0.002 A 
ATOM     88  C   UNL A   1      45.869  35.543  28.336  1.00  0.00     0.091 A 
ATOM     89  F   UNL A   1      44.269  34.268  27.107  1.00  0.00    -0.205 F 
ATOM     90  C   UNL A   1      46.677  35.679  29.477  1.00  0.00     0.022 A 
BRANCH  88  91
ATOM     91  S   UNL A   1      45.989  36.830  27.088  1.00  0.00     0.127 S 
ATOM     92  O   UNL A   1      47.019  37.699  27.655  1.00  0.00    -0.237 OA
ATOM     93  O   UNL A   1      46.410  36.076  25.906  1.00  0.00    -0.237 OA
ATOM     94  O   UNL A   1      44.660  37.419  26.989  1.00  0.00    -0.744 OA
ENDBRANCH  88  91
ENDBRANCH  61  84
ENDBRANCH  35  36
ENDBRANCH  28  30
ENDBRANCH  27  28
ENDBRANCH  26  27
ENDBRANCH  25  26
ENDBRANCH   1  25
TORSDOF 20
ENDMDL
MODEL 3
REMARK VINA RESULT:     -11.4      5.425     10.932
REMARK SMILES Cn1ncc(C(=O)NCc2ccc(F)cc2)c1C(=O)OCCOCCOC(=O)c1ccc(-c2c3nc(c(-c4cccc(S(=O)(=O)[O-])c4F)c4ccc([nH]4)c(-c4cccc(S(=O)(=O)[O-])c4F)c4nc(c(-c5cccc(S(=O)(=O)[O-])c5F)c5ccc2[nH]5)C=C4)C=C3)cc1
REMARK SMILES IDX 23 1 22 2 21 3 20 4 18 5 19 6 17 7 1 8 2 9 3 10 4 11 5 12
REMARK SMILES IDX 6 13 7 14 8 15 9 17 10 18 11 19 16 20 12 21 15 22 13 23
REMARK SMILES IDX 14 24 24 25 25 26 26 27 27 28 28 29 29 30 30 31 91 32 31 33
REMARK SMILES IDX 90 34 32 35 33 36 34 37 84 38 35 39 89 40 83 41 85 42 36 43
REMARK SMILES IDX 88 44 82 45 81 46 37 48 69 49 49 50 68 51 50 52 53 53 67 54
REMARK SMILES IDX 86 55 51 56 52 57 66 59 87 60 54 61 38 62 39 63 47 64 40 65
REMARK SMILES IDX 42 66 48 67 41 68 43 69 44 70 45 71 46 72 70 73 71 74 79 75
REMARK SMILES IDX 72 76 74 77 80 78 73 79 75 80 76 81 77 82 78 83 55 84 56 85
REMARK SMILES IDX 64 86 57 87 59 88 65 89 58 90 60 91 61 92 62 93 63 94
REMARK H PARENT 8 16 85 47 53 58
REMARK Flexibility Score: inf
ROOT
ATOM      1  O   UNL A   1      35.931  22.106  24.988  1.00  0.00    -0.374 OA
ENDROOT
BRANCH   1   2
ATOM      2  C   UNL A   1      35.451  22.980  26.014  1.00  0.00     0.202 C 
BRANCH   2   3
ATOM      3  C   UNL A   1      34.816  24.254  25.446  1.00  0.00     0.261 C 
BRANCH   3   4
ATOM      4  O   UNL A   1      33.687  24.597  26.265  1.00  0.00    -0.459 OA
BRANCH   4   5
ATOM      5  C   UNL A   1      32.616  23.768  26.212  1.00  0.00     0.357 C 
ATOM      6  O   UNL A   1      32.297  22.981  27.094  1.00  0.00    -0.244 OA
BRANCH   5   7
ATOM      7  C   UNL A   1      31.814  24.102  25.064  1.00  0.00     0.159 A 
ATOM      8  C   UNL A   1      30.110  25.701  26.144  1.00  0.00     0.174 C 
ATOM      9  N   UNL A   1      30.744  24.984  25.055  1.00  0.00    -0.261 N 
ATOM     10  N   UNL A   1      30.253  25.212  23.824  1.00  0.00    -0.180 NA
ATOM     11  C   UNL A   1      30.968  24.413  23.044  1.00  0.00     0.150 A 
ATOM     12  C   UNL A   1      31.905  23.619  23.753  1.00  0.00     0.092 A 
BRANCH  12  13
ATOM     13  C   UNL A   1      32.720  22.620  23.066  1.00  0.00     0.255 C 
ATOM     14  O   UNL A   1      33.341  22.945  22.049  1.00  0.00    -0.269 OA
ATOM     15  N   UNL A   1      32.742  21.283  23.361  1.00  0.00    -0.348 N 
ATOM     16  H   UNL A   1      33.157  20.735  22.656  1.00  0.00     0.164 HD
BRANCH  15  17
ATOM     17  C   UNL A   1      32.283  20.508  24.487  1.00  0.00     0.152 C 
BRANCH  17  18
ATOM     18  C   UNL A   1      32.771  19.079  24.550  1.00  0.00    -0.029 A 
ATOM     19  C   UNL A   1      32.634  18.384  25.770  1.00  0.00     0.008 A 
ATOM     20  C   UNL A   1      33.133  18.357  23.403  1.00  0.00     0.008 A 
ATOM     21  C   UNL A   1      32.823  17.003  25.833  1.00  0.00     0.039 A 
ATOM     22  C   UNL A   1      33.322  16.972  23.470  1.00  0.00     0.039 A 
ATOM     23  C   UNL A   1      33.153  16.307  24.680  1.00  0.00     0.123 A 
ATOM     24  F   UNL A   1      33.294  14.976  24.729  1.00  0.00    -0.207 F 
ENDBRANCH  17  18
ENDBRANCH  15  17
ENDBRANCH  12  13
ENDBRANCH   5   7
ENDBRANCH   4   5
ENDBRANCH   3   4
ENDBRANCH   2   3
ENDBRANCH   1   2
BRANCH   1  25
ATOM     25  C   UNL A   1      36.050  20.726  25.353  1.00  0.00     0.202 C 
BRANCH  25  26
ATOM     26  C   UNL A   1      37.436  20.163  25.044  1.00  0.00     0.261 C 
BRANCH  26  27
ATOM     27  O   UNL A   1      38.387  21.221  25.172  1.00  0.00    -0.460 OA
BRANCH  27  28
ATOM     28  C   UNL A   1      39.351  21.006  26.095  1.00  0.00     0.338 C 
ATOM     29  O   UNL A   1      39.901  19.953  26.361  1.00  0.00    -0.246 OA
BRANCH  28  30
ATOM     30  C   UNL A   1      39.796  22.323  26.591  1.00  0.00     0.060 A 
ATOM     31  C   UNL A   1      39.115  23.457  26.130  1.00  0.00     0.016 A 
ATOM     32  C   UNL A   1      40.816  22.442  27.542  1.00  0.00     0.016 A 
ATOM     33  C   UNL A   1      39.485  24.718  26.582  1.00  0.00     0.010 A 
ATOM     34  C   UNL A   1      41.179  23.701  28.004  1.00  0.00     0.010 A 
ATOM     35  C   UNL A   1      40.540  24.842  27.493  1.00  0.00    -0.014 A 
BRANCH  35  36
ATOM     36  C   UNL A   1      41.109  26.169  27.790  1.00  0.00     0.031 A 
ATOM     37  C   UNL A   1      42.524  26.439  27.366  1.00  0.00     0.074 A 
ATOM     38  C   UNL A   1      40.389  27.085  28.457  1.00  0.00     0.049 A 
ATOM     39  N   UNL A   1      43.255  27.499  27.569  1.00  0.00    -0.248 NA
ATOM     40  C   UNL A   1      43.208  25.363  26.628  1.00  0.00     0.031 C 
ATOM     41  C   UNL A   1      39.015  26.902  28.921  1.00  0.00     0.029 A 
ATOM     42  N   UNL A   1      40.728  28.341  28.883  1.00  0.00    -0.354 N 
ATOM     43  C   UNL A   1      44.492  27.211  27.007  1.00  0.00     0.074 A 
ATOM     44  C   UNL A   1      44.423  25.869  26.476  1.00  0.00     0.031 C 
ATOM     45  C   UNL A   1      38.634  28.003  29.590  1.00  0.00     0.029 A 
ATOM     46  C   UNL A   1      39.743  28.954  29.619  1.00  0.00     0.049 A 
ATOM     47  H   UNL A   1      41.594  28.765  28.681  1.00  0.00     0.167 HD
ATOM     48  C   UNL A   1      45.582  28.006  26.924  1.00  0.00     0.034 A 
ATOM     49  C   UNL A   1      39.749  30.144  30.252  1.00  0.00     0.034 A 
ATOM     50  C   UNL A   1      45.624  29.346  27.438  1.00  0.00     0.049 A 
ATOM     51  C   UNL A   1      40.975  31.012  30.148  1.00  0.00     0.074 A 
ATOM     52  C   UNL A   1      46.657  30.260  27.364  1.00  0.00     0.029 A 
ATOM     53  N   UNL A   1      44.589  29.957  28.129  1.00  0.00    -0.354 N 
ATOM     54  N   UNL A   1      42.099  30.776  29.514  1.00  0.00    -0.248 NA
ATOM     55  C   UNL A   1      40.925  32.320  30.815  1.00  0.00     0.031 C 
ATOM     56  C   UNL A   1      46.254  31.420  28.032  1.00  0.00     0.029 A 
ATOM     57  C   UNL A   1      44.960  31.237  28.498  1.00  0.00     0.049 A 
ATOM     58  H   UNL A   1      43.719  29.542  28.329  1.00  0.00     0.167 HD
ATOM     59  C   UNL A   1      42.879  31.914  29.679  1.00  0.00     0.074 A 
ATOM     60  C   UNL A   1      42.092  32.846  30.461  1.00  0.00     0.031 C 
ATOM     61  C   UNL A   1      44.136  32.163  29.235  1.00  0.00     0.034 A 
BRANCH  48  62
ATOM     62  C   UNL A   1      46.794  27.462  26.221  1.00  0.00     0.023 A 
ATOM     63  C   UNL A   1      47.637  26.551  26.892  1.00  0.00     0.012 A 
ATOM     64  C   UNL A   1      47.070  27.803  24.883  1.00  0.00     0.148 A 
ATOM     65  C   UNL A   1      48.750  26.010  26.251  1.00  0.00     0.002 A 
ATOM     66  C   UNL A   1      48.155  27.225  24.237  1.00  0.00     0.091 A 
ATOM     67  F   UNL A   1      46.274  28.692  24.274  1.00  0.00    -0.205 F 
ATOM     68  C   UNL A   1      49.002  26.337  24.921  1.00  0.00     0.022 A 
BRANCH  66  69
ATOM     69  S   UNL A   1      48.519  27.519  22.503  1.00  0.00     0.127 S 
ATOM     70  O   UNL A   1      49.777  28.260  22.587  1.00  0.00    -0.237 OA
ATOM     71  O   UNL A   1      48.645  26.159  21.980  1.00  0.00    -0.237 OA
ATOM     72  O   UNL A   1      47.387  28.270  21.976  1.00  0.00    -0.744 OA
ENDBRANCH  66  69
ENDBRANCH  48  62
BRANCH  49  73
ATOM     73  C   UNL A   1      38.527  30.590  30.977  1.00  0.00     0.023 A 
ATOM     74  C   UNL A   1      38.457  30.433  32.373  1.00  0.00     0.012 A 
ATOM     75  C   UNL A   1      37.477  31.248  30.304  1.00  0.00     0.148 A 
ATOM     76  C   UNL A   1      37.357  30.913  33.088  1.00  0.00     0.002 A 
ATOM     77  C   UNL A   1      36.413  31.772  31.028  1.00  0.00     0.091 A 
ATOM     78  F   UNL A   1      37.560  31.378  28.973  1.00  0.00    -0.205 F 
ATOM     79  C   UNL A   1      36.344  31.593  32.419  1.00  0.00     0.022 A 
BRANCH  77  80
ATOM     80  S   UNL A   1      35.140  32.791  30.275  1.00  0.00     0.127 S 
ATOM     81  O   UNL A   1      34.289  33.105  31.420  1.00  0.00    -0.237 OA
ATOM     82  O   UNL A   1      35.923  33.916  29.761  1.00  0.00    -0.237 OA
ATOM     83  O   UNL A   1      34.529  31.963  29.244  1.00  0.00    -0.744 OA
ENDBRANCH  77  80
ENDBRANCH  49  73
BRANCH  61  84
ATOM     84  C   UNL A   1      44.750  33.499  29.558  1.00  0.00     0.023 A 
ATOM     85  C   UNL A   1      45.540  33.640  30.714  1.00  0.00     0.012 A 
ATOM     86  C   UNL A   1      44.656  34.569  28.645  1.00  0.00     0.148 A 
ATOM     87  C   UNL A   1      46.218  34.832  30.966  1.00  0.00     0.002 A 
ATOM     88  C   UNL A   1      45.373  35.736  28.877  1.00  0.00     0.091 A 
ATOM     89  F   UNL A   1      43.884  34.415  27.558  1.00  0.00    -0.205 F 
ATOM     90  C   UNL A   1      46.147  35.872  30.041  1.00  0.00     0.022 A 
BRANCH  88  91
ATOM     91  S   UNL A   1      45.430  37.083  27.690  1.00  0.00     0.127 S 
ATOM     92  O   UNL A   1      46.222  38.079  28.409  1.00  0.00    -0.237 OA
ATOM     93  O   UNL A   1      46.113  36.464  26.553  1.00  0.00    -0.237 OA
ATOM     94  O   UNL A   1      44.044  37.453  27.435  1.00  0.00    -0.744 OA
ENDBRANCH  88  91
ENDBRANCH  61  84
ENDBRANCH  35  36
ENDBRANCH  28  30
ENDBRANCH  27  28
ENDBRANCH  26  27
ENDBRANCH  25  26
ENDBRANCH   1  25
TORSDOF 20
ENDMDL
