MODEL 1
REMARK VINA RESULT:     -11.3      0.000      0.000
REMARK SMILES COc1cccc(C(=O)Nc2ccc(NC(=O)[C@@H]3[C@@H](C(=O)OCCOCCOC(=O)c4ccc(-c5c6nc(c(-c7cccc(S(=O)(=O)[O-])c7F)c7ccc([nH]7)c(-c7cccc(S(=O)(=O)[O-])c7F)c7nc(c(-c8cccc(S(=O)(=O)[O-])c8F)c8ccc5[nH]8)C=C7)C=C6)cc4)[C@@H]4C=C[C@H]3C4)cc2)c1
REMARK SMILES IDX 24 1 23 2 22 3 20 4 21 5 19 6 18 7 97 8 94 9 96 10 98 11
REMARK SMILES IDX 95 12 16 13 15 14 17 16 14 17 11 18 12 19 100 20 13 21 99 22
REMARK SMILES IDX 10 23 8 24 9 25 7 27 3 28 4 29 101 30 5 31 6 32 2 33 1 34
REMARK SMILES IDX 25 35 26 36 27 37 28 38 29 39 30 40 31 41 32 42 93 43 33 44
REMARK SMILES IDX 92 45 34 46 35 47 36 48 86 49 37 50 91 51 85 52 87 53 38 54
REMARK SMILES IDX 90 55 84 56 83 57 39 59 71 60 51 61 70 62 52 63 55 64 69 65
REMARK SMILES IDX 88 66 53 67 54 68 68 70 89 71 56 72 40 73 41 74 49 75 42 76
REMARK SMILES IDX 44 77 50 78 43 79 45 80 46 81 47 82 48 83 72 84 73 85 81 86
REMARK SMILES IDX 74 87 76 88 82 89 75 90 77 91 78 92 79 93 80 94 57 95 58 96
REMARK SMILES IDX 66 97 59 98 61 99 67 100 60 101 62 102 63 103 64 104 65 105
REMARK H PARENT 15 15 10 26 87 58 55 69
REMARK Flexibility Score: inf
ROOT
ATOM      1  C   UNL A   1      33.988  25.503  25.796  1.00  0.00     0.202 C 
ENDROOT
BRANCH   1   2
ATOM      2  C   UNL A   1      35.223  24.688  25.406  1.00  0.00     0.261 C 
BRANCH   2   3
ATOM      3  O   UNL A   1      34.959  24.029  24.162  1.00  0.00    -0.463 OA
BRANCH   3   4
ATOM      4  C   UNL A   1      35.568  22.839  23.943  1.00  0.00     0.310 C 
ATOM      5  O   UNL A   1      36.771  22.681  23.801  1.00  0.00    -0.252 OA
BRANCH   4   6
ATOM      6  C   UNL A   1      34.560  21.707  23.933  1.00  0.00     0.119 C 
ATOM      7  C   UNL A   1      33.094  22.265  23.980  1.00  0.00     0.100 C 
ATOM      8  C   UNL A   1      32.516  21.458  25.189  1.00  0.00     0.025 C 
ATOM      9  C   UNL A   1      34.634  20.796  25.189  1.00  0.00     0.027 C 
ATOM     10  C   UNL A   1      32.542  19.951  24.954  1.00  0.00    -0.027 C 
ATOM     11  C   UNL A   1      33.693  21.505  26.161  1.00  0.00     0.017 C 
ATOM     12  C   UNL A   1      33.820  19.564  24.917  1.00  0.00    -0.027 C 
BRANCH   7  13
ATOM     13  C   UNL A   1      32.480  22.315  22.552  1.00  0.00     0.228 C 
ATOM     14  N   UNL A   1      32.571  23.446  21.767  1.00  0.00    -0.326 N 
ATOM     15  H   UNL A   1      32.825  23.296  20.828  1.00  0.00     0.169 HD
ATOM     16  O   UNL A   1      32.097  21.285  21.986  1.00  0.00    -0.274 OA
BRANCH  14  17
ATOM     17  C   UNL A   1      32.348  24.776  22.133  1.00  0.00     0.041 A 
ATOM     18  C   UNL A   1      32.135  27.439  22.927  1.00  0.00     0.041 A 
ATOM     19  C   UNL A   1      33.197  27.046  22.137  1.00  0.00     0.028 A 
ATOM     20  C   UNL A   1      31.152  26.522  23.308  1.00  0.00     0.028 A 
ATOM     21  C   UNL A   1      33.343  25.701  21.890  1.00  0.00     0.028 A 
ATOM     22  C   UNL A   1      31.251  25.180  22.891  1.00  0.00     0.028 A 
BRANCH  18  23
ATOM     23  N   UNL A   1      32.200  28.725  23.466  1.00  0.00    -0.322 N 
ATOM     24  C   UNL A   1      31.090  29.385  23.978  1.00  0.00     0.255 C 
ATOM     25  O   UNL A   1      31.199  30.069  24.994  1.00  0.00    -0.269 OA
ATOM     26  H   UNL A   1      33.071  29.185  23.484  1.00  0.00     0.170 HD
BRANCH  24  27
ATOM     27  C   UNL A   1      29.801  29.422  23.208  1.00  0.00     0.043 A 
ATOM     28  C   UNL A   1      28.266  30.274  21.509  1.00  0.00     0.119 A 
ATOM     29  C   UNL A   1      27.251  29.495  22.061  1.00  0.00     0.046 A 
ATOM     30  C   UNL A   1      29.543  30.196  22.063  1.00  0.00     0.060 A 
ATOM     31  C   UNL A   1      27.506  28.651  23.142  1.00  0.00     0.005 A 
ATOM     32  C   UNL A   1      28.776  28.618  23.715  1.00  0.00     0.014 A 
BRANCH  28  33
ATOM     33  O   UNL A   1      27.871  31.060  20.464  1.00  0.00    -0.497 OA
ATOM     34  C   UNL A   1      27.947  32.478  20.575  1.00  0.00     0.278 C 
ENDBRANCH  28  33
ENDBRANCH  24  27
ENDBRANCH  18  23
ENDBRANCH  14  17
ENDBRANCH   7  13
ENDBRANCH   4   6
ENDBRANCH   3   4
ENDBRANCH   2   3
ENDBRANCH   1   2
BRANCH   1  35
ATOM     35  O   UNL A   1      34.040  26.902  25.502  1.00  0.00    -0.374 OA
BRANCH  35  36
ATOM     36  C   UNL A   1      33.660  27.811  26.534  1.00  0.00     0.202 C 
BRANCH  36  37
ATOM     37  C   UNL A   1      34.307  29.207  26.508  1.00  0.00     0.261 C 
BRANCH  37  38
ATOM     38  O   UNL A   1      33.915  30.047  27.609  1.00  0.00    -0.460 OA
BRANCH  38  39
ATOM     39  C   UNL A   1      34.710  31.130  27.804  1.00  0.00     0.338 C 
ATOM     40  O   UNL A   1      34.452  32.288  27.528  1.00  0.00    -0.246 OA
BRANCH  39  41
ATOM     41  C   UNL A   1      35.913  30.757  28.574  1.00  0.00     0.060 A 
ATOM     42  C   UNL A   1      37.143  31.251  28.120  1.00  0.00     0.016 A 
ATOM     43  C   UNL A   1      35.862  29.851  29.634  1.00  0.00     0.016 A 
ATOM     44  C   UNL A   1      38.331  30.801  28.691  1.00  0.00     0.010 A 
ATOM     45  C   UNL A   1      37.059  29.393  30.201  1.00  0.00     0.010 A 
ATOM     46  C   UNL A   1      38.299  29.835  29.705  1.00  0.00    -0.014 A 
BRANCH  46  47
ATOM     47  C   UNL A   1      39.566  29.190  30.137  1.00  0.00     0.031 A 
ATOM     48  C   UNL A   1      40.282  29.719  31.352  1.00  0.00     0.074 A 
ATOM     49  C   UNL A   1      40.057  28.127  29.475  1.00  0.00     0.049 A 
ATOM     50  N   UNL A   1      41.396  29.309  31.900  1.00  0.00    -0.248 NA
ATOM     51  C   UNL A   1      39.655  30.859  32.043  1.00  0.00     0.031 C 
ATOM     52  C   UNL A   1      39.450  27.511  28.296  1.00  0.00     0.029 A 
ATOM     53  N   UNL A   1      41.193  27.387  29.694  1.00  0.00    -0.354 N 
ATOM     54  C   UNL A   1      41.618  30.149  32.986  1.00  0.00     0.074 A 
ATOM     55  C   UNL A   1      40.530  31.104  33.008  1.00  0.00     0.031 C 
ATOM     56  C   UNL A   1      40.231  26.499  27.882  1.00  0.00     0.029 A 
ATOM     57  C   UNL A   1      41.403  26.409  28.750  1.00  0.00     0.049 A 
ATOM     58  H   UNL A   1      41.798  27.541  30.455  1.00  0.00     0.167 HD
ATOM     59  C   UNL A   1      42.619  30.117  33.897  1.00  0.00     0.034 A 
ATOM     60  C   UNL A   1      42.434  25.553  28.596  1.00  0.00     0.034 A 
ATOM     61  C   UNL A   1      43.691  29.158  33.885  1.00  0.00     0.049 A 
ATOM     62  C   UNL A   1      43.559  25.566  29.599  1.00  0.00     0.074 A 
ATOM     63  C   UNL A   1      44.741  29.029  34.777  1.00  0.00     0.029 A 
ATOM     64  N   UNL A   1      43.855  28.166  32.930  1.00  0.00    -0.354 N 
ATOM     65  N   UNL A   1      43.697  26.297  30.679  1.00  0.00    -0.248 NA
ATOM     66  C   UNL A   1      44.656  24.611  29.380  1.00  0.00     0.031 C 
ATOM     67  C   UNL A   1      45.551  27.970  34.351  1.00  0.00     0.029 A 
ATOM     68  C   UNL A   1      44.990  27.424  33.207  1.00  0.00     0.049 A 
ATOM     69  H   UNL A   1      43.252  28.011  32.169  1.00  0.00     0.167 HD
ATOM     70  C   UNL A   1      44.870  25.863  31.288  1.00  0.00     0.074 A 
ATOM     71  C   UNL A   1      45.395  24.792  30.467  1.00  0.00     0.031 C 
ATOM     72  C   UNL A   1      45.468  26.319  32.416  1.00  0.00     0.034 A 
BRANCH  59  73
ATOM     73  C   UNL A   1      42.587  31.132  35.009  1.00  0.00     0.023 A 
ATOM     74  C   UNL A   1      41.924  30.819  36.213  1.00  0.00     0.012 A 
ATOM     75  C   UNL A   1      43.257  32.364  34.889  1.00  0.00     0.148 A 
ATOM     76  C   UNL A   1      41.904  31.728  37.270  1.00  0.00     0.002 A 
ATOM     77  C   UNL A   1      43.268  33.248  35.963  1.00  0.00     0.091 A 
ATOM     78  F   UNL A   1      43.865  32.652  33.729  1.00  0.00    -0.205 F 
ATOM     79  C   UNL A   1      42.584  32.936  37.149  1.00  0.00     0.022 A 
BRANCH  77  80
ATOM     80  S   UNL A   1      44.177  34.798  35.932  1.00  0.00     0.127 S 
ATOM     81  O   UNL A   1      43.689  35.401  34.692  1.00  0.00    -0.237 OA
ATOM     82  O   UNL A   1      43.709  35.453  37.154  1.00  0.00    -0.237 OA
ATOM     83  O   UNL A   1      45.587  34.437  35.938  1.00  0.00    -0.744 OA
ENDBRANCH  77  80
ENDBRANCH  59  73
BRANCH  60  84
ATOM     84  C   UNL A   1      42.437  24.581  27.466  1.00  0.00     0.023 A 
ATOM     85  C   UNL A   1      43.194  24.860  26.310  1.00  0.00     0.012 A 
ATOM     86  C   UNL A   1      41.694  23.386  27.526  1.00  0.00     0.148 A 
ATOM     87  C   UNL A   1      43.184  23.984  25.224  1.00  0.00     0.002 A 
ATOM     88  C   UNL A   1      41.734  22.490  26.464  1.00  0.00     0.091 A 
ATOM     89  F   UNL A   1      40.962  23.147  28.623  1.00  0.00    -0.205 F 
ATOM     90  C   UNL A   1      42.463  22.794  25.304  1.00  0.00     0.022 A 
BRANCH  88  91
ATOM     91  S   UNL A   1      40.943  20.879  26.539  1.00  0.00     0.127 S 
ATOM     92  O   UNL A   1      39.597  21.182  26.057  1.00  0.00    -0.237 OA
ATOM     93  O   UNL A   1      41.765  20.092  25.619  1.00  0.00    -0.237 OA
ATOM     94  O   UNL A   1      41.040  20.461  27.931  1.00  0.00    -0.744 OA
ENDBRANCH  88  91
ENDBRANCH  60  84
BRANCH  72  95
ATOM     95  C   UNL A   1      46.735  25.637  32.863  1.00  0.00     0.023 A 
ATOM     96  C   UNL A   1      47.984  26.111  32.413  1.00  0.00     0.012 A 
ATOM     97  C   UNL A   1      46.692  24.574  33.788  1.00  0.00     0.148 A 
ATOM     98  C   UNL A   1      49.168  25.516  32.850  1.00  0.00     0.002 A 
ATOM     99  C   UNL A   1      47.878  24.018  34.256  1.00  0.00     0.091 A 
ATOM    100  F   UNL A   1      45.495  24.126  34.191  1.00  0.00    -0.205 F 
ATOM    101  C   UNL A   1      49.115  24.479  33.779  1.00  0.00     0.022 A 
BRANCH  99 102
ATOM    102  S   UNL A   1      47.909  22.744  35.522  1.00  0.00     0.127 S 
ATOM    103  O   UNL A   1      47.371  21.593  34.800  1.00  0.00    -0.237 OA
ATOM    104  O   UNL A   1      49.335  22.654  35.838  1.00  0.00    -0.237 OA
ATOM    105  O   UNL A   1      47.081  23.242  36.612  1.00  0.00    -0.744 OA
ENDBRANCH  99 102
ENDBRANCH  72  95
ENDBRANCH  46  47
ENDBRANCH  39  41
ENDBRANCH  38  39
ENDBRANCH  37  38
ENDBRANCH  36  37
ENDBRANCH  35  36
ENDBRANCH   1  35
TORSDOF 22
ENDMDL
MODEL 2
REMARK VINA RESULT:     -10.7      1.863      2.109
REMARK SMILES COc1cccc(C(=O)Nc2ccc(NC(=O)[C@@H]3[C@@H](C(=O)OCCOCCOC(=O)c4ccc(-c5c6nc(c(-c7cccc(S(=O)(=O)[O-])c7F)c7ccc([nH]7)c(-c7cccc(S(=O)(=O)[O-])c7F)c7nc(c(-c8cccc(S(=O)(=O)[O-])c8F)c8ccc5[nH]8)C=C7)C=C6)cc4)[C@@H]4C=C[C@H]3C4)cc2)c1
REMARK SMILES IDX 24 1 23 2 22 3 20 4 21 5 19 6 18 7 97 8 94 9 96 10 98 11
REMARK SMILES IDX 95 12 16 13 15 14 17 16 14 17 11 18 12 19 100 20 13 21 99 22
REMARK SMILES IDX 10 23 8 24 9 25 7 27 3 28 4 29 101 30 5 31 6 32 2 33 1 34
REMARK SMILES IDX 25 35 26 36 27 37 28 38 29 39 30 40 31 41 32 42 93 43 33 44
REMARK SMILES IDX 92 45 34 46 35 47 36 48 86 49 37 50 91 51 85 52 87 53 38 54
REMARK SMILES IDX 90 55 84 56 83 57 39 59 71 60 51 61 70 62 52 63 55 64 69 65
REMARK SMILES IDX 88 66 53 67 54 68 68 70 89 71 56 72 40 73 41 74 49 75 42 76
REMARK SMILES IDX 44 77 50 78 43 79 45 80 46 81 47 82 48 83 72 84 73 85 81 86
REMARK SMILES IDX 74 87 76 88 82 89 75 90 77 91 78 92 79 93 80 94 57 95 58 96
REMARK SMILES IDX 66 97 59 98 61 99 67 100 60 101 62 102 63 103 64 104 65 105
REMARK H PARENT 15 15 10 26 87 58 55 69
REMARK Flexibility Score: inf
ROOT
ATOM      1  C   UNL A   1      33.123  25.971  26.314  1.00  0.00     0.202 C 
ENDROOT
BRANCH   1   2
ATOM      2  C   UNL A   1      33.763  24.583  26.244  1.00  0.00     0.261 C 
BRANCH   2   3
ATOM      3  O   UNL A   1      33.801  24.168  24.874  1.00  0.00    -0.463 OA
BRANCH   3   4
ATOM      4  C   UNL A   1      34.801  23.336  24.499  1.00  0.00     0.310 C 
ATOM      5  O   UNL A   1      35.989  23.623  24.493  1.00  0.00    -0.252 OA
BRANCH   4   6
ATOM      6  C   UNL A   1      34.260  21.973  24.120  1.00  0.00     0.119 C 
ATOM      7  C   UNL A   1      32.695  22.006  24.005  1.00  0.00     0.100 C 
ATOM      8  C   UNL A   1      32.311  20.811  24.938  1.00  0.00     0.025 C 
ATOM      9  C   UNL A   1      34.514  20.880  25.194  1.00  0.00     0.027 C 
ATOM     10  C   UNL A   1      32.886  19.482  24.455  1.00  0.00    -0.027 C 
ATOM     11  C   UNL A   1      33.287  21.017  26.094  1.00  0.00     0.017 C 
ATOM     12  C   UNL A   1      34.215  19.544  24.577  1.00  0.00    -0.027 C 
BRANCH   7  13
ATOM     13  C   UNL A   1      32.258  22.170  22.521  1.00  0.00     0.228 C 
ATOM     14  N   UNL A   1      32.497  23.337  21.824  1.00  0.00    -0.326 N 
ATOM     15  H   UNL A   1      32.852  23.225  20.913  1.00  0.00     0.169 HD
ATOM     16  O   UNL A   1      31.893  21.198  21.852  1.00  0.00    -0.274 OA
BRANCH  14  17
ATOM     17  C   UNL A   1      32.300  24.655  22.244  1.00  0.00     0.041 A 
ATOM     18  C   UNL A   1      32.139  27.288  23.142  1.00  0.00     0.041 A 
ATOM     19  C   UNL A   1      33.180  26.912  22.316  1.00  0.00     0.028 A 
ATOM     20  C   UNL A   1      31.151  26.370  23.507  1.00  0.00     0.028 A 
ATOM     21  C   UNL A   1      33.302  25.575  22.017  1.00  0.00     0.028 A 
ATOM     22  C   UNL A   1      31.223  25.044  23.038  1.00  0.00     0.028 A 
BRANCH  18  23
ATOM     23  N   UNL A   1      32.231  28.552  23.727  1.00  0.00    -0.322 N 
ATOM     24  C   UNL A   1      31.119  29.279  24.134  1.00  0.00     0.255 C 
ATOM     25  O   UNL A   1      31.159  29.927  25.178  1.00  0.00    -0.269 OA
ATOM     26  H   UNL A   1      33.124  28.947  23.857  1.00  0.00     0.170 HD
BRANCH  24  27
ATOM     27  C   UNL A   1      29.932  29.429  23.226  1.00  0.00     0.043 A 
ATOM     28  C   UNL A   1      28.668  30.425  21.388  1.00  0.00     0.119 A 
ATOM     29  C   UNL A   1      27.540  29.722  21.806  1.00  0.00     0.046 A 
ATOM     30  C   UNL A   1      29.865  30.238  22.078  1.00  0.00     0.060 A 
ATOM     31  C   UNL A   1      27.606  28.845  22.889  1.00  0.00     0.005 A 
ATOM     32  C   UNL A   1      28.797  28.703  23.598  1.00  0.00     0.014 A 
BRANCH  28  33
ATOM     33  O   UNL A   1      28.456  31.255  20.323  1.00  0.00    -0.497 OA
ATOM     34  C   UNL A   1      27.740  32.472  20.505  1.00  0.00     0.278 C 
ENDBRANCH  28  33
ENDBRANCH  24  27
ENDBRANCH  18  23
ENDBRANCH  14  17
ENDBRANCH   7  13
ENDBRANCH   4   6
ENDBRANCH   3   4
ENDBRANCH   2   3
ENDBRANCH   1   2
BRANCH   1  35
ATOM     35  O   UNL A   1      33.905  27.051  25.796  1.00  0.00    -0.374 OA
BRANCH  35  36
ATOM     36  C   UNL A   1      34.513  27.939  26.732  1.00  0.00     0.202 C 
BRANCH  36  37
ATOM     37  C   UNL A   1      34.201  29.438  26.577  1.00  0.00     0.261 C 
BRANCH  37  38
ATOM     38  O   UNL A   1      34.039  30.127  27.830  1.00  0.00    -0.460 OA
BRANCH  38  39
ATOM     39  C   UNL A   1      34.838  31.214  27.983  1.00  0.00     0.338 C 
ATOM     40  O   UNL A   1      34.567  32.368  27.704  1.00  0.00    -0.246 OA
BRANCH  39  41
ATOM     41  C   UNL A   1      36.069  30.852  28.713  1.00  0.00     0.060 A 
ATOM     42  C   UNL A   1      37.243  31.533  28.367  1.00  0.00     0.016 A 
ATOM     43  C   UNL A   1      36.106  29.793  29.622  1.00  0.00     0.016 A 
ATOM     44  C   UNL A   1      38.469  31.124  28.888  1.00  0.00     0.010 A 
ATOM     45  C   UNL A   1      37.341  29.378  30.138  1.00  0.00     0.010 A 
ATOM     46  C   UNL A   1      38.532  30.016  29.742  1.00  0.00    -0.014 A 
BRANCH  46  47
ATOM     47  C   UNL A   1      39.856  29.445  30.098  1.00  0.00     0.031 A 
ATOM     48  C   UNL A   1      40.645  30.065  31.222  1.00  0.00     0.074 A 
ATOM     49  C   UNL A   1      40.338  28.369  29.451  1.00  0.00     0.049 A 
ATOM     50  N   UNL A   1      41.817  29.729  31.694  1.00  0.00    -0.248 NA
ATOM     51  C   UNL A   1      40.028  31.214  31.906  1.00  0.00     0.031 C 
ATOM     52  C   UNL A   1      39.664  27.668  28.358  1.00  0.00     0.029 A 
ATOM     53  N   UNL A   1      41.520  27.687  29.610  1.00  0.00    -0.354 N 
ATOM     54  C   UNL A   1      42.089  30.633  32.716  1.00  0.00     0.074 A 
ATOM     55  C   UNL A   1      40.967  31.544  32.781  1.00  0.00     0.031 C 
ATOM     56  C   UNL A   1      40.453  26.667  27.931  1.00  0.00     0.029 A 
ATOM     57  C   UNL A   1      41.695  26.670  28.701  1.00  0.00     0.049 A 
ATOM     58  H   UNL A   1      42.177  27.904  30.309  1.00  0.00     0.167 HD
ATOM     59  C   UNL A   1      43.162  30.689  33.540  1.00  0.00     0.034 A 
ATOM     60  C   UNL A   1      42.746  25.848  28.503  1.00  0.00     0.034 A 
ATOM     61  C   UNL A   1      44.270  29.773  33.486  1.00  0.00     0.049 A 
ATOM     62  C   UNL A   1      43.947  25.958  29.407  1.00  0.00     0.074 A 
ATOM     63  C   UNL A   1      45.394  29.733  34.293  1.00  0.00     0.029 A 
ATOM     64  N   UNL A   1      44.399  28.740  32.571  1.00  0.00    -0.354 N 
ATOM     65  N   UNL A   1      44.140  26.751  30.435  1.00  0.00    -0.248 NA
ATOM     66  C   UNL A   1      45.063  25.037  29.145  1.00  0.00     0.031 C 
ATOM     67  C   UNL A   1      46.212  28.687  33.853  1.00  0.00     0.029 A 
ATOM     68  C   UNL A   1      45.585  28.059  32.788  1.00  0.00     0.049 A 
ATOM     69  H   UNL A   1      43.744  28.521  31.870  1.00  0.00     0.167 HD
ATOM     70  C   UNL A   1      45.377  26.395  30.964  1.00  0.00     0.074 A 
ATOM     71  C   UNL A   1      45.879  25.304  30.156  1.00  0.00     0.031 C 
ATOM     72  C   UNL A   1      46.045  26.934  32.015  1.00  0.00     0.034 A 
BRANCH  59  73
ATOM     73  C   UNL A   1      43.176  31.759  34.599  1.00  0.00     0.023 A 
ATOM     74  C   UNL A   1      43.899  32.949  34.372  1.00  0.00     0.012 A 
ATOM     75  C   UNL A   1      42.432  31.618  35.786  1.00  0.00     0.148 A 
ATOM     76  C   UNL A   1      43.904  33.968  35.323  1.00  0.00     0.002 A 
ATOM     77  C   UNL A   1      42.409  32.656  36.711  1.00  0.00     0.091 A 
ATOM     78  F   UNL A   1      41.768  30.471  35.993  1.00  0.00    -0.205 F 
ATOM     79  C   UNL A   1      43.152  33.826  36.486  1.00  0.00     0.022 A 
BRANCH  77  80
ATOM     80  S   UNL A   1      41.413  32.601  38.205  1.00  0.00     0.127 S 
ATOM     81  O   UNL A   1      40.133  32.116  37.687  1.00  0.00    -0.237 OA
ATOM     82  O   UNL A   1      42.143  31.635  39.026  1.00  0.00    -0.237 OA
ATOM     83  O   UNL A   1      41.400  33.958  38.730  1.00  0.00    -0.744 OA
ENDBRANCH  77  80
ENDBRANCH  59  73
BRANCH  60  84
ATOM     84  C   UNL A   1      42.699  24.819  27.426  1.00  0.00     0.023 A 
ATOM     85  C   UNL A   1      43.244  25.112  26.160  1.00  0.00     0.012 A 
ATOM     86  C   UNL A   1      42.118  23.555  27.646  1.00  0.00     0.148 A 
ATOM     87  C   UNL A   1      43.180  24.179  25.124  1.00  0.00     0.002 A 
ATOM     88  C   UNL A   1      42.109  22.610  26.627  1.00  0.00     0.091 A 
ATOM     89  F   UNL A   1      41.585  23.301  28.849  1.00  0.00    -0.205 F 
ATOM     90  C   UNL A   1      42.622  22.925  25.360  1.00  0.00     0.022 A 
BRANCH  88  91
ATOM     91  S   UNL A   1      41.531  20.928  26.885  1.00  0.00     0.127 S 
ATOM     92  O   UNL A   1      40.128  21.142  27.229  1.00  0.00    -0.237 OA
ATOM     93  O   UNL A   1      41.760  20.322  25.574  1.00  0.00    -0.237 OA
ATOM     94  O   UNL A   1      42.370  20.386  27.947  1.00  0.00    -0.744 OA
ENDBRANCH  88  91
ENDBRANCH  60  84
BRANCH  72  95
ATOM     95  C   UNL A   1      47.373  26.327  32.388  1.00  0.00     0.023 A 
ATOM     96  C   UNL A   1      47.426  25.276  33.325  1.00  0.00     0.012 A 
ATOM     97  C   UNL A   1      48.559  26.749  31.754  1.00  0.00     0.148 A 
ATOM     98  C   UNL A   1      48.643  24.678  33.650  1.00  0.00     0.002 A 
ATOM     99  C   UNL A   1      49.761  26.115  32.048  1.00  0.00     0.091 A 
ATOM    100  F   UNL A   1      48.491  27.762  30.879  1.00  0.00    -0.205 F 
ATOM    101  C   UNL A   1      49.807  25.088  33.004  1.00  0.00     0.022 A 
BRANCH  99 102
ATOM    102  S   UNL A   1      51.292  26.513  31.196  1.00  0.00     0.127 S 
ATOM    103  O   UNL A   1      50.837  26.653  29.814  1.00  0.00    -0.237 OA
ATOM    104  O   UNL A   1      51.687  27.767  31.838  1.00  0.00    -0.237 OA
ATOM    105  O   UNL A   1      52.193  25.397  31.449  1.00  0.00    -0.744 OA
ENDBRANCH  99 102
ENDBRANCH  72  95
ENDBRANCH  46  47
ENDBRANCH  39  41
ENDBRANCH  38  39
ENDBRANCH  37  38
ENDBRANCH  36  37
ENDBRANCH  35  36
ENDBRANCH   1  35
TORSDOF 22
ENDMDL
MODEL 3
REMARK VINA RESULT:     -10.7      3.551      6.493
REMARK SMILES COc1cccc(C(=O)Nc2ccc(NC(=O)[C@@H]3[C@@H](C(=O)OCCOCCOC(=O)c4ccc(-c5c6nc(c(-c7cccc(S(=O)(=O)[O-])c7F)c7ccc([nH]7)c(-c7cccc(S(=O)(=O)[O-])c7F)c7nc(c(-c8cccc(S(=O)(=O)[O-])c8F)c8ccc5[nH]8)C=C7)C=C6)cc4)[C@@H]4C=C[C@H]3C4)cc2)c1
REMARK SMILES IDX 24 1 23 2 22 3 20 4 21 5 19 6 18 7 97 8 94 9 96 10 98 11
REMARK SMILES IDX 95 12 16 13 15 14 17 16 14 17 11 18 12 19 100 20 13 21 99 22
REMARK SMILES IDX 10 23 8 24 9 25 7 27 3 28 4 29 101 30 5 31 6 32 2 33 1 34
REMARK SMILES IDX 25 35 26 36 27 37 28 38 29 39 30 40 31 41 32 42 93 43 33 44
REMARK SMILES IDX 92 45 34 46 35 47 36 48 86 49 37 50 91 51 85 52 87 53 38 54
REMARK SMILES IDX 90 55 84 56 83 57 39 59 71 60 51 61 70 62 52 63 55 64 69 65
REMARK SMILES IDX 88 66 53 67 54 68 68 70 89 71 56 72 40 73 41 74 49 75 42 76
REMARK SMILES IDX 44 77 50 78 43 79 45 80 46 81 47 82 48 83 72 84 73 85 81 86
REMARK SMILES IDX 74 87 76 88 82 89 75 90 77 91 78 92 79 93 80 94 57 95 58 96
REMARK SMILES IDX 66 97 59 98 61 99 67 100 60 101 62 102 63 103 64 104 65 105
REMARK H PARENT 15 15 10 26 87 58 55 69
REMARK Flexibility Score: inf
ROOT
ATOM      1  C   UNL A   1      33.515  32.327  28.001  1.00  0.00     0.202 C 
ENDROOT
BRANCH   1   2
ATOM      2  C   UNL A   1      33.799  31.074  27.170  1.00  0.00     0.261 C 
BRANCH   2   3
ATOM      3  O   UNL A   1      32.620  30.261  27.156  1.00  0.00    -0.463 OA
BRANCH   3   4
ATOM      4  C   UNL A   1      32.106  29.923  25.949  1.00  0.00     0.310 C 
ATOM      5  O   UNL A   1      31.271  30.571  25.335  1.00  0.00    -0.252 OA
BRANCH   4   6
ATOM      6  C   UNL A   1      32.732  28.645  25.431  1.00  0.00     0.119 C 
ATOM      7  C   UNL A   1      31.653  27.732  24.749  1.00  0.00     0.100 C 
ATOM      8  C   UNL A   1      31.896  26.384  25.505  1.00  0.00     0.025 C 
ATOM      9  C   UNL A   1      33.311  27.736  26.550  1.00  0.00     0.027 C 
ATOM     10  C   UNL A   1      33.308  25.843  25.300  1.00  0.00    -0.027 C 
ATOM     11  C   UNL A   1      32.104  26.883  26.933  1.00  0.00     0.017 C 
ATOM     12  C   UNL A   1      34.158  26.681  25.898  1.00  0.00    -0.027 C 
BRANCH   7  13
ATOM     13  C   UNL A   1      31.674  27.918  23.205  1.00  0.00     0.228 C 
ATOM     14  N   UNL A   1      31.213  26.934  22.355  1.00  0.00    -0.326 N 
ATOM     15  H   UNL A   1      30.634  27.240  21.621  1.00  0.00     0.169 HD
ATOM     16  O   UNL A   1      31.884  29.025  22.699  1.00  0.00    -0.274 OA
BRANCH  14  17
ATOM     17  C   UNL A   1      31.465  25.559  22.400  1.00  0.00     0.041 A 
ATOM     18  C   UNL A   1      31.901  22.826  22.722  1.00  0.00     0.041 A 
ATOM     19  C   UNL A   1      30.737  23.392  23.203  1.00  0.00     0.028 A 
ATOM     20  C   UNL A   1      32.848  23.605  22.050  1.00  0.00     0.028 A 
ATOM     21  C   UNL A   1      30.629  24.762  23.154  1.00  0.00     0.028 A 
ATOM     22  C   UNL A   1      32.618  24.983  21.872  1.00  0.00     0.028 A 
BRANCH  18  23
ATOM     23  N   UNL A   1      32.158  21.507  23.101  1.00  0.00    -0.322 N 
ATOM     24  C   UNL A   1      32.499  21.148  24.398  1.00  0.00     0.255 C 
ATOM     25  O   UNL A   1      32.049  20.113  24.886  1.00  0.00    -0.269 OA
ATOM     26  H   UNL A   1      32.095  20.801  22.418  1.00  0.00     0.170 HD
BRANCH  24  27
ATOM     27  C   UNL A   1      33.552  21.911  25.150  1.00  0.00     0.043 A 
ATOM     28  C   UNL A   1      35.792  22.818  25.506  1.00  0.00     0.119 A 
ATOM     29  C   UNL A   1      35.430  23.155  26.809  1.00  0.00     0.046 A 
ATOM     30  C   UNL A   1      34.834  22.238  24.675  1.00  0.00     0.060 A 
ATOM     31  C   UNL A   1      34.135  22.921  27.273  1.00  0.00     0.005 A 
ATOM     32  C   UNL A   1      33.202  22.298  26.447  1.00  0.00     0.014 A 
BRANCH  28  33
ATOM     33  O   UNL A   1      37.093  23.093  25.192  1.00  0.00    -0.497 OA
ATOM     34  C   UNL A   1      37.962  23.637  26.181  1.00  0.00     0.278 C 
ENDBRANCH  28  33
ENDBRANCH  24  27
ENDBRANCH  18  23
ENDBRANCH  14  17
ENDBRANCH   7  13
ENDBRANCH   4   6
ENDBRANCH   3   4
ENDBRANCH   2   3
ENDBRANCH   1   2
BRANCH   1  35
ATOM     35  O   UNL A   1      33.957  33.566  27.440  1.00  0.00    -0.374 OA
BRANCH  35  36
ATOM     36  C   UNL A   1      33.953  34.716  28.285  1.00  0.00     0.202 C 
BRANCH  36  37
ATOM     37  C   UNL A   1      33.558  34.501  29.756  1.00  0.00     0.261 C 
BRANCH  37  38
ATOM     38  O   UNL A   1      33.275  35.722  30.463  1.00  0.00    -0.460 OA
BRANCH  38  39
ATOM     39  C   UNL A   1      32.979  35.557  31.778  1.00  0.00     0.338 C 
ATOM     40  O   UNL A   1      31.908  35.760  32.320  1.00  0.00    -0.246 OA
BRANCH  39  41
ATOM     41  C   UNL A   1      34.106  34.914  32.485  1.00  0.00     0.060 A 
ATOM     42  C   UNL A   1      35.372  35.493  32.332  1.00  0.00     0.016 A 
ATOM     43  C   UNL A   1      33.955  33.711  33.176  1.00  0.00     0.016 A 
ATOM     44  C   UNL A   1      36.502  34.844  32.824  1.00  0.00     0.010 A 
ATOM     45  C   UNL A   1      35.094  33.056  33.663  1.00  0.00     0.010 A 
ATOM     46  C   UNL A   1      36.376  33.599  33.454  1.00  0.00    -0.014 A 
BRANCH  46  47
ATOM     47  C   UNL A   1      37.597  32.810  33.758  1.00  0.00     0.031 A 
ATOM     48  C   UNL A   1      38.417  33.165  34.971  1.00  0.00     0.074 A 
ATOM     49  C   UNL A   1      37.955  31.770  32.984  1.00  0.00     0.049 A 
ATOM     50  N   UNL A   1      39.514  32.613  35.419  1.00  0.00    -0.248 NA
ATOM     51  C   UNL A   1      37.934  34.291  35.788  1.00  0.00     0.031 C 
ATOM     52  C   UNL A   1      37.236  31.315  31.794  1.00  0.00     0.029 A 
ATOM     53  N   UNL A   1      39.027  30.916  33.076  1.00  0.00    -0.354 N 
ATOM     54  C   UNL A   1      39.866  33.331  36.556  1.00  0.00     0.074 A 
ATOM     55  C   UNL A   1      38.874  34.372  36.719  1.00  0.00     0.031 C 
ATOM     56  C   UNL A   1      37.899  30.279  31.254  1.00  0.00     0.029 A 
ATOM     57  C   UNL A   1      39.099  30.011  32.044  1.00  0.00     0.049 A 
ATOM     58  H   UNL A   1      39.680  30.949  33.811  1.00  0.00     0.167 HD
ATOM     59  C   UNL A   1      40.903  33.131  37.403  1.00  0.00     0.034 A 
ATOM     60  C   UNL A   1      40.037  29.084  31.760  1.00  0.00     0.034 A 
ATOM     61  C   UNL A   1      41.880  32.086  37.251  1.00  0.00     0.049 A 
ATOM     62  C   UNL A   1      41.206  28.910  32.696  1.00  0.00     0.074 A 
ATOM     63  C   UNL A   1      42.956  31.788  38.068  1.00  0.00     0.029 A 
ATOM     64  N   UNL A   1      41.905  31.171  36.209  1.00  0.00    -0.354 N 
ATOM     65  N   UNL A   1      41.464  29.529  33.823  1.00  0.00    -0.248 NA
ATOM     66  C   UNL A   1      42.198  27.885  32.337  1.00  0.00     0.031 C 
ATOM     67  C   UNL A   1      43.643  30.704  37.510  1.00  0.00     0.029 A 
ATOM     68  C   UNL A   1      42.979  30.312  36.359  1.00  0.00     0.049 A 
ATOM     69  H   UNL A   1      41.253  31.138  35.473  1.00  0.00     0.167 HD
ATOM     70  C   UNL A   1      42.621  28.941  34.327  1.00  0.00     0.074 A 
ATOM     71  C   UNL A   1      43.003  27.904  33.391  1.00  0.00     0.031 C 
ATOM     72  C   UNL A   1      43.313  29.242  35.453  1.00  0.00     0.034 A 
BRANCH  59  73
ATOM     73  C   UNL A   1      41.020  34.044  38.595  1.00  0.00     0.023 A 
ATOM     74  C   UNL A   1      41.890  35.152  38.537  1.00  0.00     0.012 A 
ATOM     75  C   UNL A   1      40.231  33.845  39.744  1.00  0.00     0.148 A 
ATOM     76  C   UNL A   1      41.994  36.030  39.615  1.00  0.00     0.002 A 
ATOM     77  C   UNL A   1      40.310  34.748  40.798  1.00  0.00     0.091 A 
ATOM     78  F   UNL A   1      39.425  32.774  39.789  1.00  0.00    -0.205 F 
ATOM     79  C   UNL A   1      41.198  35.834  40.739  1.00  0.00     0.022 A 
BRANCH  77  80
ATOM     80  S   UNL A   1      39.273  34.624  42.260  1.00  0.00     0.127 S 
ATOM     81  O   UNL A   1      39.845  35.664  43.116  1.00  0.00    -0.237 OA
ATOM     82  O   UNL A   1      37.948  34.937  41.724  1.00  0.00    -0.237 OA
ATOM     83  O   UNL A   1      39.425  33.261  42.747  1.00  0.00    -0.744 OA
ENDBRANCH  77  80
ENDBRANCH  59  73
BRANCH  60  84
ATOM     84  C   UNL A   1      39.895  28.218  30.555  1.00  0.00     0.023 A 
ATOM     85  C   UNL A   1      38.989  27.139  30.577  1.00  0.00     0.012 A 
ATOM     86  C   UNL A   1      40.650  28.456  29.390  1.00  0.00     0.148 A 
ATOM     87  C   UNL A   1      38.864  26.292  29.475  1.00  0.00     0.002 A 
ATOM     88  C   UNL A   1      40.479  27.643  28.276  1.00  0.00     0.091 A 
ATOM     89  F   UNL A   1      41.522  29.473  29.395  1.00  0.00    -0.205 F 
ATOM     90  C   UNL A   1      39.601  26.550  28.321  1.00  0.00     0.022 A 
BRANCH  88  91
ATOM     91  S   UNL A   1      41.288  27.984  26.708  1.00  0.00     0.127 S 
ATOM     92  O   UNL A   1      42.678  28.160  27.120  1.00  0.00    -0.237 OA
ATOM     93  O   UNL A   1      41.018  26.761  25.953  1.00  0.00    -0.237 OA
ATOM     94  O   UNL A   1      40.628  29.170  26.178  1.00  0.00    -0.744 OA
ENDBRANCH  88  91
ENDBRANCH  60  84
BRANCH  72  95
ATOM     95  C   UNL A   1      44.532  28.415  35.770  1.00  0.00     0.023 A 
ATOM     96  C   UNL A   1      45.798  28.825  35.306  1.00  0.00     0.012 A 
ATOM     97  C   UNL A   1      44.433  27.272  36.589  1.00  0.00     0.148 A 
ATOM     98  C   UNL A   1      46.942  28.092  35.625  1.00  0.00     0.002 A 
ATOM     99  C   UNL A   1      45.583  26.575  36.942  1.00  0.00     0.091 A 
ATOM    100  F   UNL A   1      43.218  26.888  37.006  1.00  0.00    -0.205 F 
ATOM    101  C   UNL A   1      46.835  26.975  36.451  1.00  0.00     0.022 A 
BRANCH  99 102
ATOM    102  S   UNL A   1      45.553  25.183  38.077  1.00  0.00     0.127 S 
ATOM    103  O   UNL A   1      44.839  24.175  37.295  1.00  0.00    -0.237 OA
ATOM    104  O   UNL A   1      46.977  24.908  38.270  1.00  0.00    -0.237 OA
ATOM    105  O   UNL A   1      44.863  25.653  39.271  1.00  0.00    -0.744 OA
ENDBRANCH  99 102
ENDBRANCH  72  95
ENDBRANCH  46  47
ENDBRANCH  39  41
ENDBRANCH  38  39
ENDBRANCH  37  38
ENDBRANCH  36  37
ENDBRANCH  35  36
ENDBRANCH   1  35
TORSDOF 22
ENDMDL
