MODEL 1
REMARK VINA RESULT:     -10.6      0.000      0.000
REMARK SMILES Cc1ccc(S(=O)(=O)Nc2ccc(C(=O)CCC(=O)OCCOCCOC(=O)c3ccc(-c4c5nc(c(-c6cccc(S(=O)(=O)[O-])c6F)c6ccc([nH]6)c(-c6cccc(S(=O)(=O)[O-])c6F)c6nc(c(-c7cccc(S(=O)(=O)[O-])c7F)c7ccc4[nH]7)C=C6)C=C5)cc3)cc2)c(C)c1
REMARK SMILES IDX 21 1 20 2 18 3 19 4 17 5 16 6 14 7 15 8 13 9 10 10 11 11
REMARK SMILES IDX 93 12 12 13 92 14 9 15 6 17 7 18 8 19 5 20 1 21 2 22 3 23
REMARK SMILES IDX 96 24 4 25 94 26 95 27 22 28 23 29 24 30 25 31 26 32 27 33
REMARK SMILES IDX 28 34 29 35 30 36 91 37 31 38 90 39 32 40 33 41 34 42 84 43
REMARK SMILES IDX 35 44 89 45 83 46 85 47 36 48 88 49 82 50 81 51 37 53 69 54
REMARK SMILES IDX 49 55 68 56 50 57 53 58 67 59 86 60 51 61 52 62 66 64 87 65
REMARK SMILES IDX 54 66 38 67 39 68 47 69 40 70 42 71 48 72 41 73 43 74 44 75
REMARK SMILES IDX 45 76 46 77 70 78 71 79 79 80 72 81 74 82 80 83 73 84 75 85
REMARK SMILES IDX 76 86 77 87 78 88 55 89 56 90 64 91 57 92 59 93 65 94 58 95
REMARK SMILES IDX 60 96 61 97 62 98 63 99
REMARK H PARENT 9 16 85 52 53 63
REMARK Flexibility Score: inf
ROOT
ATOM      1  C   UNL A   1      35.237  23.444  24.200  1.00  0.00     0.261 C 
ENDROOT
BRANCH   1   2
ATOM      2  O   UNL A   1      35.459  23.398  25.621  1.00  0.00    -0.463 OA
BRANCH   2   3
ATOM      3  C   UNL A   1      34.629  22.631  26.360  1.00  0.00     0.306 C 
ATOM      4  O   UNL A   1      34.821  21.449  26.620  1.00  0.00    -0.252 OA
BRANCH   3   5
ATOM      5  C   UNL A   1      33.400  23.386  26.833  1.00  0.00     0.131 C 
BRANCH   5   6
ATOM      6  C   UNL A   1      32.169  22.564  27.221  1.00  0.00     0.093 C 
BRANCH   6   7
ATOM      7  C   UNL A   1      31.018  22.763  26.242  1.00  0.00     0.163 C 
ATOM      8  O   UNL A   1      30.253  21.837  25.984  1.00  0.00    -0.294 OA
BRANCH   7   9
ATOM      9  C   UNL A   1      30.876  24.061  25.520  1.00  0.00     0.018 A 
ATOM     10  C   UNL A   1      30.293  26.429  24.092  1.00  0.00     0.049 A 
ATOM     11  C   UNL A   1      30.132  26.369  25.481  1.00  0.00     0.027 A 
ATOM     12  C   UNL A   1      30.836  25.329  23.451  1.00  0.00     0.027 A 
ATOM     13  C   UNL A   1      30.418  25.193  26.194  1.00  0.00     0.014 A 
ATOM     14  C   UNL A   1      31.149  24.167  24.164  1.00  0.00     0.014 A 
BRANCH  10  15
ATOM     15  N   UNL A   1      29.941  27.631  23.411  1.00  0.00    -0.280 N 
ATOM     16  H   UNL A   1      29.134  27.604  22.848  1.00  0.00     0.180 HD
BRANCH  15  17
ATOM     17  S   UNL A   1      30.773  29.088  23.477  1.00  0.00     0.262 S 
ATOM     18  O   UNL A   1      29.858  30.134  23.881  1.00  0.00    -0.201 OA
ATOM     19  O   UNL A   1      31.522  29.186  22.242  1.00  0.00    -0.201 OA
BRANCH  17  20
ATOM     20  C   UNL A   1      31.980  28.937  24.789  1.00  0.00     0.090 A 
ATOM     21  C   UNL A   1      35.129  29.509  27.654  1.00  0.00     0.044 C 
ATOM     22  C   UNL A   1      34.018  29.220  26.690  1.00  0.00    -0.051 A 
ATOM     23  C   UNL A   1      32.711  29.601  27.000  1.00  0.00     0.005 A 
ATOM     24  C   UNL A   1      34.266  28.563  25.479  1.00  0.00     0.008 A 
ATOM     25  C   UNL A   1      31.696  29.459  26.056  1.00  0.00     0.023 A 
ATOM     26  C   UNL A   1      33.257  28.409  24.512  1.00  0.00    -0.030 A 
ATOM     27  C   UNL A   1      33.572  27.587  23.289  1.00  0.00     0.046 C 
ENDBRANCH  17  20
ENDBRANCH  15  17
ENDBRANCH  10  15
ENDBRANCH   7   9
ENDBRANCH   6   7
ENDBRANCH   5   6
ENDBRANCH   3   5
ENDBRANCH   2   3
ENDBRANCH   1   2
BRANCH   1  28
ATOM     28  C   UNL A   1      36.476  22.955  23.442  1.00  0.00     0.202 C 
BRANCH  28  29
ATOM     29  O   UNL A   1      37.378  22.226  24.275  1.00  0.00    -0.374 OA
BRANCH  29  30
ATOM     30  C   UNL A   1      37.214  20.805  24.261  1.00  0.00     0.202 C 
BRANCH  30  31
ATOM     31  C   UNL A   1      38.238  20.047  25.120  1.00  0.00     0.261 C 
BRANCH  31  32
ATOM     32  O   UNL A   1      38.649  20.805  26.284  1.00  0.00    -0.460 OA
BRANCH  32  33
ATOM     33  C   UNL A   1      39.990  20.997  26.424  1.00  0.00     0.338 C 
ATOM     34  O   UNL A   1      40.859  20.205  26.094  1.00  0.00    -0.246 OA
BRANCH  33  35
ATOM     35  C   UNL A   1      40.306  22.346  26.976  1.00  0.00     0.060 A 
ATOM     36  C   UNL A   1      39.622  23.448  26.446  1.00  0.00     0.016 A 
ATOM     37  C   UNL A   1      41.263  22.559  27.975  1.00  0.00     0.016 A 
ATOM     38  C   UNL A   1      39.887  24.748  26.901  1.00  0.00     0.010 A 
ATOM     39  C   UNL A   1      41.535  23.865  28.429  1.00  0.00     0.010 A 
ATOM     40  C   UNL A   1      40.867  24.975  27.878  1.00  0.00    -0.014 A 
BRANCH  40  41
ATOM     41  C   UNL A   1      41.333  26.368  28.154  1.00  0.00     0.031 A 
ATOM     42  C   UNL A   1      42.691  26.772  27.660  1.00  0.00     0.074 A 
ATOM     43  C   UNL A   1      40.603  27.280  28.824  1.00  0.00     0.049 A 
ATOM     44  N   UNL A   1      43.278  27.938  27.724  1.00  0.00    -0.248 NA
ATOM     45  C   UNL A   1      43.488  25.723  27.006  1.00  0.00     0.031 C 
ATOM     46  C   UNL A   1      39.279  27.039  29.370  1.00  0.00     0.029 A 
ATOM     47  N   UNL A   1      40.873  28.581  29.184  1.00  0.00    -0.354 N 
ATOM     48  C   UNL A   1      44.512  27.768  27.117  1.00  0.00     0.074 A 
ATOM     49  C   UNL A   1      44.600  26.380  26.714  1.00  0.00     0.031 C 
ATOM     50  C   UNL A   1      38.853  28.133  30.023  1.00  0.00     0.029 A 
ATOM     51  C   UNL A   1      39.891  29.160  29.957  1.00  0.00     0.049 A 
ATOM     52  H   UNL A   1      41.693  29.053  28.913  1.00  0.00     0.167 HD
ATOM     53  C   UNL A   1      45.484  28.682  26.894  1.00  0.00     0.034 A 
ATOM     54  C   UNL A   1      39.835  30.367  30.559  1.00  0.00     0.034 A 
ATOM     55  C   UNL A   1      45.433  30.052  27.319  1.00  0.00     0.049 A 
ATOM     56  C   UNL A   1      40.965  31.347  30.367  1.00  0.00     0.074 A 
ATOM     57  C   UNL A   1      46.365  31.051  27.101  1.00  0.00     0.029 A 
ATOM     58  N   UNL A   1      44.420  30.609  28.080  1.00  0.00    -0.354 N 
ATOM     59  N   UNL A   1      42.048  31.221  29.641  1.00  0.00    -0.248 NA
ATOM     60  C   UNL A   1      40.853  32.648  31.049  1.00  0.00     0.031 C 
ATOM     61  C   UNL A   1      45.933  32.204  27.766  1.00  0.00     0.029 A 
ATOM     62  C   UNL A   1      44.715  31.930  28.367  1.00  0.00     0.049 A 
ATOM     63  H   UNL A   1      43.609  30.135  28.374  1.00  0.00     0.167 HD
ATOM     64  C   UNL A   1      42.719  32.437  29.738  1.00  0.00     0.074 A 
ATOM     65  C   UNL A   1      41.921  33.290  30.592  1.00  0.00     0.031 C 
ATOM     66  C   UNL A   1      43.892  32.804  29.166  1.00  0.00     0.034 A 
BRANCH  53  67
ATOM     67  C   UNL A   1      46.691  28.202  26.144  1.00  0.00     0.023 A 
ATOM     68  C   UNL A   1      46.632  28.089  24.740  1.00  0.00     0.012 A 
ATOM     69  C   UNL A   1      47.868  27.847  26.824  1.00  0.00     0.148 A 
ATOM     70  C   UNL A   1      47.719  27.588  24.026  1.00  0.00     0.002 A 
ATOM     71  C   UNL A   1      48.960  27.385  26.102  1.00  0.00     0.091 A 
ATOM     72  F   UNL A   1      47.886  27.930  28.162  1.00  0.00    -0.205 F 
ATOM     73  C   UNL A   1      48.884  27.243  24.706  1.00  0.00     0.022 A 
BRANCH  71  74
ATOM     74  S   UNL A   1      50.517  26.971  26.892  1.00  0.00     0.127 S 
ATOM     75  O   UNL A   1      51.285  26.437  25.768  1.00  0.00    -0.237 OA
ATOM     76  O   UNL A   1      50.975  28.274  27.379  1.00  0.00    -0.237 OA
ATOM     77  O   UNL A   1      50.189  26.018  27.942  1.00  0.00    -0.744 OA
ENDBRANCH  71  74
ENDBRANCH  53  67
BRANCH  54  78
ATOM     78  C   UNL A   1      38.649  30.740  31.386  1.00  0.00     0.023 A 
ATOM     79  C   UNL A   1      38.613  30.402  32.753  1.00  0.00     0.012 A 
ATOM     80  C   UNL A   1      37.558  31.429  30.822  1.00  0.00     0.148 A 
ATOM     81  C   UNL A   1      37.502  30.719  33.536  1.00  0.00     0.002 A 
ATOM     82  C   UNL A   1      36.476  31.786  31.619  1.00  0.00     0.091 A 
ATOM     83  F   UNL A   1      37.606  31.733  29.517  1.00  0.00    -0.205 F 
ATOM     84  C   UNL A   1      36.437  31.416  32.971  1.00  0.00     0.022 A 
BRANCH  82  85
ATOM     85  S   UNL A   1      35.115  32.789  31.011  1.00  0.00     0.127 S 
ATOM     86  O   UNL A   1      34.140  32.660  32.093  1.00  0.00    -0.237 OA
ATOM     87  O   UNL A   1      35.746  34.106  30.901  1.00  0.00    -0.237 OA
ATOM     88  O   UNL A   1      34.726  32.199  29.739  1.00  0.00    -0.744 OA
ENDBRANCH  82  85
ENDBRANCH  54  78
BRANCH  66  89
ATOM     89  C   UNL A   1      44.391  34.209  29.387  1.00  0.00     0.023 A 
ATOM     90  C   UNL A   1      45.120  34.525  30.549  1.00  0.00     0.012 A 
ATOM     91  C   UNL A   1      44.241  35.184  28.379  1.00  0.00     0.148 A 
ATOM     92  C   UNL A   1      45.683  35.793  30.710  1.00  0.00     0.002 A 
ATOM     93  C   UNL A   1      44.844  36.426  28.524  1.00  0.00     0.091 A 
ATOM     94  F   UNL A   1      43.524  34.870  27.290  1.00  0.00    -0.205 F 
ATOM     95  C   UNL A   1      45.558  36.736  29.693  1.00  0.00     0.022 A 
BRANCH  93  96
ATOM     96  S   UNL A   1      44.827  37.666  27.222  1.00  0.00     0.127 S 
ATOM     97  O   UNL A   1      45.281  38.857  27.938  1.00  0.00    -0.237 OA
ATOM     98  O   UNL A   1      45.791  37.125  26.265  1.00  0.00    -0.237 OA
ATOM     99  O   UNL A   1      43.454  37.718  26.735  1.00  0.00    -0.744 OA
ENDBRANCH  93  96
ENDBRANCH  66  89
ENDBRANCH  40  41
ENDBRANCH  33  35
ENDBRANCH  32  33
ENDBRANCH  31  32
ENDBRANCH  30  31
ENDBRANCH  29  30
ENDBRANCH  28  29
ENDBRANCH   1  28
TORSDOF 23
ENDMDL
MODEL 2
REMARK VINA RESULT:     -10.4      2.340      4.017
REMARK SMILES Cc1ccc(S(=O)(=O)Nc2ccc(C(=O)CCC(=O)OCCOCCOC(=O)c3ccc(-c4c5nc(c(-c6cccc(S(=O)(=O)[O-])c6F)c6ccc([nH]6)c(-c6cccc(S(=O)(=O)[O-])c6F)c6nc(c(-c7cccc(S(=O)(=O)[O-])c7F)c7ccc4[nH]7)C=C6)C=C5)cc3)cc2)c(C)c1
REMARK SMILES IDX 21 1 20 2 18 3 19 4 17 5 16 6 14 7 15 8 13 9 10 10 11 11
REMARK SMILES IDX 93 12 12 13 92 14 9 15 6 17 7 18 8 19 5 20 1 21 2 22 3 23
REMARK SMILES IDX 96 24 4 25 94 26 95 27 22 28 23 29 24 30 25 31 26 32 27 33
REMARK SMILES IDX 28 34 29 35 30 36 91 37 31 38 90 39 32 40 33 41 34 42 84 43
REMARK SMILES IDX 35 44 89 45 83 46 85 47 36 48 88 49 82 50 81 51 37 53 69 54
REMARK SMILES IDX 49 55 68 56 50 57 53 58 67 59 86 60 51 61 52 62 66 64 87 65
REMARK SMILES IDX 54 66 38 67 39 68 47 69 40 70 42 71 48 72 41 73 43 74 44 75
REMARK SMILES IDX 45 76 46 77 70 78 71 79 79 80 72 81 74 82 80 83 73 84 75 85
REMARK SMILES IDX 76 86 77 87 78 88 55 89 56 90 64 91 57 92 59 93 65 94 58 95
REMARK SMILES IDX 60 96 61 97 62 98 63 99
REMARK H PARENT 9 16 85 52 53 63
REMARK Flexibility Score: inf
ROOT
ATOM      1  C   UNL A   1      34.478  24.047  24.604  1.00  0.00     0.261 C 
ENDROOT
BRANCH   1   2
ATOM      2  O   UNL A   1      33.478  24.124  25.635  1.00  0.00    -0.463 OA
BRANCH   2   3
ATOM      3  C   UNL A   1      32.213  24.411  25.260  1.00  0.00     0.306 C 
ATOM      4  O   UNL A   1      31.503  23.674  24.586  1.00  0.00    -0.252 OA
BRANCH   3   5
ATOM      5  C   UNL A   1      31.751  25.771  25.751  1.00  0.00     0.131 C 
BRANCH   5   6
ATOM      6  C   UNL A   1      31.637  26.896  24.720  1.00  0.00     0.093 C 
BRANCH   6   7
ATOM      7  C   UNL A   1      32.926  27.702  24.609  1.00  0.00     0.163 C 
ATOM      8  O   UNL A   1      33.792  27.382  23.799  1.00  0.00    -0.294 OA
BRANCH   7   9
ATOM      9  C   UNL A   1      33.178  28.827  25.556  1.00  0.00     0.018 A 
ATOM     10  C   UNL A   1      33.522  30.764  27.584  1.00  0.00     0.049 A 
ATOM     11  C   UNL A   1      34.538  29.850  27.284  1.00  0.00     0.027 A 
ATOM     12  C   UNL A   1      32.383  30.756  26.797  1.00  0.00     0.027 A 
ATOM     13  C   UNL A   1      34.369  28.884  26.278  1.00  0.00     0.014 A 
ATOM     14  C   UNL A   1      32.226  29.813  25.776  1.00  0.00     0.014 A 
BRANCH  10  15
ATOM     15  N   UNL A   1      33.726  31.692  28.648  1.00  0.00    -0.280 N 
ATOM     16  H   UNL A   1      33.277  31.496  29.502  1.00  0.00     0.180 HD
BRANCH  15  17
ATOM     17  S   UNL A   1      34.656  33.088  28.582  1.00  0.00     0.262 S 
ATOM     18  O   UNL A   1      34.317  33.823  27.383  1.00  0.00    -0.201 OA
ATOM     19  O   UNL A   1      36.020  32.683  28.852  1.00  0.00    -0.201 OA
BRANCH  17  20
ATOM     20  C   UNL A   1      34.153  34.111  29.961  1.00  0.00     0.090 A 
ATOM     21  C   UNL A   1      33.830  37.018  33.108  1.00  0.00     0.044 C 
ATOM     22  C   UNL A   1      33.857  35.968  32.037  1.00  0.00    -0.051 A 
ATOM     23  C   UNL A   1      33.398  36.271  30.755  1.00  0.00     0.005 A 
ATOM     24  C   UNL A   1      34.330  34.678  32.304  1.00  0.00     0.008 A 
ATOM     25  C   UNL A   1      33.542  35.347  29.721  1.00  0.00     0.023 A 
ATOM     26  C   UNL A   1      34.484  33.730  31.277  1.00  0.00    -0.030 A 
ATOM     27  C   UNL A   1      34.884  32.330  31.664  1.00  0.00     0.046 C 
ENDBRANCH  17  20
ENDBRANCH  15  17
ENDBRANCH  10  15
ENDBRANCH   7   9
ENDBRANCH   6   7
ENDBRANCH   5   6
ENDBRANCH   3   5
ENDBRANCH   2   3
ENDBRANCH   1   2
BRANCH   1  28
ATOM     28  C   UNL A   1      34.696  22.594  24.167  1.00  0.00     0.202 C 
BRANCH  28  29
ATOM     29  O   UNL A   1      36.075  22.225  24.157  1.00  0.00    -0.374 OA
BRANCH  29  30
ATOM     30  C   UNL A   1      36.409  21.079  24.947  1.00  0.00     0.202 C 
BRANCH  30  31
ATOM     31  C   UNL A   1      37.907  20.951  25.263  1.00  0.00     0.261 C 
BRANCH  31  32
ATOM     32  O   UNL A   1      38.425  22.112  25.957  1.00  0.00    -0.460 OA
BRANCH  32  33
ATOM     33  C   UNL A   1      39.639  21.954  26.555  1.00  0.00     0.338 C 
ATOM     34  O   UNL A   1      40.257  20.904  26.641  1.00  0.00    -0.246 OA
BRANCH  33  35
ATOM     35  C   UNL A   1      40.190  23.249  27.049  1.00  0.00     0.060 A 
ATOM     36  C   UNL A   1      39.786  24.424  26.402  1.00  0.00     0.016 A 
ATOM     37  C   UNL A   1      41.101  23.337  28.109  1.00  0.00     0.016 A 
ATOM     38  C   UNL A   1      40.284  25.673  26.799  1.00  0.00     0.010 A 
ATOM     39  C   UNL A   1      41.606  24.591  28.505  1.00  0.00     0.010 A 
ATOM     40  C   UNL A   1      41.222  25.769  27.837  1.00  0.00    -0.014 A 
BRANCH  40  41
ATOM     41  C   UNL A   1      41.947  27.055  28.067  1.00  0.00     0.031 A 
ATOM     42  C   UNL A   1      43.369  27.162  27.601  1.00  0.00     0.074 A 
ATOM     43  C   UNL A   1      41.395  28.125  28.673  1.00  0.00     0.049 A 
ATOM     44  N   UNL A   1      44.172  28.192  27.632  1.00  0.00    -0.248 NA
ATOM     45  C   UNL A   1      43.958  25.946  27.019  1.00  0.00     0.031 C 
ATOM     46  C   UNL A   1      40.038  28.176  29.185  1.00  0.00     0.029 A 
ATOM     47  N   UNL A   1      41.908  29.363  28.984  1.00  0.00    -0.354 N 
ATOM     48  C   UNL A   1      45.362  27.753  27.073  1.00  0.00     0.074 A 
ATOM     49  C   UNL A   1      45.184  26.356  26.734  1.00  0.00     0.031 C 
ATOM     50  C   UNL A   1      39.820  29.362  29.776  1.00  0.00     0.029 A 
ATOM     51  C   UNL A   1      41.043  30.162  29.698  1.00  0.00     0.049 A 
ATOM     52  H   UNL A   1      42.811  29.653  28.720  1.00  0.00     0.167 HD
ATOM     53  C   UNL A   1      46.501  28.446  26.843  1.00  0.00     0.034 A 
ATOM     54  C   UNL A   1      41.212  31.385  30.245  1.00  0.00     0.034 A 
ATOM     55  C   UNL A   1      46.711  29.819  27.205  1.00  0.00     0.049 A 
ATOM     56  C   UNL A   1      42.517  32.113  30.048  1.00  0.00     0.074 A 
ATOM     57  C   UNL A   1      47.827  30.604  26.974  1.00  0.00     0.029 A 
ATOM     58  N   UNL A   1      45.810  30.601  27.909  1.00  0.00    -0.354 N 
ATOM     59  N   UNL A   1      43.570  31.742  29.364  1.00  0.00    -0.248 NA
ATOM     60  C   UNL A   1      42.647  33.443  30.668  1.00  0.00     0.031 C 
ATOM     61  C   UNL A   1      47.615  31.851  27.574  1.00  0.00     0.029 A 
ATOM     62  C   UNL A   1      46.353  31.852  28.147  1.00  0.00     0.049 A 
ATOM     63  H   UNL A   1      44.915  30.310  28.196  1.00  0.00     0.167 HD
ATOM     64  C   UNL A   1      44.465  32.806  29.428  1.00  0.00     0.074 A 
ATOM     65  C   UNL A   1      43.832  33.839  30.218  1.00  0.00     0.031 C 
ATOM     66  C   UNL A   1      45.701  32.907  28.880  1.00  0.00     0.034 A 
BRANCH  53  67
ATOM     67  C   UNL A   1      47.606  27.703  26.154  1.00  0.00     0.023 A 
ATOM     68  C   UNL A   1      47.710  27.765  24.749  1.00  0.00     0.012 A 
ATOM     69  C   UNL A   1      48.524  26.934  26.888  1.00  0.00     0.148 A 
ATOM     70  C   UNL A   1      48.691  27.035  24.082  1.00  0.00     0.002 A 
ATOM     71  C   UNL A   1      49.523  26.240  26.219  1.00  0.00     0.091 A 
ATOM     72  F   UNL A   1      48.383  26.864  28.220  1.00  0.00    -0.205 F 
ATOM     73  C   UNL A   1      49.601  26.278  24.816  1.00  0.00     0.022 A 
BRANCH  71  74
ATOM     74  S   UNL A   1      50.768  25.287  27.090  1.00  0.00     0.127 S 
ATOM     75  O   UNL A   1      51.323  26.288  27.999  1.00  0.00    -0.237 OA
ATOM     76  O   UNL A   1      49.967  24.249  27.740  1.00  0.00    -0.237 OA
ATOM     77  O   UNL A   1      51.677  24.792  26.065  1.00  0.00    -0.744 OA
ENDBRANCH  71  74
ENDBRANCH  53  67
BRANCH  54  78
ATOM     78  C   UNL A   1      40.103  32.022  31.016  1.00  0.00     0.023 A 
ATOM     79  C   UNL A   1      39.301  33.006  30.406  1.00  0.00     0.012 A 
ATOM     80  C   UNL A   1      39.841  31.654  32.350  1.00  0.00     0.148 A 
ATOM     81  C   UNL A   1      38.277  33.632  31.119  1.00  0.00     0.002 A 
ATOM     82  C   UNL A   1      38.787  32.245  33.039  1.00  0.00     0.091 A 
ATOM     83  F   UNL A   1      40.622  30.723  32.917  1.00  0.00    -0.205 F 
ATOM     84  C   UNL A   1      38.015  33.248  32.431  1.00  0.00     0.022 A 
BRANCH  82  85
ATOM     85  S   UNL A   1      38.297  31.730  34.688  1.00  0.00     0.127 S 
ATOM     86  O   UNL A   1      39.287  32.410  35.522  1.00  0.00    -0.237 OA
ATOM     87  O   UNL A   1      36.940  32.271  34.774  1.00  0.00    -0.237 OA
ATOM     88  O   UNL A   1      38.367  30.276  34.686  1.00  0.00    -0.744 OA
ENDBRANCH  82  85
ENDBRANCH  54  78
BRANCH  66  89
ATOM     89  C   UNL A   1      46.461  34.197  29.055  1.00  0.00     0.023 A 
ATOM     90  C   UNL A   1      47.420  34.317  30.079  1.00  0.00     0.012 A 
ATOM     91  C   UNL A   1      46.310  35.244  28.123  1.00  0.00     0.148 A 
ATOM     92  C   UNL A   1      48.210  35.465  30.179  1.00  0.00     0.002 A 
ATOM     93  C   UNL A   1      47.132  36.361  28.199  1.00  0.00     0.091 A 
ATOM     94  F   UNL A   1      45.377  35.119  27.169  1.00  0.00    -0.205 F 
ATOM     95  C   UNL A   1      48.077  36.478  29.232  1.00  0.00     0.022 A 
BRANCH  93  96
ATOM     96  S   UNL A   1      47.105  37.667  26.964  1.00  0.00     0.127 S 
ATOM     97  O   UNL A   1      48.059  38.624  27.520  1.00  0.00    -0.237 OA
ATOM     98  O   UNL A   1      47.570  36.969  25.765  1.00  0.00    -0.237 OA
ATOM     99  O   UNL A   1      45.725  38.129  26.897  1.00  0.00    -0.744 OA
ENDBRANCH  93  96
ENDBRANCH  66  89
ENDBRANCH  40  41
ENDBRANCH  33  35
ENDBRANCH  32  33
ENDBRANCH  31  32
ENDBRANCH  30  31
ENDBRANCH  29  30
ENDBRANCH  28  29
ENDBRANCH   1  28
TORSDOF 23
ENDMDL
MODEL 3
REMARK VINA RESULT:     -10.2      1.458      3.416
REMARK SMILES Cc1ccc(S(=O)(=O)Nc2ccc(C(=O)CCC(=O)OCCOCCOC(=O)c3ccc(-c4c5nc(c(-c6cccc(S(=O)(=O)[O-])c6F)c6ccc([nH]6)c(-c6cccc(S(=O)(=O)[O-])c6F)c6nc(c(-c7cccc(S(=O)(=O)[O-])c7F)c7ccc4[nH]7)C=C6)C=C5)cc3)cc2)c(C)c1
REMARK SMILES IDX 21 1 20 2 18 3 19 4 17 5 16 6 14 7 15 8 13 9 10 10 11 11
REMARK SMILES IDX 93 12 12 13 92 14 9 15 6 17 7 18 8 19 5 20 1 21 2 22 3 23
REMARK SMILES IDX 96 24 4 25 94 26 95 27 22 28 23 29 24 30 25 31 26 32 27 33
REMARK SMILES IDX 28 34 29 35 30 36 91 37 31 38 90 39 32 40 33 41 34 42 84 43
REMARK SMILES IDX 35 44 89 45 83 46 85 47 36 48 88 49 82 50 81 51 37 53 69 54
REMARK SMILES IDX 49 55 68 56 50 57 53 58 67 59 86 60 51 61 52 62 66 64 87 65
REMARK SMILES IDX 54 66 38 67 39 68 47 69 40 70 42 71 48 72 41 73 43 74 44 75
REMARK SMILES IDX 45 76 46 77 70 78 71 79 79 80 72 81 74 82 80 83 73 84 75 85
REMARK SMILES IDX 76 86 77 87 78 88 55 89 56 90 64 91 57 92 59 93 65 94 58 95
REMARK SMILES IDX 60 96 61 97 62 98 63 99
REMARK H PARENT 9 16 85 52 53 63
REMARK Flexibility Score: inf
ROOT
ATOM      1  C   UNL A   1      34.444  24.443  23.681  1.00  0.00     0.261 C 
ENDROOT
BRANCH   1   2
ATOM      2  O   UNL A   1      33.963  25.770  23.962  1.00  0.00    -0.463 OA
BRANCH   2   3
ATOM      3  C   UNL A   1      33.747  26.592  22.913  1.00  0.00     0.306 C 
ATOM      4  O   UNL A   1      33.698  26.230  21.744  1.00  0.00    -0.252 OA
BRANCH   3   5
ATOM      5  C   UNL A   1      33.583  28.043  23.330  1.00  0.00     0.131 C 
BRANCH   5   6
ATOM      6  C   UNL A   1      32.787  28.962  22.401  1.00  0.00     0.093 C 
BRANCH   6   7
ATOM      7  C   UNL A   1      31.307  29.000  22.767  1.00  0.00     0.163 C 
ATOM      8  O   UNL A   1      30.579  29.882  22.321  1.00  0.00    -0.294 OA
BRANCH   7   9
ATOM      9  C   UNL A   1      30.762  28.016  23.747  1.00  0.00     0.018 A 
ATOM     10  C   UNL A   1      29.956  25.937  25.484  1.00  0.00     0.049 A 
ATOM     11  C   UNL A   1      30.918  26.874  25.880  1.00  0.00     0.027 A 
ATOM     12  C   UNL A   1      29.342  26.114  24.256  1.00  0.00     0.027 A 
ATOM     13  C   UNL A   1      31.322  27.906  25.019  1.00  0.00     0.014 A 
ATOM     14  C   UNL A   1      29.723  27.159  23.409  1.00  0.00     0.014 A 
BRANCH  10  15
ATOM     15  N   UNL A   1      29.617  24.881  26.379  1.00  0.00    -0.280 N 
ATOM     16  H   UNL A   1      28.715  24.902  26.772  1.00  0.00     0.180 HD
BRANCH  15  17
ATOM     17  S   UNL A   1      30.610  23.603  26.827  1.00  0.00     0.262 S 
ATOM     18  O   UNL A   1      29.797  22.558  27.410  1.00  0.00    -0.201 OA
ATOM     19  O   UNL A   1      31.718  24.184  27.557  1.00  0.00    -0.201 OA
BRANCH  17  20
ATOM     20  C   UNL A   1      31.298  22.928  25.320  1.00  0.00     0.090 A 
ATOM     21  C   UNL A   1      32.141  20.706  21.741  1.00  0.00     0.044 C 
ATOM     22  C   UNL A   1      31.928  21.530  22.975  1.00  0.00    -0.051 A 
ATOM     23  C   UNL A   1      31.142  22.682  22.915  1.00  0.00     0.005 A 
ATOM     24  C   UNL A   1      32.515  21.169  24.193  1.00  0.00     0.008 A 
ATOM     25  C   UNL A   1      30.829  23.379  24.081  1.00  0.00     0.023 A 
ATOM     26  C   UNL A   1      32.214  21.859  25.382  1.00  0.00    -0.030 A 
ATOM     27  C   UNL A   1      32.977  21.486  26.626  1.00  0.00     0.046 C 
ENDBRANCH  17  20
ENDBRANCH  15  17
ENDBRANCH  10  15
ENDBRANCH   7   9
ENDBRANCH   6   7
ENDBRANCH   5   6
ENDBRANCH   3   5
ENDBRANCH   2   3
ENDBRANCH   1   2
BRANCH   1  28
ATOM     28  C   UNL A   1      35.597  24.074  24.621  1.00  0.00     0.202 C 
BRANCH  28  29
ATOM     29  O   UNL A   1      35.646  22.675  24.907  1.00  0.00    -0.374 OA
BRANCH  29  30
ATOM     30  C   UNL A   1      36.378  21.882  23.967  1.00  0.00     0.202 C 
BRANCH  30  31
ATOM     31  C   UNL A   1      37.464  21.001  24.603  1.00  0.00     0.261 C 
BRANCH  31  32
ATOM     32  O   UNL A   1      37.822  21.443  25.935  1.00  0.00    -0.460 OA
BRANCH  32  33
ATOM     33  C   UNL A   1      39.153  21.432  26.226  1.00  0.00     0.338 C 
ATOM     34  O   UNL A   1      39.924  20.516  25.989  1.00  0.00    -0.246 OA
BRANCH  33  35
ATOM     35  C   UNL A   1      39.604  22.723  26.822  1.00  0.00     0.060 A 
ATOM     36  C   UNL A   1      38.925  23.891  26.448  1.00  0.00     0.016 A 
ATOM     37  C   UNL A   1      40.680  22.820  27.712  1.00  0.00     0.016 A 
ATOM     38  C   UNL A   1      39.312  25.141  26.951  1.00  0.00     0.010 A 
ATOM     39  C   UNL A   1      41.073  24.077  28.213  1.00  0.00     0.010 A 
ATOM     40  C   UNL A   1      40.409  25.253  27.817  1.00  0.00    -0.014 A 
BRANCH  40  41
ATOM     41  C   UNL A   1      40.980  26.600  28.124  1.00  0.00     0.031 A 
ATOM     42  C   UNL A   1      42.414  26.860  27.770  1.00  0.00     0.074 A 
ATOM     43  C   UNL A   1      40.278  27.593  28.704  1.00  0.00     0.049 A 
ATOM     44  N   UNL A   1      43.104  27.964  27.882  1.00  0.00    -0.248 NA
ATOM     45  C   UNL A   1      43.167  25.724  27.215  1.00  0.00     0.031 C 
ATOM     46  C   UNL A   1      38.888  27.494  29.111  1.00  0.00     0.029 A 
ATOM     47  N   UNL A   1      40.638  28.869  29.075  1.00  0.00    -0.354 N 
ATOM     48  C   UNL A   1      44.371  27.661  27.408  1.00  0.00     0.074 A 
ATOM     49  C   UNL A   1      44.362  26.263  27.033  1.00  0.00     0.031 C 
ATOM     50  C   UNL A   1      38.507  28.638  29.703  1.00  0.00     0.029 A 
ATOM     51  C   UNL A   1      39.644  29.558  29.734  1.00  0.00     0.049 A 
ATOM     52  H   UNL A   1      41.523  29.253  28.886  1.00  0.00     0.167 HD
ATOM     53  C   UNL A   1      45.447  28.471  27.278  1.00  0.00     0.034 A 
ATOM     54  C   UNL A   1      39.646  30.777  30.313  1.00  0.00     0.034 A 
ATOM     55  C   UNL A   1      45.488  29.849  27.679  1.00  0.00     0.049 A 
ATOM     56  C   UNL A   1      40.881  31.638  30.230  1.00  0.00     0.074 A 
ATOM     57  C   UNL A   1      46.532  30.747  27.548  1.00  0.00     0.029 A 
ATOM     58  N   UNL A   1      44.462  30.518  28.324  1.00  0.00    -0.354 N 
ATOM     59  N   UNL A   1      42.015  31.392  29.622  1.00  0.00    -0.248 NA
ATOM     60  C   UNL A   1      40.828  32.959  30.881  1.00  0.00     0.031 C 
ATOM     61  C   UNL A   1      46.150  31.951  28.151  1.00  0.00     0.029 A 
ATOM     62  C   UNL A   1      44.855  31.811  28.625  1.00  0.00     0.049 A 
ATOM     63  H   UNL A   1      43.582  30.131  28.537  1.00  0.00     0.167 HD
ATOM     64  C   UNL A   1      42.789  32.538  29.774  1.00  0.00     0.074 A 
ATOM     65  C   UNL A   1      41.996  33.483  30.530  1.00  0.00     0.031 C 
ATOM     66  C   UNL A   1      44.045  32.777  29.324  1.00  0.00     0.034 A 
BRANCH  53  67
ATOM     67  C   UNL A   1      46.671  27.860  26.664  1.00  0.00     0.023 A 
ATOM     68  C   UNL A   1      46.845  27.919  25.266  1.00  0.00     0.012 A 
ATOM     69  C   UNL A   1      47.632  27.216  27.460  1.00  0.00     0.148 A 
ATOM     70  C   UNL A   1      47.943  27.306  24.666  1.00  0.00     0.002 A 
ATOM     71  C   UNL A   1      48.743  26.640  26.859  1.00  0.00     0.091 A 
ATOM     72  F   UNL A   1      47.425  27.143  28.783  1.00  0.00    -0.205 F 
ATOM     73  C   UNL A   1      48.894  26.673  25.462  1.00  0.00     0.022 A 
BRANCH  71  74
ATOM     74  S   UNL A   1      50.043  25.855  27.813  1.00  0.00     0.127 S 
ATOM     75  O   UNL A   1      51.217  26.619  27.396  1.00  0.00    -0.237 OA
ATOM     76  O   UNL A   1      49.611  26.102  29.190  1.00  0.00    -0.237 OA
ATOM     77  O   UNL A   1      50.030  24.453  27.421  1.00  0.00    -0.744 OA
ENDBRANCH  71  74
ENDBRANCH  53  67
BRANCH  54  78
ATOM     78  C   UNL A   1      38.423  31.281  31.008  1.00  0.00     0.023 A 
ATOM     79  C   UNL A   1      38.320  31.179  32.409  1.00  0.00     0.012 A 
ATOM     80  C   UNL A   1      37.364  31.863  30.283  1.00  0.00     0.148 A 
ATOM     81  C   UNL A   1      37.174  31.620  33.072  1.00  0.00     0.002 A 
ATOM     82  C   UNL A   1      36.248  32.347  30.955  1.00  0.00     0.091 A 
ATOM     83  F   UNL A   1      37.477  31.942  28.950  1.00  0.00    -0.205 F 
ATOM     84  C   UNL A   1      36.142  32.210  32.348  1.00  0.00     0.022 A 
BRANCH  82  85
ATOM     85  S   UNL A   1      34.923  33.230  30.123  1.00  0.00     0.127 S 
ATOM     86  O   UNL A   1      35.654  34.298  29.444  1.00  0.00    -0.237 OA
ATOM     87  O   UNL A   1      34.386  32.191  29.242  1.00  0.00    -0.237 OA
ATOM     88  O   UNL A   1      34.012  33.658  31.174  1.00  0.00    -0.744 OA
ENDBRANCH  82  85
ENDBRANCH  54  78
BRANCH  66  89
ATOM     89  C   UNL A   1      44.655  34.132  29.579  1.00  0.00     0.023 A 
ATOM     90  C   UNL A   1      45.367  34.372  30.770  1.00  0.00     0.012 A 
ATOM     91  C   UNL A   1      44.626  35.125  28.579  1.00  0.00     0.148 A 
ATOM     92  C   UNL A   1      46.031  35.585  30.966  1.00  0.00     0.002 A 
ATOM     93  C   UNL A   1      45.329  36.309  28.760  1.00  0.00     0.091 A 
ATOM     94  F   UNL A   1      43.925  34.884  27.462  1.00  0.00    -0.205 F 
ATOM     95  C   UNL A   1      46.025  36.545  29.957  1.00  0.00     0.022 A 
BRANCH  93  96
ATOM     96  S   UNL A   1      45.465  37.558  27.474  1.00  0.00     0.127 S 
ATOM     97  O   UNL A   1      46.181  38.626  28.170  1.00  0.00    -0.237 OA
ATOM     98  O   UNL A   1      46.248  36.866  26.450  1.00  0.00    -0.237 OA
ATOM     99  O   UNL A   1      44.100  37.878  27.078  1.00  0.00    -0.744 OA
ENDBRANCH  93  96
ENDBRANCH  66  89
ENDBRANCH  40  41
ENDBRANCH  33  35
ENDBRANCH  32  33
ENDBRANCH  31  32
ENDBRANCH  30  31
ENDBRANCH  29  30
ENDBRANCH  28  29
ENDBRANCH   1  28
TORSDOF 23
ENDMDL
