MODEL 1
REMARK VINA RESULT:     -11.0      0.000      0.000
REMARK SMILES O=C(OCCOCCOC(=O)C1CCN(C2=[NH+]C(Cl)=[NH+]C3=[NH+]C=N[C@@H]32)CC1)c1ccc(-c2c3nc(c(-c4cccc(S(=O)(=O)[O-])c4F)c4ccc([nH]4)c(-c4cccc(S(=O)(=O)[O-])c4F)c4nc(c(-c5cccc(S(=O)(=O)[O-])c5F)c5ccc2[nH]5)C=C4)C=C3)cc1
REMARK SMILES IDX 4 1 3 2 2 3 1 4 28 5 29 6 90 7 30 8 89 9 31 10 32 11 33 12
REMARK SMILES IDX 83 13 34 14 88 15 82 16 84 17 35 18 87 19 81 20 80 21 36 23
REMARK SMILES IDX 68 24 48 25 67 26 49 27 52 28 66 29 85 30 50 31 51 32 65 34
REMARK SMILES IDX 86 35 53 36 37 37 38 38 46 39 39 40 41 41 47 42 40 43 42 44
REMARK SMILES IDX 43 45 44 46 45 47 69 48 70 49 78 50 71 51 73 52 79 53 72 54
REMARK SMILES IDX 74 55 75 56 76 57 77 58 54 59 55 60 63 61 56 62 58 63 64 64
REMARK SMILES IDX 57 65 59 66 60 67 61 68 62 69 5 70 6 71 7 72 8 73 9 74 10 75
REMARK SMILES IDX 11 76 12 77 13 78 27 79 14 80 26 81 15 82 16 83 17 84 25 85
REMARK SMILES IDX 18 86 21 88 24 89 19 90 20 91 22 92 23 93
REMARK H PARENT 84 22 52 33 17 87 20 94 22 95
REMARK Flexibility Score: inf
ROOT
ATOM      1  C   UNL A   1      34.357  32.545  28.553  1.00  0.00     0.261 C 
ENDROOT
BRANCH   1   2
ATOM      2  O   UNL A   1      35.647  32.142  28.066  1.00  0.00    -0.460 OA
BRANCH   2   3
ATOM      3  C   UNL A   1      36.091  30.867  27.995  1.00  0.00     0.338 C 
ATOM      4  O   UNL A   1      35.639  30.112  27.141  1.00  0.00    -0.246 OA
BRANCH   3   5
ATOM      5  C   UNL A   1      37.235  30.438  28.844  1.00  0.00     0.060 A 
ATOM      6  C   UNL A   1      38.292  31.265  29.232  1.00  0.00     0.016 A 
ATOM      7  C   UNL A   1      37.265  29.083  29.188  1.00  0.00     0.016 A 
ATOM      8  C   UNL A   1      39.501  30.721  29.559  1.00  0.00     0.010 A 
ATOM      9  C   UNL A   1      38.443  28.533  29.638  1.00  0.00     0.010 A 
ATOM     10  C   UNL A   1      39.574  29.345  29.659  1.00  0.00    -0.014 A 
BRANCH  10  11
ATOM     11  C   UNL A   1      40.895  28.788  29.816  1.00  0.00     0.031 A 
ATOM     12  C   UNL A   1      41.296  28.624  31.239  1.00  0.00     0.074 A 
ATOM     13  C   UNL A   1      41.554  28.434  28.696  1.00  0.00     0.049 A 
ATOM     14  N   UNL A   1      42.367  29.039  31.833  1.00  0.00    -0.248 NA
ATOM     15  C   UNL A   1      40.275  28.089  32.162  1.00  0.00     0.031 C 
ATOM     16  C   UNL A   1      41.044  28.432  27.315  1.00  0.00     0.029 A 
ATOM     17  N   UNL A   1      42.744  27.802  28.572  1.00  0.00    -0.354 N 
ATOM     18  C   UNL A   1      42.252  28.583  33.149  1.00  0.00     0.074 A 
ATOM     19  C   UNL A   1      40.879  28.213  33.341  1.00  0.00     0.031 C 
ATOM     20  C   UNL A   1      41.747  27.536  26.593  1.00  0.00     0.029 A 
ATOM     21  C   UNL A   1      42.817  27.020  27.423  1.00  0.00     0.049 A 
ATOM     22  H   UNL A   1      43.478  27.887  29.223  1.00  0.00     0.167 HD
ATOM     23  C   UNL A   1      43.350  28.249  33.877  1.00  0.00     0.034 A 
ATOM     24  C   UNL A   1      43.593  25.921  27.258  1.00  0.00     0.034 A 
ATOM     25  C   UNL A   1      44.527  28.915  33.384  1.00  0.00     0.049 A 
ATOM     26  C   UNL A   1      44.636  25.964  28.314  1.00  0.00     0.074 A 
ATOM     27  C   UNL A   1      44.904  30.235  33.242  1.00  0.00     0.029 A 
ATOM     28  N   UNL A   1      45.367  28.190  32.576  1.00  0.00    -0.354 N 
ATOM     29  N   UNL A   1      45.540  26.904  28.389  1.00  0.00    -0.248 NA
ATOM     30  C   UNL A   1      44.363  25.257  29.558  1.00  0.00     0.031 C 
ATOM     31  C   UNL A   1      45.609  30.280  32.005  1.00  0.00     0.029 A 
ATOM     32  C   UNL A   1      45.684  28.978  31.501  1.00  0.00     0.049 A 
ATOM     33  H   UNL A   1      45.685  27.272  32.738  1.00  0.00     0.167 HD
ATOM     34  C   UNL A   1      45.619  27.206  29.744  1.00  0.00     0.074 A 
ATOM     35  C   UNL A   1      44.942  26.099  30.421  1.00  0.00     0.031 C 
ATOM     36  C   UNL A   1      45.939  28.463  30.174  1.00  0.00     0.034 A 
BRANCH  23  37
ATOM     37  C   UNL A   1      43.434  27.009  34.741  1.00  0.00     0.023 A 
ATOM     38  C   UNL A   1      43.541  27.202  36.136  1.00  0.00     0.012 A 
ATOM     39  C   UNL A   1      43.715  25.708  34.254  1.00  0.00     0.148 A 
ATOM     40  C   UNL A   1      43.981  26.181  36.985  1.00  0.00     0.002 A 
ATOM     41  C   UNL A   1      44.087  24.679  35.109  1.00  0.00     0.091 A 
ATOM     42  F   UNL A   1      43.758  25.470  32.942  1.00  0.00    -0.205 F 
ATOM     43  C   UNL A   1      44.255  24.919  36.472  1.00  0.00     0.022 A 
BRANCH  41  44
ATOM     44  S   UNL A   1      44.426  23.024  34.494  1.00  0.00     0.127 S 
ATOM     45  O   UNL A   1      43.181  22.713  33.798  1.00  0.00    -0.237 OA
ATOM     46  O   UNL A   1      45.582  23.259  33.628  1.00  0.00    -0.237 OA
ATOM     47  O   UNL A   1      44.722  22.219  35.674  1.00  0.00    -0.744 OA
ENDBRANCH  41  44
ENDBRANCH  23  37
BRANCH  24  48
ATOM     48  C   UNL A   1      43.238  24.679  26.526  1.00  0.00     0.023 A 
ATOM     49  C   UNL A   1      44.093  24.189  25.521  1.00  0.00     0.012 A 
ATOM     50  C   UNL A   1      42.181  23.846  26.964  1.00  0.00     0.148 A 
ATOM     51  C   UNL A   1      43.902  22.913  24.973  1.00  0.00     0.002 A 
ATOM     52  C   UNL A   1      41.982  22.589  26.402  1.00  0.00     0.091 A 
ATOM     53  F   UNL A   1      41.423  24.247  27.992  1.00  0.00    -0.205 F 
ATOM     54  C   UNL A   1      42.848  22.113  25.412  1.00  0.00     0.022 A 
BRANCH  52  55
ATOM     55  S   UNL A   1      40.642  21.507  26.923  1.00  0.00     0.127 S 
ATOM     56  O   UNL A   1      39.461  22.282  26.536  1.00  0.00    -0.237 OA
ATOM     57  O   UNL A   1      40.883  20.315  26.115  1.00  0.00    -0.237 OA
ATOM     58  O   UNL A   1      40.800  21.340  28.362  1.00  0.00    -0.744 OA
ENDBRANCH  52  55
ENDBRANCH  24  48
BRANCH  36  59
ATOM     59  C   UNL A   1      46.358  29.485  29.142  1.00  0.00     0.023 A 
ATOM     60  C   UNL A   1      47.664  29.523  28.605  1.00  0.00     0.012 A 
ATOM     61  C   UNL A   1      45.364  30.278  28.549  1.00  0.00     0.148 A 
ATOM     62  C   UNL A   1      47.977  30.348  27.520  1.00  0.00     0.002 A 
ATOM     63  C   UNL A   1      45.665  31.061  27.441  1.00  0.00     0.091 A 
ATOM     64  F   UNL A   1      44.123  30.216  29.055  1.00  0.00    -0.205 F 
ATOM     65  C   UNL A   1      46.972  31.107  26.929  1.00  0.00     0.022 A 
BRANCH  63  66
ATOM     66  S   UNL A   1      44.393  31.953  26.547  1.00  0.00     0.127 S 
ATOM     67  O   UNL A   1      45.127  32.443  25.382  1.00  0.00    -0.237 OA
ATOM     68  O   UNL A   1      43.418  30.900  26.257  1.00  0.00    -0.237 OA
ATOM     69  O   UNL A   1      43.906  32.980  27.458  1.00  0.00    -0.744 OA
ENDBRANCH  63  66
ENDBRANCH  36  59
ENDBRANCH  10  11
ENDBRANCH   3   5
ENDBRANCH   2   3
ENDBRANCH   1   2
BRANCH   1  70
ATOM     70  C   UNL A   1      34.002  33.985  28.162  1.00  0.00     0.202 C 
BRANCH  70  71
ATOM     71  O   UNL A   1      32.863  34.652  28.698  1.00  0.00    -0.374 OA
BRANCH  71  72
ATOM     72  C   UNL A   1      32.982  35.940  29.318  1.00  0.00     0.202 C 
BRANCH  72  73
ATOM     73  C   UNL A   1      33.080  36.059  30.843  1.00  0.00     0.261 C 
BRANCH  73  74
ATOM     74  O   UNL A   1      33.978  35.084  31.383  1.00  0.00    -0.463 OA
BRANCH  74  75
ATOM     75  C   UNL A   1      34.213  35.198  32.713  1.00  0.00     0.309 C 
ATOM     76  O   UNL A   1      34.203  36.240  33.343  1.00  0.00    -0.252 OA
BRANCH  75  77
ATOM     77  C   UNL A   1      34.402  33.835  33.378  1.00  0.00     0.108 C 
ATOM     78  C   UNL A   1      35.271  34.061  34.605  1.00  0.00     0.070 C 
ATOM     79  C   UNL A   1      34.993  32.723  32.491  1.00  0.00     0.070 C 
ATOM     80  C   UNL A   1      36.664  34.431  34.135  1.00  0.00     0.277 C 
ATOM     81  C   UNL A   1      36.468  32.952  32.139  1.00  0.00     0.277 C 
ATOM     82  N   UNL A   1      37.205  33.334  33.342  1.00  0.00    -0.230 N 
ATOM     83  C   UNL A   1      38.430  32.784  33.657  1.00  0.00     0.383 C 
ATOM     84  N   UNL A   1      39.335  32.542  32.751  1.00  0.00    -0.155 N 
ATOM     85  C   UNL A   1      38.744  32.504  35.112  1.00  0.00     0.523 C 
ATOM     86  C   UNL A   1      40.565  32.091  33.164  1.00  0.00     0.414 C 
ATOM     87  H   UNL A   1      39.141  32.679  31.796  1.00  0.00     0.367 HD
ATOM     88  C   UNL A   1      39.754  31.428  35.093  1.00  0.00     0.389 C 
ATOM     89  N   UNL A   1      37.641  31.842  35.847  1.00  0.00     0.003 NA
ATOM     90  Cl  UNL A   1      41.851  32.338  32.061  1.00  0.00     0.028 Cl
ATOM     91  N   UNL A   1      40.839  31.534  34.299  1.00  0.00    -0.155 N 
ATOM     92  N   UNL A   1      39.428  30.400  35.792  1.00  0.00    -0.169 N 
ATOM     93  C   UNL A   1      38.150  30.699  36.201  1.00  0.00     0.532 C 
ATOM     94  H   UNL A   1      41.738  31.225  34.556  1.00  0.00     0.367 HD
ATOM     95  H   UNL A   1      39.962  29.596  35.986  1.00  0.00     0.365 HD
ENDBRANCH  75  77
ENDBRANCH  74  75
ENDBRANCH  73  74
ENDBRANCH  72  73
ENDBRANCH  71  72
ENDBRANCH  70  71
ENDBRANCH   1  70
TORSDOF 17
ENDMDL
MODEL 2
REMARK VINA RESULT:     -10.6      3.310      7.555
REMARK SMILES O=C(OCCOCCOC(=O)C1CCN(C2=[NH+]C(Cl)=[NH+]C3=[NH+]C=N[C@@H]32)CC1)c1ccc(-c2c3nc(c(-c4cccc(S(=O)(=O)[O-])c4F)c4ccc([nH]4)c(-c4cccc(S(=O)(=O)[O-])c4F)c4nc(c(-c5cccc(S(=O)(=O)[O-])c5F)c5ccc2[nH]5)C=C4)C=C3)cc1
REMARK SMILES IDX 4 1 3 2 2 3 1 4 28 5 29 6 90 7 30 8 89 9 31 10 32 11 33 12
REMARK SMILES IDX 83 13 34 14 88 15 82 16 84 17 35 18 87 19 81 20 80 21 36 23
REMARK SMILES IDX 68 24 48 25 67 26 49 27 52 28 66 29 85 30 50 31 51 32 65 34
REMARK SMILES IDX 86 35 53 36 37 37 38 38 46 39 39 40 41 41 47 42 40 43 42 44
REMARK SMILES IDX 43 45 44 46 45 47 69 48 70 49 78 50 71 51 73 52 79 53 72 54
REMARK SMILES IDX 74 55 75 56 76 57 77 58 54 59 55 60 63 61 56 62 58 63 64 64
REMARK SMILES IDX 57 65 59 66 60 67 61 68 62 69 5 70 6 71 7 72 8 73 9 74 10 75
REMARK SMILES IDX 11 76 12 77 13 78 27 79 14 80 26 81 15 82 16 83 17 84 25 85
REMARK SMILES IDX 18 86 21 88 24 89 19 90 20 91 22 92 23 93
REMARK H PARENT 84 22 52 33 17 87 20 94 22 95
REMARK Flexibility Score: inf
ROOT
ATOM      1  C   UNL A   1      36.976  31.245  30.685  1.00  0.00     0.261 C 
ENDROOT
BRANCH   1   2
ATOM      2  O   UNL A   1      36.226  31.137  29.464  1.00  0.00    -0.460 OA
BRANCH   2   3
ATOM      3  C   UNL A   1      36.187  30.047  28.666  1.00  0.00     0.338 C 
ATOM      4  O   UNL A   1      35.201  29.841  27.965  1.00  0.00    -0.246 OA
BRANCH   3   5
ATOM      5  C   UNL A   1      37.398  29.196  28.523  1.00  0.00     0.060 A 
ATOM      6  C   UNL A   1      37.745  28.154  29.386  1.00  0.00     0.016 A 
ATOM      7  C   UNL A   1      38.274  29.548  27.491  1.00  0.00     0.016 A 
ATOM      8  C   UNL A   1      39.049  27.767  29.501  1.00  0.00     0.010 A 
ATOM      9  C   UNL A   1      39.564  29.072  27.516  1.00  0.00     0.010 A 
ATOM     10  C   UNL A   1      39.958  28.316  28.617  1.00  0.00    -0.014 A 
BRANCH  10  11
ATOM     11  C   UNL A   1      41.348  28.040  28.880  1.00  0.00     0.031 A 
ATOM     12  C   UNL A   1      41.838  26.806  28.208  1.00  0.00     0.074 A 
ATOM     13  C   UNL A   1      42.028  28.937  29.619  1.00  0.00     0.049 A 
ATOM     14  N   UNL A   1      42.457  25.793  28.722  1.00  0.00    -0.248 NA
ATOM     15  C   UNL A   1      41.406  26.591  26.812  1.00  0.00     0.031 C 
ATOM     16  C   UNL A   1      41.557  30.246  30.103  1.00  0.00     0.029 A 
ATOM     17  N   UNL A   1      43.348  28.969  29.917  1.00  0.00    -0.354 N 
ATOM     18  C   UNL A   1      42.712  24.940  27.646  1.00  0.00     0.074 A 
ATOM     19  C   UNL A   1      41.867  25.366  26.569  1.00  0.00     0.031 C 
ATOM     20  C   UNL A   1      42.624  31.047  30.298  1.00  0.00     0.029 A 
ATOM     21  C   UNL A   1      43.827  30.266  30.084  1.00  0.00     0.049 A 
ATOM     22  H   UNL A   1      43.907  28.164  30.008  1.00  0.00     0.167 HD
ATOM     23  C   UNL A   1      43.820  24.152  27.620  1.00  0.00     0.034 A 
ATOM     24  C   UNL A   1      45.104  30.672  29.883  1.00  0.00     0.034 A 
ATOM     25  C   UNL A   1      44.314  23.900  28.948  1.00  0.00     0.049 A 
ATOM     26  C   UNL A   1      45.953  29.455  29.890  1.00  0.00     0.074 A 
ATOM     27  C   UNL A   1      43.795  23.298  30.075  1.00  0.00     0.029 A 
ATOM     28  N   UNL A   1      45.380  24.653  29.375  1.00  0.00    -0.354 N 
ATOM     29  N   UNL A   1      46.093  28.686  30.936  1.00  0.00    -0.248 NA
ATOM     30  C   UNL A   1      46.235  28.824  28.608  1.00  0.00     0.031 C 
ATOM     31  C   UNL A   1      44.261  24.096  31.160  1.00  0.00     0.029 A 
ATOM     32  C   UNL A   1      45.092  25.091  30.640  1.00  0.00     0.049 A 
ATOM     33  H   UNL A   1      46.202  24.843  28.865  1.00  0.00     0.167 HD
ATOM     34  C   UNL A   1      46.038  27.392  30.430  1.00  0.00     0.074 A 
ATOM     35  C   UNL A   1      46.218  27.541  28.985  1.00  0.00     0.031 C 
ATOM     36  C   UNL A   1      45.542  26.358  31.173  1.00  0.00     0.034 A 
BRANCH  23  37
ATOM     37  C   UNL A   1      44.690  23.975  26.393  1.00  0.00     0.023 A 
ATOM     38  C   UNL A   1      44.871  22.658  25.917  1.00  0.00     0.012 A 
ATOM     39  C   UNL A   1      45.564  24.966  25.880  1.00  0.00     0.148 A 
ATOM     40  C   UNL A   1      45.913  22.332  25.042  1.00  0.00     0.002 A 
ATOM     41  C   UNL A   1      46.555  24.649  24.960  1.00  0.00     0.091 A 
ATOM     42  F   UNL A   1      45.543  26.207  26.367  1.00  0.00    -0.205 F 
ATOM     43  C   UNL A   1      46.756  23.327  24.564  1.00  0.00     0.022 A 
BRANCH  41  44
ATOM     44  S   UNL A   1      47.653  25.907  24.294  1.00  0.00     0.127 S 
ATOM     45  O   UNL A   1      48.173  25.239  23.105  1.00  0.00    -0.237 OA
ATOM     46  O   UNL A   1      46.722  27.007  24.033  1.00  0.00    -0.237 OA
ATOM     47  O   UNL A   1      48.619  26.185  25.350  1.00  0.00    -0.744 OA
ENDBRANCH  41  44
ENDBRANCH  23  37
BRANCH  24  48
ATOM     48  C   UNL A   1      45.548  31.962  29.297  1.00  0.00     0.023 A 
ATOM     49  C   UNL A   1      46.631  32.656  29.868  1.00  0.00     0.012 A 
ATOM     50  C   UNL A   1      45.065  32.403  28.041  1.00  0.00     0.148 A 
ATOM     51  C   UNL A   1      47.212  33.750  29.212  1.00  0.00     0.002 A 
ATOM     52  C   UNL A   1      45.631  33.501  27.403  1.00  0.00     0.091 A 
ATOM     53  F   UNL A   1      44.109  31.692  27.430  1.00  0.00    -0.205 F 
ATOM     54  C   UNL A   1      46.713  34.173  27.981  1.00  0.00     0.022 A 
BRANCH  52  55
ATOM     55  S   UNL A   1      45.035  34.099  25.814  1.00  0.00     0.127 S 
ATOM     56  O   UNL A   1      43.708  34.611  26.162  1.00  0.00    -0.237 OA
ATOM     57  O   UNL A   1      46.021  35.126  25.487  1.00  0.00    -0.237 OA
ATOM     58  O   UNL A   1      45.014  32.937  24.934  1.00  0.00    -0.744 OA
ENDBRANCH  52  55
ENDBRANCH  24  48
BRANCH  36  59
ATOM     59  C   UNL A   1      45.193  26.623  32.620  1.00  0.00     0.023 A 
ATOM     60  C   UNL A   1      46.171  26.641  33.640  1.00  0.00     0.012 A 
ATOM     61  C   UNL A   1      43.899  27.071  32.921  1.00  0.00     0.148 A 
ATOM     62  C   UNL A   1      45.859  27.073  34.933  1.00  0.00     0.002 A 
ATOM     63  C   UNL A   1      43.603  27.545  34.194  1.00  0.00     0.091 A 
ATOM     64  F   UNL A   1      42.986  27.069  31.938  1.00  0.00    -0.205 F 
ATOM     65  C   UNL A   1      44.577  27.538  35.207  1.00  0.00     0.022 A 
BRANCH  63  66
ATOM     66  S   UNL A   1      42.017  28.287  34.576  1.00  0.00     0.127 S 
ATOM     67  O   UNL A   1      42.220  28.753  35.945  1.00  0.00    -0.237 OA
ATOM     68  O   UNL A   1      41.921  29.351  33.575  1.00  0.00    -0.237 OA
ATOM     69  O   UNL A   1      41.028  27.228  34.415  1.00  0.00    -0.744 OA
ENDBRANCH  63  66
ENDBRANCH  36  59
ENDBRANCH  10  11
ENDBRANCH   3   5
ENDBRANCH   2   3
ENDBRANCH   1   2
BRANCH   1  70
ATOM     70  C   UNL A   1      36.303  30.520  31.857  1.00  0.00     0.202 C 
BRANCH  70  71
ATOM     71  O   UNL A   1      37.016  29.605  32.685  1.00  0.00    -0.374 OA
BRANCH  71  72
ATOM     72  C   UNL A   1      38.397  29.819  33.009  1.00  0.00     0.202 C 
BRANCH  72  73
ATOM     73  C   UNL A   1      38.783  30.612  34.263  1.00  0.00     0.261 C 
BRANCH  73  74
ATOM     74  O   UNL A   1      38.596  32.017  34.067  1.00  0.00    -0.463 OA
BRANCH  74  75
ATOM     75  C   UNL A   1      37.677  32.591  34.883  1.00  0.00     0.309 C 
ATOM     76  O   UNL A   1      37.088  32.026  35.787  1.00  0.00    -0.252 OA
BRANCH  75  77
ATOM     77  C   UNL A   1      37.523  34.085  34.606  1.00  0.00     0.108 C 
ATOM     78  C   UNL A   1      36.067  34.433  34.868  1.00  0.00     0.070 C 
ATOM     79  C   UNL A   1      37.953  34.564  33.207  1.00  0.00     0.070 C 
ATOM     80  C   UNL A   1      35.224  33.777  33.792  1.00  0.00     0.277 C 
ATOM     81  C   UNL A   1      37.018  34.083  32.091  1.00  0.00     0.277 C 
ATOM     82  N   UNL A   1      35.628  34.294  32.491  1.00  0.00    -0.230 N 
ATOM     83  C   UNL A   1      34.693  34.835  31.633  1.00  0.00     0.383 C 
ATOM     84  N   UNL A   1      34.653  34.529  30.368  1.00  0.00    -0.155 N 
ATOM     85  C   UNL A   1      33.650  35.775  32.202  1.00  0.00     0.523 C 
ATOM     86  C   UNL A   1      33.625  35.033  29.608  1.00  0.00     0.414 C 
ATOM     87  H   UNL A   1      35.342  33.952  29.967  1.00  0.00     0.367 HD
ATOM     88  C   UNL A   1      33.230  36.622  31.070  1.00  0.00     0.389 C 
ATOM     89  N   UNL A   1      34.201  36.794  33.127  1.00  0.00     0.003 NA
ATOM     90  Cl  UNL A   1      33.285  34.177  28.164  1.00  0.00     0.028 Cl
ATOM     91  N   UNL A   1      32.887  36.057  29.894  1.00  0.00    -0.155 N 
ATOM     92  N   UNL A   1      33.337  37.882  31.299  1.00  0.00    -0.169 N 
ATOM     93  C   UNL A   1      33.939  37.920  32.533  1.00  0.00     0.532 C 
ATOM     94  H   UNL A   1      32.158  36.385  29.319  1.00  0.00     0.367 HD
ATOM     95  H   UNL A   1      33.056  38.635  30.729  1.00  0.00     0.365 HD
ENDBRANCH  75  77
ENDBRANCH  74  75
ENDBRANCH  73  74
ENDBRANCH  72  73
ENDBRANCH  71  72
ENDBRANCH  70  71
ENDBRANCH   1  70
TORSDOF 17
ENDMDL
MODEL 3
REMARK VINA RESULT:     -10.5      5.034      9.486
REMARK SMILES O=C(OCCOCCOC(=O)C1CCN(C2=[NH+]C(Cl)=[NH+]C3=[NH+]C=N[C@@H]32)CC1)c1ccc(-c2c3nc(c(-c4cccc(S(=O)(=O)[O-])c4F)c4ccc([nH]4)c(-c4cccc(S(=O)(=O)[O-])c4F)c4nc(c(-c5cccc(S(=O)(=O)[O-])c5F)c5ccc2[nH]5)C=C4)C=C3)cc1
REMARK SMILES IDX 4 1 3 2 2 3 1 4 28 5 29 6 90 7 30 8 89 9 31 10 32 11 33 12
REMARK SMILES IDX 83 13 34 14 88 15 82 16 84 17 35 18 87 19 81 20 80 21 36 23
REMARK SMILES IDX 68 24 48 25 67 26 49 27 52 28 66 29 85 30 50 31 51 32 65 34
REMARK SMILES IDX 86 35 53 36 37 37 38 38 46 39 39 40 41 41 47 42 40 43 42 44
REMARK SMILES IDX 43 45 44 46 45 47 69 48 70 49 78 50 71 51 73 52 79 53 72 54
REMARK SMILES IDX 74 55 75 56 76 57 77 58 54 59 55 60 63 61 56 62 58 63 64 64
REMARK SMILES IDX 57 65 59 66 60 67 61 68 62 69 5 70 6 71 7 72 8 73 9 74 10 75
REMARK SMILES IDX 11 76 12 77 13 78 27 79 14 80 26 81 15 82 16 83 17 84 25 85
REMARK SMILES IDX 18 86 21 88 24 89 19 90 20 91 22 92 23 93
REMARK H PARENT 84 22 52 33 17 87 20 94 22 95
REMARK Flexibility Score: inf
ROOT
ATOM      1  C   UNL A   1      37.330  21.222  25.421  1.00  0.00     0.261 C 
ENDROOT
BRANCH   1   2
ATOM      2  O   UNL A   1      38.658  20.908  24.970  1.00  0.00    -0.460 OA
BRANCH   2   3
ATOM      3  C   UNL A   1      39.606  20.287  25.707  1.00  0.00     0.338 C 
ATOM      4  O   UNL A   1      39.704  19.064  25.667  1.00  0.00    -0.246 OA
BRANCH   3   5
ATOM      5  C   UNL A   1      40.622  21.097  26.431  1.00  0.00     0.060 A 
ATOM      6  C   UNL A   1      40.830  21.061  27.812  1.00  0.00     0.016 A 
ATOM      7  C   UNL A   1      41.343  22.009  25.654  1.00  0.00     0.016 A 
ATOM      8  C   UNL A   1      41.386  22.135  28.447  1.00  0.00     0.010 A 
ATOM      9  C   UNL A   1      42.015  23.035  26.277  1.00  0.00     0.010 A 
ATOM     10  C   UNL A   1      41.882  23.155  27.658  1.00  0.00    -0.014 A 
BRANCH  10  11
ATOM     11  C   UNL A   1      42.287  24.354  28.349  1.00  0.00     0.031 A 
ATOM     12  C   UNL A   1      41.343  25.488  28.159  1.00  0.00     0.074 A 
ATOM     13  C   UNL A   1      43.394  24.283  29.112  1.00  0.00     0.049 A 
ATOM     14  N   UNL A   1      41.593  26.695  27.766  1.00  0.00    -0.248 NA
ATOM     15  C   UNL A   1      39.902  25.175  28.233  1.00  0.00     0.031 C 
ATOM     16  C   UNL A   1      44.193  23.088  29.430  1.00  0.00     0.029 A 
ATOM     17  N   UNL A   1      43.923  25.220  29.935  1.00  0.00    -0.354 N 
ATOM     18  C   UNL A   1      40.359  27.350  27.798  1.00  0.00     0.074 A 
ATOM     19  C   UNL A   1      39.351  26.332  27.873  1.00  0.00     0.031 C 
ATOM     20  C   UNL A   1      44.837  23.293  30.597  1.00  0.00     0.029 A 
ATOM     21  C   UNL A   1      44.598  24.661  31.016  1.00  0.00     0.049 A 
ATOM     22  H   UNL A   1      43.839  26.189  29.784  1.00  0.00     0.167 HD
ATOM     23  C   UNL A   1      40.274  28.677  28.079  1.00  0.00     0.034 A 
ATOM     24  C   UNL A   1      44.782  25.245  32.225  1.00  0.00     0.034 A 
ATOM     25  C   UNL A   1      41.508  29.355  27.781  1.00  0.00     0.049 A 
ATOM     26  C   UNL A   1      44.537  26.698  32.047  1.00  0.00     0.074 A 
ATOM     27  C   UNL A   1      42.254  29.547  26.636  1.00  0.00     0.029 A 
ATOM     28  N   UNL A   1      42.350  29.621  28.833  1.00  0.00    -0.354 N 
ATOM     29  N   UNL A   1      45.272  27.460  31.283  1.00  0.00    -0.248 NA
ATOM     30  C   UNL A   1      43.192  27.190  32.312  1.00  0.00     0.031 C 
ATOM     31  C   UNL A   1      43.609  29.437  27.064  1.00  0.00     0.029 A 
ATOM     32  C   UNL A   1      43.613  29.257  28.449  1.00  0.00     0.049 A 
ATOM     33  H   UNL A   1      42.093  30.003  29.704  1.00  0.00     0.167 HD
ATOM     34  C   UNL A   1      44.362  28.274  30.619  1.00  0.00     0.074 A 
ATOM     35  C   UNL A   1      43.108  28.127  31.361  1.00  0.00     0.031 C 
ATOM     36  C   UNL A   1      44.613  28.742  29.359  1.00  0.00     0.034 A 
BRANCH  23  37
ATOM     37  C   UNL A   1      39.241  29.268  29.015  1.00  0.00     0.023 A 
ATOM     38  C   UNL A   1      38.521  30.391  28.551  1.00  0.00     0.012 A 
ATOM     39  C   UNL A   1      39.155  28.982  30.400  1.00  0.00     0.148 A 
ATOM     40  C   UNL A   1      37.822  31.227  29.429  1.00  0.00     0.002 A 
ATOM     41  C   UNL A   1      38.405  29.777  31.258  1.00  0.00     0.091 A 
ATOM     42  F   UNL A   1      39.901  28.018  30.941  1.00  0.00    -0.205 F 
ATOM     43  C   UNL A   1      37.765  30.921  30.783  1.00  0.00     0.022 A 
BRANCH  41  44
ATOM     44  S   UNL A   1      38.281  29.405  33.012  1.00  0.00     0.127 S 
ATOM     45  O   UNL A   1      37.633  30.610  33.519  1.00  0.00    -0.237 OA
ATOM     46  O   UNL A   1      37.443  28.204  33.004  1.00  0.00    -0.237 OA
ATOM     47  O   UNL A   1      39.648  29.172  33.462  1.00  0.00    -0.744 OA
ENDBRANCH  41  44
ENDBRANCH  23  37
BRANCH  24  48
ATOM     48  C   UNL A   1      44.753  24.579  33.552  1.00  0.00     0.023 A 
ATOM     49  C   UNL A   1      43.559  24.000  34.021  1.00  0.00     0.012 A 
ATOM     50  C   UNL A   1      45.947  24.307  34.262  1.00  0.00     0.148 A 
ATOM     51  C   UNL A   1      43.554  23.178  35.156  1.00  0.00     0.002 A 
ATOM     52  C   UNL A   1      45.935  23.507  35.400  1.00  0.00     0.091 A 
ATOM     53  F   UNL A   1      47.109  24.758  33.773  1.00  0.00    -0.205 F 
ATOM     54  C   UNL A   1      44.740  22.931  35.846  1.00  0.00     0.022 A 
BRANCH  52  55
ATOM     55  S   UNL A   1      47.429  23.149  36.337  1.00  0.00     0.127 S 
ATOM     56  O   UNL A   1      47.788  24.474  36.849  1.00  0.00    -0.237 OA
ATOM     57  O   UNL A   1      46.937  22.216  37.347  1.00  0.00    -0.237 OA
ATOM     58  O   UNL A   1      48.380  22.603  35.377  1.00  0.00    -0.744 OA
ENDBRANCH  52  55
ENDBRANCH  24  48
BRANCH  36  59
ATOM     59  C   UNL A   1      45.975  28.479  28.759  1.00  0.00     0.023 A 
ATOM     60  C   UNL A   1      47.109  29.251  29.097  1.00  0.00     0.012 A 
ATOM     61  C   UNL A   1      46.158  27.307  28.011  1.00  0.00     0.148 A 
ATOM     62  C   UNL A   1      48.390  28.875  28.680  1.00  0.00     0.002 A 
ATOM     63  C   UNL A   1      47.437  26.910  27.638  1.00  0.00     0.091 A 
ATOM     64  F   UNL A   1      45.075  26.572  27.716  1.00  0.00    -0.205 F 
ATOM     65  C   UNL A   1      48.555  27.696  27.961  1.00  0.00     0.022 A 
BRANCH  63  66
ATOM     66  S   UNL A   1      47.735  25.335  26.836  1.00  0.00     0.127 S 
ATOM     67  O   UNL A   1      47.058  24.403  27.734  1.00  0.00    -0.237 OA
ATOM     68  O   UNL A   1      47.083  25.517  25.538  1.00  0.00    -0.237 OA
ATOM     69  O   UNL A   1      49.183  25.190  26.758  1.00  0.00    -0.744 OA
ENDBRANCH  63  66
ENDBRANCH  36  59
ENDBRANCH  10  11
ENDBRANCH   3   5
ENDBRANCH   2   3
ENDBRANCH   1   2
BRANCH   1  70
ATOM     70  C   UNL A   1      36.304  20.152  25.026  1.00  0.00     0.202 C 
BRANCH  70  71
ATOM     71  O   UNL A   1      34.979  20.491  24.627  1.00  0.00    -0.374 OA
BRANCH  71  72
ATOM     72  C   UNL A   1      34.390  21.745  24.999  1.00  0.00     0.202 C 
BRANCH  72  73
ATOM     73  C   UNL A   1      33.439  21.827  26.198  1.00  0.00     0.261 C 
BRANCH  73  74
ATOM     74  O   UNL A   1      32.072  21.837  25.777  1.00  0.00    -0.463 OA
BRANCH  74  75
ATOM     75  C   UNL A   1      31.860  22.333  24.532  1.00  0.00     0.309 C 
ATOM     76  O   UNL A   1      32.296  21.855  23.501  1.00  0.00    -0.252 OA
BRANCH  75  77
ATOM     77  C   UNL A   1      30.911  23.530  24.550  1.00  0.00     0.108 C 
ATOM     78  C   UNL A   1      31.413  24.504  23.496  1.00  0.00     0.070 C 
ATOM     79  C   UNL A   1      30.737  24.240  25.906  1.00  0.00     0.070 C 
ATOM     80  C   UNL A   1      32.731  25.080  23.975  1.00  0.00     0.277 C 
ATOM     81  C   UNL A   1      31.989  25.003  26.352  1.00  0.00     0.277 C 
ATOM     82  N   UNL A   1      32.513  25.783  25.232  1.00  0.00    -0.230 N 
ATOM     83  C   UNL A   1      32.915  27.094  25.378  1.00  0.00     0.383 C 
ATOM     84  N   UNL A   1      33.564  27.509  26.429  1.00  0.00    -0.155 N 
ATOM     85  C   UNL A   1      32.636  28.065  24.249  1.00  0.00     0.523 C 
ATOM     86  C   UNL A   1      34.017  28.806  26.445  1.00  0.00     0.414 C 
ATOM     87  H   UNL A   1      33.723  26.908  27.192  1.00  0.00     0.367 HD
ATOM     88  C   UNL A   1      32.596  29.397  24.881  1.00  0.00     0.389 C 
ATOM     89  N   UNL A   1      31.262  27.971  23.702  1.00  0.00     0.003 NA
ATOM     90  Cl  UNL A   1      35.308  29.123  27.524  1.00  0.00     0.028 Cl
ATOM     91  N   UNL A   1      33.586  29.781  25.713  1.00  0.00    -0.155 N 
ATOM     92  N   UNL A   1      31.514  30.050  24.644  1.00  0.00    -0.169 N 
ATOM     93  C   UNL A   1      30.751  29.140  23.953  1.00  0.00     0.532 C 
ATOM     94  H   UNL A   1      33.941  30.698  25.756  1.00  0.00     0.367 HD
ATOM     95  H   UNL A   1      31.288  30.975  24.896  1.00  0.00     0.365 HD
ENDBRANCH  75  77
ENDBRANCH  74  75
ENDBRANCH  73  74
ENDBRANCH  72  73
ENDBRANCH  71  72
ENDBRANCH  70  71
ENDBRANCH   1  70
TORSDOF 17
ENDMDL
