MODEL 1
REMARK VINA RESULT:      -8.7      0.000      0.000
REMARK SMILES C[C@@H](C(=O)OCCOCCOC(=O)c1ccc(-c2c3nc(c(-c4cccc(S(=O)(=O)[O-])c4F)c4ccc([nH]4)c(-c4cccc(S(=O)(=O)[O-])c4F)c4nc(c(-c5cccc(S(=O)(=O)[O-])c5F)c5ccc2[nH]5)C=C4)C=C3)cc1)c1ccc(Cc2cccs2)cc1F
REMARK SMILES IDX 8 1 7 2 6 3 5 4 3 5 4 6 2 7 1 8 77 9 78 10 88 11 79 12 87 13
REMARK SMILES IDX 89 14 80 15 81 16 82 17 83 18 86 19 84 20 85 21 9 22 10 23
REMARK SMILES IDX 11 24 12 25 13 26 14 27 15 28 76 29 16 30 75 31 17 32 18 33
REMARK SMILES IDX 19 34 69 35 20 36 74 37 68 38 70 39 21 40 73 41 67 42 66 43
REMARK SMILES IDX 22 45 54 46 34 47 53 48 35 49 38 50 52 51 71 52 36 53 37 54
REMARK SMILES IDX 51 56 72 57 39 58 23 59 24 60 32 61 25 62 27 63 33 64 26 65
REMARK SMILES IDX 28 66 29 67 30 68 31 69 55 70 56 71 64 72 57 73 59 74 65 75
REMARK SMILES IDX 58 76 60 77 61 78 62 79 63 80 40 81 41 82 49 83 42 84 44 85
REMARK SMILES IDX 50 86 43 87 45 88 46 89 47 90 48 91
REMARK H PARENT 70 44 38 55
REMARK Flexibility Score: inf
ROOT
ATOM      1  O   UNL A   1      47.061  25.730  24.235  1.00  0.00    -0.374 OA
ENDROOT
BRANCH   1   2
ATOM      2  C   UNL A   1      47.630  26.875  24.866  1.00  0.00     0.202 C 
BRANCH   2   3
ATOM      3  C   UNL A   1      46.888  28.207  24.712  1.00  0.00     0.261 C 
BRANCH   3   4
ATOM      4  O   UNL A   1      47.232  29.134  25.751  1.00  0.00    -0.463 OA
BRANCH   4   5
ATOM      5  C   UNL A   1      46.204  29.885  26.240  1.00  0.00     0.313 C 
ATOM      6  O   UNL A   1      46.002  31.048  25.909  1.00  0.00    -0.252 OA
BRANCH   5   7
ATOM      7  C   UNL A   1      45.327  29.109  27.241  1.00  0.00     0.129 C 
ATOM      8  C   UNL A   1      44.194  29.997  27.790  1.00  0.00     0.025 C 
BRANCH   7   9
ATOM      9  C   UNL A   1      46.117  28.354  28.322  1.00  0.00     0.002 A 
ATOM     10  C   UNL A   1      46.654  28.994  29.453  1.00  0.00     0.008 A 
ATOM     11  C   UNL A   1      46.253  26.959  28.282  1.00  0.00     0.127 A 
ATOM     12  C   UNL A   1      47.302  28.273  30.472  1.00  0.00     0.004 A 
ATOM     13  C   UNL A   1      46.932  26.240  29.270  1.00  0.00     0.043 A 
ATOM     14  F   UNL A   1      45.668  26.239  27.319  1.00  0.00    -0.207 F 
ATOM     15  C   UNL A   1      47.467  26.886  30.389  1.00  0.00    -0.040 A 
BRANCH  15  16
ATOM     16  C   UNL A   1      48.073  26.073  31.513  1.00  0.00     0.082 C 
BRANCH  16  17
ATOM     17  C   UNL A   1      49.575  26.123  31.624  1.00  0.00     0.009 A 
ATOM     18  C   UNL A   1      50.353  26.547  32.686  1.00  0.00     0.016 A 
ATOM     19  S   UNL A   1      50.552  25.504  30.355  1.00  0.00    -0.149 S 
ATOM     20  C   UNL A   1      51.746  26.366  32.455  1.00  0.00     0.012 A 
ATOM     21  C   UNL A   1      51.992  25.789  31.230  1.00  0.00     0.065 A 
ENDBRANCH  16  17
ENDBRANCH  15  16
ENDBRANCH   7   9
ENDBRANCH   5   7
ENDBRANCH   4   5
ENDBRANCH   3   4
ENDBRANCH   2   3
ENDBRANCH   1   2
BRANCH   1  22
ATOM     22  C   UNL A   1      47.050  24.502  24.965  1.00  0.00     0.202 C 
BRANCH  22  23
ATOM     23  C   UNL A   1      45.804  23.613  24.842  1.00  0.00     0.261 C 
BRANCH  23  24
ATOM     24  O   UNL A   1      44.635  24.346  24.429  1.00  0.00    -0.460 OA
BRANCH  24  25
ATOM     25  C   UNL A   1      43.456  23.791  24.803  1.00  0.00     0.338 C 
ATOM     26  O   UNL A   1      43.085  22.642  24.596  1.00  0.00    -0.246 OA
BRANCH  25  27
ATOM     27  C   UNL A   1      42.714  24.704  25.689  1.00  0.00     0.060 A 
ATOM     28  C   UNL A   1      43.053  26.064  25.653  1.00  0.00     0.016 A 
ATOM     29  C   UNL A   1      41.776  24.231  26.609  1.00  0.00     0.016 A 
ATOM     30  C   UNL A   1      42.491  26.948  26.569  1.00  0.00     0.010 A 
ATOM     31  C   UNL A   1      41.221  25.121  27.536  1.00  0.00     0.010 A 
ATOM     32  C   UNL A   1      41.606  26.474  27.545  1.00  0.00    -0.014 A 
BRANCH  32  33
ATOM     33  C   UNL A   1      41.201  27.367  28.658  1.00  0.00     0.031 A 
ATOM     34  C   UNL A   1      42.058  27.430  29.893  1.00  0.00     0.074 A 
ATOM     35  C   UNL A   1      40.093  28.124  28.567  1.00  0.00     0.049 A 
ATOM     36  N   UNL A   1      41.888  28.129  30.984  1.00  0.00    -0.248 NA
ATOM     37  C   UNL A   1      43.268  26.590  29.899  1.00  0.00     0.031 C 
ATOM     38  C   UNL A   1      39.184  28.153  27.422  1.00  0.00     0.029 A 
ATOM     39  N   UNL A   1      39.533  28.996  29.466  1.00  0.00    -0.354 N 
ATOM     40  C   UNL A   1      42.953  27.800  31.816  1.00  0.00     0.074 A 
ATOM     41  C   UNL A   1      43.755  26.825  31.109  1.00  0.00     0.031 C 
ATOM     42  C   UNL A   1      38.161  28.979  27.701  1.00  0.00     0.029 A 
ATOM     43  C   UNL A   1      38.332  29.520  29.049  1.00  0.00     0.049 A 
ATOM     44  H   UNL A   1      39.951  29.226  30.327  1.00  0.00     0.167 HD
ATOM     45  C   UNL A   1      43.247  28.279  33.047  1.00  0.00     0.034 A 
ATOM     46  C   UNL A   1      37.462  30.326  29.689  1.00  0.00     0.034 A 
ATOM     47  C   UNL A   1      42.460  29.262  33.742  1.00  0.00     0.049 A 
ATOM     48  C   UNL A   1      37.802  30.830  31.068  1.00  0.00     0.074 A 
ATOM     49  C   UNL A   1      42.699  29.841  34.976  1.00  0.00     0.029 A 
ATOM     50  N   UNL A   1      41.275  29.803  33.268  1.00  0.00    -0.354 N 
ATOM     51  N   UNL A   1      38.872  30.601  31.791  1.00  0.00    -0.248 NA
ATOM     52  C   UNL A   1      36.829  31.730  31.705  1.00  0.00     0.031 C 
ATOM     53  C   UNL A   1      41.645  30.717  35.257  1.00  0.00     0.029 A 
ATOM     54  C   UNL A   1      40.764  30.703  34.188  1.00  0.00     0.049 A 
ATOM     55  H   UNL A   1      40.858  29.582  32.405  1.00  0.00     0.167 HD
ATOM     56  C   UNL A   1      38.718  31.354  32.951  1.00  0.00     0.074 A 
ATOM     57  C   UNL A   1      37.461  32.061  32.824  1.00  0.00     0.031 C 
ATOM     58  C   UNL A   1      39.537  31.441  34.028  1.00  0.00     0.034 A 
BRANCH  45  59
ATOM     59  C   UNL A   1      44.497  27.767  33.713  1.00  0.00     0.023 A 
ATOM     60  C   UNL A   1      45.680  28.531  33.650  1.00  0.00     0.012 A 
ATOM     61  C   UNL A   1      44.491  26.561  34.439  1.00  0.00     0.148 A 
ATOM     62  C   UNL A   1      46.846  28.088  34.273  1.00  0.00     0.002 A 
ATOM     63  C   UNL A   1      45.646  26.145  35.092  1.00  0.00     0.091 A 
ATOM     64  F   UNL A   1      43.364  25.836  34.467  1.00  0.00    -0.205 F 
ATOM     65  C   UNL A   1      46.826  26.902  35.002  1.00  0.00     0.022 A 
BRANCH  63  66
ATOM     66  S   UNL A   1      45.701  24.670  36.115  1.00  0.00     0.127 S 
ATOM     67  O   UNL A   1      47.087  24.685  36.581  1.00  0.00    -0.237 OA
ATOM     68  O   UNL A   1      44.709  24.972  37.147  1.00  0.00    -0.237 OA
ATOM     69  O   UNL A   1      45.346  23.562  35.240  1.00  0.00    -0.744 OA
ENDBRANCH  63  66
ENDBRANCH  45  59
BRANCH  46  70
ATOM     70  C   UNL A   1      36.197  30.733  29.015  1.00  0.00     0.023 A 
ATOM     71  C   UNL A   1      35.322  29.748  28.519  1.00  0.00     0.012 A 
ATOM     72  C   UNL A   1      35.846  32.092  28.887  1.00  0.00     0.148 A 
ATOM     73  C   UNL A   1      34.134  30.109  27.883  1.00  0.00     0.002 A 
ATOM     74  C   UNL A   1      34.635  32.442  28.302  1.00  0.00     0.091 A 
ATOM     75  F   UNL A   1      36.701  33.015  29.348  1.00  0.00    -0.205 F 
ATOM     76  C   UNL A   1      33.785  31.452  27.785  1.00  0.00     0.022 A 
BRANCH  74  77
ATOM     77  S   UNL A   1      34.048  34.139  28.251  1.00  0.00     0.127 S 
ATOM     78  O   UNL A   1      34.302  34.585  29.619  1.00  0.00    -0.237 OA
ATOM     79  O   UNL A   1      34.919  34.731  27.235  1.00  0.00    -0.237 OA
ATOM     80  O   UNL A   1      32.646  34.056  27.862  1.00  0.00    -0.744 OA
ENDBRANCH  74  77
ENDBRANCH  46  70
BRANCH  58  81
ATOM     81  C   UNL A   1      39.123  32.355  35.152  1.00  0.00     0.023 A 
ATOM     82  C   UNL A   1      38.211  31.898  36.125  1.00  0.00     0.012 A 
ATOM     83  C   UNL A   1      39.699  33.634  35.291  1.00  0.00     0.148 A 
ATOM     84  C   UNL A   1      37.855  32.712  37.200  1.00  0.00     0.002 A 
ATOM     85  C   UNL A   1      39.375  34.420  36.390  1.00  0.00     0.091 A 
ATOM     86  F   UNL A   1      40.551  34.058  34.346  1.00  0.00    -0.205 F 
ATOM     87  C   UNL A   1      38.445  33.966  37.340  1.00  0.00     0.022 A 
BRANCH  85  88
ATOM     88  S   UNL A   1      40.157  36.008  36.701  1.00  0.00     0.127 S 
ATOM     89  O   UNL A   1      39.788  36.761  35.503  1.00  0.00    -0.237 OA
ATOM     90  O   UNL A   1      39.491  36.449  37.927  1.00  0.00    -0.237 OA
ATOM     91  O   UNL A   1      41.579  35.730  36.854  1.00  0.00    -0.744 OA
ENDBRANCH  85  88
ENDBRANCH  58  81
ENDBRANCH  32  33
ENDBRANCH  25  27
ENDBRANCH  24  25
ENDBRANCH  23  24
ENDBRANCH  22  23
ENDBRANCH   1  22
TORSDOF 20
ENDMDL
MODEL 2
REMARK VINA RESULT:      -8.5      4.933     11.791
REMARK SMILES C[C@@H](C(=O)OCCOCCOC(=O)c1ccc(-c2c3nc(c(-c4cccc(S(=O)(=O)[O-])c4F)c4ccc([nH]4)c(-c4cccc(S(=O)(=O)[O-])c4F)c4nc(c(-c5cccc(S(=O)(=O)[O-])c5F)c5ccc2[nH]5)C=C4)C=C3)cc1)c1ccc(Cc2cccs2)cc1F
REMARK SMILES IDX 8 1 7 2 6 3 5 4 3 5 4 6 2 7 1 8 77 9 78 10 88 11 79 12 87 13
REMARK SMILES IDX 89 14 80 15 81 16 82 17 83 18 86 19 84 20 85 21 9 22 10 23
REMARK SMILES IDX 11 24 12 25 13 26 14 27 15 28 76 29 16 30 75 31 17 32 18 33
REMARK SMILES IDX 19 34 69 35 20 36 74 37 68 38 70 39 21 40 73 41 67 42 66 43
REMARK SMILES IDX 22 45 54 46 34 47 53 48 35 49 38 50 52 51 71 52 36 53 37 54
REMARK SMILES IDX 51 56 72 57 39 58 23 59 24 60 32 61 25 62 27 63 33 64 26 65
REMARK SMILES IDX 28 66 29 67 30 68 31 69 55 70 56 71 64 72 57 73 59 74 65 75
REMARK SMILES IDX 58 76 60 77 61 78 62 79 63 80 40 81 41 82 49 83 42 84 44 85
REMARK SMILES IDX 50 86 43 87 45 88 46 89 47 90 48 91
REMARK H PARENT 70 44 38 55
REMARK Flexibility Score: inf
ROOT
ATOM      1  O   UNL A   1      37.754  20.889  25.308  1.00  0.00    -0.374 OA
ENDROOT
BRANCH   1   2
ATOM      2  C   UNL A   1      36.938  21.970  25.756  1.00  0.00     0.202 C 
BRANCH   2   3
ATOM      3  C   UNL A   1      37.149  23.335  25.092  1.00  0.00     0.261 C 
BRANCH   3   4
ATOM      4  O   UNL A   1      35.909  23.932  24.692  1.00  0.00    -0.463 OA
BRANCH   4   5
ATOM      5  C   UNL A   1      35.362  23.450  23.540  1.00  0.00     0.313 C 
ATOM      6  O   UNL A   1      36.027  23.109  22.568  1.00  0.00    -0.252 OA
BRANCH   5   7
ATOM      7  C   UNL A   1      33.825  23.375  23.600  1.00  0.00     0.129 C 
ATOM      8  C   UNL A   1      33.236  22.956  22.239  1.00  0.00     0.025 C 
BRANCH   7   9
ATOM      9  C   UNL A   1      33.154  24.609  24.225  1.00  0.00     0.002 A 
ATOM     10  C   UNL A   1      32.546  24.580  25.493  1.00  0.00     0.008 A 
ATOM     11  C   UNL A   1      33.208  25.861  23.597  1.00  0.00     0.127 A 
ATOM     12  C   UNL A   1      32.011  25.739  26.082  1.00  0.00     0.004 A 
ATOM     13  C   UNL A   1      32.640  27.010  24.159  1.00  0.00     0.043 A 
ATOM     14  F   UNL A   1      33.875  26.027  22.451  1.00  0.00    -0.207 F 
ATOM     15  C   UNL A   1      32.034  26.970  25.417  1.00  0.00    -0.040 A 
BRANCH  15  16
ATOM     16  C   UNL A   1      31.553  28.251  26.066  1.00  0.00     0.082 C 
BRANCH  16  17
ATOM     17  C   UNL A   1      32.617  29.103  26.706  1.00  0.00     0.009 A 
ATOM     18  C   UNL A   1      33.885  28.741  27.122  1.00  0.00     0.016 A 
ATOM     19  S   UNL A   1      32.363  30.790  26.905  1.00  0.00    -0.149 S 
ATOM     20  C   UNL A   1      34.643  29.846  27.605  1.00  0.00     0.012 A 
ATOM     21  C   UNL A   1      33.938  31.025  27.525  1.00  0.00     0.065 A 
ENDBRANCH  16  17
ENDBRANCH  15  16
ENDBRANCH   7   9
ENDBRANCH   5   7
ENDBRANCH   4   5
ENDBRANCH   3   4
ENDBRANCH   2   3
ENDBRANCH   1   2
BRANCH   1  22
ATOM     22  C   UNL A   1      39.168  21.093  25.266  1.00  0.00     0.202 C 
BRANCH  22  23
ATOM     23  C   UNL A   1      39.903  21.253  26.605  1.00  0.00     0.261 C 
BRANCH  23  24
ATOM     24  O   UNL A   1      40.769  20.141  26.901  1.00  0.00    -0.460 OA
BRANCH  24  25
ATOM     25  C   UNL A   1      41.904  20.093  26.160  1.00  0.00     0.338 C 
ATOM     26  O   UNL A   1      42.211  19.237  25.339  1.00  0.00    -0.246 OA
BRANCH  25  27
ATOM     27  C   UNL A   1      42.677  21.337  26.319  1.00  0.00     0.060 A 
ATOM     28  C   UNL A   1      43.110  21.673  27.609  1.00  0.00     0.016 A 
ATOM     29  C   UNL A   1      42.890  22.209  25.250  1.00  0.00     0.016 A 
ATOM     30  C   UNL A   1      43.715  22.905  27.844  1.00  0.00     0.010 A 
ATOM     31  C   UNL A   1      43.489  23.450  25.491  1.00  0.00     0.010 A 
ATOM     32  C   UNL A   1      43.868  23.819  26.795  1.00  0.00    -0.014 A 
BRANCH  32  33
ATOM     33  C   UNL A   1      44.288  25.210  27.095  1.00  0.00     0.031 A 
ATOM     34  C   UNL A   1      43.277  26.175  27.651  1.00  0.00     0.074 A 
ATOM     35  C   UNL A   1      45.557  25.606  26.888  1.00  0.00     0.049 A 
ATOM     36  N   UNL A   1      43.423  27.433  27.974  1.00  0.00    -0.248 NA
ATOM     37  C   UNL A   1      41.918  25.652  27.873  1.00  0.00     0.031 C 
ATOM     38  C   UNL A   1      46.627  24.764  26.357  1.00  0.00     0.029 A 
ATOM     39  N   UNL A   1      46.151  26.828  27.080  1.00  0.00    -0.354 N 
ATOM     40  C   UNL A   1      42.176  27.860  28.414  1.00  0.00     0.074 A 
ATOM     41  C   UNL A   1      41.279  26.730  28.302  1.00  0.00     0.031 C 
ATOM     42  C   UNL A   1      47.742  25.503  26.236  1.00  0.00     0.029 A 
ATOM     43  C   UNL A   1      47.460  26.874  26.661  1.00  0.00     0.049 A 
ATOM     44  H   UNL A   1      45.685  27.598  27.481  1.00  0.00     0.167 HD
ATOM     45  C   UNL A   1      41.813  29.075  28.886  1.00  0.00     0.034 A 
ATOM     46  C   UNL A   1      48.323  27.908  26.609  1.00  0.00     0.034 A 
ATOM     47  C   UNL A   1      42.709  30.193  29.015  1.00  0.00     0.049 A 
ATOM     48  C   UNL A   1      47.889  29.257  27.121  1.00  0.00     0.074 A 
ATOM     49  C   UNL A   1      42.446  31.454  29.521  1.00  0.00     0.029 A 
ATOM     50  N   UNL A   1      44.039  30.189  28.623  1.00  0.00    -0.354 N 
ATOM     51  N   UNL A   1      46.741  29.612  27.645  1.00  0.00    -0.248 NA
ATOM     52  C   UNL A   1      48.883  30.340  27.066  1.00  0.00     0.031 C 
ATOM     53  C   UNL A   1      43.612  32.219  29.416  1.00  0.00     0.029 A 
ATOM     54  C   UNL A   1      44.608  31.427  28.867  1.00  0.00     0.049 A 
ATOM     55  H   UNL A   1      44.509  29.420  28.230  1.00  0.00     0.167 HD
ATOM     56  C   UNL A   1      46.884  30.946  28.012  1.00  0.00     0.074 A 
ATOM     57  C   UNL A   1      48.237  31.329  27.669  1.00  0.00     0.031 C 
ATOM     58  C   UNL A   1      45.973  31.781  28.570  1.00  0.00     0.034 A 
BRANCH  45  59
ATOM     59  C   UNL A   1      40.385  29.252  29.332  1.00  0.00     0.023 A 
ATOM     60  C   UNL A   1      39.404  29.624  28.389  1.00  0.00     0.012 A 
ATOM     61  C   UNL A   1      40.005  29.004  30.664  1.00  0.00     0.148 A 
ATOM     62  C   UNL A   1      38.073  29.777  28.773  1.00  0.00     0.002 A 
ATOM     63  C   UNL A   1      38.668  29.120  31.031  1.00  0.00     0.091 A 
ATOM     64  F   UNL A   1      40.955  28.676  31.551  1.00  0.00    -0.205 F 
ATOM     65  C   UNL A   1      37.703  29.515  30.089  1.00  0.00     0.022 A 
BRANCH  63  66
ATOM     66  S   UNL A   1      38.082  28.733  32.684  1.00  0.00     0.127 S 
ATOM     67  O   UNL A   1      38.983  29.535  33.511  1.00  0.00    -0.237 OA
ATOM     68  O   UNL A   1      36.702  29.214  32.644  1.00  0.00    -0.237 OA
ATOM     69  O   UNL A   1      38.217  27.291  32.829  1.00  0.00    -0.744 OA
ENDBRANCH  63  66
ENDBRANCH  45  59
BRANCH  46  70
ATOM     70  C   UNL A   1      49.699  27.697  26.077  1.00  0.00     0.023 A 
ATOM     71  C   UNL A   1      49.916  27.683  24.687  1.00  0.00     0.012 A 
ATOM     72  C   UNL A   1      50.797  27.534  26.945  1.00  0.00     0.148 A 
ATOM     73  C   UNL A   1      51.196  27.483  24.169  1.00  0.00     0.002 A 
ATOM     74  C   UNL A   1      52.077  27.392  26.424  1.00  0.00     0.091 A 
ATOM     75  F   UNL A   1      50.567  27.530  28.266  1.00  0.00    -0.205 F 
ATOM     76  C   UNL A   1      52.277  27.351  25.035  1.00  0.00     0.022 A 
BRANCH  74  77
ATOM     77  S   UNL A   1      53.539  27.344  27.466  1.00  0.00     0.127 S 
ATOM     78  O   UNL A   1      54.611  27.287  26.475  1.00  0.00    -0.237 OA
ATOM     79  O   UNL A   1      53.435  28.611  28.192  1.00  0.00    -0.237 OA
ATOM     80  O   UNL A   1      53.386  26.161  28.303  1.00  0.00    -0.744 OA
ENDBRANCH  74  77
ENDBRANCH  46  70
BRANCH  58  81
ATOM     81  C   UNL A   1      46.409  33.190  28.878  1.00  0.00     0.023 A 
ATOM     82  C   UNL A   1      47.083  33.466  30.084  1.00  0.00     0.012 A 
ATOM     83  C   UNL A   1      46.225  34.223  27.937  1.00  0.00     0.148 A 
ATOM     84  C   UNL A   1      47.539  34.754  30.363  1.00  0.00     0.002 A 
ATOM     85  C   UNL A   1      46.724  35.494  28.202  1.00  0.00     0.091 A 
ATOM     86  F   UNL A   1      45.566  33.946  26.803  1.00  0.00    -0.205 F 
ATOM     87  C   UNL A   1      47.370  35.764  29.419  1.00  0.00     0.022 A 
BRANCH  85  88
ATOM     88  S   UNL A   1      46.637  36.830  27.004  1.00  0.00     0.127 S 
ATOM     89  O   UNL A   1      45.196  37.074  26.934  1.00  0.00    -0.237 OA
ATOM     90  O   UNL A   1      47.403  37.890  27.661  1.00  0.00    -0.237 OA
ATOM     91  O   UNL A   1      47.244  36.315  25.784  1.00  0.00    -0.744 OA
ENDBRANCH  85  88
ENDBRANCH  58  81
ENDBRANCH  32  33
ENDBRANCH  25  27
ENDBRANCH  24  25
ENDBRANCH  23  24
ENDBRANCH  22  23
ENDBRANCH   1  22
TORSDOF 20
ENDMDL
MODEL 3
REMARK VINA RESULT:      -8.1      5.233     12.383
REMARK SMILES C[C@@H](C(=O)OCCOCCOC(=O)c1ccc(-c2c3nc(c(-c4cccc(S(=O)(=O)[O-])c4F)c4ccc([nH]4)c(-c4cccc(S(=O)(=O)[O-])c4F)c4nc(c(-c5cccc(S(=O)(=O)[O-])c5F)c5ccc2[nH]5)C=C4)C=C3)cc1)c1ccc(Cc2cccs2)cc1F
REMARK SMILES IDX 8 1 7 2 6 3 5 4 3 5 4 6 2 7 1 8 77 9 78 10 88 11 79 12 87 13
REMARK SMILES IDX 89 14 80 15 81 16 82 17 83 18 86 19 84 20 85 21 9 22 10 23
REMARK SMILES IDX 11 24 12 25 13 26 14 27 15 28 76 29 16 30 75 31 17 32 18 33
REMARK SMILES IDX 19 34 69 35 20 36 74 37 68 38 70 39 21 40 73 41 67 42 66 43
REMARK SMILES IDX 22 45 54 46 34 47 53 48 35 49 38 50 52 51 71 52 36 53 37 54
REMARK SMILES IDX 51 56 72 57 39 58 23 59 24 60 32 61 25 62 27 63 33 64 26 65
REMARK SMILES IDX 28 66 29 67 30 68 31 69 55 70 56 71 64 72 57 73 59 74 65 75
REMARK SMILES IDX 58 76 60 77 61 78 62 79 63 80 40 81 41 82 49 83 42 84 44 85
REMARK SMILES IDX 50 86 43 87 45 88 46 89 47 90 48 91
REMARK H PARENT 70 44 38 55
REMARK Flexibility Score: inf
ROOT
ATOM      1  O   UNL A   1      38.855  22.985  25.732  1.00  0.00    -0.374 OA
ENDROOT
BRANCH   1   2
ATOM      2  C   UNL A   1      37.881  23.903  26.225  1.00  0.00     0.202 C 
BRANCH   2   3
ATOM      3  C   UNL A   1      36.439  23.730  25.738  1.00  0.00     0.261 C 
BRANCH   3   4
ATOM      4  O   UNL A   1      36.359  22.862  24.600  1.00  0.00    -0.463 OA
BRANCH   4   5
ATOM      5  C   UNL A   1      35.240  22.991  23.832  1.00  0.00     0.313 C 
ATOM      6  O   UNL A   1      35.260  23.366  22.666  1.00  0.00    -0.252 OA
BRANCH   5   7
ATOM      7  C   UNL A   1      33.955  22.605  24.590  1.00  0.00     0.129 C 
ATOM      8  C   UNL A   1      33.592  21.127  24.351  1.00  0.00     0.025 C 
BRANCH   7   9
ATOM      9  C   UNL A   1      32.785  23.582  24.391  1.00  0.00     0.002 A 
ATOM     10  C   UNL A   1      31.858  23.450  23.341  1.00  0.00     0.008 A 
ATOM     11  C   UNL A   1      32.524  24.602  25.317  1.00  0.00     0.127 A 
ATOM     12  C   UNL A   1      30.748  24.305  23.224  1.00  0.00     0.004 A 
ATOM     13  C   UNL A   1      31.445  25.482  25.184  1.00  0.00     0.043 A 
ATOM     14  F   UNL A   1      33.266  24.734  26.421  1.00  0.00    -0.207 F 
ATOM     15  C   UNL A   1      30.532  25.345  24.134  1.00  0.00    -0.040 A 
BRANCH  15  16
ATOM     16  C   UNL A   1      29.296  26.219  24.089  1.00  0.00     0.082 C 
BRANCH  16  17
ATOM     17  C   UNL A   1      29.454  27.545  23.392  1.00  0.00     0.009 A 
ATOM     18  C   UNL A   1      30.584  28.092  22.813  1.00  0.00     0.016 A 
ATOM     19  S   UNL A   1      28.086  28.553  23.142  1.00  0.00    -0.149 S 
ATOM     20  C   UNL A   1      30.327  29.336  22.168  1.00  0.00     0.012 A 
ATOM     21  C   UNL A   1      29.000  29.693  22.256  1.00  0.00     0.065 A 
ENDBRANCH  16  17
ENDBRANCH  15  16
ENDBRANCH   7   9
ENDBRANCH   5   7
ENDBRANCH   4   5
ENDBRANCH   3   4
ENDBRANCH   2   3
ENDBRANCH   1   2
BRANCH   1  22
ATOM     22  C   UNL A   1      39.349  21.990  26.632  1.00  0.00     0.202 C 
BRANCH  22  23
ATOM     23  C   UNL A   1      39.463  20.552  26.108  1.00  0.00     0.261 C 
BRANCH  23  24
ATOM     24  O   UNL A   1      40.712  20.300  25.435  1.00  0.00    -0.460 OA
BRANCH  24  25
ATOM     25  C   UNL A   1      41.769  20.100  26.260  1.00  0.00     0.338 C 
ATOM     26  O   UNL A   1      42.160  19.030  26.711  1.00  0.00    -0.246 OA
BRANCH  25  27
ATOM     27  C   UNL A   1      42.547  21.342  26.410  1.00  0.00     0.060 A 
ATOM     28  C   UNL A   1      42.963  21.696  27.702  1.00  0.00     0.016 A 
ATOM     29  C   UNL A   1      42.782  22.196  25.331  1.00  0.00     0.016 A 
ATOM     30  C   UNL A   1      43.571  22.927  27.926  1.00  0.00     0.010 A 
ATOM     31  C   UNL A   1      43.384  23.438  25.562  1.00  0.00     0.010 A 
ATOM     32  C   UNL A   1      43.745  23.825  26.866  1.00  0.00    -0.014 A 
BRANCH  32  33
ATOM     33  C   UNL A   1      44.169  25.217  27.150  1.00  0.00     0.031 A 
ATOM     34  C   UNL A   1      43.160  26.193  27.692  1.00  0.00     0.074 A 
ATOM     35  C   UNL A   1      45.440  25.607  26.943  1.00  0.00     0.049 A 
ATOM     36  N   UNL A   1      43.309  27.454  28.000  1.00  0.00    -0.248 NA
ATOM     37  C   UNL A   1      41.798  25.676  27.915  1.00  0.00     0.031 C 
ATOM     38  C   UNL A   1      46.509  24.755  26.425  1.00  0.00     0.029 A 
ATOM     39  N   UNL A   1      46.038  26.829  27.122  1.00  0.00    -0.354 N 
ATOM     40  C   UNL A   1      42.062  27.890  28.431  1.00  0.00     0.074 A 
ATOM     41  C   UNL A   1      41.161  26.762  28.330  1.00  0.00     0.031 C 
ATOM     42  C   UNL A   1      47.627  25.490  26.299  1.00  0.00     0.029 A 
ATOM     43  C   UNL A   1      47.347  26.866  26.707  1.00  0.00     0.049 A 
ATOM     44  H   UNL A   1      45.573  27.605  27.512  1.00  0.00     0.167 HD
ATOM     45  C   UNL A   1      41.701  29.112  28.887  1.00  0.00     0.034 A 
ATOM     46  C   UNL A   1      48.214  27.896  26.645  1.00  0.00     0.034 A 
ATOM     47  C   UNL A   1      42.600  30.229  29.005  1.00  0.00     0.049 A 
ATOM     48  C   UNL A   1      47.784  29.253  27.139  1.00  0.00     0.074 A 
ATOM     49  C   UNL A   1      42.339  31.496  29.496  1.00  0.00     0.029 A 
ATOM     50  N   UNL A   1      43.931  30.216  28.618  1.00  0.00    -0.354 N 
ATOM     51  N   UNL A   1      46.635  29.618  27.655  1.00  0.00    -0.248 NA
ATOM     52  C   UNL A   1      48.781  30.332  27.075  1.00  0.00     0.031 C 
ATOM     53  C   UNL A   1      43.509  32.256  29.385  1.00  0.00     0.029 A 
ATOM     54  C   UNL A   1      44.504  31.454  28.849  1.00  0.00     0.049 A 
ATOM     55  H   UNL A   1      44.400  29.440  28.236  1.00  0.00     0.167 HD
ATOM     56  C   UNL A   1      46.781  30.956  28.007  1.00  0.00     0.074 A 
ATOM     57  C   UNL A   1      48.137  31.331  27.664  1.00  0.00     0.031 C 
ATOM     58  C   UNL A   1      45.871  31.800  28.552  1.00  0.00     0.034 A 
BRANCH  45  59
ATOM     59  C   UNL A   1      40.272  29.299  29.326  1.00  0.00     0.023 A 
ATOM     60  C   UNL A   1      39.291  29.633  28.371  1.00  0.00     0.012 A 
ATOM     61  C   UNL A   1      39.893  29.097  30.666  1.00  0.00     0.148 A 
ATOM     62  C   UNL A   1      37.958  29.794  28.748  1.00  0.00     0.002 A 
ATOM     63  C   UNL A   1      38.556  29.220  31.029  1.00  0.00     0.091 A 
ATOM     64  F   UNL A   1      40.844  28.805  31.564  1.00  0.00    -0.205 F 
ATOM     65  C   UNL A   1      37.589  29.578  30.073  1.00  0.00     0.022 A 
BRANCH  63  66
ATOM     66  S   UNL A   1      37.971  28.890  32.694  1.00  0.00     0.127 S 
ATOM     67  O   UNL A   1      38.149  27.442  32.788  1.00  0.00    -0.237 OA
ATOM     68  O   UNL A   1      38.900  29.672  33.509  1.00  0.00    -0.237 OA
ATOM     69  O   UNL A   1      36.592  29.355  32.734  1.00  0.00    -0.744 OA
ENDBRANCH  63  66
ENDBRANCH  45  59
BRANCH  46  70
ATOM     70  C   UNL A   1      49.591  27.674  26.120  1.00  0.00     0.023 A 
ATOM     71  C   UNL A   1      49.822  27.698  24.732  1.00  0.00     0.012 A 
ATOM     72  C   UNL A   1      50.677  27.464  26.993  1.00  0.00     0.148 A 
ATOM     73  C   UNL A   1      51.103  27.489  24.220  1.00  0.00     0.002 A 
ATOM     74  C   UNL A   1      51.959  27.313  26.480  1.00  0.00     0.091 A 
ATOM     75  F   UNL A   1      50.434  27.426  28.311  1.00  0.00    -0.205 F 
ATOM     76  C   UNL A   1      52.173  27.309  25.093  1.00  0.00     0.022 A 
BRANCH  74  77
ATOM     77  S   UNL A   1      53.410  27.206  27.534  1.00  0.00     0.127 S 
ATOM     78  O   UNL A   1      53.316  28.446  28.300  1.00  0.00    -0.237 OA
ATOM     79  O   UNL A   1      53.140  25.987  28.297  1.00  0.00    -0.237 OA
ATOM     80  O   UNL A   1      54.546  27.105  26.628  1.00  0.00    -0.744 OA
ENDBRANCH  74  77
ENDBRANCH  46  70
BRANCH  58  81
ATOM     81  C   UNL A   1      46.311  33.212  28.844  1.00  0.00     0.023 A 
ATOM     82  C   UNL A   1      47.189  33.463  29.917  1.00  0.00     0.012 A 
ATOM     83  C   UNL A   1      45.920  34.276  28.007  1.00  0.00     0.148 A 
ATOM     84  C   UNL A   1      47.647  34.755  30.171  1.00  0.00     0.002 A 
ATOM     85  C   UNL A   1      46.418  35.553  28.239  1.00  0.00     0.091 A 
ATOM     86  F   UNL A   1      45.070  34.022  27.002  1.00  0.00    -0.205 F 
ATOM     87  C   UNL A   1      47.271  35.798  29.327  1.00  0.00     0.022 A 
BRANCH  85  88
ATOM     88  S   UNL A   1      46.064  36.936  27.147  1.00  0.00     0.127 S 
ATOM     89  O   UNL A   1      46.634  36.471  25.883  1.00  0.00    -0.237 OA
ATOM     90  O   UNL A   1      44.602  36.988  27.173  1.00  0.00    -0.237 OA
ATOM     91  O   UNL A   1      46.720  38.094  27.741  1.00  0.00    -0.744 OA
ENDBRANCH  85  88
ENDBRANCH  58  81
ENDBRANCH  32  33
ENDBRANCH  25  27
ENDBRANCH  24  25
ENDBRANCH  23  24
ENDBRANCH  22  23
ENDBRANCH   1  22
TORSDOF 20
ENDMDL
