MODEL 1
REMARK VINA RESULT:     -12.7      0.000      0.000
REMARK SMILES Cc1ccccc1C(=O)Nc1ccc(OCC(=O)OCCOCCOC(=O)c2ccc(-c3c4nc(c(-c5cccc(S(=O)(=O)[O-])c5F)c5ccc([nH]5)c(-c5cccc(S(=O)(=O)[O-])c5F)c5nc(c(-c6cccc(S(=O)(=O)[O-])c6F)c6ccc3[nH]6)C=C5)C=C4)cc2)c(-c2nc3ccccc3s2)c1
REMARK SMILES IDX 21 1 20 2 19 3 17 4 18 5 16 6 15 7 14 8 11 9 12 10 101 11
REMARK SMILES IDX 13 12 91 13 10 14 8 15 9 16 7 18 1 19 2 20 3 21 4 22 6 23
REMARK SMILES IDX 5 24 92 25 93 26 100 27 94 28 99 29 95 30 98 31 96 32 97 33
REMARK SMILES IDX 22 34 23 35 24 36 25 37 26 38 27 39 28 40 29 41 90 42 30 43
REMARK SMILES IDX 89 44 31 45 32 46 33 47 83 48 34 49 88 50 82 51 84 52 35 53
REMARK SMILES IDX 87 54 81 55 80 56 36 58 68 59 48 60 67 61 49 62 52 63 66 64
REMARK SMILES IDX 85 65 50 66 51 67 65 69 86 70 53 71 37 72 38 73 46 74 39 75
REMARK SMILES IDX 41 76 47 77 40 78 42 79 43 80 44 81 45 82 69 83 70 84 78 85
REMARK SMILES IDX 71 86 73 87 79 88 72 89 74 90 75 91 76 92 77 93 54 94 55 95
REMARK SMILES IDX 63 96 56 97 58 98 64 99 57 100 59 101 60 102 61 103 62 104
REMARK H PARENT 10 17 84 57 52 68
REMARK Flexibility Score: inf
ROOT
ATOM      1  C   UNL A   1      33.917  30.727  27.639  1.00  0.00     0.202 C 
ENDROOT
BRANCH   1   2
ATOM      2  C   UNL A   1      32.610  30.818  26.883  1.00  0.00     0.261 C 
BRANCH   2   3
ATOM      3  O   UNL A   1      32.773  30.234  25.585  1.00  0.00    -0.461 OA
BRANCH   3   4
ATOM      4  C   UNL A   1      32.433  28.919  25.589  1.00  0.00     0.344 C 
ATOM      5  O   UNL A   1      31.444  28.442  26.135  1.00  0.00    -0.248 OA
BRANCH   4   6
ATOM      6  C   UNL A   1      33.488  28.084  24.890  1.00  0.00     0.352 C 
BRANCH   6   7
ATOM      7  O   UNL A   1      33.299  27.804  23.513  1.00  0.00    -0.481 OA
BRANCH   7   8
ATOM      8  C   UNL A   1      33.003  26.534  23.095  1.00  0.00     0.130 A 
ATOM      9  C   UNL A   1      32.219  23.825  22.829  1.00  0.00     0.042 A 
ATOM     10  C   UNL A   1      33.567  24.182  22.969  1.00  0.00     0.030 A 
ATOM     11  C   UNL A   1      31.270  24.843  22.731  1.00  0.00     0.041 A 
ATOM     12  C   UNL A   1      33.962  25.522  23.095  1.00  0.00     0.049 A 
ATOM     13  C   UNL A   1      31.644  26.212  22.855  1.00  0.00     0.055 A 
BRANCH   9  14
ATOM     14  N   UNL A   1      31.912  22.450  22.943  1.00  0.00    -0.322 N 
ATOM     15  C   UNL A   1      32.348  21.449  23.787  1.00  0.00     0.255 C 
ATOM     16  O   UNL A   1      32.314  20.278  23.409  1.00  0.00    -0.269 OA
ATOM     17  H   UNL A   1      31.250  22.143  22.282  1.00  0.00     0.170 HD
BRANCH  15  18
ATOM     18  C   UNL A   1      32.682  21.725  25.204  1.00  0.00     0.043 A 
ATOM     19  C   UNL A   1      35.133  21.229  24.784  1.00  0.00     0.045 C 
ATOM     20  C   UNL A   1      33.973  21.495  25.702  1.00  0.00    -0.038 A 
ATOM     21  C   UNL A   1      34.218  21.736  27.062  1.00  0.00     0.004 A 
ATOM     22  C   UNL A   1      33.254  22.311  27.882  1.00  0.00     0.000 A 
ATOM     23  C   UNL A   1      31.764  22.436  25.990  1.00  0.00     0.014 A 
ATOM     24  C   UNL A   1      32.053  22.732  27.325  1.00  0.00     0.001 A 
ENDBRANCH  15  18
ENDBRANCH   9  14
BRANCH  13  25
ATOM     25  C   UNL A   1      30.583  27.237  22.693  1.00  0.00     0.128 A 
ATOM     26  N   UNL A   1      30.722  28.331  21.968  1.00  0.00    -0.236 NA
ATOM     27  S   UNL A   1      29.115  27.164  23.596  1.00  0.00    -0.114 S 
ATOM     28  C   UNL A   1      29.670  29.206  22.216  1.00  0.00     0.082 A 
ATOM     29  C   UNL A   1      28.690  28.737  23.091  1.00  0.00     0.055 A 
ATOM     30  C   UNL A   1      29.536  30.509  21.699  1.00  0.00     0.030 A 
ATOM     31  C   UNL A   1      27.582  29.509  23.469  1.00  0.00     0.021 A 
ATOM     32  C   UNL A   1      28.456  31.305  22.097  1.00  0.00     0.002 A 
ATOM     33  C   UNL A   1      27.492  30.810  22.971  1.00  0.00     0.002 A 
ENDBRANCH  13  25
ENDBRANCH   7   8
ENDBRANCH   6   7
ENDBRANCH   4   6
ENDBRANCH   3   4
ENDBRANCH   2   3
ENDBRANCH   1   2
BRANCH   1  34
ATOM     34  O   UNL A   1      34.274  32.039  28.067  1.00  0.00    -0.374 OA
BRANCH  34  35
ATOM     35  C   UNL A   1      33.202  32.959  28.055  1.00  0.00     0.202 C 
BRANCH  35  36
ATOM     36  C   UNL A   1      33.608  34.291  28.670  1.00  0.00     0.261 C 
BRANCH  36  37
ATOM     37  O   UNL A   1      32.994  34.680  29.924  1.00  0.00    -0.460 OA
BRANCH  37  38
ATOM     38  C   UNL A   1      33.426  34.615  31.207  1.00  0.00     0.338 C 
ATOM     39  O   UNL A   1      32.699  34.964  32.131  1.00  0.00    -0.246 OA
BRANCH  38  40
ATOM     40  C   UNL A   1      34.686  33.934  31.510  1.00  0.00     0.060 A 
ATOM     41  C   UNL A   1      35.876  34.659  31.561  1.00  0.00     0.016 A 
ATOM     42  C   UNL A   1      34.669  32.573  31.810  1.00  0.00     0.016 A 
ATOM     43  C   UNL A   1      37.087  33.986  31.713  1.00  0.00     0.010 A 
ATOM     44  C   UNL A   1      35.874  31.893  31.910  1.00  0.00     0.010 A 
ATOM     45  C   UNL A   1      37.087  32.591  31.808  1.00  0.00    -0.014 A 
BRANCH  45  46
ATOM     46  C   UNL A   1      38.293  31.793  31.604  1.00  0.00     0.031 A 
ATOM     47  C   UNL A   1      38.302  30.532  30.841  1.00  0.00     0.074 A 
ATOM     48  C   UNL A   1      39.477  32.270  32.046  1.00  0.00     0.049 A 
ATOM     49  N   UNL A   1      39.104  29.552  31.108  1.00  0.00    -0.248 NA
ATOM     50  C   UNL A   1      37.417  30.279  29.714  1.00  0.00     0.031 C 
ATOM     51  C   UNL A   1      40.809  31.820  31.664  1.00  0.00     0.029 A 
ATOM     52  N   UNL A   1      39.703  33.193  33.062  1.00  0.00    -0.354 N 
ATOM     53  C   UNL A   1      39.065  28.700  30.029  1.00  0.00     0.074 A 
ATOM     54  C   UNL A   1      37.932  29.140  29.240  1.00  0.00     0.031 C 
ATOM     55  C   UNL A   1      41.695  32.304  32.545  1.00  0.00     0.029 A 
ATOM     56  C   UNL A   1      40.954  32.953  33.619  1.00  0.00     0.049 A 
ATOM     57  H   UNL A   1      39.078  33.900  33.341  1.00  0.00     0.167 HD
ATOM     58  C   UNL A   1      40.100  27.841  29.788  1.00  0.00     0.034 A 
ATOM     59  C   UNL A   1      41.198  32.846  34.955  1.00  0.00     0.034 A 
ATOM     60  C   UNL A   1      41.221  28.048  30.724  1.00  0.00     0.049 A 
ATOM     61  C   UNL A   1      41.756  31.487  35.293  1.00  0.00     0.074 A 
ATOM     62  C   UNL A   1      42.446  28.685  30.578  1.00  0.00     0.029 A 
ATOM     63  N   UNL A   1      41.076  27.813  32.092  1.00  0.00    -0.354 N 
ATOM     64  N   UNL A   1      41.919  30.560  34.391  1.00  0.00    -0.248 NA
ATOM     65  C   UNL A   1      42.133  31.016  36.623  1.00  0.00     0.031 C 
ATOM     66  C   UNL A   1      43.010  28.880  31.863  1.00  0.00     0.029 A 
ATOM     67  C   UNL A   1      42.146  28.347  32.803  1.00  0.00     0.049 A 
ATOM     68  H   UNL A   1      40.319  27.333  32.498  1.00  0.00     0.167 HD
ATOM     69  C   UNL A   1      42.244  29.379  34.977  1.00  0.00     0.074 A 
ATOM     70  C   UNL A   1      42.440  29.727  36.374  1.00  0.00     0.031 C 
ATOM     71  C   UNL A   1      42.236  28.220  34.259  1.00  0.00     0.034 A 
BRANCH  58  72
ATOM     72  C   UNL A   1      40.239  27.124  28.452  1.00  0.00     0.023 A 
ATOM     73  C   UNL A   1      39.504  25.940  28.230  1.00  0.00     0.012 A 
ATOM     74  C   UNL A   1      41.118  27.505  27.415  1.00  0.00     0.148 A 
ATOM     75  C   UNL A   1      39.740  25.106  27.130  1.00  0.00     0.002 A 
ATOM     76  C   UNL A   1      41.427  26.629  26.370  1.00  0.00     0.091 A 
ATOM     77  F   UNL A   1      41.621  28.749  27.398  1.00  0.00    -0.205 F 
ATOM     78  C   UNL A   1      40.743  25.422  26.227  1.00  0.00     0.022 A 
BRANCH  76  79
ATOM     79  S   UNL A   1      42.845  26.936  25.302  1.00  0.00     0.127 S 
ATOM     80  O   UNL A   1      43.916  27.228  26.259  1.00  0.00    -0.237 OA
ATOM     81  O   UNL A   1      42.994  25.673  24.589  1.00  0.00    -0.237 OA
ATOM     82  O   UNL A   1      42.455  28.092  24.499  1.00  0.00    -0.744 OA
ENDBRANCH  76  79
ENDBRANCH  58  72
BRANCH  59  83
ATOM     83  C   UNL A   1      40.404  33.758  35.822  1.00  0.00     0.023 A 
ATOM     84  C   UNL A   1      39.054  33.385  36.033  1.00  0.00     0.012 A 
ATOM     85  C   UNL A   1      40.983  34.697  36.696  1.00  0.00     0.148 A 
ATOM     86  C   UNL A   1      38.333  33.845  37.137  1.00  0.00     0.002 A 
ATOM     87  C   UNL A   1      40.259  35.146  37.804  1.00  0.00     0.091 A 
ATOM     88  F   UNL A   1      42.257  35.053  36.491  1.00  0.00    -0.205 F 
ATOM     89  C   UNL A   1      38.946  34.702  38.040  1.00  0.00     0.022 A 
BRANCH  87  90
ATOM     90  S   UNL A   1      40.967  36.181  39.093  1.00  0.00     0.127 S 
ATOM     91  O   UNL A   1      41.584  37.240  38.322  1.00  0.00    -0.237 OA
ATOM     92  O   UNL A   1      39.774  36.567  39.848  1.00  0.00    -0.237 OA
ATOM     93  O   UNL A   1      41.880  35.298  39.825  1.00  0.00    -0.744 OA
ENDBRANCH  87  90
ENDBRANCH  59  83
BRANCH  71  94
ATOM     94  C   UNL A   1      42.295  26.850  34.870  1.00  0.00     0.023 A 
ATOM     95  C   UNL A   1      41.179  26.280  35.510  1.00  0.00     0.012 A 
ATOM     96  C   UNL A   1      43.408  26.017  34.622  1.00  0.00     0.148 A 
ATOM     97  C   UNL A   1      41.171  24.937  35.896  1.00  0.00     0.002 A 
ATOM     98  C   UNL A   1      43.353  24.660  34.908  1.00  0.00     0.091 A 
ATOM     99  F   UNL A   1      44.532  26.541  34.107  1.00  0.00    -0.205 F 
ATOM    100  C   UNL A   1      42.244  24.118  35.564  1.00  0.00     0.022 A 
BRANCH  98 101
ATOM    101  S   UNL A   1      44.619  23.558  34.267  1.00  0.00     0.127 S 
ATOM    102  O   UNL A   1      45.797  23.967  35.027  1.00  0.00    -0.237 OA
ATOM    103  O   UNL A   1      44.098  22.235  34.616  1.00  0.00    -0.237 OA
ATOM    104  O   UNL A   1      44.646  23.828  32.835  1.00  0.00    -0.744 OA
ENDBRANCH  98 101
ENDBRANCH  71  94
ENDBRANCH  45  46
ENDBRANCH  38  40
ENDBRANCH  37  38
ENDBRANCH  36  37
ENDBRANCH  35  36
ENDBRANCH  34  35
ENDBRANCH   1  34
TORSDOF 22
ENDMDL
MODEL 2
REMARK VINA RESULT:     -11.6      3.249      4.696
REMARK SMILES Cc1ccccc1C(=O)Nc1ccc(OCC(=O)OCCOCCOC(=O)c2ccc(-c3c4nc(c(-c5cccc(S(=O)(=O)[O-])c5F)c5ccc([nH]5)c(-c5cccc(S(=O)(=O)[O-])c5F)c5nc(c(-c6cccc(S(=O)(=O)[O-])c6F)c6ccc3[nH]6)C=C5)C=C4)cc2)c(-c2nc3ccccc3s2)c1
REMARK SMILES IDX 21 1 20 2 19 3 17 4 18 5 16 6 15 7 14 8 11 9 12 10 101 11
REMARK SMILES IDX 13 12 91 13 10 14 8 15 9 16 7 18 1 19 2 20 3 21 4 22 6 23
REMARK SMILES IDX 5 24 92 25 93 26 100 27 94 28 99 29 95 30 98 31 96 32 97 33
REMARK SMILES IDX 22 34 23 35 24 36 25 37 26 38 27 39 28 40 29 41 90 42 30 43
REMARK SMILES IDX 89 44 31 45 32 46 33 47 83 48 34 49 88 50 82 51 84 52 35 53
REMARK SMILES IDX 87 54 81 55 80 56 36 58 68 59 48 60 67 61 49 62 52 63 66 64
REMARK SMILES IDX 85 65 50 66 51 67 65 69 86 70 53 71 37 72 38 73 46 74 39 75
REMARK SMILES IDX 41 76 47 77 40 78 42 79 43 80 44 81 45 82 69 83 70 84 78 85
REMARK SMILES IDX 71 86 73 87 79 88 72 89 74 90 75 91 76 92 77 93 54 94 55 95
REMARK SMILES IDX 63 96 56 97 58 98 64 99 57 100 59 101 60 102 61 103 62 104
REMARK H PARENT 10 17 84 57 52 68
REMARK Flexibility Score: inf
ROOT
ATOM      1  C   UNL A   1      34.391  32.757  30.024  1.00  0.00     0.202 C 
ENDROOT
BRANCH   1   2
ATOM      2  C   UNL A   1      33.957  33.676  28.904  1.00  0.00     0.261 C 
BRANCH   2   3
ATOM      3  O   UNL A   1      33.304  32.907  27.887  1.00  0.00    -0.461 OA
BRANCH   3   4
ATOM      4  C   UNL A   1      34.045  31.824  27.534  1.00  0.00     0.344 C 
ATOM      5  O   UNL A   1      35.269  31.798  27.447  1.00  0.00    -0.248 OA
BRANCH   4   6
ATOM      6  C   UNL A   1      33.155  30.650  27.178  1.00  0.00     0.352 C 
BRANCH   6   7
ATOM      7  O   UNL A   1      33.256  30.123  25.866  1.00  0.00    -0.481 OA
BRANCH   7   8
ATOM      8  C   UNL A   1      33.195  28.772  25.651  1.00  0.00     0.130 A 
ATOM      9  C   UNL A   1      32.645  25.994  25.673  1.00  0.00     0.042 A 
ATOM     10  C   UNL A   1      33.784  26.515  26.302  1.00  0.00     0.030 A 
ATOM     11  C   UNL A   1      31.827  26.865  24.953  1.00  0.00     0.041 A 
ATOM     12  C   UNL A   1      34.065  27.890  26.288  1.00  0.00     0.049 A 
ATOM     13  C   UNL A   1      32.090  28.264  24.924  1.00  0.00     0.055 A 
BRANCH   9  14
ATOM     14  N   UNL A   1      32.337  24.641  25.941  1.00  0.00    -0.322 N 
ATOM     15  C   UNL A   1      32.833  23.444  25.464  1.00  0.00     0.255 C 
ATOM     16  O   UNL A   1      32.116  22.443  25.473  1.00  0.00    -0.269 OA
ATOM     17  H   UNL A   1      31.620  24.529  26.605  1.00  0.00     0.170 HD
BRANCH  15  18
ATOM     18  C   UNL A   1      34.262  23.285  25.112  1.00  0.00     0.043 A 
ATOM     19  C   UNL A   1      33.784  23.812  22.678  1.00  0.00     0.045 C 
ATOM     20  C   UNL A   1      34.690  23.331  23.777  1.00  0.00    -0.038 A 
ATOM     21  C   UNL A   1      36.051  23.133  23.503  1.00  0.00     0.004 A 
ATOM     22  C   UNL A   1      36.988  23.021  24.525  1.00  0.00     0.000 A 
ATOM     23  C   UNL A   1      35.219  23.320  26.137  1.00  0.00     0.014 A 
ATOM     24  C   UNL A   1      36.580  23.193  25.841  1.00  0.00     0.001 A 
ENDBRANCH  15  18
ENDBRANCH   9  14
BRANCH  13  25
ATOM     25  C   UNL A   1      31.200  29.117  24.096  1.00  0.00     0.128 A 
ATOM     26  N   UNL A   1      30.540  30.161  24.562  1.00  0.00    -0.236 NA
ATOM     27  S   UNL A   1      30.813  28.702  22.468  1.00  0.00    -0.114 S 
ATOM     28  C   UNL A   1      29.606  30.592  23.627  1.00  0.00     0.082 A 
ATOM     29  C   UNL A   1      29.606  29.905  22.414  1.00  0.00     0.055 A 
ATOM     30  C   UNL A   1      28.657  31.616  23.816  1.00  0.00     0.030 A 
ATOM     31  C   UNL A   1      28.704  30.196  21.380  1.00  0.00     0.021 A 
ATOM     32  C   UNL A   1      27.726  31.893  22.808  1.00  0.00     0.002 A 
ATOM     33  C   UNL A   1      27.751  31.190  21.606  1.00  0.00     0.002 A 
ENDBRANCH  13  25
ENDBRANCH   7   8
ENDBRANCH   6   7
ENDBRANCH   4   6
ENDBRANCH   3   4
ENDBRANCH   2   3
ENDBRANCH   1   2
BRANCH   1  34
ATOM     34  O   UNL A   1      34.285  33.472  31.251  1.00  0.00    -0.374 OA
BRANCH  34  35
ATOM     35  C   UNL A   1      34.594  32.701  32.395  1.00  0.00     0.202 C 
BRANCH  35  36
ATOM     36  C   UNL A   1      36.048  32.881  32.808  1.00  0.00     0.261 C 
BRANCH  36  37
ATOM     37  O   UNL A   1      37.050  32.060  32.156  1.00  0.00    -0.460 OA
BRANCH  37  38
ATOM     38  C   UNL A   1      37.737  32.212  30.998  1.00  0.00     0.338 C 
ATOM     39  O   UNL A   1      37.582  33.212  30.305  1.00  0.00    -0.246 OA
BRANCH  38  40
ATOM     40  C   UNL A   1      38.818  31.281  30.673  1.00  0.00     0.060 A 
ATOM     41  C   UNL A   1      38.698  29.931  30.999  1.00  0.00     0.016 A 
ATOM     42  C   UNL A   1      39.933  31.749  29.978  1.00  0.00     0.016 A 
ATOM     43  C   UNL A   1      39.784  29.077  30.811  1.00  0.00     0.010 A 
ATOM     44  C   UNL A   1      41.034  30.916  29.837  1.00  0.00     0.010 A 
ATOM     45  C   UNL A   1      40.980  29.594  30.303  1.00  0.00    -0.014 A 
BRANCH  45  46
ATOM     46  C   UNL A   1      42.250  28.880  30.414  1.00  0.00     0.031 A 
ATOM     47  C   UNL A   1      42.566  27.676  29.625  1.00  0.00     0.074 A 
ATOM     48  C   UNL A   1      43.222  29.391  31.201  1.00  0.00     0.049 A 
ATOM     49  N   UNL A   1      43.330  26.727  30.063  1.00  0.00    -0.248 NA
ATOM     50  C   UNL A   1      42.058  27.452  28.281  1.00  0.00     0.031 C 
ATOM     51  C   UNL A   1      44.637  29.044  31.196  1.00  0.00     0.029 A 
ATOM     52  N   UNL A   1      43.084  30.254  32.284  1.00  0.00    -0.354 N 
ATOM     53  C   UNL A   1      43.660  25.950  28.978  1.00  0.00     0.074 A 
ATOM     54  C   UNL A   1      42.768  26.378  27.919  1.00  0.00     0.031 C 
ATOM     55  C   UNL A   1      45.199  29.516  32.317  1.00  0.00     0.029 A 
ATOM     56  C   UNL A   1      44.140  30.047  33.164  1.00  0.00     0.049 A 
ATOM     57  H   UNL A   1      42.355  30.905  32.406  1.00  0.00     0.167 HD
ATOM     58  C   UNL A   1      44.780  25.168  29.002  1.00  0.00     0.034 A 
ATOM     59  C   UNL A   1      44.002  29.864  34.506  1.00  0.00     0.034 A 
ATOM     60  C   UNL A   1      45.572  25.373  30.229  1.00  0.00     0.049 A 
ATOM     61  C   UNL A   1      44.539  28.518  34.923  1.00  0.00     0.074 A 
ATOM     62  C   UNL A   1      46.738  26.086  30.472  1.00  0.00     0.029 A 
ATOM     63  N   UNL A   1      45.064  25.038  31.485  1.00  0.00    -0.354 N 
ATOM     64  N   UNL A   1      45.018  27.665  34.061  1.00  0.00    -0.248 NA
ATOM     65  C   UNL A   1      44.558  27.979  36.280  1.00  0.00     0.031 C 
ATOM     66  C   UNL A   1      46.900  26.224  31.873  1.00  0.00     0.029 A 
ATOM     67  C   UNL A   1      45.846  25.581  32.498  1.00  0.00     0.049 A 
ATOM     68  H   UNL A   1      44.260  24.490  31.633  1.00  0.00     0.167 HD
ATOM     69  C   UNL A   1      45.249  26.468  34.657  1.00  0.00     0.074 A 
ATOM     70  C   UNL A   1      45.016  26.730  36.067  1.00  0.00     0.031 C 
ATOM     71  C   UNL A   1      45.530  25.361  33.910  1.00  0.00     0.034 A 
BRANCH  58  72
ATOM     72  C   UNL A   1      45.344  24.552  27.729  1.00  0.00     0.023 A 
ATOM     73  C   UNL A   1      46.467  25.149  27.117  1.00  0.00     0.012 A 
ATOM     74  C   UNL A   1      44.786  23.451  27.044  1.00  0.00     0.148 A 
ATOM     75  C   UNL A   1      46.908  24.785  25.839  1.00  0.00     0.002 A 
ATOM     76  C   UNL A   1      45.158  23.151  25.731  1.00  0.00     0.091 A 
ATOM     77  F   UNL A   1      43.927  22.641  27.683  1.00  0.00    -0.205 F 
ATOM     78  C   UNL A   1      46.218  23.822  25.120  1.00  0.00     0.022 A 
BRANCH  76  79
ATOM     79  S   UNL A   1      44.160  22.039  24.723  1.00  0.00     0.127 S 
ATOM     80  O   UNL A   1      44.601  22.352  23.361  1.00  0.00    -0.237 OA
ATOM     81  O   UNL A   1      44.559  20.721  25.203  1.00  0.00    -0.237 OA
ATOM     82  O   UNL A   1      42.782  22.437  24.994  1.00  0.00    -0.744 OA
ENDBRANCH  76  79
ENDBRANCH  58  72
BRANCH  59  83
ATOM     83  C   UNL A   1      42.931  30.669  35.153  1.00  0.00     0.023 A 
ATOM     84  C   UNL A   1      43.194  32.054  35.277  1.00  0.00     0.012 A 
ATOM     85  C   UNL A   1      41.602  30.225  35.289  1.00  0.00     0.148 A 
ATOM     86  C   UNL A   1      42.161  32.984  35.425  1.00  0.00     0.002 A 
ATOM     87  C   UNL A   1      40.574  31.161  35.428  1.00  0.00     0.091 A 
ATOM     88  F   UNL A   1      41.357  28.913  35.179  1.00  0.00    -0.205 F 
ATOM     89  C   UNL A   1      40.848  32.538  35.470  1.00  0.00     0.022 A 
BRANCH  87  90
ATOM     90  S   UNL A   1      38.829  30.721  35.405  1.00  0.00     0.127 S 
ATOM     91  O   UNL A   1      38.684  30.005  36.656  1.00  0.00    -0.237 OA
ATOM     92  O   UNL A   1      38.195  32.039  35.359  1.00  0.00    -0.237 OA
ATOM     93  O   UNL A   1      38.657  29.931  34.183  1.00  0.00    -0.744 OA
ENDBRANCH  87  90
ENDBRANCH  59  83
BRANCH  71  94
ATOM     94  C   UNL A   1      45.512  23.959  34.445  1.00  0.00     0.023 A 
ATOM     95  C   UNL A   1      44.373  23.141  34.334  1.00  0.00     0.012 A 
ATOM     96  C   UNL A   1      46.716  23.356  34.875  1.00  0.00     0.148 A 
ATOM     97  C   UNL A   1      44.423  21.780  34.646  1.00  0.00     0.002 A 
ATOM     98  C   UNL A   1      46.786  21.984  35.077  1.00  0.00     0.091 A 
ATOM     99  F   UNL A   1      47.802  24.115  35.092  1.00  0.00    -0.205 F 
ATOM    100  C   UNL A   1      45.637  21.194  34.983  1.00  0.00     0.022 A 
BRANCH  98 101
ATOM    101  S   UNL A   1      48.385  21.189  35.270  1.00  0.00     0.127 S 
ATOM    102  O   UNL A   1      49.115  21.676  34.103  1.00  0.00    -0.237 OA
ATOM    103  O   UNL A   1      48.856  21.725  36.550  1.00  0.00    -0.237 OA
ATOM    104  O   UNL A   1      48.084  19.764  35.298  1.00  0.00    -0.744 OA
ENDBRANCH  98 101
ENDBRANCH  71  94
ENDBRANCH  45  46
ENDBRANCH  38  40
ENDBRANCH  37  38
ENDBRANCH  36  37
ENDBRANCH  35  36
ENDBRANCH  34  35
ENDBRANCH   1  34
TORSDOF 22
ENDMDL
MODEL 3
REMARK VINA RESULT:     -11.4      1.844      2.350
REMARK SMILES Cc1ccccc1C(=O)Nc1ccc(OCC(=O)OCCOCCOC(=O)c2ccc(-c3c4nc(c(-c5cccc(S(=O)(=O)[O-])c5F)c5ccc([nH]5)c(-c5cccc(S(=O)(=O)[O-])c5F)c5nc(c(-c6cccc(S(=O)(=O)[O-])c6F)c6ccc3[nH]6)C=C5)C=C4)cc2)c(-c2nc3ccccc3s2)c1
REMARK SMILES IDX 21 1 20 2 19 3 17 4 18 5 16 6 15 7 14 8 11 9 12 10 101 11
REMARK SMILES IDX 13 12 91 13 10 14 8 15 9 16 7 18 1 19 2 20 3 21 4 22 6 23
REMARK SMILES IDX 5 24 92 25 93 26 100 27 94 28 99 29 95 30 98 31 96 32 97 33
REMARK SMILES IDX 22 34 23 35 24 36 25 37 26 38 27 39 28 40 29 41 90 42 30 43
REMARK SMILES IDX 89 44 31 45 32 46 33 47 83 48 34 49 88 50 82 51 84 52 35 53
REMARK SMILES IDX 87 54 81 55 80 56 36 58 68 59 48 60 67 61 49 62 52 63 66 64
REMARK SMILES IDX 85 65 50 66 51 67 65 69 86 70 53 71 37 72 38 73 46 74 39 75
REMARK SMILES IDX 41 76 47 77 40 78 42 79 43 80 44 81 45 82 69 83 70 84 78 85
REMARK SMILES IDX 71 86 73 87 79 88 72 89 74 90 75 91 76 92 77 93 54 94 55 95
REMARK SMILES IDX 63 96 56 97 58 98 64 99 57 100 59 101 60 102 61 103 62 104
REMARK H PARENT 10 17 84 57 52 68
REMARK Flexibility Score: inf
ROOT
ATOM      1  C   UNL A   1      35.124  30.277  27.970  1.00  0.00     0.202 C 
ENDROOT
BRANCH   1   2
ATOM      2  C   UNL A   1      34.409  29.566  26.843  1.00  0.00     0.261 C 
BRANCH   2   3
ATOM      3  O   UNL A   1      33.186  30.253  26.551  1.00  0.00    -0.461 OA
BRANCH   3   4
ATOM      4  C   UNL A   1      32.509  29.648  25.541  1.00  0.00     0.344 C 
ATOM      5  O   UNL A   1      31.381  29.946  25.162  1.00  0.00    -0.248 OA
BRANCH   4   6
ATOM      6  C   UNL A   1      33.300  28.483  24.978  1.00  0.00     0.352 C 
BRANCH   6   7
ATOM      7  O   UNL A   1      33.163  28.204  23.595  1.00  0.00    -0.481 OA
BRANCH   7   8
ATOM      8  C   UNL A   1      32.881  26.934  23.165  1.00  0.00     0.130 A 
ATOM      9  C   UNL A   1      32.100  24.228  22.870  1.00  0.00     0.042 A 
ATOM     10  C   UNL A   1      33.443  24.581  23.063  1.00  0.00     0.030 A 
ATOM     11  C   UNL A   1      31.159  25.248  22.735  1.00  0.00     0.041 A 
ATOM     12  C   UNL A   1      33.836  25.920  23.204  1.00  0.00     0.049 A 
ATOM     13  C   UNL A   1      31.532  26.616  22.873  1.00  0.00     0.055 A 
BRANCH   9  14
ATOM     14  N   UNL A   1      31.785  22.854  22.972  1.00  0.00    -0.322 N 
ATOM     15  C   UNL A   1      32.331  21.807  23.689  1.00  0.00     0.255 C 
ATOM     16  O   UNL A   1      32.210  20.656  23.270  1.00  0.00    -0.269 OA
ATOM     17  H   UNL A   1      31.018  22.587  22.416  1.00  0.00     0.170 HD
BRANCH  15  18
ATOM     18  C   UNL A   1      32.899  22.011  25.041  1.00  0.00     0.043 A 
ATOM     19  C   UNL A   1      30.601  22.502  25.996  1.00  0.00     0.045 C 
ATOM     20  C   UNL A   1      32.100  22.466  26.101  1.00  0.00    -0.038 A 
ATOM     21  C   UNL A   1      32.704  22.680  27.349  1.00  0.00     0.004 A 
ATOM     22  C   UNL A   1      34.029  22.334  27.583  1.00  0.00     0.000 A 
ATOM     23  C   UNL A   1      34.186  21.528  25.315  1.00  0.00     0.014 A 
ATOM     24  C   UNL A   1      34.747  21.685  26.586  1.00  0.00     0.001 A 
ENDBRANCH  15  18
ENDBRANCH   9  14
BRANCH  13  25
ATOM     25  C   UNL A   1      30.480  27.644  22.668  1.00  0.00     0.128 A 
ATOM     26  N   UNL A   1      30.634  28.712  21.910  1.00  0.00    -0.236 NA
ATOM     27  S   UNL A   1      29.005  27.613  23.561  1.00  0.00    -0.114 S 
ATOM     28  C   UNL A   1      29.587  29.603  22.120  1.00  0.00     0.082 A 
ATOM     29  C   UNL A   1      28.597  29.171  23.002  1.00  0.00     0.055 A 
ATOM     30  C   UNL A   1      29.469  30.890  21.560  1.00  0.00     0.030 A 
ATOM     31  C   UNL A   1      27.493  29.964  23.346  1.00  0.00     0.021 A 
ATOM     32  C   UNL A   1      28.393  31.708  21.923  1.00  0.00     0.002 A 
ATOM     33  C   UNL A   1      27.418  31.249  22.805  1.00  0.00     0.002 A 
ENDBRANCH  13  25
ENDBRANCH   7   8
ENDBRANCH   6   7
ENDBRANCH   4   6
ENDBRANCH   3   4
ENDBRANCH   2   3
ENDBRANCH   1   2
BRANCH   1  34
ATOM     34  O   UNL A   1      35.773  31.424  27.429  1.00  0.00    -0.374 OA
BRANCH  34  35
ATOM     35  C   UNL A   1      35.413  32.638  28.057  1.00  0.00     0.202 C 
BRANCH  35  36
ATOM     36  C   UNL A   1      34.198  32.458  28.956  1.00  0.00     0.261 C 
BRANCH  36  37
ATOM     37  O   UNL A   1      34.350  32.726  30.372  1.00  0.00    -0.460 OA
BRANCH  37  38
ATOM     38  C   UNL A   1      35.200  33.526  31.060  1.00  0.00     0.338 C 
ATOM     39  O   UNL A   1      34.798  34.554  31.594  1.00  0.00    -0.246 OA
BRANCH  38  40
ATOM     40  C   UNL A   1      36.559  33.062  31.341  1.00  0.00     0.060 A 
ATOM     41  C   UNL A   1      37.655  33.758  30.831  1.00  0.00     0.016 A 
ATOM     42  C   UNL A   1      36.742  31.960  32.176  1.00  0.00     0.016 A 
ATOM     43  C   UNL A   1      38.937  33.235  30.987  1.00  0.00     0.010 A 
ATOM     44  C   UNL A   1      38.011  31.408  32.290  1.00  0.00     0.010 A 
ATOM     45  C   UNL A   1      39.102  32.015  31.651  1.00  0.00    -0.014 A 
BRANCH  45  46
ATOM     46  C   UNL A   1      40.327  31.227  31.544  1.00  0.00     0.031 A 
ATOM     47  C   UNL A   1      40.446  30.041  30.676  1.00  0.00     0.074 A 
ATOM     48  C   UNL A   1      41.436  31.647  32.190  1.00  0.00     0.049 A 
ATOM     49  N   UNL A   1      41.205  29.033  30.960  1.00  0.00    -0.248 NA
ATOM     50  C   UNL A   1      39.729  29.903  29.417  1.00  0.00     0.031 C 
ATOM     51  C   UNL A   1      42.810  31.221  31.958  1.00  0.00     0.029 A 
ATOM     52  N   UNL A   1      41.515  32.470  33.310  1.00  0.00    -0.354 N 
ATOM     53  C   UNL A   1      41.320  28.285  29.812  1.00  0.00     0.074 A 
ATOM     54  C   UNL A   1      40.308  28.808  28.916  1.00  0.00     0.031 C 
ATOM     55  C   UNL A   1      43.562  31.612  32.996  1.00  0.00     0.029 A 
ATOM     56  C   UNL A   1      42.676  32.166  34.012  1.00  0.00     0.049 A 
ATOM     57  H   UNL A   1      40.856  33.155  33.563  1.00  0.00     0.167 HD
ATOM     58  C   UNL A   1      42.380  27.441  29.639  1.00  0.00     0.034 A 
ATOM     59  C   UNL A   1      42.730  31.933  35.352  1.00  0.00     0.034 A 
ATOM     60  C   UNL A   1      43.358  27.548  30.738  1.00  0.00     0.049 A 
ATOM     61  C   UNL A   1      43.238  30.542  35.637  1.00  0.00     0.074 A 
ATOM     62  C   UNL A   1      44.590  28.182  30.825  1.00  0.00     0.029 A 
ATOM     63  N   UNL A   1      43.023  27.188  32.044  1.00  0.00    -0.354 N 
ATOM     64  N   UNL A   1      43.528  29.701  34.685  1.00  0.00    -0.248 NA
ATOM     65  C   UNL A   1      43.425  29.946  36.958  1.00  0.00     0.031 C 
ATOM     66  C   UNL A   1      44.967  28.251  32.189  1.00  0.00     0.029 A 
ATOM     67  C   UNL A   1      43.981  27.642  32.945  1.00  0.00     0.049 A 
ATOM     68  H   UNL A   1      42.218  26.681  32.294  1.00  0.00     0.167 HD
ATOM     69  C   UNL A   1      43.770  28.468  35.197  1.00  0.00     0.074 A 
ATOM     70  C   UNL A   1      43.768  28.683  36.635  1.00  0.00     0.031 C 
ATOM     71  C   UNL A   1      43.867  27.380  34.380  1.00  0.00     0.034 A 
BRANCH  58  72
ATOM     72  C   UNL A   1      42.708  26.849  28.275  1.00  0.00     0.023 A 
ATOM     73  C   UNL A   1      42.032  25.684  27.853  1.00  0.00     0.012 A 
ATOM     74  C   UNL A   1      43.707  27.329  27.401  1.00  0.00     0.148 A 
ATOM     75  C   UNL A   1      42.425  24.955  26.724  1.00  0.00     0.002 A 
ATOM     76  C   UNL A   1      44.168  26.555  26.333  1.00  0.00     0.091 A 
ATOM     77  F   UNL A   1      44.183  28.574  27.561  1.00  0.00    -0.205 F 
ATOM     78  C   UNL A   1      43.532  25.360  25.993  1.00  0.00     0.022 A 
BRANCH  76  79
ATOM     79  S   UNL A   1      45.707  26.969  25.493  1.00  0.00     0.127 S 
ATOM     80  O   UNL A   1      46.642  27.163  26.605  1.00  0.00    -0.237 OA
ATOM     81  O   UNL A   1      45.963  25.784  24.683  1.00  0.00    -0.237 OA
ATOM     82  O   UNL A   1      45.407  28.199  24.765  1.00  0.00    -0.744 OA
ENDBRANCH  76  79
ENDBRANCH  58  72
BRANCH  59  83
ATOM     83  C   UNL A   1      41.819  32.770  36.181  1.00  0.00     0.023 A 
ATOM     84  C   UNL A   1      42.227  34.111  36.378  1.00  0.00     0.012 A 
ATOM     85  C   UNL A   1      40.478  32.432  36.441  1.00  0.00     0.148 A 
ATOM     86  C   UNL A   1      41.311  35.110  36.718  1.00  0.00     0.002 A 
ATOM     87  C   UNL A   1      39.566  33.438  36.772  1.00  0.00     0.091 A 
ATOM     88  F   UNL A   1      40.097  31.161  36.262  1.00  0.00    -0.205 F 
ATOM     89  C   UNL A   1      39.975  34.778  36.885  1.00  0.00     0.022 A 
BRANCH  87  90
ATOM     90  S   UNL A   1      37.796  33.155  36.924  1.00  0.00     0.127 S 
ATOM     91  O   UNL A   1      37.723  31.708  36.929  1.00  0.00    -0.237 OA
ATOM     92  O   UNL A   1      37.504  33.803  38.204  1.00  0.00    -0.237 OA
ATOM     93  O   UNL A   1      37.207  33.829  35.763  1.00  0.00    -0.744 OA
ENDBRANCH  87  90
ENDBRANCH  59  83
BRANCH  71  94
ATOM     94  C   UNL A   1      43.841  25.960  34.864  1.00  0.00     0.023 A 
ATOM     95  C   UNL A   1      42.672  25.180  34.802  1.00  0.00     0.012 A 
ATOM     96  C   UNL A   1      45.052  25.306  35.187  1.00  0.00     0.148 A 
ATOM     97  C   UNL A   1      42.701  23.807  35.061  1.00  0.00     0.002 A 
ATOM     98  C   UNL A   1      45.092  23.927  35.335  1.00  0.00     0.091 A 
ATOM     99  F   UNL A   1      46.173  26.025  35.356  1.00  0.00    -0.205 F 
ATOM    100  C   UNL A   1      43.916  23.174  35.292  1.00  0.00     0.022 A 
BRANCH  98 101
ATOM    101  S   UNL A   1      46.676  23.080  35.389  1.00  0.00     0.127 S 
ATOM    102  O   UNL A   1      46.281  21.679  35.269  1.00  0.00    -0.237 OA
ATOM    103  O   UNL A   1      47.368  23.620  34.216  1.00  0.00    -0.237 OA
ATOM    104  O   UNL A   1      47.262  23.482  36.661  1.00  0.00    -0.744 OA
ENDBRANCH  98 101
ENDBRANCH  71  94
ENDBRANCH  45  46
ENDBRANCH  38  40
ENDBRANCH  37  38
ENDBRANCH  36  37
ENDBRANCH  35  36
ENDBRANCH  34  35
ENDBRANCH   1  34
TORSDOF 22
ENDMDL
