MODEL 1
REMARK VINA RESULT:     -10.9      0.000      0.000
REMARK SMILES C=CCn1c(=S)[nH]c2cc(C(=O)OCCOCCOC(=O)c3ccc(-c4c5nc(c(-c6cccc(S(=O)(=O)[O-])c6F)c6ccc([nH]6)c(-c6cccc(S(=O)(=O)[O-])c6F)c6nc(c(-c7cccc(S(=O)(=O)[O-])c7F)c7ccc4[nH]7)C=C6)C=C5)cc3)ccc2c1=O
REMARK SMILES IDX 17 1 16 2 15 3 14 4 13 5 11 6 12 7 10 8 4 9 5 10 88 11 6 12
REMARK SMILES IDX 7 13 87 14 89 15 8 16 86 18 9 19 85 20 3 21 2 22 1 23 18 24
REMARK SMILES IDX 19 25 20 26 21 27 22 28 23 29 84 30 24 31 83 32 25 33 26 34
REMARK SMILES IDX 27 35 77 36 28 37 82 38 76 39 78 40 29 41 81 42 75 43 74 44
REMARK SMILES IDX 30 46 62 47 42 48 61 49 43 50 46 51 60 52 79 53 44 54 45 55
REMARK SMILES IDX 59 57 80 58 47 59 31 60 32 61 40 62 33 63 35 64 41 65 34 66
REMARK SMILES IDX 36 67 37 68 38 69 39 70 63 71 64 72 72 73 65 74 67 75 73 76
REMARK SMILES IDX 66 77 68 78 69 79 70 80 71 81 48 82 49 83 57 84 50 85 52 86
REMARK SMILES IDX 58 87 51 88 53 89 54 90 55 91 56 92
REMARK H PARENT 7 17 78 45 46 56
REMARK Flexibility Score: inf
ROOT
ATOM      1  C   UNL A   1      35.162  21.076  25.837  1.00  0.00     0.202 C 
ENDROOT
BRANCH   1   2
ATOM      2  O   UNL A   1      34.961  20.337  24.633  1.00  0.00    -0.374 OA
BRANCH   2   3
ATOM      3  C   UNL A   1      34.118  19.188  24.692  1.00  0.00     0.202 C 
BRANCH   3   4
ATOM      4  C   UNL A   1      32.691  19.329  24.151  1.00  0.00     0.261 C 
BRANCH   4   5
ATOM      5  O   UNL A   1      32.071  20.554  24.570  1.00  0.00    -0.460 OA
BRANCH   5   6
ATOM      6  C   UNL A   1      32.085  21.531  23.633  1.00  0.00     0.338 C 
ATOM      7  O   UNL A   1      32.240  21.400  22.429  1.00  0.00    -0.246 OA
BRANCH   6   8
ATOM      8  C   UNL A   1      31.702  22.827  24.231  1.00  0.00     0.062 A 
ATOM      9  N   UNL A   1      31.750  27.751  25.259  1.00  0.00    -0.281 N 
ATOM     10  C   UNL A   1      32.294  27.629  23.981  1.00  0.00     0.180 A 
ATOM     11  C   UNL A   1      31.159  26.679  25.953  1.00  0.00     0.262 A 
ATOM     12  S   UNL A   1      32.906  28.853  23.007  1.00  0.00    -0.040 S 
ATOM     13  N   UNL A   1      32.356  26.367  23.458  1.00  0.00    -0.332 N 
ATOM     14  C   UNL A   1      31.251  25.343  25.336  1.00  0.00     0.064 A 
ATOM     15  O   UNL A   1      30.607  26.785  27.045  1.00  0.00    -0.269 OA
ATOM     16  C   UNL A   1      31.905  25.229  24.118  1.00  0.00     0.054 A 
ATOM     17  H   UNL A   1      32.743  26.257  22.559  1.00  0.00     0.169 HD
ATOM     18  C   UNL A   1      30.752  24.200  25.977  1.00  0.00     0.017 A 
ATOM     19  C   UNL A   1      32.136  23.977  23.560  1.00  0.00     0.042 A 
ATOM     20  C   UNL A   1      30.971  22.934  25.419  1.00  0.00     0.016 A 
BRANCH   9  21
ATOM     21  C   UNL A   1      31.798  29.017  25.994  1.00  0.00     0.155 C 
BRANCH  21  22
ATOM     22  C   UNL A   1      32.980  28.975  26.929  1.00  0.00    -0.013 C 
ATOM     23  C   UNL A   1      34.147  28.368  26.673  1.00  0.00     0.006 C 
ENDBRANCH  21  22
ENDBRANCH   9  21
ENDBRANCH   6   8
ENDBRANCH   5   6
ENDBRANCH   4   5
ENDBRANCH   3   4
ENDBRANCH   2   3
ENDBRANCH   1   2
BRANCH   1  24
ATOM     24  C   UNL A   1      36.467  21.870  25.985  1.00  0.00     0.261 C 
BRANCH  24  25
ATOM     25  O   UNL A   1      37.515  21.360  25.144  1.00  0.00    -0.460 OA
BRANCH  25  26
ATOM     26  C   UNL A   1      38.665  21.037  25.790  1.00  0.00     0.338 C 
ATOM     27  O   UNL A   1      39.226  19.953  25.791  1.00  0.00    -0.246 OA
BRANCH  26  28
ATOM     28  C   UNL A   1      39.270  22.269  26.330  1.00  0.00     0.060 A 
ATOM     29  C   UNL A   1      40.295  22.220  27.276  1.00  0.00     0.016 A 
ATOM     30  C   UNL A   1      38.792  23.501  25.862  1.00  0.00     0.016 A 
ATOM     31  C   UNL A   1      40.855  23.413  27.738  1.00  0.00     0.010 A 
ATOM     32  C   UNL A   1      39.353  24.691  26.328  1.00  0.00     0.010 A 
ATOM     33  C   UNL A   1      40.399  24.656  27.259  1.00  0.00    -0.014 A 
BRANCH  33  34
ATOM     34  C   UNL A   1      41.105  25.904  27.641  1.00  0.00     0.031 A 
ATOM     35  C   UNL A   1      42.531  26.156  27.249  1.00  0.00     0.074 A 
ATOM     36  C   UNL A   1      40.440  26.812  28.381  1.00  0.00     0.049 A 
ATOM     37  N   UNL A   1      43.250  27.231  27.442  1.00  0.00    -0.248 NA
ATOM     38  C   UNL A   1      43.244  25.071  26.559  1.00  0.00     0.031 C 
ATOM     39  C   UNL A   1      39.072  26.648  28.882  1.00  0.00     0.029 A 
ATOM     40  N   UNL A   1      40.818  28.047  28.842  1.00  0.00    -0.354 N 
ATOM     41  C   UNL A   1      44.500  26.957  26.904  1.00  0.00     0.074 A 
ATOM     42  C   UNL A   1      44.450  25.603  26.393  1.00  0.00     0.031 C 
ATOM     43  C   UNL A   1      38.719  27.751  29.560  1.00  0.00     0.029 A 
ATOM     44  C   UNL A   1      39.838  28.689  29.561  1.00  0.00     0.049 A 
ATOM     45  H   UNL A   1      41.706  28.437  28.674  1.00  0.00     0.167 HD
ATOM     46  C   UNL A   1      45.581  27.769  26.823  1.00  0.00     0.034 A 
ATOM     47  C   UNL A   1      39.833  29.900  30.151  1.00  0.00     0.034 A 
ATOM     48  C   UNL A   1      45.624  29.119  27.321  1.00  0.00     0.049 A 
ATOM     49  C   UNL A   1      41.039  30.784  30.035  1.00  0.00     0.074 A 
ATOM     50  C   UNL A   1      46.658  30.035  27.222  1.00  0.00     0.029 A 
ATOM     51  N   UNL A   1      44.604  29.743  28.020  1.00  0.00    -0.354 N 
ATOM     52  N   UNL A   1      42.164  30.557  29.403  1.00  0.00    -0.248 NA
ATOM     53  C   UNL A   1      40.970  32.100  30.687  1.00  0.00     0.031 C 
ATOM     54  C   UNL A   1      46.272  31.205  27.880  1.00  0.00     0.029 A 
ATOM     55  C   UNL A   1      44.987  31.027  28.366  1.00  0.00     0.049 A 
ATOM     56  H   UNL A   1      43.735  29.335  28.238  1.00  0.00     0.167 HD
ATOM     57  C   UNL A   1      42.927  31.708  29.560  1.00  0.00     0.074 A 
ATOM     58  C   UNL A   1      42.133  32.636  30.338  1.00  0.00     0.031 C 
ATOM     59  C   UNL A   1      44.178  31.961  29.106  1.00  0.00     0.034 A 
BRANCH  46  60
ATOM     60  C   UNL A   1      46.805  27.258  26.116  1.00  0.00     0.023 A 
ATOM     61  C   UNL A   1      46.972  27.543  24.746  1.00  0.00     0.012 A 
ATOM     62  C   UNL A   1      47.841  26.620  26.825  1.00  0.00     0.148 A 
ATOM     63  C   UNL A   1      48.152  27.197  24.090  1.00  0.00     0.002 A 
ATOM     64  C   UNL A   1      49.026  26.303  26.170  1.00  0.00     0.091 A 
ATOM     65  F   UNL A   1      47.655  26.356  28.126  1.00  0.00    -0.205 F 
ATOM     66  C   UNL A   1      49.181  26.589  24.803  1.00  0.00     0.022 A 
BRANCH  64  67
ATOM     67  S   UNL A   1      50.434  25.564  27.004  1.00  0.00     0.127 S 
ATOM     68  O   UNL A   1      49.842  24.343  27.552  1.00  0.00    -0.237 OA
ATOM     69  O   UNL A   1      51.366  25.347  25.899  1.00  0.00    -0.237 OA
ATOM     70  O   UNL A   1      50.872  26.535  27.997  1.00  0.00    -0.744 OA
ENDBRANCH  64  67
ENDBRANCH  46  60
BRANCH  47  71
ATOM     71  C   UNL A   1      38.600  30.363  30.841  1.00  0.00     0.023 A 
ATOM     72  C   UNL A   1      38.474  30.177  32.229  1.00  0.00     0.012 A 
ATOM     73  C   UNL A   1      37.592  31.054  30.140  1.00  0.00     0.148 A 
ATOM     74  C   UNL A   1      37.360  30.665  32.912  1.00  0.00     0.002 A 
ATOM     75  C   UNL A   1      36.503  31.569  30.830  1.00  0.00     0.091 A 
ATOM     76  F   UNL A   1      37.742  31.219  28.818  1.00  0.00    -0.205 F 
ATOM     77  C   UNL A   1      36.381  31.368  32.214  1.00  0.00     0.022 A 
BRANCH  75  78
ATOM     78  S   UNL A   1      35.237  32.567  30.039  1.00  0.00     0.127 S 
ATOM     79  O   UNL A   1      34.300  32.785  31.139  1.00  0.00    -0.237 OA
ATOM     80  O   UNL A   1      36.000  33.748  29.635  1.00  0.00    -0.237 OA
ATOM     81  O   UNL A   1      34.729  31.764  28.936  1.00  0.00    -0.744 OA
ENDBRANCH  75  78
ENDBRANCH  47  71
BRANCH  59  82
ATOM     82  C   UNL A   1      44.786  33.303  29.412  1.00  0.00     0.023 A 
ATOM     83  C   UNL A   1      45.560  33.465  30.577  1.00  0.00     0.012 A 
ATOM     84  C   UNL A   1      44.697  34.357  28.482  1.00  0.00     0.148 A 
ATOM     85  C   UNL A   1      46.232  34.662  30.816  1.00  0.00     0.002 A 
ATOM     86  C   UNL A   1      45.398  35.535  28.710  1.00  0.00     0.091 A 
ATOM     87  F   UNL A   1      43.948  34.178  27.385  1.00  0.00    -0.205 F 
ATOM     88  C   UNL A   1      46.162  35.691  29.878  1.00  0.00     0.022 A 
BRANCH  86  89
ATOM     89  S   UNL A   1      45.426  36.891  27.530  1.00  0.00     0.127 S 
ATOM     90  O   UNL A   1      46.015  36.249  26.355  1.00  0.00    -0.237 OA
ATOM     91  O   UNL A   1      44.005  37.215  27.401  1.00  0.00    -0.237 OA
ATOM     92  O   UNL A   1      46.238  37.937  28.135  1.00  0.00    -0.744 OA
ENDBRANCH  86  89
ENDBRANCH  59  82
ENDBRANCH  33  34
ENDBRANCH  26  28
ENDBRANCH  25  26
ENDBRANCH  24  25
ENDBRANCH   1  24
TORSDOF 19
ENDMDL
MODEL 2
REMARK VINA RESULT:     -10.9      1.730      2.268
REMARK SMILES C=CCn1c(=S)[nH]c2cc(C(=O)OCCOCCOC(=O)c3ccc(-c4c5nc(c(-c6cccc(S(=O)(=O)[O-])c6F)c6ccc([nH]6)c(-c6cccc(S(=O)(=O)[O-])c6F)c6nc(c(-c7cccc(S(=O)(=O)[O-])c7F)c7ccc4[nH]7)C=C6)C=C5)cc3)ccc2c1=O
REMARK SMILES IDX 17 1 16 2 15 3 14 4 13 5 11 6 12 7 10 8 4 9 5 10 88 11 6 12
REMARK SMILES IDX 7 13 87 14 89 15 8 16 86 18 9 19 85 20 3 21 2 22 1 23 18 24
REMARK SMILES IDX 19 25 20 26 21 27 22 28 23 29 84 30 24 31 83 32 25 33 26 34
REMARK SMILES IDX 27 35 77 36 28 37 82 38 76 39 78 40 29 41 81 42 75 43 74 44
REMARK SMILES IDX 30 46 62 47 42 48 61 49 43 50 46 51 60 52 79 53 44 54 45 55
REMARK SMILES IDX 59 57 80 58 47 59 31 60 32 61 40 62 33 63 35 64 41 65 34 66
REMARK SMILES IDX 36 67 37 68 38 69 39 70 63 71 64 72 72 73 65 74 67 75 73 76
REMARK SMILES IDX 66 77 68 78 69 79 70 80 71 81 48 82 49 83 57 84 50 85 52 86
REMARK SMILES IDX 58 87 51 88 53 89 54 90 55 91 56 92
REMARK H PARENT 7 17 78 45 46 56
REMARK Flexibility Score: inf
ROOT
ATOM      1  C   UNL A   1      36.237  22.168  24.076  1.00  0.00     0.202 C 
ENDROOT
BRANCH   1   2
ATOM      2  O   UNL A   1      34.847  21.844  24.042  1.00  0.00    -0.374 OA
BRANCH   2   3
ATOM      3  C   UNL A   1      34.433  20.628  24.661  1.00  0.00     0.202 C 
BRANCH   3   4
ATOM      4  C   UNL A   1      33.814  20.722  26.060  1.00  0.00     0.261 C 
BRANCH   4   5
ATOM      5  O   UNL A   1      34.033  22.005  26.666  1.00  0.00    -0.460 OA
BRANCH   5   6
ATOM      6  C   UNL A   1      32.933  22.539  27.245  1.00  0.00     0.338 C 
ATOM      7  O   UNL A   1      32.546  22.377  28.391  1.00  0.00    -0.246 OA
BRANCH   6   8
ATOM      8  C   UNL A   1      32.308  23.534  26.348  1.00  0.00     0.062 A 
ATOM      9  N   UNL A   1      30.941  27.995  24.467  1.00  0.00    -0.281 N 
ATOM     10  C   UNL A   1      32.133  28.226  25.153  1.00  0.00     0.180 A 
ATOM     11  C   UNL A   1      30.417  26.709  24.240  1.00  0.00     0.262 A 
ATOM     12  S   UNL A   1      32.920  29.693  25.374  1.00  0.00    -0.040 S 
ATOM     13  N   UNL A   1      32.728  27.139  25.732  1.00  0.00    -0.332 N 
ATOM     14  C   UNL A   1      31.106  25.576  24.885  1.00  0.00     0.064 A 
ATOM     15  O   UNL A   1      29.411  26.482  23.573  1.00  0.00    -0.269 OA
ATOM     16  C   UNL A   1      32.222  25.846  25.663  1.00  0.00     0.054 A 
ATOM     17  H   UNL A   1      33.567  27.282  26.228  1.00  0.00     0.169 HD
ATOM     18  C   UNL A   1      30.625  24.263  24.776  1.00  0.00     0.017 A 
ATOM     19  C   UNL A   1      32.827  24.834  26.398  1.00  0.00     0.042 A 
ATOM     20  C   UNL A   1      31.233  23.233  25.505  1.00  0.00     0.016 A 
BRANCH   9  21
ATOM     21  C   UNL A   1      30.120  29.099  23.965  1.00  0.00     0.155 C 
BRANCH  21  22
ATOM     22  C   UNL A   1      30.466  29.322  22.514  1.00  0.00    -0.013 C 
ATOM     23  C   UNL A   1      29.756  30.068  21.656  1.00  0.00     0.006 C 
ENDBRANCH  21  22
ENDBRANCH   9  21
ENDBRANCH   6   8
ENDBRANCH   5   6
ENDBRANCH   4   5
ENDBRANCH   3   4
ENDBRANCH   2   3
ENDBRANCH   1   2
BRANCH   1  24
ATOM     24  C   UNL A   1      37.216  21.085  24.547  1.00  0.00     0.261 C 
BRANCH  24  25
ATOM     25  O   UNL A   1      37.644  21.287  25.904  1.00  0.00    -0.460 OA
BRANCH  25  26
ATOM     26  C   UNL A   1      38.970  21.099  26.123  1.00  0.00     0.338 C 
ATOM     27  O   UNL A   1      39.640  20.135  25.789  1.00  0.00    -0.246 OA
BRANCH  26  28
ATOM     28  C   UNL A   1      39.549  22.351  26.649  1.00  0.00     0.060 A 
ATOM     29  C   UNL A   1      40.571  22.335  27.599  1.00  0.00     0.016 A 
ATOM     30  C   UNL A   1      39.048  23.566  26.162  1.00  0.00     0.016 A 
ATOM     31  C   UNL A   1      41.105  23.545  28.047  1.00  0.00     0.010 A 
ATOM     32  C   UNL A   1      39.583  24.773  26.613  1.00  0.00     0.010 A 
ATOM     33  C   UNL A   1      40.626  24.771  27.548  1.00  0.00    -0.014 A 
BRANCH  33  34
ATOM     34  C   UNL A   1      41.306  26.039  27.916  1.00  0.00     0.031 A 
ATOM     35  C   UNL A   1      42.717  26.328  27.497  1.00  0.00     0.074 A 
ATOM     36  C   UNL A   1      40.631  26.930  28.667  1.00  0.00     0.049 A 
ATOM     37  N   UNL A   1      43.411  27.423  27.675  1.00  0.00    -0.248 NA
ATOM     38  C   UNL A   1      43.446  25.261  26.795  1.00  0.00     0.031 C 
ATOM     39  C   UNL A   1      39.278  26.731  29.193  1.00  0.00     0.029 A 
ATOM     40  N   UNL A   1      40.985  28.176  29.119  1.00  0.00    -0.354 N 
ATOM     41  C   UNL A   1      44.658  27.180  27.113  1.00  0.00     0.074 A 
ATOM     42  C   UNL A   1      44.634  25.824  26.605  1.00  0.00     0.031 C 
ATOM     43  C   UNL A   1      38.909  27.825  29.877  1.00  0.00     0.029 A 
ATOM     44  C   UNL A   1      40.002  28.792  29.855  1.00  0.00     0.049 A 
ATOM     45  H   UNL A   1      41.859  28.588  28.934  1.00  0.00     0.167 HD
ATOM     46  C   UNL A   1      45.714  28.021  27.011  1.00  0.00     0.034 A 
ATOM     47  C   UNL A   1      39.975  30.004  30.444  1.00  0.00     0.034 A 
ATOM     48  C   UNL A   1      45.731  29.373  27.506  1.00  0.00     0.049 A 
ATOM     49  C   UNL A   1      41.156  30.920  30.304  1.00  0.00     0.074 A 
ATOM     50  C   UNL A   1      46.738  30.315  27.387  1.00  0.00     0.029 A 
ATOM     51  N   UNL A   1      44.708  29.971  28.224  1.00  0.00    -0.354 N 
ATOM     52  N   UNL A   1      42.274  30.721  29.651  1.00  0.00    -0.248 NA
ATOM     53  C   UNL A   1      41.063  32.234  30.956  1.00  0.00     0.031 C 
ATOM     54  C   UNL A   1      46.333  31.476  28.050  1.00  0.00     0.029 A 
ATOM     55  C   UNL A   1      45.063  31.265  28.561  1.00  0.00     0.049 A 
ATOM     56  H   UNL A   1      43.854  29.539  28.458  1.00  0.00     0.167 HD
ATOM     57  C   UNL A   1      43.009  31.892  29.792  1.00  0.00     0.074 A 
ATOM     58  C   UNL A   1      42.205  32.801  30.584  1.00  0.00     0.031 C 
ATOM     59  C   UNL A   1      44.244  32.178  29.315  1.00  0.00     0.034 A 
BRANCH  46  60
ATOM     60  C   UNL A   1      46.938  27.541  26.282  1.00  0.00     0.023 A 
ATOM     61  C   UNL A   1      47.814  26.647  26.930  1.00  0.00     0.012 A 
ATOM     62  C   UNL A   1      47.151  27.864  24.928  1.00  0.00     0.148 A 
ATOM     63  C   UNL A   1      48.885  26.082  26.242  1.00  0.00     0.002 A 
ATOM     64  C   UNL A   1      48.206  27.276  24.241  1.00  0.00     0.091 A 
ATOM     65  F   UNL A   1      46.308  28.721  24.336  1.00  0.00    -0.205 F 
ATOM     66  C   UNL A   1      49.075  26.386  24.897  1.00  0.00     0.022 A 
BRANCH  64  67
ATOM     67  S   UNL A   1      48.513  27.559  22.494  1.00  0.00     0.127 S 
ATOM     68  O   UNL A   1      49.758  28.327  22.536  1.00  0.00    -0.237 OA
ATOM     69  O   UNL A   1      48.654  26.197  21.982  1.00  0.00    -0.237 OA
ATOM     70  O   UNL A   1      47.356  28.288  21.993  1.00  0.00    -0.744 OA
ENDBRANCH  64  67
ENDBRANCH  46  60
BRANCH  47  71
ATOM     71  C   UNL A   1      38.744  30.435  31.156  1.00  0.00     0.023 A 
ATOM     72  C   UNL A   1      38.633  30.212  32.541  1.00  0.00     0.012 A 
ATOM     73  C   UNL A   1      37.722  31.132  30.483  1.00  0.00     0.148 A 
ATOM     74  C   UNL A   1      37.520  30.670  33.245  1.00  0.00     0.002 A 
ATOM     75  C   UNL A   1      36.634  31.617  31.195  1.00  0.00     0.091 A 
ATOM     76  F   UNL A   1      37.858  31.332  29.164  1.00  0.00    -0.205 F 
ATOM     77  C   UNL A   1      36.527  31.380  32.575  1.00  0.00     0.022 A 
BRANCH  75  78
ATOM     78  S   UNL A   1      35.350  32.621  30.442  1.00  0.00     0.127 S 
ATOM     79  O   UNL A   1      35.027  31.844  29.247  1.00  0.00    -0.237 OA
ATOM     80  O   UNL A   1      34.319  32.613  31.480  1.00  0.00    -0.237 OA
ATOM     81  O   UNL A   1      35.956  33.922  30.195  1.00  0.00    -0.744 OA
ENDBRANCH  75  78
ENDBRANCH  47  71
BRANCH  59  82
ATOM     82  C   UNL A   1      44.822  33.536  29.608  1.00  0.00     0.023 A 
ATOM     83  C   UNL A   1      45.783  33.676  30.626  1.00  0.00     0.012 A 
ATOM     84  C   UNL A   1      44.507  34.638  28.789  1.00  0.00     0.148 A 
ATOM     85  C   UNL A   1      46.420  34.899  30.831  1.00  0.00     0.002 A 
ATOM     86  C   UNL A   1      45.171  35.845  28.977  1.00  0.00     0.091 A 
ATOM     87  F   UNL A   1      43.583  34.479  27.831  1.00  0.00    -0.205 F 
ATOM     88  C   UNL A   1      46.124  35.978  30.001  1.00  0.00     0.022 A 
BRANCH  86  89
ATOM     89  S   UNL A   1      44.910  37.271  27.915  1.00  0.00     0.127 S 
ATOM     90  O   UNL A   1      44.146  38.158  28.792  1.00  0.00    -0.237 OA
ATOM     91  O   UNL A   1      46.280  37.709  27.646  1.00  0.00    -0.237 OA
ATOM     92  O   UNL A   1      44.186  36.782  26.750  1.00  0.00    -0.744 OA
ENDBRANCH  86  89
ENDBRANCH  59  82
ENDBRANCH  33  34
ENDBRANCH  26  28
ENDBRANCH  25  26
ENDBRANCH  24  25
ENDBRANCH   1  24
TORSDOF 19
ENDMDL
MODEL 3
REMARK VINA RESULT:     -10.6      1.919      2.779
REMARK SMILES C=CCn1c(=S)[nH]c2cc(C(=O)OCCOCCOC(=O)c3ccc(-c4c5nc(c(-c6cccc(S(=O)(=O)[O-])c6F)c6ccc([nH]6)c(-c6cccc(S(=O)(=O)[O-])c6F)c6nc(c(-c7cccc(S(=O)(=O)[O-])c7F)c7ccc4[nH]7)C=C6)C=C5)cc3)ccc2c1=O
REMARK SMILES IDX 17 1 16 2 15 3 14 4 13 5 11 6 12 7 10 8 4 9 5 10 88 11 6 12
REMARK SMILES IDX 7 13 87 14 89 15 8 16 86 18 9 19 85 20 3 21 2 22 1 23 18 24
REMARK SMILES IDX 19 25 20 26 21 27 22 28 23 29 84 30 24 31 83 32 25 33 26 34
REMARK SMILES IDX 27 35 77 36 28 37 82 38 76 39 78 40 29 41 81 42 75 43 74 44
REMARK SMILES IDX 30 46 62 47 42 48 61 49 43 50 46 51 60 52 79 53 44 54 45 55
REMARK SMILES IDX 59 57 80 58 47 59 31 60 32 61 40 62 33 63 35 64 41 65 34 66
REMARK SMILES IDX 36 67 37 68 38 69 39 70 63 71 64 72 72 73 65 74 67 75 73 76
REMARK SMILES IDX 66 77 68 78 69 79 70 80 71 81 48 82 49 83 57 84 50 85 52 86
REMARK SMILES IDX 58 87 51 88 53 89 54 90 55 91 56 92
REMARK H PARENT 7 17 78 45 46 56
REMARK Flexibility Score: inf
ROOT
ATOM      1  C   UNL A   1      39.262  20.595  25.836  1.00  0.00     0.202 C 
ENDROOT
BRANCH   1   2
ATOM      2  O   UNL A   1      39.470  21.711  26.701  1.00  0.00    -0.374 OA
BRANCH   2   3
ATOM      3  C   UNL A   1      39.090  23.000  26.224  1.00  0.00     0.202 C 
BRANCH   3   4
ATOM      4  C   UNL A   1      37.597  23.345  26.230  1.00  0.00     0.261 C 
BRANCH   4   5
ATOM      5  O   UNL A   1      36.962  23.032  24.981  1.00  0.00    -0.460 OA
BRANCH   5   6
ATOM      6  C   UNL A   1      35.794  22.359  25.105  1.00  0.00     0.338 C 
ATOM      7  O   UNL A   1      35.643  21.153  25.215  1.00  0.00    -0.246 OA
BRANCH   6   8
ATOM      8  C   UNL A   1      34.670  23.302  25.279  1.00  0.00     0.062 A 
ATOM      9  N   UNL A   1      32.020  27.574  25.096  1.00  0.00    -0.281 N 
ATOM     10  C   UNL A   1      32.924  27.648  24.037  1.00  0.00     0.180 A 
ATOM     11  C   UNL A   1      31.835  26.418  25.875  1.00  0.00     0.262 A 
ATOM     12  S   UNL A   1      33.142  28.920  22.962  1.00  0.00    -0.040 S 
ATOM     13  N   UNL A   1      33.745  26.569  23.855  1.00  0.00    -0.332 N 
ATOM     14  C   UNL A   1      32.746  25.285  25.628  1.00  0.00     0.064 A 
ATOM     15  O   UNL A   1      30.990  26.310  26.761  1.00  0.00    -0.269 OA
ATOM     16  C   UNL A   1      33.717  25.428  24.648  1.00  0.00     0.054 A 
ATOM     17  H   UNL A   1      34.396  26.603  23.116  1.00  0.00     0.169 HD
ATOM     18  C   UNL A   1      32.687  24.111  26.394  1.00  0.00     0.017 A 
ATOM     19  C   UNL A   1      34.682  24.445  24.468  1.00  0.00     0.042 A 
ATOM     20  C   UNL A   1      33.649  23.110  26.215  1.00  0.00     0.016 A 
BRANCH   9  21
ATOM     21  C   UNL A   1      31.221  28.733  25.502  1.00  0.00     0.155 C 
BRANCH  21  22
ATOM     22  C   UNL A   1      31.980  29.479  26.571  1.00  0.00    -0.013 C 
ATOM     23  C   UNL A   1      32.133  30.809  26.624  1.00  0.00     0.006 C 
ENDBRANCH  21  22
ENDBRANCH   9  21
ENDBRANCH   6   8
ENDBRANCH   5   6
ENDBRANCH   4   5
ENDBRANCH   3   4
ENDBRANCH   2   3
ENDBRANCH   1   2
BRANCH   1  24
ATOM     24  C   UNL A   1      40.203  19.391  25.978  1.00  0.00     0.261 C 
BRANCH  24  25
ATOM     25  O   UNL A   1      41.413  19.551  25.220  1.00  0.00    -0.460 OA
BRANCH  25  26
ATOM     26  C   UNL A   1      42.545  19.663  25.961  1.00  0.00     0.338 C 
ATOM     27  O   UNL A   1      43.421  18.822  26.095  1.00  0.00    -0.246 OA
BRANCH  26  28
ATOM     28  C   UNL A   1      42.677  21.058  26.422  1.00  0.00     0.060 A 
ATOM     29  C   UNL A   1      42.683  21.376  27.781  1.00  0.00     0.016 A 
ATOM     30  C   UNL A   1      42.806  22.065  25.455  1.00  0.00     0.016 A 
ATOM     31  C   UNL A   1      42.837  22.708  28.170  1.00  0.00     0.010 A 
ATOM     32  C   UNL A   1      42.958  23.395  25.847  1.00  0.00     0.010 A 
ATOM     33  C   UNL A   1      42.989  23.725  27.208  1.00  0.00    -0.014 A 
BRANCH  33  34
ATOM     34  C   UNL A   1      43.306  25.111  27.636  1.00  0.00     0.031 A 
ATOM     35  C   UNL A   1      44.701  25.659  27.567  1.00  0.00     0.074 A 
ATOM     36  C   UNL A   1      42.307  25.873  28.120  1.00  0.00     0.049 A 
ATOM     37  N   UNL A   1      45.114  26.872  27.829  1.00  0.00    -0.248 NA
ATOM     38  C   UNL A   1      45.770  24.736  27.158  1.00  0.00     0.031 C 
ATOM     39  C   UNL A   1      40.923  25.429  28.301  1.00  0.00     0.029 A 
ATOM     40  N   UNL A   1      42.298  27.176  28.549  1.00  0.00    -0.354 N 
ATOM     41  C   UNL A   1      46.486  26.863  27.623  1.00  0.00     0.074 A 
ATOM     42  C   UNL A   1      46.844  25.515  27.232  1.00  0.00     0.031 C 
ATOM     43  C   UNL A   1      40.194  26.448  28.781  1.00  0.00     0.029 A 
ATOM     44  C   UNL A   1      41.060  27.609  28.962  1.00  0.00     0.049 A 
ATOM     45  H   UNL A   1      43.100  27.747  28.560  1.00  0.00     0.167 HD
ATOM     46  C   UNL A   1      47.362  27.891  27.727  1.00  0.00     0.034 A 
ATOM     47  C   UNL A   1      40.660  28.808  29.429  1.00  0.00     0.034 A 
ATOM     48  C   UNL A   1      47.002  29.233  28.103  1.00  0.00     0.049 A 
ATOM     49  C   UNL A   1      41.649  29.933  29.522  1.00  0.00     0.074 A 
ATOM     50  C   UNL A   1      47.816  30.350  28.170  1.00  0.00     0.029 A 
ATOM     51  N   UNL A   1      45.735  29.639  28.490  1.00  0.00    -0.354 N 
ATOM     52  N   UNL A   1      42.917  29.939  29.192  1.00  0.00    -0.248 NA
ATOM     53  C   UNL A   1      41.151  31.221  30.026  1.00  0.00     0.031 C 
ATOM     54  C   UNL A   1      47.048  31.427  28.617  1.00  0.00     0.029 A 
ATOM     55  C   UNL A   1      45.748  30.986  28.804  1.00  0.00     0.049 A 
ATOM     56  H   UNL A   1      44.943  29.056  28.533  1.00  0.00     0.167 HD
ATOM     57  C   UNL A   1      43.363  31.234  29.423  1.00  0.00     0.074 A 
ATOM     58  C   UNL A   1      42.228  31.989  29.912  1.00  0.00     0.031 C 
ATOM     59  C   UNL A   1      44.607  31.742  29.253  1.00  0.00     0.034 A 
BRANCH  46  60
ATOM     60  C   UNL A   1      48.800  27.640  27.371  1.00  0.00     0.023 A 
ATOM     61  C   UNL A   1      49.648  27.047  28.328  1.00  0.00     0.012 A 
ATOM     62  C   UNL A   1      49.276  27.862  26.064  1.00  0.00     0.148 A 
ATOM     63  C   UNL A   1      50.950  26.682  27.992  1.00  0.00     0.002 A 
ATOM     64  C   UNL A   1      50.567  27.471  25.728  1.00  0.00     0.091 A 
ATOM     65  F   UNL A   1      48.452  28.431  25.174  1.00  0.00    -0.205 F 
ATOM     66  C   UNL A   1      51.406  26.882  26.691  1.00  0.00     0.022 A 
BRANCH  64  67
ATOM     67  S   UNL A   1      51.237  27.636  24.070  1.00  0.00     0.127 S 
ATOM     68  O   UNL A   1      51.315  29.091  23.931  1.00  0.00    -0.237 OA
ATOM     69  O   UNL A   1      52.530  26.965  24.193  1.00  0.00    -0.237 OA
ATOM     70  O   UNL A   1      50.286  26.983  23.182  1.00  0.00    -0.744 OA
ENDBRANCH  64  67
ENDBRANCH  46  60
BRANCH  47  71
ATOM     71  C   UNL A   1      39.227  29.010  29.770  1.00  0.00     0.023 A 
ATOM     72  C   UNL A   1      38.778  28.708  31.069  1.00  0.00     0.012 A 
ATOM     73  C   UNL A   1      38.331  29.570  28.840  1.00  0.00     0.148 A 
ATOM     74  C   UNL A   1      37.455  28.955  31.436  1.00  0.00     0.002 A 
ATOM     75  C   UNL A   1      37.026  29.847  29.221  1.00  0.00     0.091 A 
ATOM     76  F   UNL A   1      38.790  29.850  27.611  1.00  0.00    -0.205 F 
ATOM     77  C   UNL A   1      36.583  29.533  30.516  1.00  0.00     0.022 A 
BRANCH  75  78
ATOM     78  S   UNL A   1      35.853  30.673  28.141  1.00  0.00     0.127 S 
ATOM     79  O   UNL A   1      34.745  30.942  29.054  1.00  0.00    -0.237 OA
ATOM     80  O   UNL A   1      36.612  31.854  27.726  1.00  0.00    -0.237 OA
ATOM     81  O   UNL A   1      35.565  29.729  27.070  1.00  0.00    -0.744 OA
ENDBRANCH  75  78
ENDBRANCH  47  71
BRANCH  59  82
ATOM     82  C   UNL A   1      44.831  33.194  29.576  1.00  0.00     0.023 A 
ATOM     83  C   UNL A   1      45.276  33.559  30.861  1.00  0.00     0.012 A 
ATOM     84  C   UNL A   1      44.725  34.175  28.570  1.00  0.00     0.148 A 
ATOM     85  C   UNL A   1      45.607  34.884  31.143  1.00  0.00     0.002 A 
ATOM     86  C   UNL A   1      45.090  35.487  28.849  1.00  0.00     0.091 A 
ATOM     87  F   UNL A   1      44.292  33.802  27.358  1.00  0.00    -0.205 F 
ATOM     88  C   UNL A   1      45.526  35.844  30.136  1.00  0.00     0.022 A 
BRANCH  86  89
ATOM     89  S   UNL A   1      45.085  36.781  27.602  1.00  0.00     0.127 S 
ATOM     90  O   UNL A   1      45.901  36.179  26.548  1.00  0.00    -0.237 OA
ATOM     91  O   UNL A   1      43.662  36.895  27.283  1.00  0.00    -0.237 OA
ATOM     92  O   UNL A   1      45.665  37.957  28.236  1.00  0.00    -0.744 OA
ENDBRANCH  86  89
ENDBRANCH  59  82
ENDBRANCH  33  34
ENDBRANCH  26  28
ENDBRANCH  25  26
ENDBRANCH  24  25
ENDBRANCH   1  24
TORSDOF 19
ENDMDL
