MODEL 1
REMARK VINA RESULT:     -10.7      0.000      0.000
REMARK SMILES CCC[C@@H](CNC(=O)NCc1c(C)nn(C)c1C)C(=O)OCCOCCOC(=O)c1ccc(-c2c3nc(c(-c4cccc(S(=O)(=O)[O-])c4F)c4ccc([nH]4)c(-c4cccc(S(=O)(=O)[O-])c4F)c4nc(c(-c5cccc(S(=O)(=O)[O-])c5F)c5ccc2[nH]5)C=C4)C=C3)cc1
REMARK SMILES IDX 23 1 22 2 21 3 19 4 20 5 4 6 3 7 2 8 1 9 5 10 6 11 7 12 8 14
REMARK SMILES IDX 9 15 10 17 11 18 12 19 17 20 13 21 14 22 15 23 18 24 16 25
REMARK SMILES IDX 24 26 25 27 26 28 27 29 28 30 29 31 30 32 31 33 92 34 32 35
REMARK SMILES IDX 91 36 33 37 34 38 35 39 85 40 36 41 90 42 84 43 86 44 37 45
REMARK SMILES IDX 89 46 83 47 82 48 38 50 70 51 50 52 69 53 51 54 54 55 68 56
REMARK SMILES IDX 87 57 52 58 53 59 67 61 88 62 55 63 39 64 40 65 48 66 41 67
REMARK SMILES IDX 43 68 49 69 42 70 44 71 45 72 46 73 47 74 71 75 72 76 80 77
REMARK SMILES IDX 73 78 75 79 81 80 74 81 76 82 77 83 78 84 79 85 56 86 57 87
REMARK SMILES IDX 65 88 58 89 60 90 66 91 59 92 61 93 62 94 63 95 64 96
REMARK H PARENT 6 13 9 16 86 49 54 60
REMARK Flexibility Score: inf
ROOT
ATOM      1  C   UNL A   1      35.691  23.085  24.580  1.00  0.00     0.202 C 
ENDROOT
BRANCH   1   2
ATOM      2  C   UNL A   1      34.855  24.211  23.969  1.00  0.00     0.261 C 
BRANCH   2   3
ATOM      3  O   UNL A   1      34.080  24.922  24.949  1.00  0.00    -0.463 OA
BRANCH   3   4
ATOM      4  C   UNL A   1      33.919  26.253  24.728  1.00  0.00     0.310 C 
ATOM      5  O   UNL A   1      34.006  26.803  23.634  1.00  0.00    -0.252 OA
BRANCH   4   6
ATOM      6  C   UNL A   1      33.636  27.028  25.999  1.00  0.00     0.118 C 
BRANCH   6   7
ATOM      7  C   UNL A   1      34.185  28.467  25.975  1.00  0.00     0.017 C 
BRANCH   7   8
ATOM      8  C   UNL A   1      34.192  29.174  27.339  1.00  0.00    -0.002 C 
ATOM      9  C   UNL A   1      35.587  29.400  27.906  1.00  0.00     0.004 C 
ENDBRANCH   7   8
ENDBRANCH   6   7
BRANCH   6  10
ATOM     10  C   UNL A   1      32.152  26.933  26.353  1.00  0.00     0.133 C 
BRANCH  10  11
ATOM     11  N   UNL A   1      31.775  25.661  26.933  1.00  0.00    -0.337 N 
ATOM     12  C   UNL A   1      30.891  24.711  26.600  1.00  0.00     0.315 C 
ATOM     13  H   UNL A   1      32.280  25.445  27.750  1.00  0.00     0.165 HD
ATOM     14  O   UNL A   1      30.916  23.660  27.240  1.00  0.00    -0.249 OA
ATOM     15  N   UNL A   1      30.007  24.821  25.605  1.00  0.00    -0.334 N 
ATOM     16  H   UNL A   1      29.594  23.960  25.364  1.00  0.00     0.165 HD
BRANCH  15  17
ATOM     17  C   UNL A   1      29.524  25.916  24.804  1.00  0.00     0.157 C 
BRANCH  17  18
ATOM     18  C   UNL A   1      30.311  26.118  23.551  1.00  0.00     0.015 A 
ATOM     19  C   UNL A   1      30.458  27.376  22.891  1.00  0.00     0.065 A 
ATOM     20  C   UNL A   1      31.098  25.250  22.800  1.00  0.00     0.040 A 
ATOM     21  C   UNL A   1      29.905  28.701  23.277  1.00  0.00     0.069 C 
ATOM     22  N   UNL A   1      31.211  27.283  21.792  1.00  0.00    -0.178 NA
ATOM     23  N   UNL A   1      31.555  25.988  21.737  1.00  0.00    -0.272 N 
ATOM     24  C   UNL A   1      31.463  23.817  22.960  1.00  0.00     0.067 C 
ATOM     25  C   UNL A   1      32.339  25.542  20.609  1.00  0.00     0.174 C 
ENDBRANCH  17  18
ENDBRANCH  15  17
ENDBRANCH  10  11
ENDBRANCH   6  10
ENDBRANCH   4   6
ENDBRANCH   3   4
ENDBRANCH   2   3
ENDBRANCH   1   2
BRANCH   1  26
ATOM     26  O   UNL A   1      35.184  21.757  24.463  1.00  0.00    -0.374 OA
BRANCH  26  27
ATOM     27  C   UNL A   1      35.865  20.718  25.160  1.00  0.00     0.202 C 
BRANCH  27  28
ATOM     28  C   UNL A   1      37.334  20.465  24.804  1.00  0.00     0.261 C 
BRANCH  28  29
ATOM     29  O   UNL A   1      38.186  21.590  25.080  1.00  0.00    -0.460 OA
BRANCH  29  30
ATOM     30  C   UNL A   1      39.222  21.305  25.904  1.00  0.00     0.338 C 
ATOM     31  O   UNL A   1      39.904  20.286  25.895  1.00  0.00    -0.246 OA
BRANCH  30  32
ATOM     32  C   UNL A   1      39.572  22.456  26.756  1.00  0.00     0.060 A 
ATOM     33  C   UNL A   1      38.942  23.671  26.462  1.00  0.00     0.016 A 
ATOM     34  C   UNL A   1      40.586  22.396  27.714  1.00  0.00     0.016 A 
ATOM     35  C   UNL A   1      39.389  24.849  27.052  1.00  0.00     0.010 A 
ATOM     36  C   UNL A   1      41.035  23.585  28.308  1.00  0.00     0.010 A 
ATOM     37  C   UNL A   1      40.480  24.821  27.931  1.00  0.00    -0.014 A 
BRANCH  37  38
ATOM     38  C   UNL A   1      41.137  26.108  28.275  1.00  0.00     0.031 A 
ATOM     39  C   UNL A   1      42.527  26.380  27.759  1.00  0.00     0.074 A 
ATOM     40  C   UNL A   1      40.478  27.057  28.964  1.00  0.00     0.049 A 
ATOM     41  N   UNL A   1      43.240  27.473  27.837  1.00  0.00    -0.248 NA
ATOM     42  C   UNL A   1      43.202  25.273  27.060  1.00  0.00     0.031 C 
ATOM     43  C   UNL A   1      39.134  26.916  29.523  1.00  0.00     0.029 A 
ATOM     44  N   UNL A   1      40.857  28.329  29.312  1.00  0.00    -0.354 N 
ATOM     45  C   UNL A   1      44.449  27.184  27.214  1.00  0.00     0.074 A 
ATOM     46  C   UNL A   1      44.384  25.804  26.785  1.00  0.00     0.031 C 
ATOM     47  C   UNL A   1      38.804  28.057  30.153  1.00  0.00     0.029 A 
ATOM     48  C   UNL A   1      39.912  29.005  30.044  1.00  0.00     0.049 A 
ATOM     49  H   UNL A   1      41.724  28.721  29.059  1.00  0.00     0.167 HD
ATOM     50  C   UNL A   1      45.508  27.998  26.993  1.00  0.00     0.034 A 
ATOM     51  C   UNL A   1      39.936  30.248  30.564  1.00  0.00     0.034 A 
ATOM     52  C   UNL A   1      45.564  29.379  27.390  1.00  0.00     0.049 A 
ATOM     53  C   UNL A   1      41.124  31.137  30.297  1.00  0.00     0.074 A 
ATOM     54  C   UNL A   1      46.574  30.298  27.168  1.00  0.00     0.029 A 
ATOM     55  N   UNL A   1      44.571  30.038  28.095  1.00  0.00    -0.354 N 
ATOM     56  N   UNL A   1      42.199  30.891  29.587  1.00  0.00    -0.248 NA
ATOM     57  C   UNL A   1      41.081  32.491  30.868  1.00  0.00     0.031 C 
ATOM     58  C   UNL A   1      46.198  31.511  27.755  1.00  0.00     0.029 A 
ATOM     59  C   UNL A   1      44.946  31.351  28.326  1.00  0.00     0.049 A 
ATOM     60  H   UNL A   1      43.723  29.633  28.389  1.00  0.00     0.167 HD
ATOM     61  C   UNL A   1      42.943  32.066  29.598  1.00  0.00     0.074 A 
ATOM     62  C   UNL A   1      42.183  33.033  30.364  1.00  0.00     0.031 C 
ATOM     63  C   UNL A   1      44.155  32.318  29.043  1.00  0.00     0.034 A 
BRANCH  50  64
ATOM     64  C   UNL A   1      46.683  27.422  26.247  1.00  0.00     0.023 A 
ATOM     65  C   UNL A   1      46.756  27.572  24.847  1.00  0.00     0.012 A 
ATOM     66  C   UNL A   1      47.734  26.780  26.929  1.00  0.00     0.148 A 
ATOM     67  C   UNL A   1      47.842  27.065  24.133  1.00  0.00     0.002 A 
ATOM     68  C   UNL A   1      48.832  26.311  26.216  1.00  0.00     0.091 A 
ATOM     69  F   UNL A   1      47.634  26.624  28.257  1.00  0.00    -0.205 F 
ATOM     70  C   UNL A   1      48.883  26.445  24.818  1.00  0.00     0.022 A 
BRANCH  68  71
ATOM     71  S   UNL A   1      50.254  25.560  27.016  1.00  0.00     0.127 S 
ATOM     72  O   UNL A   1      49.675  24.329  27.551  1.00  0.00    -0.237 OA
ATOM     73  O   UNL A   1      51.173  25.364  25.894  1.00  0.00    -0.237 OA
ATOM     74  O   UNL A   1      50.709  26.524  28.008  1.00  0.00    -0.744 OA
ENDBRANCH  68  71
ENDBRANCH  50  64
BRANCH  51  75
ATOM     75  C   UNL A   1      38.768  30.753  31.340  1.00  0.00     0.023 A 
ATOM     76  C   UNL A   1      38.712  30.541  32.730  1.00  0.00     0.012 A 
ATOM     77  C   UNL A   1      37.722  31.451  30.708  1.00  0.00     0.148 A 
ATOM     78  C   UNL A   1      37.620  30.992  33.474  1.00  0.00     0.002 A 
ATOM     79  C   UNL A   1      36.663  31.942  31.461  1.00  0.00     0.091 A 
ATOM     80  F   UNL A   1      37.784  31.623  29.380  1.00  0.00    -0.205 F 
ATOM     81  C   UNL A   1      36.602  31.701  32.842  1.00  0.00     0.022 A 
BRANCH  79  82
ATOM     82  S   UNL A   1      35.369  32.965  30.749  1.00  0.00     0.127 S 
ATOM     83  O   UNL A   1      36.146  33.970  30.027  1.00  0.00    -0.237 OA
ATOM     84  O   UNL A   1      34.659  32.010  29.900  1.00  0.00    -0.237 OA
ATOM     85  O   UNL A   1      34.593  33.456  31.879  1.00  0.00    -0.744 OA
ENDBRANCH  79  82
ENDBRANCH  51  75
BRANCH  63  86
ATOM     86  C   UNL A   1      44.730  33.700  29.221  1.00  0.00     0.023 A 
ATOM     87  C   UNL A   1      45.597  33.960  30.301  1.00  0.00     0.012 A 
ATOM     88  C   UNL A   1      44.467  34.721  28.288  1.00  0.00     0.148 A 
ATOM     89  C   UNL A   1      46.160  35.224  30.472  1.00  0.00     0.002 A 
ATOM     90  C   UNL A   1      45.069  35.966  28.438  1.00  0.00     0.091 A 
ATOM     91  F   UNL A   1      43.625  34.466  27.275  1.00  0.00    -0.205 F 
ATOM     92  C   UNL A   1      45.906  36.223  29.535  1.00  0.00     0.022 A 
BRANCH  90  93
ATOM     93  S   UNL A   1      44.866  37.275  27.224  1.00  0.00     0.127 S 
ATOM     94  O   UNL A   1      43.515  37.020  26.729  1.00  0.00    -0.237 OA
ATOM     95  O   UNL A   1      44.999  38.485  28.037  1.00  0.00    -0.237 OA
ATOM     96  O   UNL A   1      45.940  37.085  26.257  1.00  0.00    -0.744 OA
ENDBRANCH  90  93
ENDBRANCH  63  86
ENDBRANCH  37  38
ENDBRANCH  30  32
ENDBRANCH  29  30
ENDBRANCH  28  29
ENDBRANCH  27  28
ENDBRANCH  26  27
ENDBRANCH   1  26
TORSDOF 23
ENDMDL
MODEL 2
REMARK VINA RESULT:     -10.3      1.244      2.358
REMARK SMILES CCC[C@@H](CNC(=O)NCc1c(C)nn(C)c1C)C(=O)OCCOCCOC(=O)c1ccc(-c2c3nc(c(-c4cccc(S(=O)(=O)[O-])c4F)c4ccc([nH]4)c(-c4cccc(S(=O)(=O)[O-])c4F)c4nc(c(-c5cccc(S(=O)(=O)[O-])c5F)c5ccc2[nH]5)C=C4)C=C3)cc1
REMARK SMILES IDX 23 1 22 2 21 3 19 4 20 5 4 6 3 7 2 8 1 9 5 10 6 11 7 12 8 14
REMARK SMILES IDX 9 15 10 17 11 18 12 19 17 20 13 21 14 22 15 23 18 24 16 25
REMARK SMILES IDX 24 26 25 27 26 28 27 29 28 30 29 31 30 32 31 33 92 34 32 35
REMARK SMILES IDX 91 36 33 37 34 38 35 39 85 40 36 41 90 42 84 43 86 44 37 45
REMARK SMILES IDX 89 46 83 47 82 48 38 50 70 51 50 52 69 53 51 54 54 55 68 56
REMARK SMILES IDX 87 57 52 58 53 59 67 61 88 62 55 63 39 64 40 65 48 66 41 67
REMARK SMILES IDX 43 68 49 69 42 70 44 71 45 72 46 73 47 74 71 75 72 76 80 77
REMARK SMILES IDX 73 78 75 79 81 80 74 81 76 82 77 83 78 84 79 85 56 86 57 87
REMARK SMILES IDX 65 88 58 89 60 90 66 91 59 92 61 93 62 94 63 95 64 96
REMARK H PARENT 6 13 9 16 86 49 54 60
REMARK Flexibility Score: inf
ROOT
ATOM      1  C   UNL A   1      35.389  20.862  25.381  1.00  0.00     0.202 C 
ENDROOT
BRANCH   1   2
ATOM      2  C   UNL A   1      35.377  22.133  24.528  1.00  0.00     0.261 C 
BRANCH   2   3
ATOM      3  O   UNL A   1      34.121  22.342  23.860  1.00  0.00    -0.463 OA
BRANCH   3   4
ATOM      4  C   UNL A   1      33.544  23.558  24.046  1.00  0.00     0.310 C 
ATOM      5  O   UNL A   1      34.135  24.633  24.007  1.00  0.00    -0.252 OA
BRANCH   4   6
ATOM      6  C   UNL A   1      32.061  23.464  24.340  1.00  0.00     0.118 C 
BRANCH   6   7
ATOM      7  C   UNL A   1      31.687  23.914  25.765  1.00  0.00     0.017 C 
BRANCH   7   8
ATOM      8  C   UNL A   1      32.833  23.835  26.785  1.00  0.00    -0.002 C 
ATOM      9  C   UNL A   1      32.853  22.541  27.587  1.00  0.00     0.004 C 
ENDBRANCH   7   8
ENDBRANCH   6   7
BRANCH   6  10
ATOM     10  C   UNL A   1      31.263  24.161  23.238  1.00  0.00     0.133 C 
BRANCH  10  11
ATOM     11  N   UNL A   1      32.071  24.568  22.107  1.00  0.00    -0.337 N 
ATOM     12  C   UNL A   1      32.301  25.740  21.501  1.00  0.00     0.315 C 
ATOM     13  H   UNL A   1      32.561  23.820  21.694  1.00  0.00     0.165 HD
ATOM     14  O   UNL A   1      33.171  25.771  20.632  1.00  0.00    -0.249 OA
ATOM     15  N   UNL A   1      31.667  26.878  21.797  1.00  0.00    -0.334 N 
ATOM     16  H   UNL A   1      32.107  27.671  21.415  1.00  0.00     0.165 HD
BRANCH  15  17
ATOM     17  C   UNL A   1      30.484  27.205  22.551  1.00  0.00     0.157 C 
BRANCH  17  18
ATOM     18  C   UNL A   1      30.694  28.330  23.511  1.00  0.00     0.015 A 
ATOM     19  C   UNL A   1      30.049  29.600  23.409  1.00  0.00     0.065 A 
ATOM     20  C   UNL A   1      31.433  28.420  24.687  1.00  0.00     0.040 A 
ATOM     21  C   UNL A   1      29.072  30.071  22.393  1.00  0.00     0.069 C 
ATOM     22  N   UNL A   1      30.410  30.428  24.393  1.00  0.00    -0.178 NA
ATOM     23  N   UNL A   1      31.271  29.709  25.129  1.00  0.00    -0.272 N 
ATOM     24  C   UNL A   1      32.273  27.446  25.433  1.00  0.00     0.067 C 
ATOM     25  C   UNL A   1      31.898  30.352  26.260  1.00  0.00     0.174 C 
ENDBRANCH  17  18
ENDBRANCH  15  17
ENDBRANCH  10  11
ENDBRANCH   6  10
ENDBRANCH   4   6
ENDBRANCH   3   4
ENDBRANCH   2   3
ENDBRANCH   1   2
BRANCH   1  26
ATOM     26  O   UNL A   1      35.650  19.630  24.714  1.00  0.00    -0.374 OA
BRANCH  26  27
ATOM     27  C   UNL A   1      36.920  19.017  24.916  1.00  0.00     0.202 C 
BRANCH  27  28
ATOM     28  C   UNL A   1      38.169  19.885  24.725  1.00  0.00     0.261 C 
BRANCH  28  29
ATOM     29  O   UNL A   1      38.458  20.721  25.859  1.00  0.00    -0.460 OA
BRANCH  29  30
ATOM     30  C   UNL A   1      39.780  20.903  26.084  1.00  0.00     0.338 C 
ATOM     31  O   UNL A   1      40.701  20.259  25.593  1.00  0.00    -0.246 OA
BRANCH  30  32
ATOM     32  C   UNL A   1      40.033  22.108  26.894  1.00  0.00     0.060 A 
ATOM     33  C   UNL A   1      39.447  23.299  26.452  1.00  0.00     0.016 A 
ATOM     34  C   UNL A   1      40.929  22.114  27.966  1.00  0.00     0.016 A 
ATOM     35  C   UNL A   1      39.827  24.515  27.012  1.00  0.00     0.010 A 
ATOM     36  C   UNL A   1      41.311  23.340  28.530  1.00  0.00     0.010 A 
ATOM     37  C   UNL A   1      40.808  24.547  28.012  1.00  0.00    -0.014 A 
BRANCH  37  38
ATOM     38  C   UNL A   1      41.425  25.856  28.346  1.00  0.00     0.031 A 
ATOM     39  C   UNL A   1      42.831  26.141  27.880  1.00  0.00     0.074 A 
ATOM     40  C   UNL A   1      40.720  26.810  28.980  1.00  0.00     0.049 A 
ATOM     41  N   UNL A   1      43.519  27.251  27.957  1.00  0.00    -0.248 NA
ATOM     42  C   UNL A   1      43.555  25.029  27.241  1.00  0.00     0.031 C 
ATOM     43  C   UNL A   1      39.357  26.658  29.487  1.00  0.00     0.029 A 
ATOM     44  N   UNL A   1      41.061  28.099  29.307  1.00  0.00    -0.354 N 
ATOM     45  C   UNL A   1      44.758  26.969  27.392  1.00  0.00     0.074 A 
ATOM     46  C   UNL A   1      44.737  25.576  27.001  1.00  0.00     0.031 C 
ATOM     47  C   UNL A   1      38.980  27.809  30.070  1.00  0.00     0.029 A 
ATOM     48  C   UNL A   1      40.074  28.776  29.980  1.00  0.00     0.049 A 
ATOM     49  H   UNL A   1      41.930  28.501  29.079  1.00  0.00     0.167 HD
ATOM     50  C   UNL A   1      45.810  27.797  27.193  1.00  0.00     0.034 A 
ATOM     51  C   UNL A   1      40.053  30.033  30.465  1.00  0.00     0.034 A 
ATOM     52  C   UNL A   1      45.824  29.189  27.552  1.00  0.00     0.049 A 
ATOM     53  C   UNL A   1      41.234  30.938  30.222  1.00  0.00     0.074 A 
ATOM     54  C   UNL A   1      46.825  30.122  27.346  1.00  0.00     0.029 A 
ATOM     55  N   UNL A   1      44.789  29.848  28.196  1.00  0.00    -0.354 N 
ATOM     56  N   UNL A   1      42.342  30.694  29.565  1.00  0.00    -0.248 NA
ATOM     57  C   UNL A   1      41.141  32.306  30.752  1.00  0.00     0.031 C 
ATOM     58  C   UNL A   1      46.401  31.343  27.882  1.00  0.00     0.029 A 
ATOM     59  C   UNL A   1      45.129  31.174  28.405  1.00  0.00     0.049 A 
ATOM     60  H   UNL A   1      43.938  29.435  28.467  1.00  0.00     0.167 HD
ATOM     61  C   UNL A   1      43.062  31.883  29.573  1.00  0.00     0.074 A 
ATOM     62  C   UNL A   1      42.252  32.856  30.279  1.00  0.00     0.031 C 
ATOM     63  C   UNL A   1      44.292  32.144  29.061  1.00  0.00     0.034 A 
BRANCH  50  64
ATOM     64  C   UNL A   1      47.026  27.225  26.512  1.00  0.00     0.023 A 
ATOM     65  C   UNL A   1      47.179  27.383  25.120  1.00  0.00     0.012 A 
ATOM     66  C   UNL A   1      48.036  26.577  27.250  1.00  0.00     0.148 A 
ATOM     67  C   UNL A   1      48.305  26.879  24.467  1.00  0.00     0.002 A 
ATOM     68  C   UNL A   1      49.172  26.111  26.599  1.00  0.00     0.091 A 
ATOM     69  F   UNL A   1      47.859  26.413  28.570  1.00  0.00    -0.205 F 
ATOM     70  C   UNL A   1      49.304  26.253  25.207  1.00  0.00     0.022 A 
BRANCH  68  71
ATOM     71  S   UNL A   1      50.545  25.354  27.475  1.00  0.00     0.127 S 
ATOM     72  O   UNL A   1      49.903  24.187  28.077  1.00  0.00    -0.237 OA
ATOM     73  O   UNL A   1      51.475  25.046  26.388  1.00  0.00    -0.237 OA
ATOM     74  O   UNL A   1      51.024  26.360  28.413  1.00  0.00    -0.744 OA
ENDBRANCH  68  71
ENDBRANCH  50  64
BRANCH  51  75
ATOM     75  C   UNL A   1      38.843  30.536  31.177  1.00  0.00     0.023 A 
ATOM     76  C   UNL A   1      38.760  30.415  32.577  1.00  0.00     0.012 A 
ATOM     77  C   UNL A   1      37.785  31.143  30.475  1.00  0.00     0.148 A 
ATOM     78  C   UNL A   1      37.630  30.865  33.263  1.00  0.00     0.002 A 
ATOM     79  C   UNL A   1      36.686  31.635  31.168  1.00  0.00     0.091 A 
ATOM     80  F   UNL A   1      37.874  31.228  29.140  1.00  0.00    -0.205 F 
ATOM     81  C   UNL A   1      36.599  31.484  32.561  1.00  0.00     0.022 A 
BRANCH  79  82
ATOM     82  S   UNL A   1      35.369  32.549  30.359  1.00  0.00     0.127 S 
ATOM     83  O   UNL A   1      34.413  32.725  31.450  1.00  0.00    -0.237 OA
ATOM     84  O   UNL A   1      36.058  33.770  29.941  1.00  0.00    -0.237 OA
ATOM     85  O   UNL A   1      34.925  31.704  29.259  1.00  0.00    -0.744 OA
ENDBRANCH  79  82
ENDBRANCH  51  75
BRANCH  63  86
ATOM     86  C   UNL A   1      44.833  33.542  29.223  1.00  0.00     0.023 A 
ATOM     87  C   UNL A   1      45.394  33.933  30.455  1.00  0.00     0.012 A 
ATOM     88  C   UNL A   1      44.845  34.445  28.143  1.00  0.00     0.148 A 
ATOM     89  C   UNL A   1      45.923  35.212  30.621  1.00  0.00     0.002 A 
ATOM     90  C   UNL A   1      45.417  35.703  28.301  1.00  0.00     0.091 A 
ATOM     91  F   UNL A   1      44.290  34.067  26.981  1.00  0.00    -0.205 F 
ATOM     92  C   UNL A   1      45.945  36.093  29.542  1.00  0.00     0.022 A 
BRANCH  90  93
ATOM     93  S   UNL A   1      45.567  36.860  26.934  1.00  0.00     0.127 S 
ATOM     94  O   UNL A   1      44.209  37.392  26.840  1.00  0.00    -0.237 OA
ATOM     95  O   UNL A   1      46.562  37.812  27.433  1.00  0.00    -0.237 OA
ATOM     96  O   UNL A   1      46.016  36.068  25.796  1.00  0.00    -0.744 OA
ENDBRANCH  90  93
ENDBRANCH  63  86
ENDBRANCH  37  38
ENDBRANCH  30  32
ENDBRANCH  29  30
ENDBRANCH  28  29
ENDBRANCH  27  28
ENDBRANCH  26  27
ENDBRANCH   1  26
TORSDOF 23
ENDMDL
MODEL 3
REMARK VINA RESULT:     -10.2      1.949      3.183
REMARK SMILES CCC[C@@H](CNC(=O)NCc1c(C)nn(C)c1C)C(=O)OCCOCCOC(=O)c1ccc(-c2c3nc(c(-c4cccc(S(=O)(=O)[O-])c4F)c4ccc([nH]4)c(-c4cccc(S(=O)(=O)[O-])c4F)c4nc(c(-c5cccc(S(=O)(=O)[O-])c5F)c5ccc2[nH]5)C=C4)C=C3)cc1
REMARK SMILES IDX 23 1 22 2 21 3 19 4 20 5 4 6 3 7 2 8 1 9 5 10 6 11 7 12 8 14
REMARK SMILES IDX 9 15 10 17 11 18 12 19 17 20 13 21 14 22 15 23 18 24 16 25
REMARK SMILES IDX 24 26 25 27 26 28 27 29 28 30 29 31 30 32 31 33 92 34 32 35
REMARK SMILES IDX 91 36 33 37 34 38 35 39 85 40 36 41 90 42 84 43 86 44 37 45
REMARK SMILES IDX 89 46 83 47 82 48 38 50 70 51 50 52 69 53 51 54 54 55 68 56
REMARK SMILES IDX 87 57 52 58 53 59 67 61 88 62 55 63 39 64 40 65 48 66 41 67
REMARK SMILES IDX 43 68 49 69 42 70 44 71 45 72 46 73 47 74 71 75 72 76 80 77
REMARK SMILES IDX 73 78 75 79 81 80 74 81 76 82 77 83 78 84 79 85 56 86 57 87
REMARK SMILES IDX 65 88 58 89 60 90 66 91 59 92 61 93 62 94 63 95 64 96
REMARK H PARENT 6 13 9 16 86 49 54 60
REMARK Flexibility Score: inf
ROOT
ATOM      1  C   UNL A   1      37.217  19.980  24.715  1.00  0.00     0.202 C 
ENDROOT
BRANCH   1   2
ATOM      2  C   UNL A   1      37.095  21.485  24.966  1.00  0.00     0.261 C 
BRANCH   2   3
ATOM      3  O   UNL A   1      35.776  21.988  24.697  1.00  0.00    -0.463 OA
BRANCH   3   4
ATOM      4  C   UNL A   1      35.662  22.816  23.626  1.00  0.00     0.310 C 
ATOM      5  O   UNL A   1      36.518  22.974  22.761  1.00  0.00    -0.252 OA
BRANCH   4   6
ATOM      6  C   UNL A   1      34.349  23.572  23.607  1.00  0.00     0.118 C 
BRANCH   6   7
ATOM      7  C   UNL A   1      34.490  25.057  23.992  1.00  0.00     0.017 C 
BRANCH   7   8
ATOM      8  C   UNL A   1      34.450  25.336  25.501  1.00  0.00    -0.002 C 
ATOM      9  C   UNL A   1      33.764  26.646  25.867  1.00  0.00     0.004 C 
ENDBRANCH   7   8
ENDBRANCH   6   7
BRANCH   6  10
ATOM     10  C   UNL A   1      33.629  23.339  22.279  1.00  0.00     0.133 C 
BRANCH  10  11
ATOM     11  N   UNL A   1      32.999  24.530  21.745  1.00  0.00    -0.337 N 
ATOM     12  C   UNL A   1      31.857  25.177  22.009  1.00  0.00     0.315 C 
ATOM     13  H   UNL A   1      33.527  24.958  21.032  1.00  0.00     0.165 HD
ATOM     14  O   UNL A   1      31.678  26.264  21.461  1.00  0.00    -0.249 OA
ATOM     15  N   UNL A   1      30.916  24.732  22.846  1.00  0.00    -0.334 N 
ATOM     16  H   UNL A   1      30.259  25.426  23.085  1.00  0.00     0.165 HD
BRANCH  15  17
ATOM     17  C   UNL A   1      30.648  23.467  23.480  1.00  0.00     0.157 C 
BRANCH  17  18
ATOM     18  C   UNL A   1      31.124  23.408  24.895  1.00  0.00     0.015 A 
ATOM     19  C   UNL A   1      30.824  24.395  25.883  1.00  0.00     0.065 A 
ATOM     20  C   UNL A   1      31.847  22.444  25.590  1.00  0.00     0.040 A 
ATOM     21  C   UNL A   1      30.011  25.632  25.748  1.00  0.00     0.069 C 
ATOM     22  N   UNL A   1      31.370  24.104  27.066  1.00  0.00    -0.178 NA
ATOM     23  N   UNL A   1      32.012  22.945  26.857  1.00  0.00    -0.272 N 
ATOM     24  C   UNL A   1      32.403  21.120  25.204  1.00  0.00     0.067 C 
ATOM     25  C   UNL A   1      32.767  22.381  27.951  1.00  0.00     0.174 C 
ENDBRANCH  17  18
ENDBRANCH  15  17
ENDBRANCH  10  11
ENDBRANCH   6  10
ENDBRANCH   4   6
ENDBRANCH   3   4
ENDBRANCH   2   3
ENDBRANCH   1   2
BRANCH   1  26
ATOM     26  O   UNL A   1      38.466  19.366  25.024  1.00  0.00    -0.374 OA
BRANCH  26  27
ATOM     27  C   UNL A   1      39.435  20.139  25.727  1.00  0.00     0.202 C 
BRANCH  27  28
ATOM     28  C   UNL A   1      40.714  19.431  26.188  1.00  0.00     0.261 C 
BRANCH  28  29
ATOM     29  O   UNL A   1      41.789  19.527  25.238  1.00  0.00    -0.460 OA
BRANCH  29  30
ATOM     30  C   UNL A   1      42.903  20.120  25.729  1.00  0.00     0.338 C 
ATOM     31  O   UNL A   1      44.057  19.724  25.604  1.00  0.00    -0.246 OA
BRANCH  30  32
ATOM     32  C   UNL A   1      42.603  21.433  26.326  1.00  0.00     0.060 A 
ATOM     33  C   UNL A   1      42.496  22.516  25.445  1.00  0.00     0.016 A 
ATOM     34  C   UNL A   1      42.572  21.637  27.708  1.00  0.00     0.016 A 
ATOM     35  C   UNL A   1      42.457  23.816  25.939  1.00  0.00     0.010 A 
ATOM     36  C   UNL A   1      42.532  22.949  28.204  1.00  0.00     0.010 A 
ATOM     37  C   UNL A   1      42.538  24.042  27.319  1.00  0.00    -0.014 A 
BRANCH  37  38
ATOM     38  C   UNL A   1      42.829  25.421  27.788  1.00  0.00     0.031 A 
ATOM     39  C   UNL A   1      44.233  25.956  27.658  1.00  0.00     0.074 A 
ATOM     40  C   UNL A   1      41.846  26.218  28.244  1.00  0.00     0.049 A 
ATOM     41  N   UNL A   1      44.684  27.161  27.891  1.00  0.00    -0.248 NA
ATOM     42  C   UNL A   1      45.263  25.008  27.202  1.00  0.00     0.031 C 
ATOM     43  C   UNL A   1      40.450  25.820  28.423  1.00  0.00     0.029 A 
ATOM     44  N   UNL A   1      41.877  27.531  28.641  1.00  0.00    -0.354 N 
ATOM     45  C   UNL A   1      46.049  27.113  27.627  1.00  0.00     0.074 A 
ATOM     46  C   UNL A   1      46.357  25.754  27.240  1.00  0.00     0.031 C 
ATOM     47  C   UNL A   1      39.759  26.867  28.905  1.00  0.00     0.029 A 
ATOM     48  C   UNL A   1      40.661  28.006  29.070  1.00  0.00     0.049 A 
ATOM     49  H   UNL A   1      42.692  28.082  28.619  1.00  0.00     0.167 HD
ATOM     50  C   UNL A   1      46.960  28.113  27.675  1.00  0.00     0.034 A 
ATOM     51  C   UNL A   1      40.315  29.222  29.539  1.00  0.00     0.034 A 
ATOM     52  C   UNL A   1      46.653  29.472  28.029  1.00  0.00     0.049 A 
ATOM     53  C   UNL A   1      41.347  30.319  29.574  1.00  0.00     0.074 A 
ATOM     54  C   UNL A   1      47.498  30.567  28.060  1.00  0.00     0.029 A 
ATOM     55  N   UNL A   1      45.402  29.922  28.419  1.00  0.00    -0.354 N 
ATOM     56  N   UNL A   1      42.600  30.291  29.189  1.00  0.00    -0.248 NA
ATOM     57  C   UNL A   1      40.903  31.631  30.070  1.00  0.00     0.031 C 
ATOM     58  C   UNL A   1      46.761  31.678  28.485  1.00  0.00     0.029 A 
ATOM     59  C   UNL A   1      45.452  31.277  28.701  1.00  0.00     0.049 A 
ATOM     60  H   UNL A   1      44.595  29.362  28.486  1.00  0.00     0.167 HD
ATOM     61  C   UNL A   1      43.084  31.583  29.364  1.00  0.00     0.074 A 
ATOM     62  C   UNL A   1      41.981  32.377  29.866  1.00  0.00     0.031 C 
ATOM     63  C   UNL A   1      44.334  32.066  29.148  1.00  0.00     0.034 A 
BRANCH  50  64
ATOM     64  C   UNL A   1      48.378  27.780  27.292  1.00  0.00     0.023 A 
ATOM     65  C   UNL A   1      49.295  27.397  28.292  1.00  0.00     0.012 A 
ATOM     66  C   UNL A   1      48.792  27.799  25.946  1.00  0.00     0.148 A 
ATOM     67  C   UNL A   1      50.609  27.066  27.962  1.00  0.00     0.002 A 
ATOM     68  C   UNL A   1      50.093  27.431  25.620  1.00  0.00     0.091 A 
ATOM     69  F   UNL A   1      47.913  28.192  25.011  1.00  0.00    -0.205 F 
ATOM     70  C   UNL A   1      51.004  27.073  26.628  1.00  0.00     0.022 A 
BRANCH  68  71
ATOM     71  S   UNL A   1      50.675  27.342  23.924  1.00  0.00     0.127 S 
ATOM     72  O   UNL A   1      50.857  28.755  23.600  1.00  0.00    -0.237 OA
ATOM     73  O   UNL A   1      51.919  26.583  24.062  1.00  0.00    -0.237 OA
ATOM     74  O   UNL A   1      49.629  26.656  23.177  1.00  0.00    -0.744 OA
ENDBRANCH  68  71
ENDBRANCH  50  64
BRANCH  51  75
ATOM     75  C   UNL A   1      38.908  29.485  29.954  1.00  0.00     0.023 A 
ATOM     76  C   UNL A   1      38.493  29.151  31.257  1.00  0.00     0.012 A 
ATOM     77  C   UNL A   1      37.987  30.076  29.069  1.00  0.00     0.148 A 
ATOM     78  C   UNL A   1      37.176  29.376  31.663  1.00  0.00     0.002 A 
ATOM     79  C   UNL A   1      36.692  30.344  29.495  1.00  0.00     0.091 A 
ATOM     80  F   UNL A   1      38.396  30.366  27.826  1.00  0.00    -0.205 F 
ATOM     81  C   UNL A   1      36.279  29.982  30.786  1.00  0.00     0.022 A 
BRANCH  79  82
ATOM     82  S   UNL A   1      35.506  31.227  28.473  1.00  0.00     0.127 S 
ATOM     83  O   UNL A   1      36.334  32.290  27.907  1.00  0.00    -0.237 OA
ATOM     84  O   UNL A   1      35.096  30.194  27.523  1.00  0.00    -0.237 OA
ATOM     85  O   UNL A   1      34.454  31.659  29.382  1.00  0.00    -0.744 OA
ENDBRANCH  79  82
ENDBRANCH  51  75
BRANCH  63  86
ATOM     86  C   UNL A   1      44.576  33.527  29.432  1.00  0.00     0.023 A 
ATOM     87  C   UNL A   1      45.067  33.920  30.693  1.00  0.00     0.012 A 
ATOM     88  C   UNL A   1      44.379  34.502  28.435  1.00  0.00     0.148 A 
ATOM     89  C   UNL A   1      45.321  35.263  30.970  1.00  0.00     0.002 A 
ATOM     90  C   UNL A   1      44.679  35.834  28.702  1.00  0.00     0.091 A 
ATOM     91  F   UNL A   1      43.892  34.117  27.245  1.00  0.00    -0.205 F 
ATOM     92  C   UNL A   1      45.139  36.218  29.972  1.00  0.00     0.022 A 
BRANCH  90  93
ATOM     93  S   UNL A   1      44.559  37.109  27.442  1.00  0.00     0.127 S 
ATOM     94  O   UNL A   1      45.628  36.726  26.523  1.00  0.00    -0.237 OA
ATOM     95  O   UNL A   1      43.205  36.911  26.919  1.00  0.00    -0.237 OA
ATOM     96  O   UNL A   1      44.749  38.373  28.142  1.00  0.00    -0.744 OA
ENDBRANCH  90  93
ENDBRANCH  63  86
ENDBRANCH  37  38
ENDBRANCH  30  32
ENDBRANCH  29  30
ENDBRANCH  28  29
ENDBRANCH  27  28
ENDBRANCH  26  27
ENDBRANCH   1  26
TORSDOF 23
ENDMDL
