MODEL 1
REMARK VINA RESULT:     -10.3      0.000      0.000
REMARK SMILES O=C(C[N@@H+]1CCC[C@@H]1C(=O)OCCOCCOC(=O)c1ccc(-c2c3nc(c(-c4cccc(S(=O)(=O)[O-])c4F)c4ccc([nH]4)c(-c4cccc(S(=O)(=O)[O-])c4F)c4nc(c(-c5cccc(S(=O)(=O)[O-])c5F)c5ccc2[nH]5)C=C4)C=C3)cc1)NCc1ccc(Cl)cc1
REMARK SMILES IDX 13 1 12 2 11 3 9 4 10 5 8 6 4 7 5 8 6 10 7 11 3 12 2 13 1 14
REMARK SMILES IDX 83 15 84 17 85 18 86 19 91 20 87 21 90 22 88 23 89 24 14 25
REMARK SMILES IDX 15 26 16 27 17 28 18 29 19 30 20 31 21 32 82 33 22 34 81 35
REMARK SMILES IDX 23 36 24 37 25 38 75 39 26 40 80 41 74 42 76 43 27 44 79 45
REMARK SMILES IDX 73 46 72 47 28 49 60 50 40 51 59 52 41 53 44 54 58 55 77 56
REMARK SMILES IDX 42 57 43 58 57 60 78 61 45 62 29 63 30 64 38 65 31 66 33 67
REMARK SMILES IDX 39 68 32 69 34 70 35 71 36 72 37 73 61 74 62 75 70 76 63 77
REMARK SMILES IDX 65 78 71 79 64 80 66 81 67 82 68 83 69 84 46 85 47 86 55 87
REMARK SMILES IDX 48 88 50 89 56 90 49 91 51 92 52 93 53 94 54 95
REMARK H PARENT 4 9 83 16 76 48 44 59
REMARK Flexibility Score: inf
ROOT
ATOM      1  C   UNL A   1      33.017  29.719  27.109  1.00  0.00     0.202 C 
ENDROOT
BRANCH   1   2
ATOM      2  C   UNL A   1      32.930  28.199  27.253  1.00  0.00     0.261 C 
BRANCH   2   3
ATOM      3  O   UNL A   1      33.807  27.528  26.336  1.00  0.00    -0.459 OA
BRANCH   3   4
ATOM      4  C   UNL A   1      33.284  27.213  25.122  1.00  0.00     0.365 C 
ATOM      5  O   UNL A   1      32.621  27.972  24.422  1.00  0.00    -0.245 OA
BRANCH   4   6
ATOM      6  C   UNL A   1      33.523  25.757  24.733  1.00  0.00     0.295 C 
ATOM      7  N   UNL A   1      32.335  24.874  24.927  1.00  0.00    -0.315 N 
ATOM      8  C   UNL A   1      32.917  23.521  24.994  1.00  0.00     0.263 C 
ATOM      9  H   UNL A   1      31.663  25.015  24.173  1.00  0.00     0.349 HD
ATOM     10  C   UNL A   1      34.199  23.692  25.790  1.00  0.00     0.068 C 
ATOM     11  C   UNL A   1      34.733  25.040  25.335  1.00  0.00     0.083 C 
BRANCH   7  12
ATOM     12  C   UNL A   1      31.538  25.154  26.151  1.00  0.00     0.364 C 
BRANCH  12  13
ATOM     13  C   UNL A   1      30.100  25.533  25.760  1.00  0.00     0.275 C 
ATOM     14  O   UNL A   1      29.161  25.415  26.546  1.00  0.00    -0.268 OA
ATOM     15  N   UNL A   1      29.952  26.047  24.491  1.00  0.00    -0.347 N 
ATOM     16  H   UNL A   1      30.750  26.155  23.925  1.00  0.00     0.164 HD
BRANCH  15  17
ATOM     17  C   UNL A   1      28.667  26.435  23.961  1.00  0.00     0.151 C 
BRANCH  17  18
ATOM     18  C   UNL A   1      28.621  27.811  23.331  1.00  0.00    -0.029 A 
ATOM     19  C   UNL A   1      27.446  28.562  23.185  1.00  0.00     0.007 A 
ATOM     20  C   UNL A   1      29.831  28.381  22.895  1.00  0.00     0.007 A 
ATOM     21  C   UNL A   1      27.474  29.841  22.620  1.00  0.00     0.021 A 
ATOM     22  C   UNL A   1      29.862  29.657  22.326  1.00  0.00     0.021 A 
ATOM     23  C   UNL A   1      28.682  30.383  22.193  1.00  0.00     0.041 A 
ATOM     24  Cl  UNL A   1      28.720  31.958  21.501  1.00  0.00    -0.084 Cl
ENDBRANCH  17  18
ENDBRANCH  15  17
ENDBRANCH  12  13
ENDBRANCH   7  12
ENDBRANCH   4   6
ENDBRANCH   3   4
ENDBRANCH   2   3
ENDBRANCH   1   2
BRANCH   1  25
ATOM     25  O   UNL A   1      33.963  30.378  27.949  1.00  0.00    -0.374 OA
BRANCH  25  26
ATOM     26  C   UNL A   1      34.318  31.724  27.631  1.00  0.00     0.202 C 
BRANCH  26  27
ATOM     27  C   UNL A   1      33.203  32.776  27.683  1.00  0.00     0.261 C 
BRANCH  27  28
ATOM     28  O   UNL A   1      33.689  34.098  27.981  1.00  0.00    -0.460 OA
BRANCH  28  29
ATOM     29  C   UNL A   1      33.542  34.474  29.275  1.00  0.00     0.338 C 
ATOM     30  O   UNL A   1      32.564  35.021  29.775  1.00  0.00    -0.246 OA
BRANCH  29  31
ATOM     31  C   UNL A   1      34.667  33.995  30.096  1.00  0.00     0.060 A 
ATOM     32  C   UNL A   1      35.961  34.344  29.689  1.00  0.00     0.016 A 
ATOM     33  C   UNL A   1      34.470  33.112  31.160  1.00  0.00     0.016 A 
ATOM     34  C   UNL A   1      37.067  33.763  30.306  1.00  0.00     0.010 A 
ATOM     35  C   UNL A   1      35.583  32.525  31.773  1.00  0.00     0.010 A 
ATOM     36  C   UNL A   1      36.884  32.815  31.321  1.00  0.00    -0.014 A 
BRANCH  36  37
ATOM     37  C   UNL A   1      38.045  32.026  31.802  1.00  0.00     0.031 A 
ATOM     38  C   UNL A   1      38.674  32.373  33.124  1.00  0.00     0.074 A 
ATOM     39  C   UNL A   1      38.527  31.001  31.076  1.00  0.00     0.049 A 
ATOM     40  N   UNL A   1      39.687  31.812  33.731  1.00  0.00    -0.248 NA
ATOM     41  C   UNL A   1      38.083  33.503  33.861  1.00  0.00     0.031 C 
ATOM     42  C   UNL A   1      38.003  30.565  29.783  1.00  0.00     0.029 A 
ATOM     43  N   UNL A   1      39.578  30.153  31.320  1.00  0.00    -0.354 N 
ATOM     44  C   UNL A   1      39.871  32.530  34.907  1.00  0.00     0.074 A 
ATOM     45  C   UNL A   1      38.874  33.578  34.921  1.00  0.00     0.031 C 
ATOM     46  C   UNL A   1      38.751  29.542  29.334  1.00  0.00     0.029 A 
ATOM     47  C   UNL A   1      39.814  29.265  30.298  1.00  0.00     0.049 A 
ATOM     48  H   UNL A   1      40.111  30.180  32.146  1.00  0.00     0.167 HD
ATOM     49  C   UNL A   1      40.773  32.324  35.896  1.00  0.00     0.034 A 
ATOM     50  C   UNL A   1      40.785  28.341  30.154  1.00  0.00     0.034 A 
ATOM     51  C   UNL A   1      41.751  31.269  35.895  1.00  0.00     0.049 A 
ATOM     52  C   UNL A   1      41.793  28.147  31.256  1.00  0.00     0.074 A 
ATOM     53  C   UNL A   1      42.674  30.951  36.874  1.00  0.00     0.029 A 
ATOM     54  N   UNL A   1      41.938  30.367  34.860  1.00  0.00    -0.354 N 
ATOM     55  N   UNL A   1      41.874  28.752  32.416  1.00  0.00    -0.248 NA
ATOM     56  C   UNL A   1      42.823  27.119  31.044  1.00  0.00     0.031 C 
ATOM     57  C   UNL A   1      43.435  29.866  36.421  1.00  0.00     0.029 A 
ATOM     58  C   UNL A   1      42.971  29.498  35.168  1.00  0.00     0.049 A 
ATOM     59  H   UNL A   1      41.414  30.346  34.027  1.00  0.00     0.167 HD
ATOM     60  C   UNL A   1      42.939  28.157  33.085  1.00  0.00     0.074 A 
ATOM     61  C   UNL A   1      43.461  27.131  32.207  1.00  0.00     0.031 C 
ATOM     62  C   UNL A   1      43.448  28.445  34.309  1.00  0.00     0.034 A 
BRANCH  49  63
ATOM     63  C   UNL A   1      40.720  33.246  37.087  1.00  0.00     0.023 A 
ATOM     64  C   UNL A   1      39.764  33.018  38.097  1.00  0.00     0.012 A 
ATOM     65  C   UNL A   1      41.640  34.302  37.230  1.00  0.00     0.148 A 
ATOM     66  C   UNL A   1      39.703  33.847  39.216  1.00  0.00     0.002 A 
ATOM     67  C   UNL A   1      41.597  35.101  38.367  1.00  0.00     0.091 A 
ATOM     68  F   UNL A   1      42.524  34.520  36.246  1.00  0.00    -0.205 F 
ATOM     69  C   UNL A   1      40.624  34.882  39.356  1.00  0.00     0.022 A 
BRANCH  67  70
ATOM     70  S   UNL A   1      42.787  36.414  38.665  1.00  0.00     0.127 S 
ATOM     71  O   UNL A   1      44.035  35.661  38.778  1.00  0.00    -0.237 OA
ATOM     72  O   UNL A   1      42.670  37.222  37.451  1.00  0.00    -0.237 OA
ATOM     73  O   UNL A   1      42.344  37.083  39.881  1.00  0.00    -0.744 OA
ENDBRANCH  67  70
ENDBRANCH  49  63
BRANCH  50  74
ATOM     74  C   UNL A   1      40.822  27.494  28.929  1.00  0.00     0.023 A 
ATOM     75  C   UNL A   1      39.859  26.482  28.756  1.00  0.00     0.012 A 
ATOM     76  C   UNL A   1      41.786  27.705  27.925  1.00  0.00     0.148 A 
ATOM     77  C   UNL A   1      39.867  25.681  27.613  1.00  0.00     0.002 A 
ATOM     78  C   UNL A   1      41.758  26.939  26.767  1.00  0.00     0.091 A 
ATOM     79  F   UNL A   1      42.707  28.661  28.121  1.00  0.00    -0.205 F 
ATOM     80  C   UNL A   1      40.808  25.918  26.614  1.00  0.00     0.022 A 
BRANCH  78  81
ATOM     81  S   UNL A   1      42.854  27.256  25.379  1.00  0.00     0.127 S 
ATOM     82  O   UNL A   1      44.123  27.510  26.053  1.00  0.00    -0.237 OA
ATOM     83  O   UNL A   1      42.785  25.991  24.646  1.00  0.00    -0.237 OA
ATOM     84  O   UNL A   1      42.272  28.390  24.673  1.00  0.00    -0.744 OA
ENDBRANCH  78  81
ENDBRANCH  50  74
BRANCH  62  85
ATOM     85  C   UNL A   1      44.616  27.625  34.793  1.00  0.00     0.023 A 
ATOM     86  C   UNL A   1      45.929  28.083  34.570  1.00  0.00     0.012 A 
ATOM     87  C   UNL A   1      44.411  26.446  35.536  1.00  0.00     0.148 A 
ATOM     88  C   UNL A   1      47.022  27.366  35.055  1.00  0.00     0.002 A 
ATOM     89  C   UNL A   1      45.504  25.759  36.054  1.00  0.00     0.091 A 
ATOM     90  F   UNL A   1      43.155  26.014  35.721  1.00  0.00    -0.205 F 
ATOM     91  C   UNL A   1      46.810  26.212  35.806  1.00  0.00     0.022 A 
BRANCH  89  92
ATOM     92  S   UNL A   1      45.319  24.318  37.111  1.00  0.00     0.127 S 
ATOM     93  O   UNL A   1      46.698  24.073  37.528  1.00  0.00    -0.237 OA
ATOM     94  O   UNL A   1      44.440  24.815  38.169  1.00  0.00    -0.237 OA
ATOM     95  O   UNL A   1      44.724  23.284  36.273  1.00  0.00    -0.744 OA
ENDBRANCH  89  92
ENDBRANCH  62  85
ENDBRANCH  36  37
ENDBRANCH  29  31
ENDBRANCH  28  29
ENDBRANCH  27  28
ENDBRANCH  26  27
ENDBRANCH  25  26
ENDBRANCH   1  25
TORSDOF 21
ENDMDL
MODEL 2
REMARK VINA RESULT:     -10.2      2.525      8.331
REMARK SMILES O=C(C[N@@H+]1CCC[C@@H]1C(=O)OCCOCCOC(=O)c1ccc(-c2c3nc(c(-c4cccc(S(=O)(=O)[O-])c4F)c4ccc([nH]4)c(-c4cccc(S(=O)(=O)[O-])c4F)c4nc(c(-c5cccc(S(=O)(=O)[O-])c5F)c5ccc2[nH]5)C=C4)C=C3)cc1)NCc1ccc(Cl)cc1
REMARK SMILES IDX 13 1 12 2 11 3 9 4 10 5 8 6 4 7 5 8 6 10 7 11 3 12 2 13 1 14
REMARK SMILES IDX 83 15 84 17 85 18 86 19 91 20 87 21 90 22 88 23 89 24 14 25
REMARK SMILES IDX 15 26 16 27 17 28 18 29 19 30 20 31 21 32 82 33 22 34 81 35
REMARK SMILES IDX 23 36 24 37 25 38 75 39 26 40 80 41 74 42 76 43 27 44 79 45
REMARK SMILES IDX 73 46 72 47 28 49 60 50 40 51 59 52 41 53 44 54 58 55 77 56
REMARK SMILES IDX 42 57 43 58 57 60 78 61 45 62 29 63 30 64 38 65 31 66 33 67
REMARK SMILES IDX 39 68 32 69 34 70 35 71 36 72 37 73 61 74 62 75 70 76 63 77
REMARK SMILES IDX 65 78 71 79 64 80 66 81 67 82 68 83 69 84 46 85 47 86 55 87
REMARK SMILES IDX 48 88 50 89 56 90 49 91 51 92 52 93 53 94 54 95
REMARK H PARENT 4 9 83 16 76 48 44 59
REMARK Flexibility Score: inf
ROOT
ATOM      1  C   UNL A   1      34.379  30.124  27.497  1.00  0.00     0.202 C 
ENDROOT
BRANCH   1   2
ATOM      2  C   UNL A   1      34.408  28.850  26.652  1.00  0.00     0.261 C 
BRANCH   2   3
ATOM      3  O   UNL A   1      33.098  28.493  26.184  1.00  0.00    -0.459 OA
BRANCH   3   4
ATOM      4  C   UNL A   1      32.805  28.828  24.900  1.00  0.00     0.365 C 
ATOM      5  O   UNL A   1      33.512  29.520  24.173  1.00  0.00    -0.245 OA
BRANCH   4   6
ATOM      6  C   UNL A   1      31.433  28.328  24.456  1.00  0.00     0.295 C 
ATOM      7  N   UNL A   1      31.482  27.126  23.574  1.00  0.00    -0.315 N 
ATOM      8  C   UNL A   1      30.176  27.148  22.887  1.00  0.00     0.263 C 
ATOM      9  H   UNL A   1      31.660  26.288  24.128  1.00  0.00     0.349 HD
ATOM     10  C   UNL A   1      29.921  28.616  22.595  1.00  0.00     0.068 C 
ATOM     11  C   UNL A   1      30.474  29.333  23.815  1.00  0.00     0.083 C 
BRANCH   7  12
ATOM     12  C   UNL A   1      32.588  27.120  22.579  1.00  0.00     0.364 C 
BRANCH  12  13
ATOM     13  C   UNL A   1      32.886  25.677  22.141  1.00  0.00     0.275 C 
ATOM     14  O   UNL A   1      33.288  25.412  21.010  1.00  0.00    -0.268 OA
ATOM     15  N   UNL A   1      32.709  24.718  23.115  1.00  0.00    -0.347 N 
ATOM     16  H   UNL A   1      32.425  25.001  24.014  1.00  0.00     0.164 HD
BRANCH  15  17
ATOM     17  C   UNL A   1      32.928  23.314  22.864  1.00  0.00     0.151 C 
BRANCH  17  18
ATOM     18  C   UNL A   1      34.229  22.760  23.405  1.00  0.00    -0.029 A 
ATOM     19  C   UNL A   1      35.491  23.273  23.073  1.00  0.00     0.007 A 
ATOM     20  C   UNL A   1      34.165  21.690  24.315  1.00  0.00     0.007 A 
ATOM     21  C   UNL A   1      36.656  22.734  23.630  1.00  0.00     0.021 A 
ATOM     22  C   UNL A   1      35.327  21.147  24.869  1.00  0.00     0.021 A 
ATOM     23  C   UNL A   1      36.569  21.673  24.525  1.00  0.00     0.041 A 
ATOM     24  Cl  UNL A   1      38.000  21.013  25.214  1.00  0.00    -0.084 Cl
ENDBRANCH  17  18
ENDBRANCH  15  17
ENDBRANCH  12  13
ENDBRANCH   7  12
ENDBRANCH   4   6
ENDBRANCH   3   4
ENDBRANCH   2   3
ENDBRANCH   1   2
BRANCH   1  25
ATOM     25  O   UNL A   1      33.128  30.807  27.563  1.00  0.00    -0.374 OA
BRANCH  25  26
ATOM     26  C   UNL A   1      33.045  32.111  26.987  1.00  0.00     0.202 C 
BRANCH  26  27
ATOM     27  C   UNL A   1      32.152  33.137  27.696  1.00  0.00     0.261 C 
BRANCH  27  28
ATOM     28  O   UNL A   1      32.801  34.407  27.894  1.00  0.00    -0.460 OA
BRANCH  28  29
ATOM     29  C   UNL A   1      33.198  34.644  29.169  1.00  0.00     0.338 C 
ATOM     30  O   UNL A   1      32.611  35.320  30.007  1.00  0.00    -0.246 OA
BRANCH  29  31
ATOM     31  C   UNL A   1      34.384  33.841  29.512  1.00  0.00     0.060 A 
ATOM     32  C   UNL A   1      34.204  32.760  30.384  1.00  0.00     0.016 A 
ATOM     33  C   UNL A   1      35.664  34.217  29.100  1.00  0.00     0.016 A 
ATOM     34  C   UNL A   1      35.310  32.087  30.898  1.00  0.00     0.010 A 
ATOM     35  C   UNL A   1      36.773  33.543  29.623  1.00  0.00     0.010 A 
ATOM     36  C   UNL A   1      36.604  32.504  30.556  1.00  0.00    -0.014 A 
BRANCH  36  37
ATOM     37  C   UNL A   1      37.768  31.947  31.289  1.00  0.00     0.031 A 
ATOM     38  C   UNL A   1      38.557  30.823  30.673  1.00  0.00     0.074 A 
ATOM     39  C   UNL A   1      38.129  32.446  32.485  1.00  0.00     0.049 A 
ATOM     40  N   UNL A   1      39.607  30.198  31.137  1.00  0.00    -0.248 NA
ATOM     41  C   UNL A   1      38.101  30.340  29.359  1.00  0.00     0.031 C 
ATOM     42  C   UNL A   1      37.450  33.534  33.184  1.00  0.00     0.029 A 
ATOM     43  N   UNL A   1      39.150  32.087  33.328  1.00  0.00    -0.354 N 
ATOM     44  C   UNL A   1      39.926  29.234  30.187  1.00  0.00     0.074 A 
ATOM     45  C   UNL A   1      38.948  29.347  29.127  1.00  0.00     0.031 C 
ATOM     46  C   UNL A   1      38.059  33.740  34.364  1.00  0.00     0.029 A 
ATOM     47  C   UNL A   1      39.159  32.789  34.509  1.00  0.00     0.049 A 
ATOM     48  H   UNL A   1      39.812  31.393  33.107  1.00  0.00     0.167 HD
ATOM     49  C   UNL A   1      40.952  28.350  30.186  1.00  0.00     0.034 A 
ATOM     50  C   UNL A   1      39.956  32.668  35.589  1.00  0.00     0.034 A 
ATOM     51  C   UNL A   1      41.938  28.251  31.227  1.00  0.00     0.049 A 
ATOM     52  C   UNL A   1      41.075  31.660  35.575  1.00  0.00     0.074 A 
ATOM     53  C   UNL A   1      43.042  27.420  31.291  1.00  0.00     0.029 A 
ATOM     54  N   UNL A   1      41.935  29.002  32.393  1.00  0.00    -0.354 N 
ATOM     55  N   UNL A   1      41.438  30.843  34.616  1.00  0.00    -0.248 NA
ATOM     56  C   UNL A   1      41.916  31.580  36.779  1.00  0.00     0.031 C 
ATOM     57  C   UNL A   1      43.696  27.655  32.506  1.00  0.00     0.029 A 
ATOM     58  C   UNL A   1      43.010  28.646  33.189  1.00  0.00     0.049 A 
ATOM     59  H   UNL A   1      41.267  29.688  32.620  1.00  0.00     0.167 HD
ATOM     60  C   UNL A   1      42.566  30.178  35.086  1.00  0.00     0.074 A 
ATOM     61  C   UNL A   1      42.837  30.701  36.408  1.00  0.00     0.031 C 
ATOM     62  C   UNL A   1      43.301  29.211  34.482  1.00  0.00     0.034 A 
BRANCH  49  63
ATOM     63  C   UNL A   1      41.078  27.436  28.995  1.00  0.00     0.023 A 
ATOM     64  C   UNL A   1      40.267  26.286  28.915  1.00  0.00     0.012 A 
ATOM     65  C   UNL A   1      41.959  27.735  27.938  1.00  0.00     0.148 A 
ATOM     66  C   UNL A   1      40.353  25.431  27.818  1.00  0.00     0.002 A 
ATOM     67  C   UNL A   1      42.012  26.898  26.829  1.00  0.00     0.091 A 
ATOM     68  F   UNL A   1      42.743  28.818  28.044  1.00  0.00    -0.205 F 
ATOM     69  C   UNL A   1      41.218  25.740  26.772  1.00  0.00     0.022 A 
BRANCH  67  70
ATOM     70  S   UNL A   1      43.046  27.254  25.404  1.00  0.00     0.127 S 
ATOM     71  O   UNL A   1      43.081  25.955  24.733  1.00  0.00    -0.237 OA
ATOM     72  O   UNL A   1      42.272  28.280  24.706  1.00  0.00    -0.237 OA
ATOM     73  O   UNL A   1      44.317  27.718  25.942  1.00  0.00    -0.744 OA
ENDBRANCH  67  70
ENDBRANCH  49  63
BRANCH  50  74
ATOM     74  C   UNL A   1      39.750  33.562  36.763  1.00  0.00     0.023 A 
ATOM     75  C   UNL A   1      40.211  34.891  36.712  1.00  0.00     0.012 A 
ATOM     76  C   UNL A   1      39.076  33.112  37.914  1.00  0.00     0.148 A 
ATOM     77  C   UNL A   1      40.023  35.751  37.795  1.00  0.00     0.002 A 
ATOM     78  C   UNL A   1      38.847  33.987  38.969  1.00  0.00     0.091 A 
ATOM     79  F   UNL A   1      38.665  31.836  37.949  1.00  0.00    -0.205 F 
ATOM     80  C   UNL A   1      39.331  35.302  38.917  1.00  0.00     0.022 A 
BRANCH  78  81
ATOM     81  S   UNL A   1      37.860  33.530  40.398  1.00  0.00     0.127 S 
ATOM     82  O   UNL A   1      36.608  33.110  39.774  1.00  0.00    -0.237 OA
ATOM     83  O   UNL A   1      38.654  32.447  40.979  1.00  0.00    -0.237 OA
ATOM     84  O   UNL A   1      37.786  34.729  41.222  1.00  0.00    -0.744 OA
ENDBRANCH  78  81
ENDBRANCH  50  74
BRANCH  62  85
ATOM     85  C   UNL A   1      44.491  28.666  35.229  1.00  0.00     0.023 A 
ATOM     86  C   UNL A   1      45.780  29.158  34.941  1.00  0.00     0.012 A 
ATOM     87  C   UNL A   1      44.324  27.729  36.268  1.00  0.00     0.148 A 
ATOM     88  C   UNL A   1      46.887  28.704  35.657  1.00  0.00     0.002 A 
ATOM     89  C   UNL A   1      45.427  27.315  37.006  1.00  0.00     0.091 A 
ATOM     90  F   UNL A   1      43.093  27.257  36.513  1.00  0.00    -0.205 F 
ATOM     91  C   UNL A   1      46.710  27.793  36.696  1.00  0.00     0.022 A 
BRANCH  89  92
ATOM     92  S   UNL A   1      45.277  26.216  38.420  1.00  0.00     0.127 S 
ATOM     93  O   UNL A   1      45.334  24.901  37.785  1.00  0.00    -0.237 OA
ATOM     94  O   UNL A   1      46.458  26.562  39.212  1.00  0.00    -0.237 OA
ATOM     95  O   UNL A   1      44.009  26.554  39.055  1.00  0.00    -0.744 OA
ENDBRANCH  89  92
ENDBRANCH  62  85
ENDBRANCH  36  37
ENDBRANCH  29  31
ENDBRANCH  28  29
ENDBRANCH  27  28
ENDBRANCH  26  27
ENDBRANCH  25  26
ENDBRANCH   1  25
TORSDOF 21
ENDMDL
MODEL 3
REMARK VINA RESULT:     -10.0      2.628      8.363
REMARK SMILES O=C(C[N@@H+]1CCC[C@@H]1C(=O)OCCOCCOC(=O)c1ccc(-c2c3nc(c(-c4cccc(S(=O)(=O)[O-])c4F)c4ccc([nH]4)c(-c4cccc(S(=O)(=O)[O-])c4F)c4nc(c(-c5cccc(S(=O)(=O)[O-])c5F)c5ccc2[nH]5)C=C4)C=C3)cc1)NCc1ccc(Cl)cc1
REMARK SMILES IDX 13 1 12 2 11 3 9 4 10 5 8 6 4 7 5 8 6 10 7 11 3 12 2 13 1 14
REMARK SMILES IDX 83 15 84 17 85 18 86 19 91 20 87 21 90 22 88 23 89 24 14 25
REMARK SMILES IDX 15 26 16 27 17 28 18 29 19 30 20 31 21 32 82 33 22 34 81 35
REMARK SMILES IDX 23 36 24 37 25 38 75 39 26 40 80 41 74 42 76 43 27 44 79 45
REMARK SMILES IDX 73 46 72 47 28 49 60 50 40 51 59 52 41 53 44 54 58 55 77 56
REMARK SMILES IDX 42 57 43 58 57 60 78 61 45 62 29 63 30 64 38 65 31 66 33 67
REMARK SMILES IDX 39 68 32 69 34 70 35 71 36 72 37 73 61 74 62 75 70 76 63 77
REMARK SMILES IDX 65 78 71 79 64 80 66 81 67 82 68 83 69 84 46 85 47 86 55 87
REMARK SMILES IDX 48 88 50 89 56 90 49 91 51 92 52 93 53 94 54 95
REMARK H PARENT 4 9 83 16 76 48 44 59
REMARK Flexibility Score: inf
ROOT
ATOM      1  C   UNL A   1      34.392  28.986  26.995  1.00  0.00     0.202 C 
ENDROOT
BRANCH   1   2
ATOM      2  C   UNL A   1      33.777  27.929  26.077  1.00  0.00     0.261 C 
BRANCH   2   3
ATOM      3  O   UNL A   1      32.457  28.299  25.650  1.00  0.00    -0.459 OA
BRANCH   3   4
ATOM      4  C   UNL A   1      31.424  27.721  26.316  1.00  0.00     0.365 C 
ATOM      5  O   UNL A   1      31.143  27.923  27.494  1.00  0.00    -0.245 OA
BRANCH   4   6
ATOM      6  C   UNL A   1      30.673  26.696  25.470  1.00  0.00     0.295 C 
ATOM      7  N   UNL A   1      30.806  25.292  25.958  1.00  0.00    -0.315 N 
ATOM      8  C   UNL A   1      30.473  24.482  24.772  1.00  0.00     0.263 C 
ATOM      9  H   UNL A   1      30.201  25.140  26.765  1.00  0.00     0.349 HD
ATOM     10  C   UNL A   1      31.111  25.220  23.609  1.00  0.00     0.068 C 
ATOM     11  C   UNL A   1      30.924  26.686  23.961  1.00  0.00     0.083 C 
BRANCH   7  12
ATOM     12  C   UNL A   1      32.155  24.930  26.469  1.00  0.00     0.364 C 
BRANCH  12  13
ATOM     13  C   UNL A   1      32.179  23.445  26.868  1.00  0.00     0.275 C 
ATOM     14  O   UNL A   1      31.313  22.953  27.590  1.00  0.00    -0.268 OA
ATOM     15  N   UNL A   1      33.209  22.707  26.327  1.00  0.00    -0.347 N 
ATOM     16  H   UNL A   1      33.846  23.152  25.723  1.00  0.00     0.164 HD
BRANCH  15  17
ATOM     17  C   UNL A   1      33.387  21.305  26.615  1.00  0.00     0.151 C 
BRANCH  17  18
ATOM     18  C   UNL A   1      33.076  20.369  25.466  1.00  0.00    -0.029 A 
ATOM     19  C   UNL A   1      33.064  18.971  25.581  1.00  0.00     0.007 A 
ATOM     20  C   UNL A   1      32.751  20.934  24.221  1.00  0.00     0.007 A 
ATOM     21  C   UNL A   1      32.740  18.161  24.488  1.00  0.00     0.021 A 
ATOM     22  C   UNL A   1      32.432  20.128  23.125  1.00  0.00     0.021 A 
ATOM     23  C   UNL A   1      32.426  18.743  23.264  1.00  0.00     0.041 A 
ATOM     24  Cl  UNL A   1      32.023  17.749  21.920  1.00  0.00    -0.084 Cl
ENDBRANCH  17  18
ENDBRANCH  15  17
ENDBRANCH  12  13
ENDBRANCH   7  12
ENDBRANCH   4   6
ENDBRANCH   3   4
ENDBRANCH   2   3
ENDBRANCH   1   2
BRANCH   1  25
ATOM     25  O   UNL A   1      34.129  30.346  26.653  1.00  0.00    -0.374 OA
BRANCH  25  26
ATOM     26  C   UNL A   1      33.397  31.142  27.585  1.00  0.00     0.202 C 
BRANCH  26  27
ATOM     27  C   UNL A   1      33.917  32.558  27.863  1.00  0.00     0.261 C 
BRANCH  27  28
ATOM     28  O   UNL A   1      32.863  33.504  28.123  1.00  0.00    -0.460 OA
BRANCH  28  29
ATOM     29  C   UNL A   1      33.264  34.634  28.757  1.00  0.00     0.338 C 
ATOM     30  O   UNL A   1      32.744  35.741  28.683  1.00  0.00    -0.246 OA
BRANCH  29  31
ATOM     31  C   UNL A   1      34.347  34.347  29.713  1.00  0.00     0.060 A 
ATOM     32  C   UNL A   1      35.659  34.622  29.307  1.00  0.00     0.016 A 
ATOM     33  C   UNL A   1      34.099  33.699  30.924  1.00  0.00     0.016 A 
ATOM     34  C   UNL A   1      36.734  34.193  30.083  1.00  0.00     0.010 A 
ATOM     35  C   UNL A   1      35.180  33.264  31.698  1.00  0.00     0.010 A 
ATOM     36  C   UNL A   1      36.502  33.471  31.262  1.00  0.00    -0.014 A 
BRANCH  36  37
ATOM     37  C   UNL A   1      37.639  32.813  31.950  1.00  0.00     0.031 A 
ATOM     38  C   UNL A   1      38.319  31.641  31.294  1.00  0.00     0.074 A 
ATOM     39  C   UNL A   1      38.075  33.262  33.141  1.00  0.00     0.049 A 
ATOM     40  N   UNL A   1      39.330  30.928  31.716  1.00  0.00    -0.248 NA
ATOM     41  C   UNL A   1      37.788  31.216  29.988  1.00  0.00     0.031 C 
ATOM     42  C   UNL A   1      37.504  34.389  33.876  1.00  0.00     0.029 A 
ATOM     43  N   UNL A   1      39.089  32.811  33.946  1.00  0.00    -0.354 N 
ATOM     44  C   UNL A   1      39.544  29.958  30.743  1.00  0.00     0.074 A 
ATOM     45  C   UNL A   1      38.547  30.165  29.716  1.00  0.00     0.031 C 
ATOM     46  C   UNL A   1      38.163  34.527  35.039  1.00  0.00     0.029 A 
ATOM     47  C   UNL A   1      39.188  33.490  35.137  1.00  0.00     0.049 A 
ATOM     48  H   UNL A   1      39.688  32.071  33.696  1.00  0.00     0.167 HD
ATOM     49  C   UNL A   1      40.497  28.997  30.697  1.00  0.00     0.034 A 
ATOM     50  C   UNL A   1      40.006  33.289  36.190  1.00  0.00     0.034 A 
ATOM     51  C   UNL A   1      41.503  28.804  31.706  1.00  0.00     0.049 A 
ATOM     52  C   UNL A   1      41.041  32.197  36.127  1.00  0.00     0.074 A 
ATOM     53  C   UNL A   1      42.540  27.888  31.724  1.00  0.00     0.029 A 
ATOM     54  N   UNL A   1      41.593  29.533  32.881  1.00  0.00    -0.354 N 
ATOM     55  N   UNL A   1      41.309  31.371  35.145  1.00  0.00    -0.248 NA
ATOM     56  C   UNL A   1      41.908  32.033  37.303  1.00  0.00     0.031 C 
ATOM     57  C   UNL A   1      43.246  28.051  32.921  1.00  0.00     0.029 A 
ATOM     58  C   UNL A   1      42.660  29.081  33.639  1.00  0.00     0.049 A 
ATOM     59  H   UNL A   1      40.989  30.265  33.139  1.00  0.00     0.167 HD
ATOM     60  C   UNL A   1      42.395  30.612  35.570  1.00  0.00     0.074 A 
ATOM     61  C   UNL A   1      42.746  31.090  36.891  1.00  0.00     0.031 C 
ATOM     62  C   UNL A   1      43.034  29.601  34.930  1.00  0.00     0.034 A 
BRANCH  49  63
ATOM     63  C   UNL A   1      40.515  28.095  29.490  1.00  0.00     0.023 A 
ATOM     64  C   UNL A   1      39.613  27.014  29.419  1.00  0.00     0.012 A 
ATOM     65  C   UNL A   1      41.385  28.341  28.412  1.00  0.00     0.148 A 
ATOM     66  C   UNL A   1      39.599  26.173  28.308  1.00  0.00     0.002 A 
ATOM     67  C   UNL A   1      41.339  27.521  27.290  1.00  0.00     0.091 A 
ATOM     68  F   UNL A   1      42.255  29.357  28.508  1.00  0.00    -0.205 F 
ATOM     69  C   UNL A   1      40.454  26.431  27.240  1.00  0.00     0.022 A 
BRANCH  67  70
ATOM     70  S   UNL A   1      42.356  27.818  25.838  1.00  0.00     0.127 S 
ATOM     71  O   UNL A   1      41.911  26.751  24.943  1.00  0.00    -0.237 OA
ATOM     72  O   UNL A   1      41.941  29.162  25.438  1.00  0.00    -0.237 OA
ATOM     73  O   UNL A   1      43.736  27.723  26.295  1.00  0.00    -0.744 OA
ENDBRANCH  67  70
ENDBRANCH  49  63
BRANCH  50  74
ATOM     74  C   UNL A   1      39.906  34.178  37.382  1.00  0.00     0.023 A 
ATOM     75  C   UNL A   1      40.461  35.470  37.332  1.00  0.00     0.012 A 
ATOM     76  C   UNL A   1      39.241  33.759  38.550  1.00  0.00     0.148 A 
ATOM     77  C   UNL A   1      40.373  36.324  38.432  1.00  0.00     0.002 A 
ATOM     78  C   UNL A   1      39.112  34.632  39.623  1.00  0.00     0.091 A 
ATOM     79  F   UNL A   1      38.738  32.516  38.582  1.00  0.00    -0.205 F 
ATOM     80  C   UNL A   1      39.688  35.910  39.571  1.00  0.00     0.022 A 
BRANCH  78  81
ATOM     81  S   UNL A   1      38.143  34.225  41.080  1.00  0.00     0.127 S 
ATOM     82  O   UNL A   1      36.965  33.598  40.489  1.00  0.00    -0.237 OA
ATOM     83  O   UNL A   1      39.038  33.312  41.792  1.00  0.00    -0.237 OA
ATOM     84  O   UNL A   1      37.912  35.492  41.762  1.00  0.00    -0.744 OA
ENDBRANCH  78  81
ENDBRANCH  50  74
BRANCH  62  85
ATOM     85  C   UNL A   1      44.199  28.953  35.632  1.00  0.00     0.023 A 
ATOM     86  C   UNL A   1      45.500  29.456  35.434  1.00  0.00     0.012 A 
ATOM     87  C   UNL A   1      43.996  27.899  36.545  1.00  0.00     0.148 A 
ATOM     88  C   UNL A   1      46.585  28.903  36.114  1.00  0.00     0.002 A 
ATOM     89  C   UNL A   1      45.076  27.382  37.252  1.00  0.00     0.091 A 
ATOM     90  F   UNL A   1      42.754  27.419  36.704  1.00  0.00    -0.205 F 
ATOM     91  C   UNL A   1      46.372  27.876  37.031  1.00  0.00     0.022 A 
BRANCH  89  92
ATOM     92  S   UNL A   1      44.880  26.123  38.519  1.00  0.00     0.127 S 
ATOM     93  O   UNL A   1      44.848  24.898  37.722  1.00  0.00    -0.237 OA
ATOM     94  O   UNL A   1      46.090  26.296  39.323  1.00  0.00    -0.237 OA
ATOM     95  O   UNL A   1      43.644  26.451  39.218  1.00  0.00    -0.744 OA
ENDBRANCH  89  92
ENDBRANCH  62  85
ENDBRANCH  36  37
ENDBRANCH  29  31
ENDBRANCH  28  29
ENDBRANCH  27  28
ENDBRANCH  26  27
ENDBRANCH  25  26
ENDBRANCH   1  25
TORSDOF 21
ENDMDL
