MODEL 1
REMARK VINA RESULT:     -11.1      0.000      0.000
REMARK SMILES C[C@@H](C(=O)OCCOCCOC(=O)c1ccc(-c2c3nc(c(-c4cccc(S(=O)(=O)[O-])c4F)c4ccc([nH]4)c(-c4cccc(S(=O)(=O)[O-])c4F)c4nc(c(-c5cccc(S(=O)(=O)[O-])c5F)c5ccc2[nH]5)C=C4)C=C3)cc1)c1ccc(O[C@H]2CCCC2=O)cc1F
REMARK SMILES IDX 8 1 7 2 6 3 5 4 3 5 4 6 2 7 1 8 77 9 78 10 89 11 79 12 88 13
REMARK SMILES IDX 90 14 80 15 81 16 82 17 83 18 86 19 84 20 85 21 87 22 9 23
REMARK SMILES IDX 10 24 11 25 12 26 13 27 14 28 15 29 76 30 16 31 75 32 17 33
REMARK SMILES IDX 18 34 19 35 69 36 20 37 74 38 68 39 70 40 21 41 73 42 67 43
REMARK SMILES IDX 66 44 22 46 54 47 34 48 53 49 35 50 38 51 52 52 71 53 36 54
REMARK SMILES IDX 37 55 51 57 72 58 39 59 23 60 24 61 32 62 25 63 27 64 33 65
REMARK SMILES IDX 26 66 28 67 29 68 30 69 31 70 55 71 56 72 64 73 57 74 59 75
REMARK SMILES IDX 65 76 58 77 60 78 61 79 62 80 63 81 40 82 41 83 49 84 42 85
REMARK SMILES IDX 44 86 50 87 43 88 45 89 46 90 47 91 48 92
REMARK H PARENT 70 45 38 56
REMARK Flexibility Score: inf
ROOT
ATOM      1  O   UNL A   1      31.776  29.262  23.921  1.00  0.00    -0.374 OA
ENDROOT
BRANCH   1   2
ATOM      2  C   UNL A   1      31.142  28.234  23.158  1.00  0.00     0.202 C 
BRANCH   2   3
ATOM      3  C   UNL A   1      30.363  27.182  23.953  1.00  0.00     0.261 C 
BRANCH   3   4
ATOM      4  O   UNL A   1      31.233  26.120  24.367  1.00  0.00    -0.463 OA
BRANCH   4   5
ATOM      5  C   UNL A   1      31.350  25.923  25.709  1.00  0.00     0.313 C 
ATOM      6  O   UNL A   1      30.396  25.839  26.475  1.00  0.00    -0.252 OA
BRANCH   5   7
ATOM      7  C   UNL A   1      32.806  25.698  26.142  1.00  0.00     0.129 C 
ATOM      8  C   UNL A   1      33.715  26.850  25.679  1.00  0.00     0.025 C 
BRANCH   7   9
ATOM      9  C   UNL A   1      33.350  24.301  25.808  1.00  0.00     0.002 A 
ATOM     10  C   UNL A   1      34.160  24.052  24.688  1.00  0.00     0.011 A 
ATOM     11  C   UNL A   1      32.974  23.176  26.557  1.00  0.00     0.130 A 
ATOM     12  C   UNL A   1      34.547  22.747  24.346  1.00  0.00     0.047 A 
ATOM     13  C   UNL A   1      33.371  21.873  26.227  1.00  0.00     0.086 A 
ATOM     14  F   UNL A   1      32.180  23.312  27.629  1.00  0.00    -0.207 F 
ATOM     15  C   UNL A   1      34.150  21.646  25.106  1.00  0.00     0.123 A 
BRANCH  15  16
ATOM     16  O   UNL A   1      34.573  20.452  24.612  1.00  0.00    -0.483 OA
BRANCH  16  17
ATOM     17  C   UNL A   1      33.763  19.304  24.584  1.00  0.00     0.239 C 
ATOM     18  C   UNL A   1      32.496  19.486  23.737  1.00  0.00     0.054 C 
ATOM     19  C   UNL A   1      34.229  17.891  24.236  1.00  0.00     0.173 C 
ATOM     20  C   UNL A   1      32.447  18.320  22.755  1.00  0.00     0.012 C 
ATOM     21  C   UNL A   1      33.211  17.171  23.396  1.00  0.00     0.080 C 
ATOM     22  O   UNL A   1      35.263  17.372  24.634  1.00  0.00    -0.296 OA
ENDBRANCH  16  17
ENDBRANCH  15  16
ENDBRANCH   7   9
ENDBRANCH   5   7
ENDBRANCH   4   5
ENDBRANCH   3   4
ENDBRANCH   2   3
ENDBRANCH   1   2
BRANCH   1  23
ATOM     23  C   UNL A   1      31.013  29.882  24.959  1.00  0.00     0.202 C 
BRANCH  23  24
ATOM     24  C   UNL A   1      31.710  30.098  26.309  1.00  0.00     0.261 C 
BRANCH  24  25
ATOM     25  O   UNL A   1      33.075  30.534  26.180  1.00  0.00    -0.460 OA
BRANCH  25  26
ATOM     26  C   UNL A   1      33.469  31.447  27.100  1.00  0.00     0.338 C 
ATOM     27  O   UNL A   1      32.787  32.347  27.584  1.00  0.00    -0.246 OA
BRANCH  26  28
ATOM     28  C   UNL A   1      34.813  31.132  27.610  1.00  0.00     0.060 A 
ATOM     29  C   UNL A   1      35.106  29.787  27.873  1.00  0.00     0.016 A 
ATOM     30  C   UNL A   1      35.735  32.132  27.927  1.00  0.00     0.016 A 
ATOM     31  C   UNL A   1      36.302  29.440  28.499  1.00  0.00     0.010 A 
ATOM     32  C   UNL A   1      36.933  31.783  28.563  1.00  0.00     0.010 A 
ATOM     33  C   UNL A   1      37.205  30.440  28.885  1.00  0.00    -0.014 A 
BRANCH  33  34
ATOM     34  C   UNL A   1      38.366  30.086  29.741  1.00  0.00     0.031 A 
ATOM     35  C   UNL A   1      39.384  29.102  29.229  1.00  0.00     0.074 A 
ATOM     36  C   UNL A   1      38.521  30.647  30.953  1.00  0.00     0.049 A 
ATOM     37  N   UNL A   1      40.464  28.652  29.812  1.00  0.00    -0.248 NA
ATOM     38  C   UNL A   1      39.153  28.552  27.883  1.00  0.00     0.031 C 
ATOM     39  C   UNL A   1      37.606  31.612  31.559  1.00  0.00     0.029 A 
ATOM     40  N   UNL A   1      39.496  30.463  31.902  1.00  0.00    -0.354 N 
ATOM     41  C   UNL A   1      41.031  27.752  28.917  1.00  0.00     0.074 A 
ATOM     42  C   UNL A   1      40.166  27.708  27.758  1.00  0.00     0.031 C 
ATOM     43  C   UNL A   1      38.047  31.914  32.793  1.00  0.00     0.029 A 
ATOM     44  C   UNL A   1      39.262  31.151  33.069  1.00  0.00     0.049 A 
ATOM     45  H   UNL A   1      40.286  29.894  31.760  1.00  0.00     0.167 HD
ATOM     46  C   UNL A   1      42.177  27.041  29.040  1.00  0.00     0.034 A 
ATOM     47  C   UNL A   1      39.941  31.149  34.235  1.00  0.00     0.034 A 
ATOM     48  C   UNL A   1      43.048  27.098  30.183  1.00  0.00     0.049 A 
ATOM     49  C   UNL A   1      41.203  30.334  34.353  1.00  0.00     0.074 A 
ATOM     50  C   UNL A   1      44.252  26.447  30.381  1.00  0.00     0.029 A 
ATOM     51  N   UNL A   1      42.803  27.843  31.326  1.00  0.00    -0.354 N 
ATOM     52  N   UNL A   1      41.790  29.585  33.451  1.00  0.00    -0.248 NA
ATOM     53  C   UNL A   1      41.916  30.392  35.638  1.00  0.00     0.031 C 
ATOM     54  C   UNL A   1      44.726  26.781  31.654  1.00  0.00     0.029 A 
ATOM     55  C   UNL A   1      43.828  27.659  32.239  1.00  0.00     0.049 A 
ATOM     56  H   UNL A   1      42.016  28.416  31.468  1.00  0.00     0.167 HD
ATOM     57  C   UNL A   1      42.954  29.111  34.046  1.00  0.00     0.074 A 
ATOM     58  C   UNL A   1      43.001  29.675  35.380  1.00  0.00     0.031 C 
ATOM     59  C   UNL A   1      43.892  28.272  33.541  1.00  0.00     0.034 A 
BRANCH  46  60
ATOM     60  C   UNL A   1      42.579  26.160  27.885  1.00  0.00     0.023 A 
ATOM     61  C   UNL A   1      43.515  26.634  26.944  1.00  0.00     0.012 A 
ATOM     62  C   UNL A   1      42.077  24.850  27.763  1.00  0.00     0.148 A 
ATOM     63  C   UNL A   1      43.925  25.828  25.883  1.00  0.00     0.002 A 
ATOM     64  C   UNL A   1      42.521  24.039  26.725  1.00  0.00     0.091 A 
ATOM     65  F   UNL A   1      41.170  24.426  28.654  1.00  0.00    -0.205 F 
ATOM     66  C   UNL A   1      43.437  24.529  25.779  1.00  0.00     0.022 A 
BRANCH  64  67
ATOM     67  S   UNL A   1      42.006  22.326  26.547  1.00  0.00     0.127 S 
ATOM     68  O   UNL A   1      40.565  22.472  26.343  1.00  0.00    -0.237 OA
ATOM     69  O   UNL A   1      42.749  21.901  25.360  1.00  0.00    -0.237 OA
ATOM     70  O   UNL A   1      42.400  21.660  27.780  1.00  0.00    -0.744 OA
ENDBRANCH  64  67
ENDBRANCH  46  60
BRANCH  47  71
ATOM     71  C   UNL A   1      39.457  31.975  35.377  1.00  0.00     0.023 A 
ATOM     72  C   UNL A   1      38.574  31.414  36.320  1.00  0.00     0.012 A 
ATOM     73  C   UNL A   1      39.883  33.308  35.541  1.00  0.00     0.148 A 
ATOM     74  C   UNL A   1      38.103  32.174  37.391  1.00  0.00     0.002 A 
ATOM     75  C   UNL A   1      39.453  34.041  36.641  1.00  0.00     0.091 A 
ATOM     76  F   UNL A   1      40.706  33.830  34.621  1.00  0.00    -0.205 F 
ATOM     77  C   UNL A   1      38.550  33.483  37.558  1.00  0.00     0.022 A 
BRANCH  75  78
ATOM     78  S   UNL A   1      40.081  35.686  37.002  1.00  0.00     0.127 S 
ATOM     79  O   UNL A   1      39.596  36.449  35.856  1.00  0.00    -0.237 OA
ATOM     80  O   UNL A   1      39.419  35.990  38.271  1.00  0.00    -0.237 OA
ATOM     81  O   UNL A   1      41.526  35.537  37.102  1.00  0.00    -0.744 OA
ENDBRANCH  75  78
ENDBRANCH  47  71
BRANCH  59  82
ATOM     82  C   UNL A   1      45.073  27.930  34.413  1.00  0.00     0.023 A 
ATOM     83  C   UNL A   1      46.190  28.789  34.445  1.00  0.00     0.012 A 
ATOM     84  C   UNL A   1      45.042  26.805  35.261  1.00  0.00     0.148 A 
ATOM     85  C   UNL A   1      47.270  28.516  35.283  1.00  0.00     0.002 A 
ATOM     86  C   UNL A   1      46.103  26.565  36.126  1.00  0.00     0.091 A 
ATOM     87  F   UNL A   1      43.979  25.989  35.203  1.00  0.00    -0.205 F 
ATOM     88  C   UNL A   1      47.222  27.413  36.131  1.00  0.00     0.022 A 
BRANCH  86  89
ATOM     89  S   UNL A   1      46.084  25.221  37.320  1.00  0.00     0.127 S 
ATOM     90  O   UNL A   1      44.888  25.532  38.099  1.00  0.00    -0.237 OA
ATOM     91  O   UNL A   1      45.963  24.042  36.462  1.00  0.00    -0.237 OA
ATOM     92  O   UNL A   1      47.346  25.312  38.043  1.00  0.00    -0.744 OA
ENDBRANCH  86  89
ENDBRANCH  59  82
ENDBRANCH  33  34
ENDBRANCH  26  28
ENDBRANCH  25  26
ENDBRANCH  24  25
ENDBRANCH  23  24
ENDBRANCH   1  23
TORSDOF 20
ENDMDL
MODEL 2
REMARK VINA RESULT:     -11.1      1.219      7.872
REMARK SMILES C[C@@H](C(=O)OCCOCCOC(=O)c1ccc(-c2c3nc(c(-c4cccc(S(=O)(=O)[O-])c4F)c4ccc([nH]4)c(-c4cccc(S(=O)(=O)[O-])c4F)c4nc(c(-c5cccc(S(=O)(=O)[O-])c5F)c5ccc2[nH]5)C=C4)C=C3)cc1)c1ccc(O[C@H]2CCCC2=O)cc1F
REMARK SMILES IDX 8 1 7 2 6 3 5 4 3 5 4 6 2 7 1 8 77 9 78 10 89 11 79 12 88 13
REMARK SMILES IDX 90 14 80 15 81 16 82 17 83 18 86 19 84 20 85 21 87 22 9 23
REMARK SMILES IDX 10 24 11 25 12 26 13 27 14 28 15 29 76 30 16 31 75 32 17 33
REMARK SMILES IDX 18 34 19 35 69 36 20 37 74 38 68 39 70 40 21 41 73 42 67 43
REMARK SMILES IDX 66 44 22 46 54 47 34 48 53 49 35 50 38 51 52 52 71 53 36 54
REMARK SMILES IDX 37 55 51 57 72 58 39 59 23 60 24 61 32 62 25 63 27 64 33 65
REMARK SMILES IDX 26 66 28 67 29 68 30 69 31 70 55 71 56 72 64 73 57 74 59 75
REMARK SMILES IDX 65 76 58 77 60 78 61 79 62 80 63 81 40 82 41 83 49 84 42 85
REMARK SMILES IDX 44 86 50 87 43 88 45 89 46 90 47 91 48 92
REMARK H PARENT 70 45 38 56
REMARK Flexibility Score: inf
ROOT
ATOM      1  O   UNL A   1      31.393  28.959  26.427  1.00  0.00    -0.374 OA
ENDROOT
BRANCH   1   2
ATOM      2  C   UNL A   1      31.861  27.678  25.999  1.00  0.00     0.202 C 
BRANCH   2   3
ATOM      3  C   UNL A   1      33.350  27.394  26.216  1.00  0.00     0.261 C 
BRANCH   3   4
ATOM      4  O   UNL A   1      33.890  26.669  25.103  1.00  0.00    -0.463 OA
BRANCH   4   5
ATOM      5  C   UNL A   1      33.811  25.312  25.170  1.00  0.00     0.313 C 
ATOM      6  O   UNL A   1      33.414  24.696  26.154  1.00  0.00    -0.252 OA
BRANCH   5   7
ATOM      7  C   UNL A   1      34.161  24.639  23.835  1.00  0.00     0.129 C 
ATOM      8  C   UNL A   1      33.631  25.450  22.640  1.00  0.00     0.025 C 
BRANCH   7   9
ATOM      9  C   UNL A   1      33.815  23.143  23.777  1.00  0.00     0.002 A 
ATOM     10  C   UNL A   1      32.615  22.665  23.226  1.00  0.00     0.011 A 
ATOM     11  C   UNL A   1      34.644  22.182  24.374  1.00  0.00     0.130 A 
ATOM     12  C   UNL A   1      32.277  21.305  23.290  1.00  0.00     0.047 A 
ATOM     13  C   UNL A   1      34.316  20.820  24.427  1.00  0.00     0.086 A 
ATOM     14  F   UNL A   1      35.798  22.547  24.950  1.00  0.00    -0.207 F 
ATOM     15  C   UNL A   1      33.117  20.372  23.898  1.00  0.00     0.123 A 
BRANCH  15  16
ATOM     16  O   UNL A   1      32.620  19.107  23.914  1.00  0.00    -0.483 OA
BRANCH  16  17
ATOM     17  C   UNL A   1      33.311  18.019  24.475  1.00  0.00     0.239 C 
ATOM     18  C   UNL A   1      32.740  17.580  25.829  1.00  0.00     0.054 C 
ATOM     19  C   UNL A   1      33.619  16.699  23.769  1.00  0.00     0.173 C 
ATOM     20  C   UNL A   1      32.485  16.079  25.739  1.00  0.00     0.012 C 
ATOM     21  C   UNL A   1      33.449  15.530  24.698  1.00  0.00     0.080 C 
ATOM     22  O   UNL A   1      34.018  16.592  22.616  1.00  0.00    -0.296 OA
ENDBRANCH  16  17
ENDBRANCH  15  16
ENDBRANCH   7   9
ENDBRANCH   5   7
ENDBRANCH   4   5
ENDBRANCH   3   4
ENDBRANCH   2   3
ENDBRANCH   1   2
BRANCH   1  23
ATOM     23  C   UNL A   1      31.556  30.058  25.527  1.00  0.00     0.202 C 
BRANCH  23  24
ATOM     24  C   UNL A   1      31.752  31.449  26.146  1.00  0.00     0.261 C 
BRANCH  24  25
ATOM     25  O   UNL A   1      32.464  31.420  27.396  1.00  0.00    -0.460 OA
BRANCH  25  26
ATOM     26  C   UNL A   1      33.365  32.418  27.560  1.00  0.00     0.338 C 
ATOM     27  O   UNL A   1      33.137  33.625  27.544  1.00  0.00    -0.246 OA
BRANCH  26  28
ATOM     28  C   UNL A   1      34.680  31.880  27.944  1.00  0.00     0.060 A 
ATOM     29  C   UNL A   1      34.766  30.504  28.200  1.00  0.00     0.016 A 
ATOM     30  C   UNL A   1      35.783  32.709  28.155  1.00  0.00     0.016 A 
ATOM     31  C   UNL A   1      35.942  29.961  28.714  1.00  0.00     0.010 A 
ATOM     32  C   UNL A   1      36.961  32.162  28.679  1.00  0.00     0.010 A 
ATOM     33  C   UNL A   1      37.033  30.793  28.995  1.00  0.00    -0.014 A 
BRANCH  33  34
ATOM     34  C   UNL A   1      38.195  30.248  29.742  1.00  0.00     0.031 A 
ATOM     35  C   UNL A   1      38.441  30.707  31.154  1.00  0.00     0.074 A 
ATOM     36  C   UNL A   1      39.011  29.342  29.176  1.00  0.00     0.049 A 
ATOM     37  N   UNL A   1      39.395  30.364  31.981  1.00  0.00    -0.248 NA
ATOM     38  C   UNL A   1      37.487  31.682  31.708  1.00  0.00     0.031 C 
ATOM     39  C   UNL A   1      38.878  28.818  27.818  1.00  0.00     0.029 A 
ATOM     40  N   UNL A   1      40.133  28.721  29.670  1.00  0.00    -0.354 N 
ATOM     41  C   UNL A   1      39.171  31.095  33.143  1.00  0.00     0.074 A 
ATOM     42  C   UNL A   1      38.000  31.911  32.909  1.00  0.00     0.031 C 
ATOM     43  C   UNL A   1      39.898  27.976  27.574  1.00  0.00     0.029 A 
ATOM     44  C   UNL A   1      40.763  27.916  28.750  1.00  0.00     0.049 A 
ATOM     45  H   UNL A   1      40.453  28.841  30.592  1.00  0.00     0.167 HD
ATOM     46  C   UNL A   1      39.865  31.073  34.305  1.00  0.00     0.034 A 
ATOM     47  C   UNL A   1      41.919  27.227  28.842  1.00  0.00     0.034 A 
ATOM     48  C   UNL A   1      41.018  30.247  34.546  1.00  0.00     0.049 A 
ATOM     49  C   UNL A   1      42.683  27.234  30.140  1.00  0.00     0.074 A 
ATOM     50  C   UNL A   1      41.762  30.126  35.706  1.00  0.00     0.029 A 
ATOM     51  N   UNL A   1      41.600  29.409  33.607  1.00  0.00    -0.354 N 
ATOM     52  N   UNL A   1      42.388  27.834  31.268  1.00  0.00    -0.248 NA
ATOM     53  C   UNL A   1      43.922  26.442  30.189  1.00  0.00     0.031 C 
ATOM     54  C   UNL A   1      42.808  29.229  35.462  1.00  0.00     0.029 A 
ATOM     55  C   UNL A   1      42.701  28.775  34.158  1.00  0.00     0.049 A 
ATOM     56  H   UNL A   1      41.278  29.285  32.686  1.00  0.00     0.167 HD
ATOM     57  C   UNL A   1      43.383  27.466  32.168  1.00  0.00     0.074 A 
ATOM     58  C   UNL A   1      44.277  26.573  31.460  1.00  0.00     0.031 C 
ATOM     59  C   UNL A   1      43.551  27.844  33.460  1.00  0.00     0.034 A 
BRANCH  46  60
ATOM     60  C   UNL A   1      39.373  31.948  35.428  1.00  0.00     0.023 A 
ATOM     61  C   UNL A   1      38.472  31.420  36.375  1.00  0.00     0.012 A 
ATOM     62  C   UNL A   1      39.842  33.268  35.579  1.00  0.00     0.148 A 
ATOM     63  C   UNL A   1      38.023  32.201  37.440  1.00  0.00     0.002 A 
ATOM     64  C   UNL A   1      39.420  34.026  36.666  1.00  0.00     0.091 A 
ATOM     65  F   UNL A   1      40.679  33.759  34.656  1.00  0.00    -0.205 F 
ATOM     66  C   UNL A   1      38.505  33.498  37.591  1.00  0.00     0.022 A 
BRANCH  64  67
ATOM     67  S   UNL A   1      40.038  35.683  36.988  1.00  0.00     0.127 S 
ATOM     68  O   UNL A   1      39.350  36.016  38.234  1.00  0.00    -0.237 OA
ATOM     69  O   UNL A   1      41.477  35.454  37.128  1.00  0.00    -0.237 OA
ATOM     70  O   UNL A   1      39.661  36.482  35.830  1.00  0.00    -0.744 OA
ENDBRANCH  64  67
ENDBRANCH  46  60
BRANCH  47  71
ATOM     71  C   UNL A   1      42.407  26.440  27.673  1.00  0.00     0.023 A 
ATOM     72  C   UNL A   1      43.264  27.044  26.734  1.00  0.00     0.012 A 
ATOM     73  C   UNL A   1      42.041  25.091  27.502  1.00  0.00     0.148 A 
ATOM     74  C   UNL A   1      43.725  26.328  25.629  1.00  0.00     0.002 A 
ATOM     75  C   UNL A   1      42.548  24.367  26.429  1.00  0.00     0.091 A 
ATOM     76  F   UNL A   1      41.208  24.540  28.396  1.00  0.00    -0.205 F 
ATOM     77  C   UNL A   1      43.377  24.986  25.482  1.00  0.00     0.022 A 
BRANCH  75  78
ATOM     78  S   UNL A   1      42.256  22.604  26.238  1.00  0.00     0.127 S 
ATOM     79  O   UNL A   1      40.801  22.553  26.121  1.00  0.00    -0.237 OA
ATOM     80  O   UNL A   1      42.985  22.308  25.004  1.00  0.00    -0.237 OA
ATOM     81  O   UNL A   1      42.821  21.984  27.429  1.00  0.00    -0.744 OA
ENDBRANCH  75  78
ENDBRANCH  47  71
BRANCH  59  82
ATOM     82  C   UNL A   1      44.725  27.274  34.213  1.00  0.00     0.023 A 
ATOM     83  C   UNL A   1      45.922  28.012  34.302  1.00  0.00     0.012 A 
ATOM     84  C   UNL A   1      44.616  26.048  34.898  1.00  0.00     0.148 A 
ATOM     85  C   UNL A   1      47.002  27.524  35.036  1.00  0.00     0.002 A 
ATOM     86  C   UNL A   1      45.681  25.590  35.665  1.00  0.00     0.091 A 
ATOM     87  F   UNL A   1      43.475  25.352  34.786  1.00  0.00    -0.205 F 
ATOM     88  C   UNL A   1      46.878  26.321  35.727  1.00  0.00     0.022 A 
BRANCH  86  89
ATOM     89  S   UNL A   1      45.576  24.099  36.663  1.00  0.00     0.127 S 
ATOM     90  O   UNL A   1      46.983  23.727  36.791  1.00  0.00    -0.237 OA
ATOM     91  O   UNL A   1      44.960  24.591  37.896  1.00  0.00    -0.237 OA
ATOM     92  O   UNL A   1      44.747  23.170  35.907  1.00  0.00    -0.744 OA
ENDBRANCH  86  89
ENDBRANCH  59  82
ENDBRANCH  33  34
ENDBRANCH  26  28
ENDBRANCH  25  26
ENDBRANCH  24  25
ENDBRANCH  23  24
ENDBRANCH   1  23
TORSDOF 20
ENDMDL
MODEL 3
REMARK VINA RESULT:     -10.9      1.679      8.052
REMARK SMILES C[C@@H](C(=O)OCCOCCOC(=O)c1ccc(-c2c3nc(c(-c4cccc(S(=O)(=O)[O-])c4F)c4ccc([nH]4)c(-c4cccc(S(=O)(=O)[O-])c4F)c4nc(c(-c5cccc(S(=O)(=O)[O-])c5F)c5ccc2[nH]5)C=C4)C=C3)cc1)c1ccc(O[C@H]2CCCC2=O)cc1F
REMARK SMILES IDX 8 1 7 2 6 3 5 4 3 5 4 6 2 7 1 8 77 9 78 10 89 11 79 12 88 13
REMARK SMILES IDX 90 14 80 15 81 16 82 17 83 18 86 19 84 20 85 21 87 22 9 23
REMARK SMILES IDX 10 24 11 25 12 26 13 27 14 28 15 29 76 30 16 31 75 32 17 33
REMARK SMILES IDX 18 34 19 35 69 36 20 37 74 38 68 39 70 40 21 41 73 42 67 43
REMARK SMILES IDX 66 44 22 46 54 47 34 48 53 49 35 50 38 51 52 52 71 53 36 54
REMARK SMILES IDX 37 55 51 57 72 58 39 59 23 60 24 61 32 62 25 63 27 64 33 65
REMARK SMILES IDX 26 66 28 67 29 68 30 69 31 70 55 71 56 72 64 73 57 74 59 75
REMARK SMILES IDX 65 76 58 77 60 78 61 79 62 80 63 81 40 82 41 83 49 84 42 85
REMARK SMILES IDX 44 86 50 87 43 88 45 89 46 90 47 91 48 92
REMARK H PARENT 70 45 38 56
REMARK Flexibility Score: inf
ROOT
ATOM      1  O   UNL A   1      32.369  30.472  25.848  1.00  0.00    -0.374 OA
ENDROOT
BRANCH   1   2
ATOM      2  C   UNL A   1      32.587  29.297  26.631  1.00  0.00     0.202 C 
BRANCH   2   3
ATOM      3  C   UNL A   1      32.327  27.959  25.933  1.00  0.00     0.261 C 
BRANCH   3   4
ATOM      4  O   UNL A   1      31.129  28.028  25.148  1.00  0.00    -0.463 OA
BRANCH   4   5
ATOM      5  C   UNL A   1      31.276  27.855  23.806  1.00  0.00     0.313 C 
ATOM      6  O   UNL A   1      31.979  28.566  23.095  1.00  0.00    -0.252 OA
BRANCH   5   7
ATOM      7  C   UNL A   1      30.557  26.596  23.297  1.00  0.00     0.129 C 
ATOM      8  C   UNL A   1      29.139  26.482  23.884  1.00  0.00     0.025 C 
BRANCH   7   9
ATOM      9  C   UNL A   1      31.388  25.309  23.417  1.00  0.00     0.002 A 
ATOM     10  C   UNL A   1      31.246  24.414  24.489  1.00  0.00     0.011 A 
ATOM     11  C   UNL A   1      32.411  25.017  22.503  1.00  0.00     0.130 A 
ATOM     12  C   UNL A   1      32.096  23.307  24.630  1.00  0.00     0.047 A 
ATOM     13  C   UNL A   1      33.253  23.905  22.632  1.00  0.00     0.086 A 
ATOM     14  F   UNL A   1      32.640  25.829  21.461  1.00  0.00    -0.207 F 
ATOM     15  C   UNL A   1      33.112  23.047  23.710  1.00  0.00     0.123 A 
BRANCH  15  16
ATOM     16  O   UNL A   1      33.873  21.963  24.018  1.00  0.00    -0.483 OA
BRANCH  16  17
ATOM     17  C   UNL A   1      34.911  21.999  24.964  1.00  0.00     0.239 C 
ATOM     18  C   UNL A   1      35.854  20.792  24.866  1.00  0.00     0.054 C 
ATOM     19  C   UNL A   1      35.857  23.175  25.205  1.00  0.00     0.173 C 
ATOM     20  C   UNL A   1      37.273  21.342  24.772  1.00  0.00     0.012 C 
ATOM     21  C   UNL A   1      37.264  22.705  25.450  1.00  0.00     0.080 C 
ATOM     22  O   UNL A   1      35.520  24.351  25.261  1.00  0.00    -0.296 OA
ENDBRANCH  16  17
ENDBRANCH  15  16
ENDBRANCH   7   9
ENDBRANCH   5   7
ENDBRANCH   4   5
ENDBRANCH   3   4
ENDBRANCH   2   3
ENDBRANCH   1   2
BRANCH   1  23
ATOM     23  C   UNL A   1      31.229  31.276  26.163  1.00  0.00     0.202 C 
BRANCH  23  24
ATOM     24  C   UNL A   1      31.485  32.600  26.896  1.00  0.00     0.261 C 
BRANCH  24  25
ATOM     25  O   UNL A   1      32.816  33.111  26.697  1.00  0.00    -0.460 OA
BRANCH  25  26
ATOM     26  C   UNL A   1      33.394  33.635  27.804  1.00  0.00     0.338 C 
ATOM     27  O   UNL A   1      32.923  34.495  28.544  1.00  0.00    -0.246 OA
BRANCH  26  28
ATOM     28  C   UNL A   1      34.632  32.913  28.141  1.00  0.00     0.060 A 
ATOM     29  C   UNL A   1      34.508  31.596  28.601  1.00  0.00     0.016 A 
ATOM     30  C   UNL A   1      35.880  33.539  28.112  1.00  0.00     0.016 A 
ATOM     31  C   UNL A   1      35.625  30.913  29.079  1.00  0.00     0.010 A 
ATOM     32  C   UNL A   1      37.000  32.854  28.601  1.00  0.00     0.010 A 
ATOM     33  C   UNL A   1      36.871  31.552  29.121  1.00  0.00    -0.014 A 
BRANCH  33  34
ATOM     34  C   UNL A   1      38.002  30.904  29.830  1.00  0.00     0.031 A 
ATOM     35  C   UNL A   1      38.308  31.304  31.248  1.00  0.00     0.074 A 
ATOM     36  C   UNL A   1      38.739  29.956  29.224  1.00  0.00     0.049 A 
ATOM     37  N   UNL A   1      39.249  30.871  32.046  1.00  0.00    -0.248 NA
ATOM     38  C   UNL A   1      37.439  32.332  31.846  1.00  0.00     0.031 C 
ATOM     39  C   UNL A   1      38.543  29.480  27.856  1.00  0.00     0.029 A 
ATOM     40  N   UNL A   1      39.821  29.241  29.679  1.00  0.00    -0.354 N 
ATOM     41  C   UNL A   1      39.100  31.584  33.231  1.00  0.00     0.074 A 
ATOM     42  C   UNL A   1      37.989  32.490  33.042  1.00  0.00     0.031 C 
ATOM     43  C   UNL A   1      39.493  28.573  27.570  1.00  0.00     0.029 A 
ATOM     44  C   UNL A   1      40.373  28.418  28.727  1.00  0.00     0.049 A 
ATOM     45  H   UNL A   1      40.166  29.312  30.598  1.00  0.00     0.167 HD
ATOM     46  C   UNL A   1      39.812  31.480  34.378  1.00  0.00     0.034 A 
ATOM     47  C   UNL A   1      41.476  27.643  28.777  1.00  0.00     0.034 A 
ATOM     48  C   UNL A   1      40.905  30.565  34.574  1.00  0.00     0.049 A 
ATOM     49  C   UNL A   1      42.262  27.559  30.059  1.00  0.00     0.074 A 
ATOM     50  C   UNL A   1      41.659  30.358  35.715  1.00  0.00     0.029 A 
ATOM     51  N   UNL A   1      41.406  29.713  33.603  1.00  0.00    -0.354 N 
ATOM     52  N   UNL A   1      42.033  28.148  31.208  1.00  0.00    -0.248 NA
ATOM     53  C   UNL A   1      43.439  26.677  30.063  1.00  0.00     0.031 C 
ATOM     54  C   UNL A   1      42.631  29.394  35.428  1.00  0.00     0.029 A 
ATOM     55  C   UNL A   1      42.467  28.984  34.114  1.00  0.00     0.049 A 
ATOM     56  H   UNL A   1      41.059  29.637  32.685  1.00  0.00     0.167 HD
ATOM     57  C   UNL A   1      43.014  27.683  32.079  1.00  0.00     0.074 A 
ATOM     58  C   UNL A   1      43.827  26.747  31.329  1.00  0.00     0.031 C 
ATOM     59  C   UNL A   1      43.233  28.013  33.376  1.00  0.00     0.034 A 
BRANCH  46  60
ATOM     60  C   UNL A   1      39.406  32.358  35.533  1.00  0.00     0.023 A 
ATOM     61  C   UNL A   1      38.592  31.828  36.555  1.00  0.00     0.012 A 
ATOM     62  C   UNL A   1      39.874  33.683  35.637  1.00  0.00     0.148 A 
ATOM     63  C   UNL A   1      38.226  32.612  37.648  1.00  0.00     0.002 A 
ATOM     64  C   UNL A   1      39.537  34.444  36.750  1.00  0.00     0.091 A 
ATOM     65  F   UNL A   1      40.628  34.175  34.644  1.00  0.00    -0.205 F 
ATOM     66  C   UNL A   1      38.706  33.914  37.751  1.00  0.00     0.022 A 
BRANCH  64  67
ATOM     67  S   UNL A   1      40.164  36.108  37.010  1.00  0.00     0.127 S 
ATOM     68  O   UNL A   1      39.360  36.551  38.148  1.00  0.00    -0.237 OA
ATOM     69  O   UNL A   1      41.573  35.863  37.318  1.00  0.00    -0.237 OA
ATOM     70  O   UNL A   1      39.931  36.823  35.763  1.00  0.00    -0.744 OA
ENDBRANCH  64  67
ENDBRANCH  46  60
BRANCH  47  71
ATOM     71  C   UNL A   1      41.883  26.854  27.579  1.00  0.00     0.023 A 
ATOM     72  C   UNL A   1      42.503  27.503  26.494  1.00  0.00     0.012 A 
ATOM     73  C   UNL A   1      41.676  25.462  27.521  1.00  0.00     0.148 A 
ATOM     74  C   UNL A   1      42.884  26.784  25.361  1.00  0.00     0.002 A 
ATOM     75  C   UNL A   1      42.108  24.744  26.412  1.00  0.00     0.091 A 
ATOM     76  F   UNL A   1      41.066  24.866  28.555  1.00  0.00    -0.205 F 
ATOM     77  C   UNL A   1      42.697  25.404  25.324  1.00  0.00     0.022 A 
BRANCH  75  78
ATOM     78  S   UNL A   1      42.025  22.950  26.340  1.00  0.00     0.127 S 
ATOM     79  O   UNL A   1      40.586  22.715  26.417  1.00  0.00    -0.237 OA
ATOM     80  O   UNL A   1      42.627  22.672  25.035  1.00  0.00    -0.237 OA
ATOM     81  O   UNL A   1      42.809  22.478  27.472  1.00  0.00    -0.744 OA
ENDBRANCH  75  78
ENDBRANCH  47  71
BRANCH  59  82
ATOM     82  C   UNL A   1      44.375  27.338  34.090  1.00  0.00     0.023 A 
ATOM     83  C   UNL A   1      45.661  27.913  34.050  1.00  0.00     0.012 A 
ATOM     84  C   UNL A   1      44.159  26.182  34.865  1.00  0.00     0.148 A 
ATOM     85  C   UNL A   1      46.720  27.331  34.746  1.00  0.00     0.002 A 
ATOM     86  C   UNL A   1      45.208  25.634  35.593  1.00  0.00     0.091 A 
ATOM     87  F   UNL A   1      42.933  25.639  34.876  1.00  0.00    -0.205 F 
ATOM     88  C   UNL A   1      46.491  26.200  35.526  1.00  0.00     0.022 A 
BRANCH  86  89
ATOM     89  S   UNL A   1      44.984  24.234  36.698  1.00  0.00     0.127 S 
ATOM     90  O   UNL A   1      44.058  24.781  37.687  1.00  0.00    -0.237 OA
ATOM     91  O   UNL A   1      44.403  23.226  35.811  1.00  0.00    -0.237 OA
ATOM     92  O   UNL A   1      46.312  23.902  37.196  1.00  0.00    -0.744 OA
ENDBRANCH  86  89
ENDBRANCH  59  82
ENDBRANCH  33  34
ENDBRANCH  26  28
ENDBRANCH  25  26
ENDBRANCH  24  25
ENDBRANCH  23  24
ENDBRANCH   1  23
TORSDOF 20
ENDMDL
