MODEL 1
REMARK VINA RESULT:     -11.2      0.000      0.000
REMARK SMILES COc1ccccc1-n1nnc(C(=O)OCCOCCOC(=O)c2ccc(-c3c4nc(c(-c5cccc(S(=O)(=O)[O-])c5F)c5ccc([nH]5)c(-c5cccc(S(=O)(=O)[O-])c5F)c5nc(c(-c6cccc(S(=O)(=O)[O-])c6F)c6ccc3[nH]6)C=C5)C=C4)cc2)c1-c1ccc(Cl)cc1
REMARK SMILES IDX 19 1 18 2 17 3 16 4 15 5 13 6 14 7 12 8 9 9 10 10 87 11
REMARK SMILES IDX 11 12 8 13 3 14 4 15 5 16 7 17 6 18 2 19 1 20 88 21 89 22
REMARK SMILES IDX 94 23 90 24 93 25 91 26 92 27 20 28 21 29 22 30 23 31 24 32
REMARK SMILES IDX 25 33 86 34 26 35 85 36 27 37 28 38 29 39 79 40 30 41 84 42
REMARK SMILES IDX 78 43 80 44 31 45 83 46 77 47 76 48 32 50 64 51 44 52 63 53
REMARK SMILES IDX 45 54 48 55 62 56 81 57 46 58 47 59 61 61 82 62 49 63 33 64
REMARK SMILES IDX 34 65 42 66 35 67 37 68 43 69 36 70 38 71 39 72 40 73 41 74
REMARK SMILES IDX 65 75 66 76 74 77 67 78 69 79 75 80 68 81 70 82 71 83 72 84
REMARK SMILES IDX 73 85 50 86 51 87 59 88 52 89 54 90 60 91 53 92 55 93 56 94
REMARK SMILES IDX 57 95 58 96
REMARK H PARENT 80 49 48 60
REMARK Flexibility Score: inf
ROOT
ATOM      1  C   UNL A   1      33.669  31.149  27.441  1.00  0.00     0.202 C 
ENDROOT
BRANCH   1   2
ATOM      2  O   UNL A   1      33.226  30.063  26.633  1.00  0.00    -0.374 OA
BRANCH   2   3
ATOM      3  C   UNL A   1      32.057  29.332  27.006  1.00  0.00     0.202 C 
BRANCH   3   4
ATOM      4  C   UNL A   1      31.591  28.241  26.048  1.00  0.00     0.261 C 
BRANCH   4   5
ATOM      5  O   UNL A   1      31.096  27.108  26.774  1.00  0.00    -0.458 OA
BRANCH   5   6
ATOM      6  C   UNL A   1      30.768  26.000  26.056  1.00  0.00     0.361 C 
ATOM      7  O   UNL A   1      29.796  25.922  25.305  1.00  0.00    -0.244 OA
BRANCH   6   8
ATOM      8  C   UNL A   1      31.738  24.932  26.213  1.00  0.00     0.198 A 
ATOM      9  N   UNL A   1      33.391  23.541  26.042  1.00  0.00    -0.208 N 
ATOM     10  N   UNL A   1      32.776  23.293  27.223  1.00  0.00    -0.061 NA
ATOM     11  C   UNL A   1      32.641  24.429  25.284  1.00  0.00     0.109 A 
ATOM     12  N   UNL A   1      31.842  24.219  27.384  1.00  0.00    -0.122 NA
BRANCH   9  13
ATOM     13  C   UNL A   1      34.706  23.099  25.823  1.00  0.00     0.109 A 
ATOM     14  C   UNL A   1      35.000  21.730  25.778  1.00  0.00     0.144 A 
ATOM     15  C   UNL A   1      36.331  21.319  25.727  1.00  0.00     0.049 A 
ATOM     16  C   UNL A   1      37.354  22.268  25.673  1.00  0.00     0.004 A 
ATOM     17  C   UNL A   1      35.723  24.055  25.702  1.00  0.00     0.032 A 
ATOM     18  C   UNL A   1      37.051  23.631  25.648  1.00  0.00     0.003 A 
BRANCH  14  19
ATOM     19  O   UNL A   1      34.055  20.736  25.807  1.00  0.00    -0.494 OA
ATOM     20  C   UNL A   1      33.571  20.398  24.504  1.00  0.00     0.278 C 
ENDBRANCH  14  19
ENDBRANCH   9  13
BRANCH  11  21
ATOM     21  C   UNL A   1      32.839  24.705  23.858  1.00  0.00     0.003 A 
ATOM     22  C   UNL A   1      33.045  26.013  23.404  1.00  0.00     0.012 A 
ATOM     23  C   UNL A   1      32.718  23.676  22.911  1.00  0.00     0.012 A 
ATOM     24  C   UNL A   1      33.011  26.309  22.040  1.00  0.00     0.021 A 
ATOM     25  C   UNL A   1      32.710  23.967  21.543  1.00  0.00     0.021 A 
ATOM     26  C   UNL A   1      32.818  25.286  21.116  1.00  0.00     0.041 A 
ATOM     27  Cl  UNL A   1      32.676  25.666  19.446  1.00  0.00    -0.084 Cl
ENDBRANCH  11  21
ENDBRANCH   6   8
ENDBRANCH   5   6
ENDBRANCH   4   5
ENDBRANCH   3   4
ENDBRANCH   2   3
ENDBRANCH   1   2
BRANCH   1  28
ATOM     28  C   UNL A   1      32.684  32.264  27.750  1.00  0.00     0.261 C 
BRANCH  28  29
ATOM     29  O   UNL A   1      33.292  33.545  27.739  1.00  0.00    -0.460 OA
BRANCH  29  30
ATOM     30  C   UNL A   1      33.317  34.138  28.957  1.00  0.00     0.338 C 
ATOM     31  O   UNL A   1      32.447  34.834  29.454  1.00  0.00    -0.246 OA
BRANCH  30  32
ATOM     32  C   UNL A   1      34.667  33.999  29.505  1.00  0.00     0.060 A 
ATOM     33  C   UNL A   1      35.699  34.515  28.722  1.00  0.00     0.016 A 
ATOM     34  C   UNL A   1      34.902  33.099  30.554  1.00  0.00     0.016 A 
ATOM     35  C   UNL A   1      36.938  33.936  28.841  1.00  0.00     0.010 A 
ATOM     36  C   UNL A   1      36.143  32.533  30.684  1.00  0.00     0.010 A 
ATOM     37  C   UNL A   1      37.113  32.890  29.759  1.00  0.00    -0.014 A 
BRANCH  37  38
ATOM     38  C   UNL A   1      38.410  32.263  29.810  1.00  0.00     0.031 A 
ATOM     39  C   UNL A   1      38.362  30.900  29.248  1.00  0.00     0.074 A 
ATOM     40  C   UNL A   1      39.510  32.877  30.283  1.00  0.00     0.049 A 
ATOM     41  N   UNL A   1      38.362  29.796  29.916  1.00  0.00    -0.248 NA
ATOM     42  C   UNL A   1      38.007  30.749  27.829  1.00  0.00     0.031 C 
ATOM     43  C   UNL A   1      39.697  34.291  30.618  1.00  0.00     0.029 A 
ATOM     44  N   UNL A   1      40.755  32.360  30.452  1.00  0.00    -0.354 N 
ATOM     45  C   UNL A   1      38.284  28.798  28.955  1.00  0.00     0.074 A 
ATOM     46  C   UNL A   1      37.819  29.431  27.752  1.00  0.00     0.031 C 
ATOM     47  C   UNL A   1      41.023  34.556  30.692  1.00  0.00     0.029 A 
ATOM     48  C   UNL A   1      41.762  33.313  30.547  1.00  0.00     0.049 A 
ATOM     49  H   UNL A   1      40.928  31.392  30.503  1.00  0.00     0.167 HD
ATOM     50  C   UNL A   1      38.914  27.611  29.157  1.00  0.00     0.034 A 
ATOM     51  C   UNL A   1      43.094  33.081  30.425  1.00  0.00     0.034 A 
ATOM     52  C   UNL A   1      39.238  27.428  30.553  1.00  0.00     0.049 A 
ATOM     53  C   UNL A   1      43.311  31.636  30.685  1.00  0.00     0.074 A 
ATOM     54  C   UNL A   1      38.509  27.392  31.725  1.00  0.00     0.029 A 
ATOM     55  N   UNL A   1      40.540  27.676  30.920  1.00  0.00    -0.354 N 
ATOM     56  N   UNL A   1      43.118  31.086  31.850  1.00  0.00    -0.248 NA
ATOM     57  C   UNL A   1      43.279  30.728  29.549  1.00  0.00     0.031 C 
ATOM     58  C   UNL A   1      39.317  28.073  32.684  1.00  0.00     0.029 A 
ATOM     59  C   UNL A   1      40.524  28.416  32.071  1.00  0.00     0.049 A 
ATOM     60  H   UNL A   1      41.344  27.373  30.440  1.00  0.00     0.167 HD
ATOM     61  C   UNL A   1      42.466  29.895  31.559  1.00  0.00     0.074 A 
ATOM     62  C   UNL A   1      42.687  29.679  30.129  1.00  0.00     0.031 C 
ATOM     63  C   UNL A   1      41.559  29.361  32.429  1.00  0.00     0.034 A 
BRANCH  50  64
ATOM     64  C   UNL A   1      39.632  26.840  28.072  1.00  0.00     0.023 A 
ATOM     65  C   UNL A   1      39.386  25.450  28.016  1.00  0.00     0.012 A 
ATOM     66  C   UNL A   1      40.727  27.327  27.320  1.00  0.00     0.148 A 
ATOM     67  C   UNL A   1      40.232  24.585  27.317  1.00  0.00     0.002 A 
ATOM     68  C   UNL A   1      41.523  26.473  26.568  1.00  0.00     0.091 A 
ATOM     69  F   UNL A   1      41.105  28.602  27.417  1.00  0.00    -0.205 F 
ATOM     70  C   UNL A   1      41.301  25.096  26.592  1.00  0.00     0.022 A 
BRANCH  68  71
ATOM     71  S   UNL A   1      42.899  27.087  25.587  1.00  0.00     0.127 S 
ATOM     72  O   UNL A   1      43.337  25.870  24.908  1.00  0.00    -0.237 OA
ATOM     73  O   UNL A   1      42.235  28.071  24.732  1.00  0.00    -0.237 OA
ATOM     74  O   UNL A   1      43.842  27.661  26.537  1.00  0.00    -0.744 OA
ENDBRANCH  68  71
ENDBRANCH  50  64
BRANCH  51  75
ATOM     75  C   UNL A   1      44.147  33.921  29.802  1.00  0.00     0.023 A 
ATOM     76  C   UNL A   1      45.217  34.400  30.587  1.00  0.00     0.012 A 
ATOM     77  C   UNL A   1      44.269  34.002  28.396  1.00  0.00     0.148 A 
ATOM     78  C   UNL A   1      46.381  34.907  29.994  1.00  0.00     0.002 A 
ATOM     79  C   UNL A   1      45.425  34.509  27.811  1.00  0.00     0.091 A 
ATOM     80  F   UNL A   1      43.293  33.493  27.634  1.00  0.00    -0.205 F 
ATOM     81  C   UNL A   1      46.489  34.952  28.606  1.00  0.00     0.022 A 
BRANCH  79  82
ATOM     82  S   UNL A   1      45.650  34.561  26.027  1.00  0.00     0.127 S 
ATOM     83  O   UNL A   1      44.272  34.468  25.545  1.00  0.00    -0.237 OA
ATOM     84  O   UNL A   1      46.280  35.864  25.839  1.00  0.00    -0.237 OA
ATOM     85  O   UNL A   1      46.480  33.408  25.694  1.00  0.00    -0.744 OA
ENDBRANCH  79  82
ENDBRANCH  51  75
BRANCH  63  86
ATOM     86  C   UNL A   1      41.473  29.952  33.815  1.00  0.00     0.023 A 
ATOM     87  C   UNL A   1      42.355  29.595  34.858  1.00  0.00     0.012 A 
ATOM     88  C   UNL A   1      40.582  31.017  34.015  1.00  0.00     0.148 A 
ATOM     89  C   UNL A   1      42.331  30.277  36.079  1.00  0.00     0.002 A 
ATOM     90  C   UNL A   1      40.594  31.722  35.210  1.00  0.00     0.091 A 
ATOM     91  F   UNL A   1      39.753  31.343  33.011  1.00  0.00    -0.205 F 
ATOM     92  C   UNL A   1      41.459  31.350  36.250  1.00  0.00     0.022 A 
BRANCH  90  93
ATOM     93  S   UNL A   1      39.584  33.187  35.438  1.00  0.00     0.127 S 
ATOM     94  O   UNL A   1      38.232  32.633  35.408  1.00  0.00    -0.237 OA
ATOM     95  O   UNL A   1      40.021  33.669  36.749  1.00  0.00    -0.237 OA
ATOM     96  O   UNL A   1      39.919  34.081  34.335  1.00  0.00    -0.744 OA
ENDBRANCH  90  93
ENDBRANCH  63  86
ENDBRANCH  37  38
ENDBRANCH  30  32
ENDBRANCH  29  30
ENDBRANCH  28  29
ENDBRANCH   1  28
TORSDOF 20
ENDMDL
MODEL 2
REMARK VINA RESULT:     -11.1      3.087      7.039
REMARK SMILES COc1ccccc1-n1nnc(C(=O)OCCOCCOC(=O)c2ccc(-c3c4nc(c(-c5cccc(S(=O)(=O)[O-])c5F)c5ccc([nH]5)c(-c5cccc(S(=O)(=O)[O-])c5F)c5nc(c(-c6cccc(S(=O)(=O)[O-])c6F)c6ccc3[nH]6)C=C5)C=C4)cc2)c1-c1ccc(Cl)cc1
REMARK SMILES IDX 19 1 18 2 17 3 16 4 15 5 13 6 14 7 12 8 9 9 10 10 87 11
REMARK SMILES IDX 11 12 8 13 3 14 4 15 5 16 7 17 6 18 2 19 1 20 88 21 89 22
REMARK SMILES IDX 94 23 90 24 93 25 91 26 92 27 20 28 21 29 22 30 23 31 24 32
REMARK SMILES IDX 25 33 86 34 26 35 85 36 27 37 28 38 29 39 79 40 30 41 84 42
REMARK SMILES IDX 78 43 80 44 31 45 83 46 77 47 76 48 32 50 64 51 44 52 63 53
REMARK SMILES IDX 45 54 48 55 62 56 81 57 46 58 47 59 61 61 82 62 49 63 33 64
REMARK SMILES IDX 34 65 42 66 35 67 37 68 43 69 36 70 38 71 39 72 40 73 41 74
REMARK SMILES IDX 65 75 66 76 74 77 67 78 69 79 75 80 68 81 70 82 71 83 72 84
REMARK SMILES IDX 73 85 50 86 51 87 59 88 52 89 54 90 60 91 53 92 55 93 56 94
REMARK SMILES IDX 57 95 58 96
REMARK H PARENT 80 49 48 60
REMARK Flexibility Score: inf
ROOT
ATOM      1  C   UNL A   1      33.091  29.638  25.938  1.00  0.00     0.202 C 
ENDROOT
BRANCH   1   2
ATOM      2  O   UNL A   1      32.713  28.280  26.140  1.00  0.00    -0.374 OA
BRANCH   2   3
ATOM      3  C   UNL A   1      31.663  27.711  25.355  1.00  0.00     0.202 C 
BRANCH   3   4
ATOM      4  C   UNL A   1      30.875  26.567  25.984  1.00  0.00     0.261 C 
BRANCH   4   5
ATOM      5  O   UNL A   1      31.745  25.694  26.714  1.00  0.00    -0.458 OA
BRANCH   5   6
ATOM      6  C   UNL A   1      31.346  24.404  26.875  1.00  0.00     0.361 C 
ATOM      7  O   UNL A   1      30.175  24.052  27.022  1.00  0.00    -0.244 OA
BRANCH   6   8
ATOM      8  C   UNL A   1      32.450  23.467  26.779  1.00  0.00     0.198 A 
ATOM      9  N   UNL A   1      34.233  22.355  26.250  1.00  0.00    -0.208 N 
ATOM     10  N   UNL A   1      33.781  21.856  27.425  1.00  0.00    -0.061 NA
ATOM     11  C   UNL A   1      33.305  23.233  25.708  1.00  0.00     0.109 A 
ATOM     12  N   UNL A   1      32.763  22.612  27.809  1.00  0.00    -0.122 NA
BRANCH   9  13
ATOM     13  C   UNL A   1      35.563  22.135  25.854  1.00  0.00     0.109 A 
ATOM     14  C   UNL A   1      35.922  20.954  25.189  1.00  0.00     0.144 A 
ATOM     15  C   UNL A   1      37.269  20.686  24.956  1.00  0.00     0.049 A 
ATOM     16  C   UNL A   1      38.243  21.610  25.340  1.00  0.00     0.004 A 
ATOM     17  C   UNL A   1      36.529  23.095  26.182  1.00  0.00     0.032 A 
ATOM     18  C   UNL A   1      37.874  22.815  25.940  1.00  0.00     0.003 A 
BRANCH  14  19
ATOM     19  O   UNL A   1      35.028  20.006  24.761  1.00  0.00    -0.494 OA
ATOM     20  C   UNL A   1      35.586  18.689  24.745  1.00  0.00     0.278 C 
ENDBRANCH  14  19
ENDBRANCH   9  13
BRANCH  11  21
ATOM     21  C   UNL A   1      33.318  23.737  24.333  1.00  0.00     0.003 A 
ATOM     22  C   UNL A   1      33.652  25.070  24.061  1.00  0.00     0.012 A 
ATOM     23  C   UNL A   1      32.890  22.922  23.272  1.00  0.00     0.012 A 
ATOM     24  C   UNL A   1      33.450  25.612  22.790  1.00  0.00     0.021 A 
ATOM     25  C   UNL A   1      32.712  23.457  21.992  1.00  0.00     0.021 A 
ATOM     26  C   UNL A   1      32.957  24.808  21.767  1.00  0.00     0.041 A 
ATOM     27  Cl  UNL A   1      32.615  25.501  20.232  1.00  0.00    -0.084 Cl
ENDBRANCH  11  21
ENDBRANCH   6   8
ENDBRANCH   5   6
ENDBRANCH   4   5
ENDBRANCH   3   4
ENDBRANCH   2   3
ENDBRANCH   1   2
BRANCH   1  28
ATOM     28  C   UNL A   1      33.527  30.450  27.146  1.00  0.00     0.261 C 
BRANCH  28  29
ATOM     29  O   UNL A   1      34.929  30.660  27.182  1.00  0.00    -0.460 OA
BRANCH  29  30
ATOM     30  C   UNL A   1      35.306  31.631  28.049  1.00  0.00     0.338 C 
ATOM     31  O   UNL A   1      34.989  32.809  28.015  1.00  0.00    -0.246 OA
BRANCH  30  32
ATOM     32  C   UNL A   1      36.349  31.087  28.919  1.00  0.00     0.060 A 
ATOM     33  C   UNL A   1      37.531  31.823  28.985  1.00  0.00     0.016 A 
ATOM     34  C   UNL A   1      36.271  29.754  29.348  1.00  0.00     0.016 A 
ATOM     35  C   UNL A   1      38.690  31.139  29.259  1.00  0.00     0.010 A 
ATOM     36  C   UNL A   1      37.426  29.076  29.637  1.00  0.00     0.010 A 
ATOM     37  C   UNL A   1      38.625  29.757  29.489  1.00  0.00    -0.014 A 
BRANCH  37  38
ATOM     38  C   UNL A   1      39.870  29.062  29.708  1.00  0.00     0.031 A 
ATOM     39  C   UNL A   1      40.281  29.144  31.122  1.00  0.00     0.074 A 
ATOM     40  C   UNL A   1      40.529  28.404  28.737  1.00  0.00     0.049 A 
ATOM     41  N   UNL A   1      41.204  29.903  31.608  1.00  0.00    -0.248 NA
ATOM     42  C   UNL A   1      39.407  28.530  32.133  1.00  0.00     0.031 C 
ATOM     43  C   UNL A   1      40.072  28.064  27.387  1.00  0.00     0.029 A 
ATOM     44  N   UNL A   1      41.738  27.788  28.810  1.00  0.00    -0.354 N 
ATOM     45  C   UNL A   1      41.200  29.641  32.971  1.00  0.00     0.074 A 
ATOM     46  C   UNL A   1      39.942  29.008  33.257  1.00  0.00     0.031 C 
ATOM     47  C   UNL A   1      40.871  27.095  26.882  1.00  0.00     0.029 A 
ATOM     48  C   UNL A   1      41.965  26.853  27.808  1.00  0.00     0.049 A 
ATOM     49  H   UNL A   1      42.397  27.988  29.513  1.00  0.00     0.167 HD
ATOM     50  C   UNL A   1      42.363  29.681  33.673  1.00  0.00     0.034 A 
ATOM     51  C   UNL A   1      42.935  25.903  27.808  1.00  0.00     0.034 A 
ATOM     52  C   UNL A   1      43.382  30.402  32.945  1.00  0.00     0.049 A 
ATOM     53  C   UNL A   1      43.982  26.349  28.759  1.00  0.00     0.074 A 
ATOM     54  C   UNL A   1      43.493  31.679  32.433  1.00  0.00     0.029 A 
ATOM     55  N   UNL A   1      44.322  29.644  32.287  1.00  0.00    -0.354 N 
ATOM     56  N   UNL A   1      44.729  27.398  28.554  1.00  0.00    -0.248 NA
ATOM     57  C   UNL A   1      43.874  25.916  30.143  1.00  0.00     0.031 C 
ATOM     58  C   UNL A   1      44.161  31.520  31.183  1.00  0.00     0.029 A 
ATOM     59  C   UNL A   1      44.494  30.171  31.036  1.00  0.00     0.049 A 
ATOM     60  H   UNL A   1      44.790  28.859  32.652  1.00  0.00     0.167 HD
ATOM     61  C   UNL A   1      44.773  28.028  29.791  1.00  0.00     0.074 A 
ATOM     62  C   UNL A   1      44.321  27.019  30.750  1.00  0.00     0.031 C 
ATOM     63  C   UNL A   1      44.875  29.386  29.882  1.00  0.00     0.034 A 
BRANCH  50  64
ATOM     64  C   UNL A   1      42.718  28.709  34.776  1.00  0.00     0.023 A 
ATOM     65  C   UNL A   1      43.304  29.258  35.937  1.00  0.00     0.012 A 
ATOM     66  C   UNL A   1      42.788  27.303  34.627  1.00  0.00     0.148 A 
ATOM     67  C   UNL A   1      43.991  28.461  36.857  1.00  0.00     0.002 A 
ATOM     68  C   UNL A   1      43.409  26.507  35.580  1.00  0.00     0.091 A 
ATOM     69  F   UNL A   1      42.374  26.718  33.502  1.00  0.00    -0.205 F 
ATOM     70  C   UNL A   1      44.044  27.084  36.679  1.00  0.00     0.022 A 
BRANCH  68  71
ATOM     71  S   UNL A   1      43.477  24.718  35.413  1.00  0.00     0.127 S 
ATOM     72  O   UNL A   1      44.255  24.345  36.591  1.00  0.00    -0.237 OA
ATOM     73  O   UNL A   1      42.059  24.363  35.466  1.00  0.00    -0.237 OA
ATOM     74  O   UNL A   1      44.109  24.461  34.126  1.00  0.00    -0.744 OA
ENDBRANCH  68  71
ENDBRANCH  50  64
BRANCH  51  75
ATOM     75  C   UNL A   1      42.892  24.508  27.302  1.00  0.00     0.023 A 
ATOM     76  C   UNL A   1      41.680  23.786  27.340  1.00  0.00     0.012 A 
ATOM     77  C   UNL A   1      43.945  23.994  26.513  1.00  0.00     0.148 A 
ATOM     78  C   UNL A   1      41.512  22.614  26.591  1.00  0.00     0.002 A 
ATOM     79  C   UNL A   1      43.775  22.828  25.773  1.00  0.00     0.091 A 
ATOM     80  F   UNL A   1      45.079  24.699  26.413  1.00  0.00    -0.205 F 
ATOM     81  C   UNL A   1      42.555  22.140  25.799  1.00  0.00     0.022 A 
BRANCH  79  82
ATOM     82  S   UNL A   1      45.065  22.179  24.699  1.00  0.00     0.127 S 
ATOM     83  O   UNL A   1      44.436  20.969  24.168  1.00  0.00    -0.237 OA
ATOM     84  O   UNL A   1      45.227  23.262  23.733  1.00  0.00    -0.237 OA
ATOM     85  O   UNL A   1      46.214  21.928  25.561  1.00  0.00    -0.744 OA
ENDBRANCH  79  82
ENDBRANCH  51  75
BRANCH  63  86
ATOM     86  C   UNL A   1      45.198  30.159  28.627  1.00  0.00     0.023 A 
ATOM     87  C   UNL A   1      44.206  30.620  27.734  1.00  0.00     0.012 A 
ATOM     88  C   UNL A   1      46.526  30.572  28.439  1.00  0.00     0.148 A 
ATOM     89  C   UNL A   1      44.541  31.459  26.665  1.00  0.00     0.002 A 
ATOM     90  C   UNL A   1      46.846  31.443  27.407  1.00  0.00     0.091 A 
ATOM     91  F   UNL A   1      47.453  30.126  29.300  1.00  0.00    -0.205 F 
ATOM     92  C   UNL A   1      45.860  31.881  26.510  1.00  0.00     0.022 A 
BRANCH  90  93
ATOM     93  S   UNL A   1      48.500  32.116  27.236  1.00  0.00     0.127 S 
ATOM     94  O   UNL A   1      49.194  31.044  26.524  1.00  0.00    -0.237 OA
ATOM     95  O   UNL A   1      48.266  33.326  26.446  1.00  0.00    -0.237 OA
ATOM     96  O   UNL A   1      48.971  32.374  28.592  1.00  0.00    -0.744 OA
ENDBRANCH  90  93
ENDBRANCH  63  86
ENDBRANCH  37  38
ENDBRANCH  30  32
ENDBRANCH  29  30
ENDBRANCH  28  29
ENDBRANCH   1  28
TORSDOF 20
ENDMDL
MODEL 3
REMARK VINA RESULT:     -11.0      1.712      2.319
REMARK SMILES COc1ccccc1-n1nnc(C(=O)OCCOCCOC(=O)c2ccc(-c3c4nc(c(-c5cccc(S(=O)(=O)[O-])c5F)c5ccc([nH]5)c(-c5cccc(S(=O)(=O)[O-])c5F)c5nc(c(-c6cccc(S(=O)(=O)[O-])c6F)c6ccc3[nH]6)C=C5)C=C4)cc2)c1-c1ccc(Cl)cc1
REMARK SMILES IDX 19 1 18 2 17 3 16 4 15 5 13 6 14 7 12 8 9 9 10 10 87 11
REMARK SMILES IDX 11 12 8 13 3 14 4 15 5 16 7 17 6 18 2 19 1 20 88 21 89 22
REMARK SMILES IDX 94 23 90 24 93 25 91 26 92 27 20 28 21 29 22 30 23 31 24 32
REMARK SMILES IDX 25 33 86 34 26 35 85 36 27 37 28 38 29 39 79 40 30 41 84 42
REMARK SMILES IDX 78 43 80 44 31 45 83 46 77 47 76 48 32 50 64 51 44 52 63 53
REMARK SMILES IDX 45 54 48 55 62 56 81 57 46 58 47 59 61 61 82 62 49 63 33 64
REMARK SMILES IDX 34 65 42 66 35 67 37 68 43 69 36 70 38 71 39 72 40 73 41 74
REMARK SMILES IDX 65 75 66 76 74 77 67 78 69 79 75 80 68 81 70 82 71 83 72 84
REMARK SMILES IDX 73 85 50 86 51 87 59 88 52 89 54 90 60 91 53 92 55 93 56 94
REMARK SMILES IDX 57 95 58 96
REMARK H PARENT 80 49 48 60
REMARK Flexibility Score: inf
ROOT
ATOM      1  C   UNL A   1      31.307  31.593  26.581  1.00  0.00     0.202 C 
ENDROOT
BRANCH   1   2
ATOM      2  O   UNL A   1      30.542  31.436  25.389  1.00  0.00    -0.374 OA
BRANCH   2   3
ATOM      3  C   UNL A   1      30.905  30.431  24.440  1.00  0.00     0.202 C 
BRANCH   3   4
ATOM      4  C   UNL A   1      29.774  29.810  23.627  1.00  0.00     0.261 C 
BRANCH   4   5
ATOM      5  O   UNL A   1      30.245  28.677  22.887  1.00  0.00    -0.458 OA
BRANCH   5   6
ATOM      6  C   UNL A   1      29.851  27.446  23.311  1.00  0.00     0.361 C 
ATOM      7  O   UNL A   1      28.690  27.145  23.583  1.00  0.00    -0.244 OA
BRANCH   6   8
ATOM      8  C   UNL A   1      30.945  26.493  23.335  1.00  0.00     0.198 A 
ATOM      9  N   UNL A   1      32.662  25.263  23.825  1.00  0.00    -0.208 N 
ATOM     10  N   UNL A   1      32.133  24.778  22.677  1.00  0.00    -0.061 NA
ATOM     11  C   UNL A   1      32.064  26.470  24.160  1.00  0.00     0.109 A 
ATOM     12  N   UNL A   1      31.016  25.452  22.441  1.00  0.00    -0.122 NA
BRANCH   9  13
ATOM     13  C   UNL A   1      33.512  24.462  24.605  1.00  0.00     0.109 A 
ATOM     14  C   UNL A   1      32.982  23.503  25.480  1.00  0.00     0.144 A 
ATOM     15  C   UNL A   1      33.834  22.841  26.361  1.00  0.00     0.049 A 
ATOM     16  C   UNL A   1      35.206  23.098  26.334  1.00  0.00     0.004 A 
ATOM     17  C   UNL A   1      34.894  24.676  24.527  1.00  0.00     0.032 A 
ATOM     18  C   UNL A   1      35.736  24.003  25.413  1.00  0.00     0.003 A 
BRANCH  14  19
ATOM     19  O   UNL A   1      31.652  23.178  25.556  1.00  0.00    -0.494 OA
ATOM     20  C   UNL A   1      31.435  21.859  26.066  1.00  0.00     0.278 C 
ENDBRANCH  14  19
ENDBRANCH   9  13
BRANCH  11  21
ATOM     21  C   UNL A   1      32.566  27.415  25.161  1.00  0.00     0.003 A 
ATOM     22  C   UNL A   1      33.687  28.213  24.895  1.00  0.00     0.012 A 
ATOM     23  C   UNL A   1      32.000  27.460  26.445  1.00  0.00     0.012 A 
ATOM     24  C   UNL A   1      34.300  28.944  25.913  1.00  0.00     0.021 A 
ATOM     25  C   UNL A   1      32.598  28.213  27.460  1.00  0.00     0.021 A 
ATOM     26  C   UNL A   1      33.767  28.921  27.198  1.00  0.00     0.041 A 
ATOM     27  Cl  UNL A   1      34.581  29.741  28.471  1.00  0.00    -0.084 Cl
ENDBRANCH  11  21
ENDBRANCH   6   8
ENDBRANCH   5   6
ENDBRANCH   4   5
ENDBRANCH   3   4
ENDBRANCH   2   3
ENDBRANCH   1   2
BRANCH   1  28
ATOM     28  C   UNL A   1      31.845  32.975  26.911  1.00  0.00     0.261 C 
BRANCH  28  29
ATOM     29  O   UNL A   1      33.063  32.924  27.639  1.00  0.00    -0.460 OA
BRANCH  29  30
ATOM     30  C   UNL A   1      33.206  33.944  28.519  1.00  0.00     0.338 C 
ATOM     31  O   UNL A   1      32.451  34.888  28.678  1.00  0.00    -0.246 OA
BRANCH  30  32
ATOM     32  C   UNL A   1      34.544  33.856  29.105  1.00  0.00     0.060 A 
ATOM     33  C   UNL A   1      35.589  34.325  28.311  1.00  0.00     0.016 A 
ATOM     34  C   UNL A   1      34.761  33.035  30.221  1.00  0.00     0.016 A 
ATOM     35  C   UNL A   1      36.830  33.768  28.499  1.00  0.00     0.010 A 
ATOM     36  C   UNL A   1      36.004  32.491  30.419  1.00  0.00     0.010 A 
ATOM     37  C   UNL A   1      36.991  32.791  29.492  1.00  0.00    -0.014 A 
BRANCH  37  38
ATOM     38  C   UNL A   1      38.292  32.181  29.618  1.00  0.00     0.031 A 
ATOM     39  C   UNL A   1      38.283  30.803  29.092  1.00  0.00     0.074 A 
ATOM     40  C   UNL A   1      39.363  32.821  30.121  1.00  0.00     0.049 A 
ATOM     41  N   UNL A   1      38.266  29.718  29.790  1.00  0.00    -0.248 NA
ATOM     42  C   UNL A   1      37.992  30.609  27.663  1.00  0.00     0.031 C 
ATOM     43  C   UNL A   1      39.520  34.245  30.425  1.00  0.00     0.029 A 
ATOM     44  N   UNL A   1      40.605  32.323  30.358  1.00  0.00    -0.354 N 
ATOM     45  C   UNL A   1      38.241  28.693  28.854  1.00  0.00     0.074 A 
ATOM     46  C   UNL A   1      37.822  29.287  27.615  1.00  0.00     0.031 C 
ATOM     47  C   UNL A   1      40.838  34.528  30.548  1.00  0.00     0.029 A 
ATOM     48  C   UNL A   1      41.596  33.291  30.471  1.00  0.00     0.049 A 
ATOM     49  H   UNL A   1      40.787  31.360  30.443  1.00  0.00     0.167 HD
ATOM     50  C   UNL A   1      38.875  27.519  29.116  1.00  0.00     0.034 A 
ATOM     51  C   UNL A   1      42.935  33.072  30.412  1.00  0.00     0.034 A 
ATOM     52  C   UNL A   1      39.139  27.379  30.529  1.00  0.00     0.049 A 
ATOM     53  C   UNL A   1      43.156  31.637  30.721  1.00  0.00     0.074 A 
ATOM     54  C   UNL A   1      38.360  27.366  31.669  1.00  0.00     0.029 A 
ATOM     55  N   UNL A   1      40.421  27.652  30.946  1.00  0.00    -0.354 N 
ATOM     56  N   UNL A   1      42.918  31.117  31.892  1.00  0.00    -0.248 NA
ATOM     57  C   UNL A   1      43.184  30.698  29.611  1.00  0.00     0.031 C 
ATOM     58  C   UNL A   1      39.117  28.082  32.642  1.00  0.00     0.029 A 
ATOM     59  C   UNL A   1      40.347  28.423  32.074  1.00  0.00     0.049 A 
ATOM     60  H   UNL A   1      41.248  27.346  30.509  1.00  0.00     0.167 HD
ATOM     61  C   UNL A   1      42.293  29.911  31.606  1.00  0.00     0.074 A 
ATOM     62  C   UNL A   1      42.579  29.658  30.194  1.00  0.00     0.031 C 
ATOM     63  C   UNL A   1      41.355  29.390  32.450  1.00  0.00     0.034 A 
BRANCH  50  64
ATOM     64  C   UNL A   1      39.647  26.728  28.084  1.00  0.00     0.023 A 
ATOM     65  C   UNL A   1      39.489  25.325  28.115  1.00  0.00     0.012 A 
ATOM     66  C   UNL A   1      40.717  27.234  27.308  1.00  0.00     0.148 A 
ATOM     67  C   UNL A   1      40.392  24.472  27.476  1.00  0.00     0.002 A 
ATOM     68  C   UNL A   1      41.570  26.386  26.615  1.00  0.00     0.091 A 
ATOM     69  F   UNL A   1      41.015  28.534  27.327  1.00  0.00    -0.205 F 
ATOM     70  C   UNL A   1      41.434  25.002  26.725  1.00  0.00     0.022 A 
BRANCH  68  71
ATOM     71  S   UNL A   1      42.913  27.021  25.603  1.00  0.00     0.127 S 
ATOM     72  O   UNL A   1      43.776  27.629  26.613  1.00  0.00    -0.237 OA
ATOM     73  O   UNL A   1      43.433  25.794  24.999  1.00  0.00    -0.237 OA
ATOM     74  O   UNL A   1      42.299  27.940  24.655  1.00  0.00    -0.744 OA
ENDBRANCH  68  71
ENDBRANCH  50  64
BRANCH  51  75
ATOM     75  C   UNL A   1      44.005  33.908  29.813  1.00  0.00     0.023 A 
ATOM     76  C   UNL A   1      44.927  34.571  30.650  1.00  0.00     0.012 A 
ATOM     77  C   UNL A   1      44.308  33.814  28.436  1.00  0.00     0.148 A 
ATOM     78  C   UNL A   1      46.125  35.091  30.140  1.00  0.00     0.002 A 
ATOM     79  C   UNL A   1      45.497  34.334  27.933  1.00  0.00     0.091 A 
ATOM     80  F   UNL A   1      43.478  33.131  27.638  1.00  0.00    -0.205 F 
ATOM     81  C   UNL A   1      46.415  34.963  28.784  1.00  0.00     0.022 A 
BRANCH  79  82
ATOM     82  S   UNL A   1      45.955  34.171  26.201  1.00  0.00     0.127 S 
ATOM     83  O   UNL A   1      45.147  35.219  25.575  1.00  0.00    -0.237 OA
ATOM     84  O   UNL A   1      47.389  34.442  26.240  1.00  0.00    -0.237 OA
ATOM     85  O   UNL A   1      45.581  32.815  25.813  1.00  0.00    -0.744 OA
ENDBRANCH  79  82
ENDBRANCH  51  75
BRANCH  63  86
ATOM     86  C   UNL A   1      41.201  30.016  33.814  1.00  0.00     0.023 A 
ATOM     87  C   UNL A   1      42.052  29.713  34.898  1.00  0.00     0.012 A 
ATOM     88  C   UNL A   1      40.276  31.063  33.950  1.00  0.00     0.148 A 
ATOM     89  C   UNL A   1      41.965  30.428  36.098  1.00  0.00     0.002 A 
ATOM     90  C   UNL A   1      40.225  31.802  35.124  1.00  0.00     0.091 A 
ATOM     91  F   UNL A   1      39.478  31.338  32.907  1.00  0.00    -0.205 F 
ATOM     92  C   UNL A   1      41.060  31.482  36.206  1.00  0.00     0.022 A 
BRANCH  90  93
ATOM     93  S   UNL A   1      39.171  33.245  35.271  1.00  0.00     0.127 S 
ATOM     94  O   UNL A   1      37.835  32.653  35.218  1.00  0.00    -0.237 OA
ATOM     95  O   UNL A   1      39.553  33.780  36.579  1.00  0.00    -0.237 OA
ATOM     96  O   UNL A   1      39.517  34.111  34.151  1.00  0.00    -0.744 OA
ENDBRANCH  90  93
ENDBRANCH  63  86
ENDBRANCH  37  38
ENDBRANCH  30  32
ENDBRANCH  29  30
ENDBRANCH  28  29
ENDBRANCH   1  28
TORSDOF 20
ENDMDL
