MODEL 1
REMARK VINA RESULT:     -11.6      0.000      0.000
REMARK SMILES Cc1cccc(NC(=O)[C@H]2C=C[C@@H]([NH3+])C2)c1C(=O)OCCOCCOC(=O)c1ccc(-c2c3nc(c(-c4cccc(S(=O)(=O)[O-])c4F)c4ccc([nH]4)c(-c4cccc(S(=O)(=O)[O-])c4F)c4nc(c(-c5cccc(S(=O)(=O)[O-])c5F)c5ccc2[nH]5)C=C4)C=C3)cc1
REMARK SMILES IDX 22 1 21 2 20 3 19 4 17 5 18 6 16 7 1 8 2 9 3 10 4 11 6 12
REMARK SMILES IDX 5 13 7 14 8 15 9 17 10 18 11 19 15 20 12 21 13 22 14 23
REMARK SMILES IDX 23 27 24 28 25 29 26 30 27 31 28 32 29 33 90 34 30 35 89 36
REMARK SMILES IDX 31 37 32 38 33 39 83 40 34 41 88 42 82 43 84 44 35 45 87 46
REMARK SMILES IDX 81 47 80 48 36 50 68 51 48 52 67 53 49 54 52 55 66 56 85 57
REMARK SMILES IDX 50 58 51 59 65 61 86 62 53 63 37 64 38 65 46 66 39 67 41 68
REMARK SMILES IDX 47 69 40 70 42 71 43 72 44 73 45 74 69 75 70 76 78 77 71 78
REMARK SMILES IDX 73 79 79 80 72 81 74 82 75 83 76 84 77 85 54 86 55 87 63 88
REMARK SMILES IDX 56 89 58 90 64 91 57 92 59 93 60 94 61 95 62 96
REMARK H PARENT 7 16 14 24 14 25 14 26 84 49 52 60
REMARK Flexibility Score: inf
ROOT
ATOM      1  O   UNL A   1      33.956  30.244  26.852  1.00  0.00    -0.374 OA
ENDROOT
BRANCH   1   2
ATOM      2  C   UNL A   1      34.044  28.987  27.499  1.00  0.00     0.202 C 
BRANCH   2   3
ATOM      3  C   UNL A   1      33.749  27.768  26.623  1.00  0.00     0.261 C 
BRANCH   3   4
ATOM      4  O   UNL A   1      33.434  28.152  25.301  1.00  0.00    -0.460 OA
BRANCH   4   5
ATOM      5  C   UNL A   1      32.263  27.621  24.896  1.00  0.00     0.340 C 
ATOM      6  O   UNL A   1      31.141  28.095  25.020  1.00  0.00    -0.246 OA
BRANCH   5   7
ATOM      7  C   UNL A   1      32.619  26.676  23.846  1.00  0.00     0.086 A 
ATOM      8  C   UNL A   1      33.655  28.509  22.360  1.00  0.00     0.045 C 
ATOM      9  C   UNL A   1      33.182  27.107  22.623  1.00  0.00    -0.034 A 
ATOM     10  C   UNL A   1      33.225  26.195  21.570  1.00  0.00     0.004 A 
ATOM     11  C   UNL A   1      32.595  24.964  21.701  1.00  0.00     0.002 A 
ATOM     12  C   UNL A   1      32.106  25.375  24.041  1.00  0.00     0.056 A 
ATOM     13  C   UNL A   1      31.995  24.596  22.911  1.00  0.00     0.027 A 
BRANCH  12  14
ATOM     14  N   UNL A   1      31.653  24.983  25.323  1.00  0.00    -0.325 N 
ATOM     15  C   UNL A   1      32.093  24.298  26.399  1.00  0.00     0.231 C 
ATOM     16  H   UNL A   1      30.738  25.310  25.477  1.00  0.00     0.169 HD
ATOM     17  O   UNL A   1      31.237  24.070  27.271  1.00  0.00    -0.274 OA
BRANCH  15  18
ATOM     18  C   UNL A   1      33.484  23.733  26.642  1.00  0.00     0.107 C 
ATOM     19  C   UNL A   1      33.421  22.556  27.565  1.00  0.00    -0.012 C 
ATOM     20  C   UNL A   1      34.386  23.285  25.492  1.00  0.00     0.087 C 
ATOM     21  C   UNL A   1      34.276  21.598  27.200  1.00  0.00     0.033 C 
ATOM     22  C   UNL A   1      35.058  21.982  25.983  1.00  0.00     0.205 C 
BRANCH  22  23
ATOM     23  N   UNL A   1      35.075  20.908  25.001  1.00  0.00    -0.352 N 
ATOM     24  H   UNL A   1      35.437  20.058  25.432  1.00  0.00     0.345 HD
ATOM     25  H   UNL A   1      35.672  21.173  24.218  1.00  0.00     0.345 HD
ATOM     26  H   UNL A   1      34.126  20.741  24.664  1.00  0.00     0.345 HD
ENDBRANCH  22  23
ENDBRANCH  15  18
ENDBRANCH  12  14
ENDBRANCH   5   7
ENDBRANCH   4   5
ENDBRANCH   3   4
ENDBRANCH   2   3
ENDBRANCH   1   2
BRANCH   1  27
ATOM     27  C   UNL A   1      33.647  31.389  27.637  1.00  0.00     0.202 C 
BRANCH  27  28
ATOM     28  C   UNL A   1      34.740  32.399  28.099  1.00  0.00     0.261 C 
BRANCH  28  29
ATOM     29  O   UNL A   1      36.089  31.944  27.841  1.00  0.00    -0.460 OA
BRANCH  29  30
ATOM     30  C   UNL A   1      36.859  31.601  28.924  1.00  0.00     0.338 C 
ATOM     31  O   UNL A   1      37.243  32.385  29.773  1.00  0.00    -0.246 OA
BRANCH  30  32
ATOM     32  C   UNL A   1      37.309  30.169  28.769  1.00  0.00     0.060 A 
ATOM     33  C   UNL A   1      37.225  29.291  29.855  1.00  0.00     0.016 A 
ATOM     34  C   UNL A   1      38.087  29.790  27.680  1.00  0.00     0.016 A 
ATOM     35  C   UNL A   1      38.131  28.217  29.983  1.00  0.00     0.010 A 
ATOM     36  C   UNL A   1      39.036  28.771  27.836  1.00  0.00     0.010 A 
ATOM     37  C   UNL A   1      39.145  28.043  29.040  1.00  0.00    -0.014 A 
BRANCH  37  38
ATOM     38  C   UNL A   1      40.463  27.413  29.346  1.00  0.00     0.031 A 
ATOM     39  C   UNL A   1      40.828  26.033  28.888  1.00  0.00     0.074 A 
ATOM     40  C   UNL A   1      41.512  28.192  29.742  1.00  0.00     0.049 A 
ATOM     41  N   UNL A   1      41.935  25.439  29.213  1.00  0.00    -0.248 NA
ATOM     42  C   UNL A   1      39.970  25.177  28.073  1.00  0.00     0.031 C 
ATOM     43  C   UNL A   1      42.918  27.945  29.400  1.00  0.00     0.029 A 
ATOM     44  N   UNL A   1      41.578  29.377  30.492  1.00  0.00    -0.354 N 
ATOM     45  C   UNL A   1      42.095  24.365  28.370  1.00  0.00     0.074 A 
ATOM     46  C   UNL A   1      40.785  24.147  27.813  1.00  0.00     0.031 C 
ATOM     47  C   UNL A   1      43.705  28.801  30.054  1.00  0.00     0.029 A 
ATOM     48  C   UNL A   1      42.881  29.522  30.992  1.00  0.00     0.049 A 
ATOM     49  H   UNL A   1      40.833  30.002  30.643  1.00  0.00     0.167 HD
ATOM     50  C   UNL A   1      43.338  23.856  28.133  1.00  0.00     0.034 A 
ATOM     51  C   UNL A   1      43.265  29.819  32.262  1.00  0.00     0.034 A 
ATOM     52  C   UNL A   1      44.365  24.454  29.005  1.00  0.00     0.049 A 
ATOM     53  C   UNL A   1      44.083  28.686  32.860  1.00  0.00     0.074 A 
ATOM     54  C   UNL A   1      45.472  25.257  28.788  1.00  0.00     0.029 A 
ATOM     55  N   UNL A   1      44.211  24.385  30.389  1.00  0.00    -0.354 N 
ATOM     56  N   UNL A   1      44.660  27.741  32.164  1.00  0.00    -0.248 NA
ATOM     57  C   UNL A   1      44.246  28.468  34.297  1.00  0.00     0.031 C 
ATOM     58  C   UNL A   1      45.899  25.767  30.052  1.00  0.00     0.029 A 
ATOM     59  C   UNL A   1      45.093  25.234  31.046  1.00  0.00     0.049 A 
ATOM     60  H   UNL A   1      43.558  23.805  30.844  1.00  0.00     0.167 HD
ATOM     61  C   UNL A   1      44.909  26.671  32.983  1.00  0.00     0.074 A 
ATOM     62  C   UNL A   1      44.804  27.244  34.316  1.00  0.00     0.031 C 
ATOM     63  C   UNL A   1      45.026  25.387  32.507  1.00  0.00     0.034 A 
BRANCH  50  64
ATOM     64  C   UNL A   1      43.677  22.862  27.027  1.00  0.00     0.023 A 
ATOM     65  C   UNL A   1      44.605  23.268  26.041  1.00  0.00     0.012 A 
ATOM     66  C   UNL A   1      43.110  21.574  26.852  1.00  0.00     0.148 A 
ATOM     67  C   UNL A   1      44.973  22.438  24.970  1.00  0.00     0.002 A 
ATOM     68  C   UNL A   1      43.545  20.713  25.837  1.00  0.00     0.091 A 
ATOM     69  F   UNL A   1      42.069  21.196  27.603  1.00  0.00    -0.205 F 
ATOM     70  C   UNL A   1      44.468  21.148  24.885  1.00  0.00     0.022 A 
BRANCH  68  71
ATOM     71  S   UNL A   1      43.008  18.992  25.731  1.00  0.00     0.127 S 
ATOM     72  O   UNL A   1      43.266  18.500  27.084  1.00  0.00    -0.237 OA
ATOM     73  O   UNL A   1      41.590  19.124  25.396  1.00  0.00    -0.237 OA
ATOM     74  O   UNL A   1      43.812  18.384  24.678  1.00  0.00    -0.744 OA
ENDBRANCH  68  71
ENDBRANCH  50  64
BRANCH  51  75
ATOM     75  C   UNL A   1      42.393  30.798  32.957  1.00  0.00     0.023 A 
ATOM     76  C   UNL A   1      42.425  32.118  32.453  1.00  0.00     0.012 A 
ATOM     77  C   UNL A   1      41.266  30.371  33.675  1.00  0.00     0.148 A 
ATOM     78  C   UNL A   1      41.303  32.945  32.529  1.00  0.00     0.002 A 
ATOM     79  C   UNL A   1      40.130  31.177  33.692  1.00  0.00     0.091 A 
ATOM     80  F   UNL A   1      41.267  29.126  34.167  1.00  0.00    -0.205 F 
ATOM     81  C   UNL A   1      40.141  32.455  33.108  1.00  0.00     0.022 A 
BRANCH  79  82
ATOM     82  S   UNL A   1      38.518  30.536  34.157  1.00  0.00     0.127 S 
ATOM     83  O   UNL A   1      38.438  29.309  33.373  1.00  0.00    -0.237 OA
ATOM     84  O   UNL A   1      38.697  30.340  35.594  1.00  0.00    -0.237 OA
ATOM     85  O   UNL A   1      37.573  31.584  33.805  1.00  0.00    -0.744 OA
ENDBRANCH  79  82
ENDBRANCH  51  75
BRANCH  63  86
ATOM     86  C   UNL A   1      45.012  24.150  33.399  1.00  0.00     0.023 A 
ATOM     87  C   UNL A   1      43.874  23.328  33.529  1.00  0.00     0.012 A 
ATOM     88  C   UNL A   1      46.193  23.692  34.039  1.00  0.00     0.148 A 
ATOM     89  C   UNL A   1      43.869  22.173  34.321  1.00  0.00     0.002 A 
ATOM     90  C   UNL A   1      46.215  22.477  34.728  1.00  0.00     0.091 A 
ATOM     91  F   UNL A   1      47.304  24.441  34.000  1.00  0.00    -0.205 F 
ATOM     92  C   UNL A   1      45.045  21.736  34.907  1.00  0.00     0.022 A 
BRANCH  90  93
ATOM     93  S   UNL A   1      47.770  21.745  35.261  1.00  0.00     0.127 S 
ATOM     94  O   UNL A   1      48.616  21.932  34.085  1.00  0.00    -0.237 OA
ATOM     95  O   UNL A   1      48.134  22.575  36.412  1.00  0.00    -0.237 OA
ATOM     96  O   UNL A   1      47.431  20.371  35.604  1.00  0.00    -0.744 OA
ENDBRANCH  90  93
ENDBRANCH  63  86
ENDBRANCH  37  38
ENDBRANCH  30  32
ENDBRANCH  29  30
ENDBRANCH  28  29
ENDBRANCH  27  28
ENDBRANCH   1  27
TORSDOF 20
ENDMDL
MODEL 2
REMARK VINA RESULT:     -11.6      2.549      3.792
REMARK SMILES Cc1cccc(NC(=O)[C@H]2C=C[C@@H]([NH3+])C2)c1C(=O)OCCOCCOC(=O)c1ccc(-c2c3nc(c(-c4cccc(S(=O)(=O)[O-])c4F)c4ccc([nH]4)c(-c4cccc(S(=O)(=O)[O-])c4F)c4nc(c(-c5cccc(S(=O)(=O)[O-])c5F)c5ccc2[nH]5)C=C4)C=C3)cc1
REMARK SMILES IDX 22 1 21 2 20 3 19 4 17 5 18 6 16 7 1 8 2 9 3 10 4 11 6 12
REMARK SMILES IDX 5 13 7 14 8 15 9 17 10 18 11 19 15 20 12 21 13 22 14 23
REMARK SMILES IDX 23 27 24 28 25 29 26 30 27 31 28 32 29 33 90 34 30 35 89 36
REMARK SMILES IDX 31 37 32 38 33 39 83 40 34 41 88 42 82 43 84 44 35 45 87 46
REMARK SMILES IDX 81 47 80 48 36 50 68 51 48 52 67 53 49 54 52 55 66 56 85 57
REMARK SMILES IDX 50 58 51 59 65 61 86 62 53 63 37 64 38 65 46 66 39 67 41 68
REMARK SMILES IDX 47 69 40 70 42 71 43 72 44 73 45 74 69 75 70 76 78 77 71 78
REMARK SMILES IDX 73 79 79 80 72 81 74 82 75 83 76 84 77 85 54 86 55 87 63 88
REMARK SMILES IDX 56 89 58 90 64 91 57 92 59 93 60 94 61 95 62 96
REMARK H PARENT 7 16 14 24 14 25 14 26 84 49 52 60
REMARK Flexibility Score: inf
ROOT
ATOM      1  O   UNL A   1      32.829  28.318  25.451  1.00  0.00    -0.374 OA
ENDROOT
BRANCH   1   2
ATOM      2  C   UNL A   1      32.915  28.843  24.139  1.00  0.00     0.202 C 
BRANCH   2   3
ATOM      3  C   UNL A   1      33.719  28.008  23.140  1.00  0.00     0.261 C 
BRANCH   3   4
ATOM      4  O   UNL A   1      33.650  26.633  23.451  1.00  0.00    -0.460 OA
BRANCH   4   5
ATOM      5  C   UNL A   1      32.735  25.998  22.690  1.00  0.00     0.340 C 
ATOM      6  O   UNL A   1      32.760  25.818  21.479  1.00  0.00    -0.246 OA
BRANCH   5   7
ATOM      7  C   UNL A   1      32.014  25.129  23.612  1.00  0.00     0.086 A 
ATOM      8  C   UNL A   1      30.093  26.820  23.916  1.00  0.00     0.045 C 
ATOM      9  C   UNL A   1      30.830  25.555  24.256  1.00  0.00    -0.034 A 
ATOM     10  C   UNL A   1      30.364  24.796  25.327  1.00  0.00     0.004 A 
ATOM     11  C   UNL A   1      31.136  23.750  25.816  1.00  0.00     0.002 A 
ATOM     12  C   UNL A   1      32.734  23.979  24.006  1.00  0.00     0.056 A 
ATOM     13  C   UNL A   1      32.335  23.395  25.187  1.00  0.00     0.027 A 
BRANCH  12  14
ATOM     14  N   UNL A   1      33.851  23.557  23.248  1.00  0.00    -0.325 N 
ATOM     15  C   UNL A   1      35.116  23.128  23.440  1.00  0.00     0.231 C 
ATOM     16  H   UNL A   1      33.643  23.585  22.287  1.00  0.00     0.169 HD
ATOM     17  O   UNL A   1      35.805  23.021  22.411  1.00  0.00    -0.274 OA
BRANCH  15  18
ATOM     18  C   UNL A   1      35.806  22.815  24.759  1.00  0.00     0.107 C 
ATOM     19  C   UNL A   1      36.890  21.803  24.559  1.00  0.00    -0.012 C 
ATOM     20  C   UNL A   1      36.442  23.909  25.617  1.00  0.00     0.087 C 
ATOM     21  C   UNL A   1      37.961  22.074  25.308  1.00  0.00     0.033 C 
ATOM     22  C   UNL A   1      37.765  23.302  26.139  1.00  0.00     0.205 C 
BRANCH  22  23
ATOM     23  N   UNL A   1      38.911  24.196  26.048  1.00  0.00    -0.352 N 
ATOM     24  H   UNL A   1      39.605  23.930  26.746  1.00  0.00     0.345 HD
ATOM     25  H   UNL A   1      38.609  25.155  26.216  1.00  0.00     0.345 HD
ATOM     26  H   UNL A   1      39.322  24.127  25.116  1.00  0.00     0.345 HD
ENDBRANCH  22  23
ENDBRANCH  15  18
ENDBRANCH  12  14
ENDBRANCH   5   7
ENDBRANCH   4   5
ENDBRANCH   3   4
ENDBRANCH   2   3
ENDBRANCH   1   2
BRANCH   1  27
ATOM     27  C   UNL A   1      33.658  28.880  26.461  1.00  0.00     0.202 C 
BRANCH  27  28
ATOM     28  C   UNL A   1      33.374  30.281  27.082  1.00  0.00     0.261 C 
BRANCH  28  29
ATOM     29  O   UNL A   1      34.566  30.955  27.549  1.00  0.00    -0.460 OA
BRANCH  29  30
ATOM     30  C   UNL A   1      34.409  32.193  28.122  1.00  0.00     0.338 C 
ATOM     31  O   UNL A   1      33.613  33.032  27.741  1.00  0.00    -0.246 OA
BRANCH  30  32
ATOM     32  C   UNL A   1      35.506  32.404  29.136  1.00  0.00     0.060 A 
ATOM     33  C   UNL A   1      36.668  33.092  28.770  1.00  0.00     0.016 A 
ATOM     34  C   UNL A   1      35.525  31.670  30.317  1.00  0.00     0.016 A 
ATOM     35  C   UNL A   1      37.900  32.806  29.396  1.00  0.00     0.010 A 
ATOM     36  C   UNL A   1      36.756  31.328  30.892  1.00  0.00     0.010 A 
ATOM     37  C   UNL A   1      37.975  31.805  30.365  1.00  0.00    -0.014 A 
BRANCH  37  38
ATOM     38  C   UNL A   1      39.202  30.999  30.633  1.00  0.00     0.031 A 
ATOM     39  C   UNL A   1      39.499  29.712  29.925  1.00  0.00     0.074 A 
ATOM     40  C   UNL A   1      40.266  31.576  31.265  1.00  0.00     0.049 A 
ATOM     41  N   UNL A   1      40.518  28.959  30.204  1.00  0.00    -0.248 NA
ATOM     42  C   UNL A   1      38.659  29.128  28.883  1.00  0.00     0.031 C 
ATOM     43  C   UNL A   1      41.675  31.266  30.990  1.00  0.00     0.029 A 
ATOM     44  N   UNL A   1      40.353  32.571  32.251  1.00  0.00    -0.354 N 
ATOM     45  C   UNL A   1      40.673  28.068  29.168  1.00  0.00     0.074 A 
ATOM     46  C   UNL A   1      39.411  28.097  28.477  1.00  0.00     0.031 C 
ATOM     47  C   UNL A   1      42.460  31.891  31.870  1.00  0.00     0.029 A 
ATOM     48  C   UNL A   1      41.609  32.484  32.870  1.00  0.00     0.049 A 
ATOM     49  H   UNL A   1      39.649  33.223  32.471  1.00  0.00     0.167 HD
ATOM     50  C   UNL A   1      41.890  27.499  28.927  1.00  0.00     0.034 A 
ATOM     51  C   UNL A   1      41.890  32.478  34.201  1.00  0.00     0.034 A 
ATOM     52  C   UNL A   1      42.872  27.803  29.984  1.00  0.00     0.049 A 
ATOM     53  C   UNL A   1      42.554  31.173  34.609  1.00  0.00     0.074 A 
ATOM     54  C   UNL A   1      44.054  28.522  30.028  1.00  0.00     0.029 A 
ATOM     55  N   UNL A   1      42.579  27.471  31.306  1.00  0.00    -0.354 N 
ATOM     56  N   UNL A   1      43.119  30.337  33.777  1.00  0.00    -0.248 NA
ATOM     57  C   UNL A   1      42.559  30.653  35.976  1.00  0.00     0.031 C 
ATOM     58  C   UNL A   1      44.396  28.721  31.400  1.00  0.00     0.029 A 
ATOM     59  C   UNL A   1      43.457  28.079  32.194  1.00  0.00     0.049 A 
ATOM     60  H   UNL A   1      41.841  26.878  31.576  1.00  0.00     0.167 HD
ATOM     61  C   UNL A   1      43.201  29.105  34.369  1.00  0.00     0.074 A 
ATOM     62  C   UNL A   1      43.013  29.402  35.781  1.00  0.00     0.031 C 
ATOM     63  C   UNL A   1      43.261  27.938  33.645  1.00  0.00     0.034 A 
BRANCH  50  64
ATOM     64  C   UNL A   1      42.255  26.721  27.667  1.00  0.00     0.023 A 
ATOM     65  C   UNL A   1      42.702  27.458  26.547  1.00  0.00     0.012 A 
ATOM     66  C   UNL A   1      42.138  25.319  27.481  1.00  0.00     0.148 A 
ATOM     67  C   UNL A   1      43.046  26.843  25.332  1.00  0.00     0.002 A 
ATOM     68  C   UNL A   1      42.568  24.698  26.302  1.00  0.00     0.091 A 
ATOM     69  F   UNL A   1      41.518  24.574  28.403  1.00  0.00    -0.205 F 
ATOM     70  C   UNL A   1      43.009  25.460  25.219  1.00  0.00     0.022 A 
BRANCH  68  71
ATOM     71  S   UNL A   1      42.644  22.903  26.126  1.00  0.00     0.127 S 
ATOM     72  O   UNL A   1      43.167  22.742  24.770  1.00  0.00    -0.237 OA
ATOM     73  O   UNL A   1      43.580  22.522  27.185  1.00  0.00    -0.237 OA
ATOM     74  O   UNL A   1      41.284  22.421  26.335  1.00  0.00    -0.744 OA
ENDBRANCH  68  71
ENDBRANCH  50  64
BRANCH  51  75
ATOM     75  C   UNL A   1      41.035  33.377  35.016  1.00  0.00     0.023 A 
ATOM     76  C   UNL A   1      41.380  34.747  34.987  1.00  0.00     0.012 A 
ATOM     77  C   UNL A   1      39.722  33.012  35.345  1.00  0.00     0.148 A 
ATOM     78  C   UNL A   1      40.407  35.737  35.134  1.00  0.00     0.002 A 
ATOM     79  C   UNL A   1      38.746  34.002  35.429  1.00  0.00     0.091 A 
ATOM     80  F   UNL A   1      39.424  31.708  35.393  1.00  0.00    -0.205 F 
ATOM     81  C   UNL A   1      39.082  35.361  35.309  1.00  0.00     0.022 A 
BRANCH  79  82
ATOM     82  S   UNL A   1      36.993  33.615  35.368  1.00  0.00     0.127 S 
ATOM     83  O   UNL A   1      36.642  33.557  36.783  1.00  0.00    -0.237 OA
ATOM     84  O   UNL A   1      36.473  34.776  34.650  1.00  0.00    -0.237 OA
ATOM     85  O   UNL A   1      36.902  32.362  34.634  1.00  0.00    -0.744 OA
ENDBRANCH  79  82
ENDBRANCH  51  75
BRANCH  63  86
ATOM     86  C   UNL A   1      43.063  26.554  34.252  1.00  0.00     0.023 A 
ATOM     87  C   UNL A   1      41.864  26.176  34.892  1.00  0.00     0.012 A 
ATOM     88  C   UNL A   1      44.032  25.531  34.083  1.00  0.00     0.148 A 
ATOM     89  C   UNL A   1      41.667  24.895  35.421  1.00  0.00     0.002 A 
ATOM     90  C   UNL A   1      43.782  24.224  34.505  1.00  0.00     0.091 A 
ATOM     91  F   UNL A   1      45.216  25.822  33.525  1.00  0.00    -0.205 F 
ATOM     92  C   UNL A   1      42.619  23.911  35.212  1.00  0.00     0.022 A 
BRANCH  90  93
ATOM     93  S   UNL A   1      44.861  22.870  34.011  1.00  0.00     0.127 S 
ATOM     94  O   UNL A   1      44.785  22.934  32.554  1.00  0.00    -0.237 OA
ATOM     95  O   UNL A   1      46.153  23.273  34.572  1.00  0.00    -0.237 OA
ATOM     96  O   UNL A   1      44.282  21.691  34.640  1.00  0.00    -0.744 OA
ENDBRANCH  90  93
ENDBRANCH  63  86
ENDBRANCH  37  38
ENDBRANCH  30  32
ENDBRANCH  29  30
ENDBRANCH  28  29
ENDBRANCH  27  28
ENDBRANCH   1  27
TORSDOF 20
ENDMDL
MODEL 3
REMARK VINA RESULT:     -11.4      4.516     10.630
REMARK SMILES Cc1cccc(NC(=O)[C@H]2C=C[C@@H]([NH3+])C2)c1C(=O)OCCOCCOC(=O)c1ccc(-c2c3nc(c(-c4cccc(S(=O)(=O)[O-])c4F)c4ccc([nH]4)c(-c4cccc(S(=O)(=O)[O-])c4F)c4nc(c(-c5cccc(S(=O)(=O)[O-])c5F)c5ccc2[nH]5)C=C4)C=C3)cc1
REMARK SMILES IDX 22 1 21 2 20 3 19 4 17 5 18 6 16 7 1 8 2 9 3 10 4 11 6 12
REMARK SMILES IDX 5 13 7 14 8 15 9 17 10 18 11 19 15 20 12 21 13 22 14 23
REMARK SMILES IDX 23 27 24 28 25 29 26 30 27 31 28 32 29 33 90 34 30 35 89 36
REMARK SMILES IDX 31 37 32 38 33 39 83 40 34 41 88 42 82 43 84 44 35 45 87 46
REMARK SMILES IDX 81 47 80 48 36 50 68 51 48 52 67 53 49 54 52 55 66 56 85 57
REMARK SMILES IDX 50 58 51 59 65 61 86 62 53 63 37 64 38 65 46 66 39 67 41 68
REMARK SMILES IDX 47 69 40 70 42 71 43 72 44 73 45 74 69 75 70 76 78 77 71 78
REMARK SMILES IDX 73 79 79 80 72 81 74 82 75 83 76 84 77 85 54 86 55 87 63 88
REMARK SMILES IDX 56 89 58 90 64 91 57 92 59 93 60 94 61 95 62 96
REMARK H PARENT 7 16 14 24 14 25 14 26 84 49 52 60
REMARK Flexibility Score: inf
ROOT
ATOM      1  O   UNL A   1      38.251  20.594  25.040  1.00  0.00    -0.374 OA
ENDROOT
BRANCH   1   2
ATOM      2  C   UNL A   1      37.310  21.570  24.628  1.00  0.00     0.202 C 
BRANCH   2   3
ATOM      3  C   UNL A   1      35.943  21.503  25.311  1.00  0.00     0.261 C 
BRANCH   3   4
ATOM      4  O   UNL A   1      34.997  22.309  24.640  1.00  0.00    -0.460 OA
BRANCH   4   5
ATOM      5  C   UNL A   1      34.783  23.470  25.293  1.00  0.00     0.340 C 
ATOM      6  O   UNL A   1      35.481  24.475  25.284  1.00  0.00    -0.246 OA
BRANCH   5   7
ATOM      7  C   UNL A   1      33.351  23.493  25.562  1.00  0.00     0.086 A 
ATOM      8  C   UNL A   1      33.649  22.585  27.956  1.00  0.00     0.045 C 
ATOM      9  C   UNL A   1      32.818  22.990  26.771  1.00  0.00    -0.034 A 
ATOM     10  C   UNL A   1      31.443  22.780  26.837  1.00  0.00     0.004 A 
ATOM     11  C   UNL A   1      30.669  22.927  25.692  1.00  0.00     0.002 A 
ATOM     12  C   UNL A   1      32.555  23.788  24.433  1.00  0.00     0.056 A 
ATOM     13  C   UNL A   1      31.245  23.371  24.496  1.00  0.00     0.027 A 
BRANCH  12  14
ATOM     14  N   UNL A   1      33.145  24.387  23.296  1.00  0.00    -0.325 N 
ATOM     15  C   UNL A   1      33.070  25.532  22.585  1.00  0.00     0.231 C 
ATOM     16  H   UNL A   1      33.815  23.784  22.901  1.00  0.00     0.169 HD
ATOM     17  O   UNL A   1      33.704  25.538  21.516  1.00  0.00    -0.274 OA
BRANCH  15  18
ATOM     18  C   UNL A   1      32.266  26.782  22.911  1.00  0.00     0.107 C 
ATOM     19  C   UNL A   1      31.735  26.716  24.309  1.00  0.00    -0.012 C 
ATOM     20  C   UNL A   1      32.865  28.182  22.781  1.00  0.00     0.087 C 
ATOM     21  C   UNL A   1      31.787  27.907  24.911  1.00  0.00     0.033 C 
ATOM     22  C   UNL A   1      32.349  28.963  24.013  1.00  0.00     0.205 C 
BRANCH  22  23
ATOM     23  N   UNL A   1      33.367  29.753  24.691  1.00  0.00    -0.352 N 
ATOM     24  H   UNL A   1      33.200  29.731  25.696  1.00  0.00     0.345 HD
ATOM     25  H   UNL A   1      33.325  30.717  24.360  1.00  0.00     0.345 HD
ATOM     26  H   UNL A   1      34.289  29.364  24.490  1.00  0.00     0.345 HD
ENDBRANCH  22  23
ENDBRANCH  15  18
ENDBRANCH  12  14
ENDBRANCH   5   7
ENDBRANCH   4   5
ENDBRANCH   3   4
ENDBRANCH   2   3
ENDBRANCH   1   2
BRANCH   1  27
ATOM     27  C   UNL A   1      39.331  21.002  25.871  1.00  0.00     0.202 C 
BRANCH  27  28
ATOM     28  C   UNL A   1      39.424  22.440  26.463  1.00  0.00     0.261 C 
BRANCH  28  29
ATOM     29  O   UNL A   1      40.772  22.965  26.491  1.00  0.00    -0.460 OA
BRANCH  29  30
ATOM     30  C   UNL A   1      41.113  23.774  27.547  1.00  0.00     0.338 C 
ATOM     31  O   UNL A   1      41.807  23.427  28.485  1.00  0.00    -0.246 OA
BRANCH  30  32
ATOM     32  C   UNL A   1      40.328  25.059  27.450  1.00  0.00     0.060 A 
ATOM     33  C   UNL A   1      40.708  26.039  26.527  1.00  0.00     0.016 A 
ATOM     34  C   UNL A   1      39.440  25.420  28.458  1.00  0.00     0.016 A 
ATOM     35  C   UNL A   1      40.456  27.404  26.782  1.00  0.00     0.010 A 
ATOM     36  C   UNL A   1      39.252  26.777  28.754  1.00  0.00     0.010 A 
ATOM     37  C   UNL A   1      39.856  27.790  27.981  1.00  0.00    -0.014 A 
BRANCH  37  38
ATOM     38  C   UNL A   1      40.089  29.110  28.638  1.00  0.00     0.031 A 
ATOM     39  C   UNL A   1      39.040  30.179  28.708  1.00  0.00     0.074 A 
ATOM     40  C   UNL A   1      41.134  29.261  29.504  1.00  0.00     0.049 A 
ATOM     41  N   UNL A   1      39.251  31.359  29.202  1.00  0.00    -0.248 NA
ATOM     42  C   UNL A   1      37.682  30.040  28.187  1.00  0.00     0.031 C 
ATOM     43  C   UNL A   1      41.116  30.111  30.701  1.00  0.00     0.029 A 
ATOM     44  N   UNL A   1      42.413  28.685  29.551  1.00  0.00    -0.354 N 
ATOM     45  C   UNL A   1      38.027  31.946  29.418  1.00  0.00     0.074 A 
ATOM     46  C   UNL A   1      37.112  31.172  28.619  1.00  0.00     0.031 C 
ATOM     47  C   UNL A   1      42.330  30.151  31.252  1.00  0.00     0.029 A 
ATOM     48  C   UNL A   1      43.240  29.488  30.351  1.00  0.00     0.049 A 
ATOM     49  H   UNL A   1      42.685  27.855  29.097  1.00  0.00     0.167 HD
ATOM     50  C   UNL A   1      37.893  32.937  30.346  1.00  0.00     0.034 A 
ATOM     51  C   UNL A   1      44.492  29.940  30.075  1.00  0.00     0.034 A 
ATOM     52  C   UNL A   1      39.192  33.383  30.882  1.00  0.00     0.049 A 
ATOM     53  C   UNL A   1      44.522  31.459  30.021  1.00  0.00     0.074 A 
ATOM     54  C   UNL A   1      39.795  33.327  32.127  1.00  0.00     0.029 A 
ATOM     55  N   UNL A   1      40.172  33.846  30.005  1.00  0.00    -0.354 N 
ATOM     56  N   UNL A   1      43.599  32.236  30.527  1.00  0.00    -0.248 NA
ATOM     57  C   UNL A   1      45.543  32.230  29.314  1.00  0.00     0.031 C 
ATOM     58  C   UNL A   1      41.178  33.642  31.959  1.00  0.00     0.029 A 
ATOM     59  C   UNL A   1      41.411  33.944  30.626  1.00  0.00     0.049 A 
ATOM     60  H   UNL A   1      40.005  34.075  29.062  1.00  0.00     0.167 HD
ATOM     61  C   UNL A   1      43.678  33.467  29.932  1.00  0.00     0.074 A 
ATOM     62  C   UNL A   1      45.003  33.462  29.333  1.00  0.00     0.031 C 
ATOM     63  C   UNL A   1      42.602  34.319  29.850  1.00  0.00     0.034 A 
BRANCH  50  64
ATOM     64  C   UNL A   1      36.563  33.470  30.867  1.00  0.00     0.023 A 
ATOM     65  C   UNL A   1      36.282  33.303  32.242  1.00  0.00     0.012 A 
ATOM     66  C   UNL A   1      35.540  34.077  30.094  1.00  0.00     0.148 A 
ATOM     67  C   UNL A   1      35.080  33.740  32.821  1.00  0.00     0.002 A 
ATOM     68  C   UNL A   1      34.382  34.594  30.688  1.00  0.00     0.091 A 
ATOM     69  F   UNL A   1      35.623  34.076  28.758  1.00  0.00    -0.205 F 
ATOM     70  C   UNL A   1      34.142  34.414  32.051  1.00  0.00     0.022 A 
BRANCH  68  71
ATOM     71  S   UNL A   1      33.175  35.570  29.765  1.00  0.00     0.127 S 
ATOM     72  O   UNL A   1      34.026  36.481  29.002  1.00  0.00    -0.237 OA
ATOM     73  O   UNL A   1      32.497  34.555  28.958  1.00  0.00    -0.237 OA
ATOM     74  O   UNL A   1      32.320  36.201  30.765  1.00  0.00    -0.744 OA
ENDBRANCH  68  71
ENDBRANCH  50  64
BRANCH  51  75
ATOM     75  C   UNL A   1      45.352  28.971  29.351  1.00  0.00     0.023 A 
ATOM     76  C   UNL A   1      45.706  27.806  30.068  1.00  0.00     0.012 A 
ATOM     77  C   UNL A   1      45.372  28.939  27.949  1.00  0.00     0.148 A 
ATOM     78  C   UNL A   1      45.929  26.595  29.410  1.00  0.00     0.002 A 
ATOM     79  C   UNL A   1      45.533  27.716  27.302  1.00  0.00     0.091 A 
ATOM     80  F   UNL A   1      45.059  30.061  27.289  1.00  0.00    -0.205 F 
ATOM     81  C   UNL A   1      45.796  26.543  28.030  1.00  0.00     0.022 A 
BRANCH  79  82
ATOM     82  S   UNL A   1      45.104  27.492  25.573  1.00  0.00     0.127 S 
ATOM     83  O   UNL A   1      46.053  28.374  24.904  1.00  0.00    -0.237 OA
ATOM     84  O   UNL A   1      45.361  26.064  25.402  1.00  0.00    -0.237 OA
ATOM     85  O   UNL A   1      43.702  27.868  25.474  1.00  0.00    -0.744 OA
ENDBRANCH  79  82
ENDBRANCH  51  75
BRANCH  63  86
ATOM     86  C   UNL A   1      42.567  35.554  28.956  1.00  0.00     0.023 A 
ATOM     87  C   UNL A   1      41.790  35.612  27.781  1.00  0.00     0.012 A 
ATOM     88  C   UNL A   1      43.214  36.757  29.338  1.00  0.00     0.148 A 
ATOM     89  C   UNL A   1      41.729  36.756  26.976  1.00  0.00     0.002 A 
ATOM     90  C   UNL A   1      43.054  37.930  28.598  1.00  0.00     0.091 A 
ATOM     91  F   UNL A   1      44.009  36.770  30.419  1.00  0.00    -0.205 F 
ATOM     92  C   UNL A   1      42.347  37.923  27.394  1.00  0.00     0.022 A 
BRANCH  90  93
ATOM     93  S   UNL A   1      43.605  39.516  29.246  1.00  0.00     0.127 S 
ATOM     94  O   UNL A   1      45.006  39.545  28.836  1.00  0.00    -0.237 OA
ATOM     95  O   UNL A   1      42.743  40.466  28.537  1.00  0.00    -0.237 OA
ATOM     96  O   UNL A   1      43.349  39.437  30.678  1.00  0.00    -0.744 OA
ENDBRANCH  90  93
ENDBRANCH  63  86
ENDBRANCH  37  38
ENDBRANCH  30  32
ENDBRANCH  29  30
ENDBRANCH  28  29
ENDBRANCH  27  28
ENDBRANCH   1  27
TORSDOF 20
ENDMDL
