MODEL 1
REMARK VINA RESULT:     -11.5      0.000      0.000
REMARK SMILES O=C(Cc1ccc(-c2ccc(Cl)cc2)cc1)OCCOCCOC(=O)c1ccc(-c2c3nc(c(-c4cccc(S(=O)(=O)[O-])c4F)c4ccc([nH]4)c(-c4cccc(S(=O)(=O)[O-])c4F)c4nc(c(-c5cccc(S(=O)(=O)[O-])c5F)c5ccc2[nH]5)C=C4)C=C3)cc1
REMARK SMILES IDX 21 1 20 2 19 3 18 4 17 5 2 6 1 7 3 8 4 9 5 10 16 11 6 12
REMARK SMILES IDX 15 13 7 14 8 15 9 16 14 17 10 18 13 19 11 20 12 21 22 22
REMARK SMILES IDX 23 23 24 24 25 25 26 26 27 27 88 28 28 29 87 30 29 31 30 32
REMARK SMILES IDX 31 33 81 34 32 35 86 36 80 37 82 38 33 39 85 40 79 41 78 42
REMARK SMILES IDX 34 44 66 45 46 46 65 47 47 48 50 49 64 50 83 51 48 52 49 53
REMARK SMILES IDX 63 55 84 56 51 57 35 58 36 59 44 60 37 61 39 62 45 63 38 64
REMARK SMILES IDX 40 65 41 66 42 67 43 68 67 69 68 70 76 71 69 72 71 73 77 74
REMARK SMILES IDX 70 75 72 76 73 77 74 78 75 79 52 80 53 81 61 82 54 83 56 84
REMARK SMILES IDX 62 85 55 86 57 87 58 88 59 89 60 90
REMARK H PARENT 82 43 50 54
REMARK Flexibility Score: inf
ROOT
ATOM      1  C   UNL A   1      36.215  20.086  24.854  1.00  0.00     0.202 C 
ENDROOT
BRANCH   1   2
ATOM      2  O   UNL A   1      35.624  21.363  25.128  1.00  0.00    -0.374 OA
BRANCH   2   3
ATOM      3  C   UNL A   1      34.363  21.345  25.791  1.00  0.00     0.202 C 
BRANCH   3   4
ATOM      4  C   UNL A   1      33.154  21.877  25.028  1.00  0.00     0.261 C 
BRANCH   4   5
ATOM      5  O   UNL A   1      32.133  22.447  25.866  1.00  0.00    -0.463 OA
BRANCH   5   6
ATOM      6  C   UNL A   1      32.129  23.696  26.387  1.00  0.00     0.310 C 
ATOM      7  O   UNL A   1      31.454  23.931  27.391  1.00  0.00    -0.252 OA
BRANCH   6   8
ATOM      8  C   UNL A   1      32.869  24.821  25.698  1.00  0.00     0.158 C 
BRANCH   8   9
ATOM      9  C   UNL A   1      32.011  25.929  25.158  1.00  0.00    -0.037 A 
ATOM     10  C   UNL A   1      32.498  27.238  25.147  1.00  0.00     0.005 A 
ATOM     11  C   UNL A   1      30.752  25.652  24.602  1.00  0.00     0.005 A 
ATOM     12  C   UNL A   1      31.756  28.248  24.551  1.00  0.00     0.009 A 
ATOM     13  C   UNL A   1      30.004  26.674  24.016  1.00  0.00     0.009 A 
ATOM     14  C   UNL A   1      30.499  27.986  23.985  1.00  0.00    -0.018 A 
BRANCH  14  15
ATOM     15  C   UNL A   1      29.719  29.107  23.460  1.00  0.00    -0.018 A 
ATOM     16  C   UNL A   1      29.015  28.994  22.250  1.00  0.00     0.010 A 
ATOM     17  C   UNL A   1      29.795  30.363  24.082  1.00  0.00     0.010 A 
ATOM     18  C   UNL A   1      28.456  30.120  21.643  1.00  0.00     0.021 A 
ATOM     19  C   UNL A   1      29.240  31.490  23.477  1.00  0.00     0.021 A 
ATOM     20  C   UNL A   1      28.589  31.366  22.251  1.00  0.00     0.041 A 
ATOM     21  Cl  UNL A   1      27.980  32.771  21.467  1.00  0.00    -0.084 Cl
ENDBRANCH  14  15
ENDBRANCH   8   9
ENDBRANCH   6   8
ENDBRANCH   5   6
ENDBRANCH   4   5
ENDBRANCH   3   4
ENDBRANCH   2   3
ENDBRANCH   1   2
BRANCH   1  22
ATOM     22  C   UNL A   1      37.744  19.993  24.885  1.00  0.00     0.261 C 
BRANCH  22  23
ATOM     23  O   UNL A   1      38.340  21.129  25.528  1.00  0.00    -0.460 OA
BRANCH  23  24
ATOM     24  C   UNL A   1      39.482  20.871  26.209  1.00  0.00     0.338 C 
ATOM     25  O   UNL A   1      40.126  19.833  26.201  1.00  0.00    -0.246 OA
BRANCH  24  26
ATOM     26  C   UNL A   1      39.982  22.130  26.796  1.00  0.00     0.060 A 
ATOM     27  C   UNL A   1      39.490  23.337  26.277  1.00  0.00     0.016 A 
ATOM     28  C   UNL A   1      40.911  22.127  27.837  1.00  0.00     0.016 A 
ATOM     29  C   UNL A   1      39.968  24.550  26.763  1.00  0.00     0.010 A 
ATOM     30  C   UNL A   1      41.396  23.344  28.316  1.00  0.00     0.010 A 
ATOM     31  C   UNL A   1      40.955  24.556  27.754  1.00  0.00    -0.014 A 
BRANCH  31  32
ATOM     32  C   UNL A   1      41.650  25.811  28.108  1.00  0.00     0.031 A 
ATOM     33  C   UNL A   1      40.870  26.884  28.814  1.00  0.00     0.074 A 
ATOM     34  C   UNL A   1      42.933  26.008  27.757  1.00  0.00     0.049 A 
ATOM     35  N   UNL A   1      41.225  28.105  29.110  1.00  0.00    -0.248 NA
ATOM     36  C   UNL A   1      39.499  26.537  29.229  1.00  0.00     0.031 C 
ATOM     37  C   UNL A   1      43.780  25.032  27.074  1.00  0.00     0.029 A 
ATOM     38  N   UNL A   1      43.730  27.117  27.888  1.00  0.00    -0.354 N 
ATOM     39  C   UNL A   1      40.109  28.689  29.697  1.00  0.00     0.074 A 
ATOM     40  C   UNL A   1      39.066  27.687  29.724  1.00  0.00     0.031 C 
ATOM     41  C   UNL A   1      44.966  25.601  26.799  1.00  0.00     0.029 A 
ATOM     42  C   UNL A   1      44.945  26.990  27.254  1.00  0.00     0.049 A 
ATOM     43  H   UNL A   1      43.461  27.922  28.386  1.00  0.00     0.167 HD
ATOM     44  C   UNL A   1      39.969  29.947  30.172  1.00  0.00     0.034 A 
ATOM     45  C   UNL A   1      45.905  27.908  27.026  1.00  0.00     0.034 A 
ATOM     46  C   UNL A   1      41.021  30.926  30.158  1.00  0.00     0.049 A 
ATOM     47  C   UNL A   1      45.714  29.310  27.546  1.00  0.00     0.074 A 
ATOM     48  C   UNL A   1      41.011  32.204  30.686  1.00  0.00     0.029 A 
ATOM     49  N   UNL A   1      42.260  30.745  29.563  1.00  0.00    -0.354 N 
ATOM     50  N   UNL A   1      44.709  29.809  28.225  1.00  0.00    -0.248 NA
ATOM     51  C   UNL A   1      46.800  30.268  27.294  1.00  0.00     0.031 C 
ATOM     52  C   UNL A   1      42.227  32.815  30.367  1.00  0.00     0.029 A 
ATOM     53  C   UNL A   1      43.013  31.900  29.682  1.00  0.00     0.049 A 
ATOM     54  H   UNL A   1      42.559  29.919  29.120  1.00  0.00     0.167 HD
ATOM     55  C   UNL A   1      45.054  31.127  28.506  1.00  0.00     0.074 A 
ATOM     56  C   UNL A   1      46.371  31.341  27.944  1.00  0.00     0.031 C 
ATOM     57  C   UNL A   1      44.342  32.078  29.159  1.00  0.00     0.034 A 
BRANCH  44  58
ATOM     58  C   UNL A   1      38.636  30.345  30.745  1.00  0.00     0.023 A 
ATOM     59  C   UNL A   1      38.348  30.101  32.103  1.00  0.00     0.012 A 
ATOM     60  C   UNL A   1      37.696  31.029  29.949  1.00  0.00     0.148 A 
ATOM     61  C   UNL A   1      37.134  30.509  32.654  1.00  0.00     0.002 A 
ATOM     62  C   UNL A   1      36.509  31.474  30.516  1.00  0.00     0.091 A 
ATOM     63  F   UNL A   1      37.980  31.228  28.655  1.00  0.00    -0.205 F 
ATOM     64  C   UNL A   1      36.221  31.206  31.864  1.00  0.00     0.022 A 
BRANCH  62  65
ATOM     65  S   UNL A   1      35.307  32.450  29.606  1.00  0.00     0.127 S 
ATOM     66  O   UNL A   1      34.313  32.732  30.642  1.00  0.00    -0.237 OA
ATOM     67  O   UNL A   1      36.103  33.607  29.194  1.00  0.00    -0.237 OA
ATOM     68  O   UNL A   1      34.844  31.608  28.514  1.00  0.00    -0.744 OA
ENDBRANCH  62  65
ENDBRANCH  44  58
BRANCH  45  69
ATOM     69  C   UNL A   1      47.131  27.536  26.264  1.00  0.00     0.023 A 
ATOM     70  C   UNL A   1      48.199  26.904  26.927  1.00  0.00     0.012 A 
ATOM     71  C   UNL A   1      47.239  27.802  24.885  1.00  0.00     0.148 A 
ATOM     72  C   UNL A   1      49.369  26.577  26.239  1.00  0.00     0.002 A 
ATOM     73  C   UNL A   1      48.383  27.421  24.193  1.00  0.00     0.091 A 
ATOM     74  F   UNL A   1      46.217  28.419  24.274  1.00  0.00    -0.205 F 
ATOM     75  C   UNL A   1      49.457  26.827  24.872  1.00  0.00     0.022 A 
BRANCH  73  76
ATOM     76  S   UNL A   1      48.530  27.584  22.410  1.00  0.00     0.127 S 
ATOM     77  O   UNL A   1      48.590  26.186  21.988  1.00  0.00    -0.237 OA
ATOM     78  O   UNL A   1      47.288  28.278  22.069  1.00  0.00    -0.237 OA
ATOM     79  O   UNL A   1      49.737  28.366  22.185  1.00  0.00    -0.744 OA
ENDBRANCH  73  76
ENDBRANCH  45  69
BRANCH  57  80
ATOM     80  C   UNL A   1      44.979  33.431  29.344  1.00  0.00     0.023 A 
ATOM     81  C   UNL A   1      45.763  33.690  30.485  1.00  0.00     0.012 A 
ATOM     82  C   UNL A   1      44.877  34.409  28.335  1.00  0.00     0.148 A 
ATOM     83  C   UNL A   1      46.416  34.914  30.631  1.00  0.00     0.002 A 
ATOM     84  C   UNL A   1      45.574  35.604  28.461  1.00  0.00     0.091 A 
ATOM     85  F   UNL A   1      44.115  34.144  27.264  1.00  0.00    -0.205 F 
ATOM     86  C   UNL A   1      46.332  35.863  29.614  1.00  0.00     0.022 A 
BRANCH  84  87
ATOM     87  S   UNL A   1      45.609  36.844  27.163  1.00  0.00     0.127 S 
ATOM     88  O   UNL A   1      46.501  37.851  27.736  1.00  0.00    -0.237 OA
ATOM     89  O   UNL A   1      46.174  36.097  26.039  1.00  0.00    -0.237 OA
ATOM     90  O   UNL A   1      44.230  37.274  26.975  1.00  0.00    -0.744 OA
ENDBRANCH  84  87
ENDBRANCH  57  80
ENDBRANCH  31  32
ENDBRANCH  24  26
ENDBRANCH  23  24
ENDBRANCH  22  23
ENDBRANCH   1  22
TORSDOF 19
ENDMDL
MODEL 2
REMARK VINA RESULT:     -11.5      3.005      4.646
REMARK SMILES O=C(Cc1ccc(-c2ccc(Cl)cc2)cc1)OCCOCCOC(=O)c1ccc(-c2c3nc(c(-c4cccc(S(=O)(=O)[O-])c4F)c4ccc([nH]4)c(-c4cccc(S(=O)(=O)[O-])c4F)c4nc(c(-c5cccc(S(=O)(=O)[O-])c5F)c5ccc2[nH]5)C=C4)C=C3)cc1
REMARK SMILES IDX 21 1 20 2 19 3 18 4 17 5 2 6 1 7 3 8 4 9 5 10 16 11 6 12
REMARK SMILES IDX 15 13 7 14 8 15 9 16 14 17 10 18 13 19 11 20 12 21 22 22
REMARK SMILES IDX 23 23 24 24 25 25 26 26 27 27 88 28 28 29 87 30 29 31 30 32
REMARK SMILES IDX 31 33 81 34 32 35 86 36 80 37 82 38 33 39 85 40 79 41 78 42
REMARK SMILES IDX 34 44 66 45 46 46 65 47 47 48 50 49 64 50 83 51 48 52 49 53
REMARK SMILES IDX 63 55 84 56 51 57 35 58 36 59 44 60 37 61 39 62 45 63 38 64
REMARK SMILES IDX 40 65 41 66 42 67 43 68 67 69 68 70 76 71 69 72 71 73 77 74
REMARK SMILES IDX 70 75 72 76 73 77 74 78 75 79 52 80 53 81 61 82 54 83 56 84
REMARK SMILES IDX 62 85 55 86 57 87 58 88 59 89 60 90
REMARK H PARENT 82 43 50 54
REMARK Flexibility Score: inf
ROOT
ATOM      1  C   UNL A   1      35.431  21.745  24.729  1.00  0.00     0.202 C 
ENDROOT
BRANCH   1   2
ATOM      2  O   UNL A   1      35.630  23.159  24.598  1.00  0.00    -0.374 OA
BRANCH   2   3
ATOM      3  C   UNL A   1      35.129  23.966  25.659  1.00  0.00     0.202 C 
BRANCH   3   4
ATOM      4  C   UNL A   1      34.490  25.302  25.293  1.00  0.00     0.261 C 
BRANCH   4   5
ATOM      5  O   UNL A   1      34.047  25.390  23.928  1.00  0.00    -0.463 OA
BRANCH   5   6
ATOM      6  C   UNL A   1      32.856  25.869  23.501  1.00  0.00     0.310 C 
ATOM      7  O   UNL A   1      32.749  27.063  23.217  1.00  0.00    -0.252 OA
BRANCH   6   8
ATOM      8  C   UNL A   1      31.636  24.975  23.457  1.00  0.00     0.158 C 
BRANCH   8   9
ATOM      9  C   UNL A   1      31.896  23.510  23.663  1.00  0.00    -0.037 A 
ATOM     10  C   UNL A   1      31.668  22.937  24.917  1.00  0.00     0.005 A 
ATOM     11  C   UNL A   1      32.301  22.699  22.592  1.00  0.00     0.005 A 
ATOM     12  C   UNL A   1      31.801  21.566  25.086  1.00  0.00     0.009 A 
ATOM     13  C   UNL A   1      32.446  21.322  22.771  1.00  0.00     0.009 A 
ATOM     14  C   UNL A   1      32.199  20.740  24.022  1.00  0.00    -0.018 A 
BRANCH  14  15
ATOM     15  C   UNL A   1      32.418  19.317  24.285  1.00  0.00    -0.018 A 
ATOM     16  C   UNL A   1      32.644  18.849  25.589  1.00  0.00     0.010 A 
ATOM     17  C   UNL A   1      32.561  18.424  23.212  1.00  0.00     0.010 A 
ATOM     18  C   UNL A   1      33.067  17.537  25.812  1.00  0.00     0.021 A 
ATOM     19  C   UNL A   1      32.985  17.113  23.431  1.00  0.00     0.021 A 
ATOM     20  C   UNL A   1      33.254  16.682  24.728  1.00  0.00     0.041 A 
ATOM     21  Cl  UNL A   1      33.858  15.092  24.987  1.00  0.00    -0.084 Cl
ENDBRANCH  14  15
ENDBRANCH   8   9
ENDBRANCH   6   8
ENDBRANCH   5   6
ENDBRANCH   4   5
ENDBRANCH   3   4
ENDBRANCH   2   3
ENDBRANCH   1   2
BRANCH   1  22
ATOM     22  C   UNL A   1      36.666  20.882  25.008  1.00  0.00     0.261 C 
BRANCH  22  23
ATOM     23  O   UNL A   1      37.878  21.649  24.984  1.00  0.00    -0.460 OA
BRANCH  23  24
ATOM     24  C   UNL A   1      38.836  21.240  25.849  1.00  0.00     0.338 C 
ATOM     25  O   UNL A   1      39.301  20.116  25.956  1.00  0.00    -0.246 OA
BRANCH  24  26
ATOM     26  C   UNL A   1      39.423  22.425  26.505  1.00  0.00     0.060 A 
ATOM     27  C   UNL A   1      38.911  23.686  26.163  1.00  0.00     0.016 A 
ATOM     28  C   UNL A   1      40.453  22.303  27.440  1.00  0.00     0.016 A 
ATOM     29  C   UNL A   1      39.465  24.836  26.718  1.00  0.00     0.010 A 
ATOM     30  C   UNL A   1      41.013  23.457  27.986  1.00  0.00     0.010 A 
ATOM     31  C   UNL A   1      40.547  24.727  27.598  1.00  0.00    -0.014 A 
BRANCH  31  32
ATOM     32  C   UNL A   1      41.305  25.929  28.003  1.00  0.00     0.031 A 
ATOM     33  C   UNL A   1      40.580  27.009  28.754  1.00  0.00     0.074 A 
ATOM     34  C   UNL A   1      42.597  26.075  27.658  1.00  0.00     0.049 A 
ATOM     35  N   UNL A   1      40.996  28.197  29.101  1.00  0.00    -0.248 NA
ATOM     36  C   UNL A   1      39.193  26.715  29.157  1.00  0.00     0.031 C 
ATOM     37  C   UNL A   1      43.393  25.087  26.933  1.00  0.00     0.029 A 
ATOM     38  N   UNL A   1      43.449  27.135  27.834  1.00  0.00    -0.354 N 
ATOM     39  C   UNL A   1      39.911  28.811  29.714  1.00  0.00     0.074 A 
ATOM     40  C   UNL A   1      38.819  27.863  29.701  1.00  0.00     0.031 C 
ATOM     41  C   UNL A   1      44.606  25.606  26.680  1.00  0.00     0.029 A 
ATOM     42  C   UNL A   1      44.655  26.974  27.193  1.00  0.00     0.049 A 
ATOM     43  H   UNL A   1      43.220  27.931  28.365  1.00  0.00     0.167 HD
ATOM     44  C   UNL A   1      39.835  30.054  30.242  1.00  0.00     0.034 A 
ATOM     45  C   UNL A   1      45.660  27.852  27.001  1.00  0.00     0.034 A 
ATOM     46  C   UNL A   1      40.935  30.978  30.267  1.00  0.00     0.049 A 
ATOM     47  C   UNL A   1      45.540  29.237  27.581  1.00  0.00     0.074 A 
ATOM     48  C   UNL A   1      40.990  32.231  30.849  1.00  0.00     0.029 A 
ATOM     49  N   UNL A   1      42.164  30.760  29.662  1.00  0.00    -0.354 N 
ATOM     50  N   UNL A   1      44.562  29.758  28.282  1.00  0.00    -0.248 NA
ATOM     51  C   UNL A   1      46.674  30.150  27.367  1.00  0.00     0.031 C 
ATOM     52  C   UNL A   1      42.235  32.793  30.553  1.00  0.00     0.029 A 
ATOM     53  C   UNL A   1      42.974  31.869  29.829  1.00  0.00     0.049 A 
ATOM     54  H   UNL A   1      42.420  29.939  29.185  1.00  0.00     0.167 HD
ATOM     55  C   UNL A   1      44.973  31.044  28.617  1.00  0.00     0.074 A 
ATOM     56  C   UNL A   1      46.300  31.214  28.063  1.00  0.00     0.031 C 
ATOM     57  C   UNL A   1      44.310  32.002  29.311  1.00  0.00     0.034 A 
BRANCH  44  58
ATOM     58  C   UNL A   1      38.524  30.494  30.834  1.00  0.00     0.023 A 
ATOM     59  C   UNL A   1      38.262  30.293  32.204  1.00  0.00     0.012 A 
ATOM     60  C   UNL A   1      37.579  31.175  30.041  1.00  0.00     0.148 A 
ATOM     61  C   UNL A   1      37.069  30.741  32.771  1.00  0.00     0.002 A 
ATOM     62  C   UNL A   1      36.415  31.660  30.622  1.00  0.00     0.091 A 
ATOM     63  F   UNL A   1      37.837  31.334  28.735  1.00  0.00    -0.205 F 
ATOM     64  C   UNL A   1      36.153  31.434  31.983  1.00  0.00     0.022 A 
BRANCH  62  65
ATOM     65  S   UNL A   1      35.211  32.635  29.713  1.00  0.00     0.127 S 
ATOM     66  O   UNL A   1      34.739  31.670  28.721  1.00  0.00    -0.237 OA
ATOM     67  O   UNL A   1      34.237  32.965  30.754  1.00  0.00    -0.237 OA
ATOM     68  O   UNL A   1      35.938  33.775  29.175  1.00  0.00    -0.744 OA
ENDBRANCH  62  65
ENDBRANCH  44  58
BRANCH  45  69
ATOM     69  C   UNL A   1      46.866  27.450  26.222  1.00  0.00     0.023 A 
ATOM     70  C   UNL A   1      46.931  27.727  24.844  1.00  0.00     0.012 A 
ATOM     71  C   UNL A   1      47.950  26.799  26.844  1.00  0.00     0.148 A 
ATOM     72  C   UNL A   1      48.037  27.330  24.091  1.00  0.00     0.002 A 
ATOM     73  C   UNL A   1      49.073  26.459  26.100  1.00  0.00     0.091 A 
ATOM     74  F   UNL A   1      47.863  26.530  28.155  1.00  0.00    -0.205 F 
ATOM     75  C   UNL A   1      49.111  26.705  24.719  1.00  0.00     0.022 A 
BRANCH  73  76
ATOM     76  S   UNL A   1      50.554  25.772  26.849  1.00  0.00     0.127 S 
ATOM     77  O   UNL A   1      50.088  24.456  27.279  1.00  0.00    -0.237 OA
ATOM     78  O   UNL A   1      51.483  25.758  25.719  1.00  0.00    -0.237 OA
ATOM     79  O   UNL A   1      50.919  26.693  27.916  1.00  0.00    -0.744 OA
ENDBRANCH  73  76
ENDBRANCH  45  69
BRANCH  57  80
ATOM     80  C   UNL A   1      45.015  33.311  29.552  1.00  0.00     0.023 A 
ATOM     81  C   UNL A   1      45.816  33.480  30.698  1.00  0.00     0.012 A 
ATOM     82  C   UNL A   1      44.958  34.337  28.588  1.00  0.00     0.148 A 
ATOM     83  C   UNL A   1      46.530  34.662  30.893  1.00  0.00     0.002 A 
ATOM     84  C   UNL A   1      45.714  35.489  28.762  1.00  0.00     0.091 A 
ATOM     85  F   UNL A   1      44.179  34.159  27.511  1.00  0.00    -0.205 F 
ATOM     86  C   UNL A   1      46.489  35.658  29.921  1.00  0.00     0.022 A 
BRANCH  84  87
ATOM     87  S   UNL A   1      45.805  36.783  27.520  1.00  0.00     0.127 S 
ATOM     88  O   UNL A   1      44.425  37.264  27.488  1.00  0.00    -0.237 OA
ATOM     89  O   UNL A   1      46.763  37.714  28.116  1.00  0.00    -0.237 OA
ATOM     90  O   UNL A   1      46.265  36.139  26.297  1.00  0.00    -0.744 OA
ENDBRANCH  84  87
ENDBRANCH  57  80
ENDBRANCH  31  32
ENDBRANCH  24  26
ENDBRANCH  23  24
ENDBRANCH  22  23
ENDBRANCH   1  22
TORSDOF 19
ENDMDL
MODEL 3
REMARK VINA RESULT:     -11.4      5.078      9.833
REMARK SMILES O=C(Cc1ccc(-c2ccc(Cl)cc2)cc1)OCCOCCOC(=O)c1ccc(-c2c3nc(c(-c4cccc(S(=O)(=O)[O-])c4F)c4ccc([nH]4)c(-c4cccc(S(=O)(=O)[O-])c4F)c4nc(c(-c5cccc(S(=O)(=O)[O-])c5F)c5ccc2[nH]5)C=C4)C=C3)cc1
REMARK SMILES IDX 21 1 20 2 19 3 18 4 17 5 2 6 1 7 3 8 4 9 5 10 16 11 6 12
REMARK SMILES IDX 15 13 7 14 8 15 9 16 14 17 10 18 13 19 11 20 12 21 22 22
REMARK SMILES IDX 23 23 24 24 25 25 26 26 27 27 88 28 28 29 87 30 29 31 30 32
REMARK SMILES IDX 31 33 81 34 32 35 86 36 80 37 82 38 33 39 85 40 79 41 78 42
REMARK SMILES IDX 34 44 66 45 46 46 65 47 47 48 50 49 64 50 83 51 48 52 49 53
REMARK SMILES IDX 63 55 84 56 51 57 35 58 36 59 44 60 37 61 39 62 45 63 38 64
REMARK SMILES IDX 40 65 41 66 42 67 43 68 67 69 68 70 76 71 69 72 71 73 77 74
REMARK SMILES IDX 70 75 72 76 73 77 74 78 75 79 52 80 53 81 61 82 54 83 56 84
REMARK SMILES IDX 62 85 55 86 57 87 58 88 59 89 60 90
REMARK H PARENT 82 43 50 54
REMARK Flexibility Score: inf
ROOT
ATOM      1  C   UNL A   1      32.004  27.985  26.605  1.00  0.00     0.202 C 
ENDROOT
BRANCH   1   2
ATOM      2  O   UNL A   1      32.768  27.352  25.569  1.00  0.00    -0.374 OA
BRANCH   2   3
ATOM      3  C   UNL A   1      33.842  26.520  25.997  1.00  0.00     0.202 C 
BRANCH   3   4
ATOM      4  C   UNL A   1      33.953  25.131  25.377  1.00  0.00     0.261 C 
BRANCH   4   5
ATOM      5  O   UNL A   1      33.037  24.166  25.922  1.00  0.00    -0.463 OA
BRANCH   5   6
ATOM      6  C   UNL A   1      32.577  23.057  25.299  1.00  0.00     0.310 C 
ATOM      7  O   UNL A   1      33.069  21.960  25.571  1.00  0.00    -0.252 OA
BRANCH   6   8
ATOM      8  C   UNL A   1      31.532  23.162  24.210  1.00  0.00     0.158 C 
BRANCH   8   9
ATOM      9  C   UNL A   1      31.027  24.547  23.925  1.00  0.00    -0.037 A 
ATOM     10  C   UNL A   1      31.485  25.230  22.796  1.00  0.00     0.005 A 
ATOM     11  C   UNL A   1      30.049  25.133  24.743  1.00  0.00     0.005 A 
ATOM     12  C   UNL A   1      30.942  26.465  22.467  1.00  0.00     0.009 A 
ATOM     13  C   UNL A   1      29.516  26.381  24.415  1.00  0.00     0.009 A 
ATOM     14  C   UNL A   1      29.958  27.061  23.272  1.00  0.00    -0.018 A 
BRANCH  14  15
ATOM     15  C   UNL A   1      29.494  28.407  22.930  1.00  0.00    -0.018 A 
ATOM     16  C   UNL A   1      28.155  28.780  23.125  1.00  0.00     0.010 A 
ATOM     17  C   UNL A   1      30.351  29.290  22.255  1.00  0.00     0.010 A 
ATOM     18  C   UNL A   1      27.667  29.979  22.601  1.00  0.00     0.021 A 
ATOM     19  C   UNL A   1      29.866  30.486  21.729  1.00  0.00     0.021 A 
ATOM     20  C   UNL A   1      28.521  30.817  21.888  1.00  0.00     0.041 A 
ATOM     21  Cl  UNL A   1      27.907  32.251  21.165  1.00  0.00    -0.084 Cl
ENDBRANCH  14  15
ENDBRANCH   8   9
ENDBRANCH   6   8
ENDBRANCH   5   6
ENDBRANCH   4   5
ENDBRANCH   3   4
ENDBRANCH   2   3
ENDBRANCH   1   2
BRANCH   1  22
ATOM     22  C   UNL A   1      31.783  29.497  26.496  1.00  0.00     0.261 C 
BRANCH  22  23
ATOM     23  O   UNL A   1      32.993  30.198  26.178  1.00  0.00    -0.460 OA
BRANCH  23  24
ATOM     24  C   UNL A   1      33.315  31.206  27.023  1.00  0.00     0.338 C 
ATOM     25  O   UNL A   1      32.574  32.085  27.436  1.00  0.00    -0.246 OA
BRANCH  24  26
ATOM     26  C   UNL A   1      34.660  30.953  27.575  1.00  0.00     0.060 A 
ATOM     27  C   UNL A   1      35.075  29.620  27.710  1.00  0.00     0.016 A 
ATOM     28  C   UNL A   1      35.500  32.003  27.951  1.00  0.00     0.016 A 
ATOM     29  C   UNL A   1      36.315  29.329  28.271  1.00  0.00     0.010 A 
ATOM     30  C   UNL A   1      36.737  31.709  28.523  1.00  0.00     0.010 A 
ATOM     31  C   UNL A   1      37.131  30.373  28.720  1.00  0.00    -0.014 A 
BRANCH  31  32
ATOM     32  C   UNL A   1      38.329  30.086  29.536  1.00  0.00     0.031 A 
ATOM     33  C   UNL A   1      39.352  29.131  28.991  1.00  0.00     0.074 A 
ATOM     34  C   UNL A   1      38.471  30.625  30.760  1.00  0.00     0.049 A 
ATOM     35  N   UNL A   1      40.410  28.631  29.571  1.00  0.00    -0.248 NA
ATOM     36  C   UNL A   1      39.146  28.664  27.608  1.00  0.00     0.031 C 
ATOM     37  C   UNL A   1      37.540  31.564  31.382  1.00  0.00     0.029 A 
ATOM     38  N   UNL A   1      39.433  30.417  31.716  1.00  0.00    -0.354 N 
ATOM     39  C   UNL A   1      40.966  27.755  28.647  1.00  0.00     0.074 A 
ATOM     40  C   UNL A   1      40.134  27.794  27.464  1.00  0.00     0.031 C 
ATOM     41  C   UNL A   1      37.948  31.816  32.637  1.00  0.00     0.029 A 
ATOM     42  C   UNL A   1      39.146  31.027  32.916  1.00  0.00     0.049 A 
ATOM     43  H   UNL A   1      40.246  29.886  31.559  1.00  0.00     0.167 HD
ATOM     44  C   UNL A   1      42.072  26.988  28.776  1.00  0.00     0.034 A 
ATOM     45  C   UNL A   1      39.756  30.916  34.113  1.00  0.00     0.034 A 
ATOM     46  C   UNL A   1      42.901  26.974  29.950  1.00  0.00     0.049 A 
ATOM     47  C   UNL A   1      40.973  30.037  34.234  1.00  0.00     0.074 A 
ATOM     48  C   UNL A   1      44.088  26.295  30.154  1.00  0.00     0.029 A 
ATOM     49  N   UNL A   1      42.615  27.650  31.126  1.00  0.00    -0.354 N 
ATOM     50  N   UNL A   1      41.571  29.321  33.312  1.00  0.00    -0.248 NA
ATOM     51  C   UNL A   1      41.618  29.969  35.555  1.00  0.00     0.031 C 
ATOM     52  C   UNL A   1      44.495  26.521  31.472  1.00  0.00     0.029 A 
ATOM     53  C   UNL A   1      43.587  27.380  32.072  1.00  0.00     0.049 A 
ATOM     54  H   UNL A   1      41.837  28.235  31.266  1.00  0.00     0.167 HD
ATOM     55  C   UNL A   1      42.675  28.744  33.931  1.00  0.00     0.074 A 
ATOM     56  C   UNL A   1      42.677  29.213  35.300  1.00  0.00     0.031 C 
ATOM     57  C   UNL A   1      43.599  27.894  33.416  1.00  0.00     0.034 A 
BRANCH  44  58
ATOM     58  C   UNL A   1      42.454  26.096  27.626  1.00  0.00     0.023 A 
ATOM     59  C   UNL A   1      43.312  26.573  26.615  1.00  0.00     0.012 A 
ATOM     60  C   UNL A   1      42.018  24.757  27.589  1.00  0.00     0.148 A 
ATOM     61  C   UNL A   1      43.710  25.738  25.571  1.00  0.00     0.002 A 
ATOM     62  C   UNL A   1      42.456  23.918  26.572  1.00  0.00     0.091 A 
ATOM     63  F   UNL A   1      41.183  24.331  28.547  1.00  0.00    -0.205 F 
ATOM     64  C   UNL A   1      43.292  24.410  25.557  1.00  0.00     0.022 A 
BRANCH  62  65
ATOM     65  S   UNL A   1      42.041  22.172  26.511  1.00  0.00     0.127 S 
ATOM     66  O   UNL A   1      42.504  21.714  27.820  1.00  0.00    -0.237 OA
ATOM     67  O   UNL A   1      40.586  22.209  26.358  1.00  0.00    -0.237 OA
ATOM     68  O   UNL A   1      42.761  21.625  25.371  1.00  0.00    -0.744 OA
ENDBRANCH  62  65
ENDBRANCH  44  58
BRANCH  45  69
ATOM     69  C   UNL A   1      39.223  31.652  35.295  1.00  0.00     0.023 A 
ATOM     70  C   UNL A   1      38.315  31.017  36.162  1.00  0.00     0.012 A 
ATOM     71  C   UNL A   1      39.618  32.977  35.564  1.00  0.00     0.148 A 
ATOM     72  C   UNL A   1      37.780  31.700  37.255  1.00  0.00     0.002 A 
ATOM     73  C   UNL A   1      39.127  33.632  36.687  1.00  0.00     0.091 A 
ATOM     74  F   UNL A   1      40.473  33.571  34.718  1.00  0.00    -0.205 F 
ATOM     75  C   UNL A   1      38.192  33.003  37.523  1.00  0.00     0.022 A 
BRANCH  73  76
ATOM     76  S   UNL A   1      39.702  35.260  37.183  1.00  0.00     0.127 S 
ATOM     77  O   UNL A   1      41.143  35.046  37.292  1.00  0.00    -0.237 OA
ATOM     78  O   UNL A   1      39.286  36.083  36.047  1.00  0.00    -0.237 OA
ATOM     79  O   UNL A   1      39.010  35.560  38.428  1.00  0.00    -0.744 OA
ENDBRANCH  73  76
ENDBRANCH  45  69
BRANCH  57  80
ATOM     80  C   UNL A   1      44.717  27.441  34.318  1.00  0.00     0.023 A 
ATOM     81  C   UNL A   1      45.890  28.212  34.427  1.00  0.00     0.012 A 
ATOM     82  C   UNL A   1      44.557  26.300  35.130  1.00  0.00     0.148 A 
ATOM     83  C   UNL A   1      46.901  27.839  35.313  1.00  0.00     0.002 A 
ATOM     84  C   UNL A   1      45.544  25.966  36.049  1.00  0.00     0.091 A 
ATOM     85  F   UNL A   1      43.437  25.575  35.000  1.00  0.00    -0.205 F 
ATOM     86  C   UNL A   1      46.721  26.726  36.132  1.00  0.00     0.022 A 
BRANCH  84  87
ATOM     87  S   UNL A   1      45.360  24.612  37.214  1.00  0.00     0.127 S 
ATOM     88  O   UNL A   1      46.626  24.671  37.942  1.00  0.00    -0.237 OA
ATOM     89  O   UNL A   1      44.191  25.028  37.988  1.00  0.00    -0.237 OA
ATOM     90  O   UNL A   1      45.162  23.411  36.413  1.00  0.00    -0.744 OA
ENDBRANCH  84  87
ENDBRANCH  57  80
ENDBRANCH  31  32
ENDBRANCH  24  26
ENDBRANCH  23  24
ENDBRANCH  22  23
ENDBRANCH   1  22
TORSDOF 19
ENDMDL
