MODEL 1
REMARK VINA RESULT:     -10.8      0.000      0.000
REMARK SMILES O=C(/C=C/Nc1cc(Cl)ccc1Cl)OCCOCCOC(=O)c1ccc(-c2c3nc(c(-c4cccc(S(=O)(=O)[O-])c4F)c4ccc([nH]4)c(-c4cccc(S(=O)(=O)[O-])c4F)c4nc(c(-c5cccc(S(=O)(=O)[O-])c5F)c5ccc2[nH]5)C=C4)C=C3)cc1
REMARK SMILES IDX 18 1 17 2 16 3 15 4 14 5 2 6 1 7 3 8 4 9 5 10 6 12 7 13
REMARK SMILES IDX 12 14 8 15 11 16 13 17 9 18 10 19 19 20 20 21 21 22 22 23
REMARK SMILES IDX 23 24 24 25 85 26 25 27 84 28 26 29 27 30 28 31 78 32 29 33
REMARK SMILES IDX 83 34 77 35 79 36 30 37 82 38 76 39 75 40 31 42 63 43 43 44
REMARK SMILES IDX 62 45 44 46 47 47 61 48 80 49 45 50 46 51 60 53 81 54 48 55
REMARK SMILES IDX 32 56 33 57 41 58 34 59 36 60 42 61 35 62 37 63 38 64 39 65
REMARK SMILES IDX 40 66 64 67 65 68 73 69 66 70 68 71 74 72 67 73 69 74 70 75
REMARK SMILES IDX 71 76 72 77 49 78 50 79 58 80 51 81 53 82 59 83 52 84 54 85
REMARK SMILES IDX 55 86 56 87 57 88
REMARK H PARENT 5 11 79 41 47 52
REMARK Flexibility Score: inf
ROOT
ATOM      1  C   UNL A   1      35.808  20.306  24.915  1.00  0.00     0.202 C 
ENDROOT
BRANCH   1   2
ATOM      2  O   UNL A   1      35.384  21.466  25.642  1.00  0.00    -0.374 OA
BRANCH   2   3
ATOM      3  C   UNL A   1      34.120  21.981  25.221  1.00  0.00     0.202 C 
BRANCH   3   4
ATOM      4  C   UNL A   1      32.983  20.964  25.187  1.00  0.00     0.261 C 
BRANCH   4   5
ATOM      5  O   UNL A   1      31.712  21.460  25.656  1.00  0.00    -0.460 OA
BRANCH   5   6
ATOM      6  C   UNL A   1      31.402  22.703  26.081  1.00  0.00     0.332 C 
ATOM      7  O   UNL A   1      31.319  22.946  27.283  1.00  0.00    -0.247 OA
BRANCH   6   8
ATOM      8  C   UNL A   1      30.999  23.762  25.142  1.00  0.00     0.111 C 
ATOM      9  C   UNL A   1      31.052  23.726  23.809  1.00  0.00     0.090 C 
BRANCH   9  10
ATOM     10  N   UNL A   1      30.577  24.669  22.932  1.00  0.00    -0.360 N 
ATOM     11  H   UNL A   1      29.986  24.380  22.200  1.00  0.00     0.166 HD
BRANCH  10  12
ATOM     12  C   UNL A   1      30.903  26.035  23.042  1.00  0.00     0.058 A 
ATOM     13  C   UNL A   1      32.172  26.483  22.634  1.00  0.00     0.048 A 
ATOM     14  C   UNL A   1      29.958  26.984  23.467  1.00  0.00     0.064 A 
ATOM     15  C   UNL A   1      32.507  27.834  22.725  1.00  0.00     0.043 A 
ATOM     16  C   UNL A   1      30.303  28.335  23.568  1.00  0.00     0.024 A 
ATOM     17  Cl  UNL A   1      28.358  26.512  23.916  1.00  0.00    -0.082 Cl
ATOM     18  Cl  UNL A   1      34.072  28.365  22.247  1.00  0.00    -0.084 Cl
ATOM     19  C   UNL A   1      31.582  28.760  23.204  1.00  0.00     0.022 A 
ENDBRANCH  10  12
ENDBRANCH   9  10
ENDBRANCH   6   8
ENDBRANCH   5   6
ENDBRANCH   4   5
ENDBRANCH   3   4
ENDBRANCH   2   3
ENDBRANCH   1   2
BRANCH   1  20
ATOM     20  C   UNL A   1      37.322  20.065  24.972  1.00  0.00     0.261 C 
BRANCH  20  21
ATOM     21  O   UNL A   1      38.004  21.195  25.533  1.00  0.00    -0.460 OA
BRANCH  21  22
ATOM     22  C   UNL A   1      39.206  20.916  26.095  1.00  0.00     0.338 C 
ATOM     23  O   UNL A   1      39.814  19.859  26.043  1.00  0.00    -0.246 OA
BRANCH  22  24
ATOM     24  C   UNL A   1      39.790  22.170  26.615  1.00  0.00     0.060 A 
ATOM     25  C   UNL A   1      39.288  23.381  26.116  1.00  0.00     0.016 A 
ATOM     26  C   UNL A   1      40.785  22.168  27.596  1.00  0.00     0.016 A 
ATOM     27  C   UNL A   1      39.801  24.592  26.574  1.00  0.00     0.010 A 
ATOM     28  C   UNL A   1      41.305  23.382  28.048  1.00  0.00     0.010 A 
ATOM     29  C   UNL A   1      40.839  24.596  27.514  1.00  0.00    -0.014 A 
BRANCH  29  30
ATOM     30  C   UNL A   1      41.556  25.855  27.815  1.00  0.00     0.031 A 
ATOM     31  C   UNL A   1      40.824  26.928  28.573  1.00  0.00     0.074 A 
ATOM     32  C   UNL A   1      42.823  26.046  27.410  1.00  0.00     0.049 A 
ATOM     33  N   UNL A   1      41.224  28.126  28.905  1.00  0.00    -0.248 NA
ATOM     34  C   UNL A   1      39.452  26.608  29.005  1.00  0.00     0.031 C 
ATOM     35  C   UNL A   1      43.630  25.078  26.670  1.00  0.00     0.029 A 
ATOM     36  N   UNL A   1      43.644  27.137  27.543  1.00  0.00    -0.354 N 
ATOM     37  C   UNL A   1      40.146  28.715  29.556  1.00  0.00     0.074 A 
ATOM     38  C   UNL A   1      39.071  27.749  29.560  1.00  0.00     0.031 C 
ATOM     39  C   UNL A   1      44.822  25.630  26.385  1.00  0.00     0.029 A 
ATOM     40  C   UNL A   1      44.851  26.997  26.901  1.00  0.00     0.049 A 
ATOM     41  H   UNL A   1      43.392  27.944  28.049  1.00  0.00     0.167 HD
ATOM     42  C   UNL A   1      40.064  29.945  30.114  1.00  0.00     0.034 A 
ATOM     43  C   UNL A   1      45.851  27.885  26.728  1.00  0.00     0.034 A 
ATOM     44  C   UNL A   1      41.142  30.894  30.118  1.00  0.00     0.049 A 
ATOM     45  C   UNL A   1      45.727  29.257  27.339  1.00  0.00     0.074 A 
ATOM     46  C   UNL A   1      41.180  32.149  30.700  1.00  0.00     0.029 A 
ATOM     47  N   UNL A   1      42.368  30.703  29.500  1.00  0.00    -0.354 N 
ATOM     48  N   UNL A   1      44.748  29.758  28.055  1.00  0.00    -0.248 NA
ATOM     49  C   UNL A   1      46.858  30.176  27.146  1.00  0.00     0.031 C 
ATOM     50  C   UNL A   1      42.417  32.730  30.401  1.00  0.00     0.029 A 
ATOM     51  C   UNL A   1      43.165  31.820  29.672  1.00  0.00     0.049 A 
ATOM     52  H   UNL A   1      42.632  29.890  29.011  1.00  0.00     0.167 HD
ATOM     53  C   UNL A   1      45.162  31.032  28.431  1.00  0.00     0.074 A 
ATOM     54  C   UNL A   1      46.488  31.219  27.878  1.00  0.00     0.031 C 
ATOM     55  C   UNL A   1      44.503  31.968  29.158  1.00  0.00     0.034 A 
BRANCH  42  56
ATOM     56  C   UNL A   1      38.768  30.326  30.777  1.00  0.00     0.023 A 
ATOM     57  C   UNL A   1      38.563  30.029  32.140  1.00  0.00     0.012 A 
ATOM     58  C   UNL A   1      37.773  31.024  30.064  1.00  0.00     0.148 A 
ATOM     59  C   UNL A   1      37.375  30.390  32.775  1.00  0.00     0.002 A 
ATOM     60  C   UNL A   1      36.612  31.422  30.717  1.00  0.00     0.091 A 
ATOM     61  F   UNL A   1      37.976  31.275  28.764  1.00  0.00    -0.205 F 
ATOM     62  C   UNL A   1      36.407  31.096  32.066  1.00  0.00     0.022 A 
BRANCH  60  63
ATOM     63  S   UNL A   1      35.339  32.403  29.914  1.00  0.00     0.127 S 
ATOM     64  O   UNL A   1      36.093  33.590  29.510  1.00  0.00    -0.237 OA
ATOM     65  O   UNL A   1      34.935  31.533  28.809  1.00  0.00    -0.237 OA
ATOM     66  O   UNL A   1      34.311  32.629  30.919  1.00  0.00    -0.744 OA
ENDBRANCH  60  63
ENDBRANCH  42  56
BRANCH  43  67
ATOM     67  C   UNL A   1      47.072  27.497  25.966  1.00  0.00     0.023 A 
ATOM     68  C   UNL A   1      48.130  26.845  26.629  1.00  0.00     0.012 A 
ATOM     69  C   UNL A   1      47.187  27.766  24.588  1.00  0.00     0.148 A 
ATOM     70  C   UNL A   1      49.294  26.498  25.942  1.00  0.00     0.002 A 
ATOM     71  C   UNL A   1      48.326  27.366  23.897  1.00  0.00     0.091 A 
ATOM     72  F   UNL A   1      46.177  28.401  23.978  1.00  0.00    -0.205 F 
ATOM     73  C   UNL A   1      49.389  26.749  24.576  1.00  0.00     0.022 A 
BRANCH  71  74
ATOM     74  S   UNL A   1      48.481  27.534  22.116  1.00  0.00     0.127 S 
ATOM     75  O   UNL A   1      49.637  28.418  21.999  1.00  0.00    -0.237 OA
ATOM     76  O   UNL A   1      48.718  26.150  21.704  1.00  0.00    -0.237 OA
ATOM     77  O   UNL A   1      47.213  28.087  21.661  1.00  0.00    -0.744 OA
ENDBRANCH  71  74
ENDBRANCH  43  67
BRANCH  55  78
ATOM     78  C   UNL A   1      45.217  33.264  29.447  1.00  0.00     0.023 A 
ATOM     79  C   UNL A   1      45.993  33.397  30.615  1.00  0.00     0.012 A 
ATOM     80  C   UNL A   1      45.181  34.321  28.515  1.00  0.00     0.148 A 
ATOM     81  C   UNL A   1      46.692  34.578  30.869  1.00  0.00     0.002 A 
ATOM     82  C   UNL A   1      45.922  35.472  28.749  1.00  0.00     0.091 A 
ATOM     83  F   UNL A   1      44.425  34.179  27.417  1.00  0.00    -0.205 F 
ATOM     84  C   UNL A   1      46.666  35.608  29.931  1.00  0.00     0.022 A 
BRANCH  82  85
ATOM     85  S   UNL A   1      46.030  36.807  27.552  1.00  0.00     0.127 S 
ATOM     86  O   UNL A   1      44.652  37.296  27.527  1.00  0.00    -0.237 OA
ATOM     87  O   UNL A   1      46.988  37.714  28.186  1.00  0.00    -0.237 OA
ATOM     88  O   UNL A   1      46.501  36.202  26.314  1.00  0.00    -0.744 OA
ENDBRANCH  82  85
ENDBRANCH  55  78
ENDBRANCH  29  30
ENDBRANCH  22  24
ENDBRANCH  21  22
ENDBRANCH  20  21
ENDBRANCH   1  20
TORSDOF 19
ENDMDL
MODEL 2
REMARK VINA RESULT:     -10.6      5.952     10.024
REMARK SMILES O=C(/C=C/Nc1cc(Cl)ccc1Cl)OCCOCCOC(=O)c1ccc(-c2c3nc(c(-c4cccc(S(=O)(=O)[O-])c4F)c4ccc([nH]4)c(-c4cccc(S(=O)(=O)[O-])c4F)c4nc(c(-c5cccc(S(=O)(=O)[O-])c5F)c5ccc2[nH]5)C=C4)C=C3)cc1
REMARK SMILES IDX 18 1 17 2 16 3 15 4 14 5 2 6 1 7 3 8 4 9 5 10 6 12 7 13
REMARK SMILES IDX 12 14 8 15 11 16 13 17 9 18 10 19 19 20 20 21 21 22 22 23
REMARK SMILES IDX 23 24 24 25 85 26 25 27 84 28 26 29 27 30 28 31 78 32 29 33
REMARK SMILES IDX 83 34 77 35 79 36 30 37 82 38 76 39 75 40 31 42 63 43 43 44
REMARK SMILES IDX 62 45 44 46 47 47 61 48 80 49 45 50 46 51 60 53 81 54 48 55
REMARK SMILES IDX 32 56 33 57 41 58 34 59 36 60 42 61 35 62 37 63 38 64 39 65
REMARK SMILES IDX 40 66 64 67 65 68 73 69 66 70 68 71 74 72 67 73 69 74 70 75
REMARK SMILES IDX 71 76 72 77 49 78 50 79 58 80 51 81 53 82 59 83 52 84 54 85
REMARK SMILES IDX 55 86 56 87 57 88
REMARK H PARENT 5 11 79 41 47 52
REMARK Flexibility Score: inf
ROOT
ATOM      1  C   UNL A   1      33.987  34.202  28.367  1.00  0.00     0.202 C 
ENDROOT
BRANCH   1   2
ATOM      2  O   UNL A   1      32.952  34.932  29.037  1.00  0.00    -0.374 OA
BRANCH   2   3
ATOM      3  C   UNL A   1      33.030  36.346  28.854  1.00  0.00     0.202 C 
BRANCH   3   4
ATOM      4  C   UNL A   1      33.456  37.137  30.087  1.00  0.00     0.261 C 
BRANCH   4   5
ATOM      5  O   UNL A   1      32.500  37.136  31.168  1.00  0.00    -0.460 OA
BRANCH   5   6
ATOM      6  C   UNL A   1      32.565  36.475  32.343  1.00  0.00     0.332 C 
ATOM      7  O   UNL A   1      31.781  36.746  33.252  1.00  0.00    -0.247 OA
BRANCH   6   8
ATOM      8  C   UNL A   1      33.656  35.535  32.641  1.00  0.00     0.111 C 
ATOM      9  C   UNL A   1      33.610  34.201  32.600  1.00  0.00     0.090 C 
BRANCH   9  10
ATOM     10  N   UNL A   1      34.655  33.327  32.773  1.00  0.00    -0.360 N 
ATOM     11  H   UNL A   1      34.475  32.447  33.175  1.00  0.00     0.166 HD
BRANCH  10  12
ATOM     12  C   UNL A   1      35.974  33.645  32.395  1.00  0.00     0.058 A 
ATOM     13  C   UNL A   1      36.348  33.574  31.042  1.00  0.00     0.048 A 
ATOM     14  C   UNL A   1      36.910  34.122  33.328  1.00  0.00     0.064 A 
ATOM     15  C   UNL A   1      37.646  33.897  30.649  1.00  0.00     0.043 A 
ATOM     16  C   UNL A   1      38.215  34.433  32.931  1.00  0.00     0.024 A 
ATOM     17  Cl  UNL A   1      36.497  34.302  34.996  1.00  0.00    -0.082 Cl
ATOM     18  Cl  UNL A   1      38.098  33.780  28.993  1.00  0.00    -0.084 Cl
ATOM     19  C   UNL A   1      38.585  34.312  31.591  1.00  0.00     0.022 A 
ENDBRANCH  10  12
ENDBRANCH   9  10
ENDBRANCH   6   8
ENDBRANCH   5   6
ENDBRANCH   4   5
ENDBRANCH   3   4
ENDBRANCH   2   3
ENDBRANCH   1   2
BRANCH   1  20
ATOM     20  C   UNL A   1      33.800  32.681  28.421  1.00  0.00     0.261 C 
BRANCH  20  21
ATOM     21  O   UNL A   1      34.570  32.029  27.402  1.00  0.00    -0.460 OA
BRANCH  21  22
ATOM     22  C   UNL A   1      34.588  30.675  27.476  1.00  0.00     0.338 C 
ATOM     23  O   UNL A   1      33.815  29.900  26.934  1.00  0.00    -0.246 OA
BRANCH  22  24
ATOM     24  C   UNL A   1      35.832  30.251  28.151  1.00  0.00     0.060 A 
ATOM     25  C   UNL A   1      37.052  30.610  27.559  1.00  0.00     0.016 A 
ATOM     26  C   UNL A   1      35.813  29.547  29.358  1.00  0.00     0.016 A 
ATOM     27  C   UNL A   1      38.254  30.238  28.154  1.00  0.00     0.010 A 
ATOM     28  C   UNL A   1      37.018  29.167  29.949  1.00  0.00     0.010 A 
ATOM     29  C   UNL A   1      38.242  29.482  29.333  1.00  0.00    -0.014 A 
BRANCH  29  30
ATOM     30  C   UNL A   1      39.494  28.872  29.830  1.00  0.00     0.031 A 
ATOM     31  C   UNL A   1      40.148  29.477  31.042  1.00  0.00     0.074 A 
ATOM     32  C   UNL A   1      40.046  27.815  29.211  1.00  0.00     0.049 A 
ATOM     33  N   UNL A   1      41.269  29.151  31.628  1.00  0.00    -0.248 NA
ATOM     34  C   UNL A   1      39.445  30.609  31.671  1.00  0.00     0.031 C 
ATOM     35  C   UNL A   1      39.502  27.147  28.030  1.00  0.00     0.029 A 
ATOM     36  N   UNL A   1      41.208  27.136  29.477  1.00  0.00    -0.354 N 
ATOM     37  C   UNL A   1      41.424  30.054  32.673  1.00  0.00     0.074 A 
ATOM     38  C   UNL A   1      40.290  30.950  32.633  1.00  0.00     0.031 C 
ATOM     39  C   UNL A   1      40.346  26.171  27.653  1.00  0.00     0.029 A 
ATOM     40  C   UNL A   1      41.500  26.164  28.550  1.00  0.00     0.049 A 
ATOM     41  H   UNL A   1      41.779  27.326  30.257  1.00  0.00     0.167 HD
ATOM     42  C   UNL A   1      42.414  30.122  33.593  1.00  0.00     0.034 A 
ATOM     43  C   UNL A   1      42.590  25.379  28.428  1.00  0.00     0.034 A 
ATOM     44  C   UNL A   1      43.531  29.219  33.634  1.00  0.00     0.049 A 
ATOM     45  C   UNL A   1      43.691  25.489  29.451  1.00  0.00     0.074 A 
ATOM     46  C   UNL A   1      44.563  29.169  34.554  1.00  0.00     0.029 A 
ATOM     47  N   UNL A   1      43.771  28.216  32.707  1.00  0.00    -0.354 N 
ATOM     48  N   UNL A   1      43.766  26.269  30.504  1.00  0.00    -0.248 NA
ATOM     49  C   UNL A   1      44.842  24.590  29.289  1.00  0.00     0.031 C 
ATOM     50  C   UNL A   1      45.447  28.159  34.161  1.00  0.00     0.029 A 
ATOM     51  C   UNL A   1      44.942  27.551  33.023  1.00  0.00     0.049 A 
ATOM     52  H   UNL A   1      43.193  28.008  31.938  1.00  0.00     0.167 HD
ATOM     53  C   UNL A   1      44.950  25.925  31.150  1.00  0.00     0.074 A 
ATOM     54  C   UNL A   1      45.550  24.856  30.380  1.00  0.00     0.031 C 
ATOM     55  C   UNL A   1      45.498  26.454  32.273  1.00  0.00     0.034 A 
BRANCH  42  56
ATOM     56  C   UNL A   1      42.325  31.202  34.637  1.00  0.00     0.023 A 
ATOM     57  C   UNL A   1      41.734  30.924  35.886  1.00  0.00     0.012 A 
ATOM     58  C   UNL A   1      42.872  32.479  34.400  1.00  0.00     0.148 A 
ATOM     59  C   UNL A   1      41.658  31.908  36.871  1.00  0.00     0.002 A 
ATOM     60  C   UNL A   1      42.835  33.439  35.404  1.00  0.00     0.091 A 
ATOM     61  F   UNL A   1      43.407  32.732  33.198  1.00  0.00    -0.205 F 
ATOM     62  C   UNL A   1      42.218  33.160  36.634  1.00  0.00     0.022 A 
BRANCH  60  63
ATOM     63  S   UNL A   1      43.598  35.055  35.225  1.00  0.00     0.127 S 
ATOM     64  O   UNL A   1      42.578  35.780  34.468  1.00  0.00    -0.237 OA
ATOM     65  O   UNL A   1      43.740  35.481  36.618  1.00  0.00    -0.237 OA
ATOM     66  O   UNL A   1      44.855  34.834  34.525  1.00  0.00    -0.744 OA
ENDBRANCH  60  63
ENDBRANCH  42  56
BRANCH  43  67
ATOM     67  C   UNL A   1      42.684  24.398  27.309  1.00  0.00     0.023 A 
ATOM     68  C   UNL A   1      43.367  24.750  26.129  1.00  0.00     0.012 A 
ATOM     69  C   UNL A   1      42.105  23.118  27.411  1.00  0.00     0.148 A 
ATOM     70  C   UNL A   1      43.444  23.859  25.058  1.00  0.00     0.002 A 
ATOM     71  C   UNL A   1      42.233  22.215  26.363  1.00  0.00     0.091 A 
ATOM     72  F   UNL A   1      41.445  22.807  28.535  1.00  0.00    -0.205 F 
ATOM     73  C   UNL A   1      42.886  22.589  25.178  1.00  0.00     0.022 A 
BRANCH  71  74
ATOM     74  S   UNL A   1      41.658  20.517  26.477  1.00  0.00     0.127 S 
ATOM     75  O   UNL A   1      40.219  20.675  26.285  1.00  0.00    -0.237 OA
ATOM     76  O   UNL A   1      42.364  19.886  25.361  1.00  0.00    -0.237 OA
ATOM     77  O   UNL A   1      42.073  20.049  27.793  1.00  0.00    -0.744 OA
ENDBRANCH  71  74
ENDBRANCH  43  67
BRANCH  55  78
ATOM     78  C   UNL A   1      46.788  25.855  32.773  1.00  0.00     0.023 A 
ATOM     79  C   UNL A   1      48.022  26.406  32.375  1.00  0.00     0.012 A 
ATOM     80  C   UNL A   1      46.770  24.795  33.702  1.00  0.00     0.148 A 
ATOM     81  C   UNL A   1      49.220  25.885  32.867  1.00  0.00     0.002 A 
ATOM     82  C   UNL A   1      47.964  24.319  34.227  1.00  0.00     0.091 A 
ATOM     83  F   UNL A   1      45.585  24.277  34.056  1.00  0.00    -0.205 F 
ATOM     84  C   UNL A   1      49.190  24.852  33.800  1.00  0.00     0.022 A 
BRANCH  82  85
ATOM     85  S   UNL A   1      48.017  23.060  35.509  1.00  0.00     0.127 S 
ATOM     86  O   UNL A   1      49.417  22.642  35.456  1.00  0.00    -0.237 OA
ATOM     87  O   UNL A   1      47.653  23.822  36.705  1.00  0.00    -0.237 OA
ATOM     88  O   UNL A   1      47.047  22.047  35.120  1.00  0.00    -0.744 OA
ENDBRANCH  82  85
ENDBRANCH  55  78
ENDBRANCH  29  30
ENDBRANCH  22  24
ENDBRANCH  21  22
ENDBRANCH  20  21
ENDBRANCH   1  20
TORSDOF 19
ENDMDL
MODEL 3
REMARK VINA RESULT:     -10.6      1.805      7.874
REMARK SMILES O=C(/C=C/Nc1cc(Cl)ccc1Cl)OCCOCCOC(=O)c1ccc(-c2c3nc(c(-c4cccc(S(=O)(=O)[O-])c4F)c4ccc([nH]4)c(-c4cccc(S(=O)(=O)[O-])c4F)c4nc(c(-c5cccc(S(=O)(=O)[O-])c5F)c5ccc2[nH]5)C=C4)C=C3)cc1
REMARK SMILES IDX 18 1 17 2 16 3 15 4 14 5 2 6 1 7 3 8 4 9 5 10 6 12 7 13
REMARK SMILES IDX 12 14 8 15 11 16 13 17 9 18 10 19 19 20 20 21 21 22 22 23
REMARK SMILES IDX 23 24 24 25 85 26 25 27 84 28 26 29 27 30 28 31 78 32 29 33
REMARK SMILES IDX 83 34 77 35 79 36 30 37 82 38 76 39 75 40 31 42 63 43 43 44
REMARK SMILES IDX 62 45 44 46 47 47 61 48 80 49 45 50 46 51 60 53 81 54 48 55
REMARK SMILES IDX 32 56 33 57 41 58 34 59 36 60 42 61 35 62 37 63 38 64 39 65
REMARK SMILES IDX 40 66 64 67 65 68 73 69 66 70 68 71 74 72 67 73 69 74 70 75
REMARK SMILES IDX 71 76 72 77 49 78 50 79 58 80 51 81 53 82 59 83 52 84 54 85
REMARK SMILES IDX 55 86 56 87 57 88
REMARK H PARENT 5 11 79 41 47 52
REMARK Flexibility Score: inf
ROOT
ATOM      1  C   UNL A   1      36.166  20.016  24.994  1.00  0.00     0.202 C 
ENDROOT
BRANCH   1   2
ATOM      2  O   UNL A   1      35.622  21.199  25.592  1.00  0.00    -0.374 OA
BRANCH   2   3
ATOM      3  C   UNL A   1      34.655  21.865  24.780  1.00  0.00     0.202 C 
BRANCH   3   4
ATOM      4  C   UNL A   1      33.284  21.198  24.723  1.00  0.00     0.261 C 
BRANCH   4   5
ATOM      5  O   UNL A   1      32.376  21.587  25.774  1.00  0.00    -0.460 OA
BRANCH   5   6
ATOM      6  C   UNL A   1      32.576  22.479  26.768  1.00  0.00     0.332 C 
ATOM      7  O   UNL A   1      33.187  22.151  27.783  1.00  0.00    -0.247 OA
BRANCH   6   8
ATOM      8  C   UNL A   1      31.946  23.808  26.751  1.00  0.00     0.111 C 
ATOM      9  C   UNL A   1      30.668  24.095  26.497  1.00  0.00     0.090 C 
BRANCH   9  10
ATOM     10  N   UNL A   1      30.057  25.322  26.587  1.00  0.00    -0.360 N 
ATOM     11  H   UNL A   1      29.199  25.390  27.065  1.00  0.00     0.166 HD
BRANCH  10  12
ATOM     12  C   UNL A   1      30.614  26.485  26.022  1.00  0.00     0.058 A 
ATOM     13  C   UNL A   1      31.394  27.342  26.818  1.00  0.00     0.048 A 
ATOM     14  C   UNL A   1      30.488  26.769  24.652  1.00  0.00     0.064 A 
ATOM     15  C   UNL A   1      31.963  28.492  26.271  1.00  0.00     0.043 A 
ATOM     16  C   UNL A   1      31.050  27.930  24.111  1.00  0.00     0.024 A 
ATOM     17  Cl  UNL A   1      29.603  25.722  23.601  1.00  0.00    -0.082 Cl
ATOM     18  Cl  UNL A   1      32.893  29.546  27.263  1.00  0.00    -0.084 Cl
ATOM     19  C   UNL A   1      31.782  28.796  24.924  1.00  0.00     0.022 A 
ENDBRANCH  10  12
ENDBRANCH   9  10
ENDBRANCH   6   8
ENDBRANCH   5   6
ENDBRANCH   4   5
ENDBRANCH   3   4
ENDBRANCH   2   3
ENDBRANCH   1   2
BRANCH   1  20
ATOM     20  C   UNL A   1      37.698  19.999  24.947  1.00  0.00     0.261 C 
BRANCH  20  21
ATOM     21  O   UNL A   1      38.246  21.190  25.527  1.00  0.00    -0.460 OA
BRANCH  21  22
ATOM     22  C   UNL A   1      39.417  21.018  26.188  1.00  0.00     0.338 C 
ATOM     23  O   UNL A   1      40.086  19.998  26.246  1.00  0.00    -0.246 OA
BRANCH  22  24
ATOM     24  C   UNL A   1      39.890  22.333  26.668  1.00  0.00     0.060 A 
ATOM     25  C   UNL A   1      39.270  23.480  26.150  1.00  0.00     0.016 A 
ATOM     26  C   UNL A   1      40.896  22.448  27.632  1.00  0.00     0.016 A 
ATOM     27  C   UNL A   1      39.675  24.744  26.570  1.00  0.00     0.010 A 
ATOM     28  C   UNL A   1      41.308  23.716  28.045  1.00  0.00     0.010 A 
ATOM     29  C   UNL A   1      40.722  24.868  27.491  1.00  0.00    -0.014 A 
BRANCH  29  30
ATOM     30  C   UNL A   1      41.324  26.195  27.750  1.00  0.00     0.031 A 
ATOM     31  C   UNL A   1      42.745  26.429  27.316  1.00  0.00     0.074 A 
ATOM     32  C   UNL A   1      40.628  27.165  28.368  1.00  0.00     0.049 A 
ATOM     33  N   UNL A   1      43.497  27.485  27.480  1.00  0.00    -0.248 NA
ATOM     34  C   UNL A   1      43.409  25.317  26.613  1.00  0.00     0.031 C 
ATOM     35  C   UNL A   1      39.247  27.050  28.831  1.00  0.00     0.029 A 
ATOM     36  N   UNL A   1      41.005  28.431  28.738  1.00  0.00    -0.354 N 
ATOM     37  C   UNL A   1      44.730  27.156  26.930  1.00  0.00     0.074 A 
ATOM     38  C   UNL A   1      44.631  25.799  26.441  1.00  0.00     0.031 C 
ATOM     39  C   UNL A   1      38.900  28.191  29.453  1.00  0.00     0.029 A 
ATOM     40  C   UNL A   1      40.042  29.102  29.454  1.00  0.00     0.049 A 
ATOM     41  H   UNL A   1      41.880  28.821  28.513  1.00  0.00     0.167 HD
ATOM     42  C   UNL A   1      45.842  27.920  26.827  1.00  0.00     0.034 A 
ATOM     43  C   UNL A   1      40.093  30.305  30.061  1.00  0.00     0.034 A 
ATOM     44  C   UNL A   1      45.928  29.273  27.303  1.00  0.00     0.049 A 
ATOM     45  C   UNL A   1      41.350  31.129  29.954  1.00  0.00     0.074 A 
ATOM     46  C   UNL A   1      46.992  30.153  27.205  1.00  0.00     0.029 A 
ATOM     47  N   UNL A   1      44.919  29.939  27.982  1.00  0.00    -0.354 N 
ATOM     48  N   UNL A   1      42.469  30.852  29.326  1.00  0.00    -0.248 NA
ATOM     49  C   UNL A   1      41.341  32.444  30.609  1.00  0.00     0.031 C 
ATOM     50  C   UNL A   1      46.636  31.339  27.856  1.00  0.00     0.029 A 
ATOM     51  C   UNL A   1      45.337  31.213  28.321  1.00  0.00     0.049 A 
ATOM     52  H   UNL A   1      44.035  29.560  28.190  1.00  0.00     0.167 HD
ATOM     53  C   UNL A   1      43.279  31.972  29.478  1.00  0.00     0.074 A 
ATOM     54  C   UNL A   1      42.516  32.939  30.240  1.00  0.00     0.031 C 
ATOM     55  C   UNL A   1      44.545  32.181  29.036  1.00  0.00     0.034 A 
BRANCH  42  56
ATOM     56  C   UNL A   1      47.049  27.314  26.164  1.00  0.00     0.023 A 
ATOM     57  C   UNL A   1      47.236  27.465  24.774  1.00  0.00     0.012 A 
ATOM     58  C   UNL A   1      48.024  26.638  26.924  1.00  0.00     0.148 A 
ATOM     59  C   UNL A   1      48.357  26.923  24.146  1.00  0.00     0.002 A 
ATOM     60  C   UNL A   1      49.162  26.143  26.297  1.00  0.00     0.091 A 
ATOM     61  F   UNL A   1      47.816  26.483  28.238  1.00  0.00    -0.205 F 
ATOM     62  C   UNL A   1      49.323  26.274  24.908  1.00  0.00     0.022 A 
BRANCH  60  63
ATOM     63  S   UNL A   1      50.501  25.360  27.201  1.00  0.00     0.127 S 
ATOM     64  O   UNL A   1      50.877  26.415  28.142  1.00  0.00    -0.237 OA
ATOM     65  O   UNL A   1      49.829  24.213  27.810  1.00  0.00    -0.237 OA
ATOM     66  O   UNL A   1      51.512  25.019  26.211  1.00  0.00    -0.744 OA
ENDBRANCH  60  63
ENDBRANCH  42  56
BRANCH  43  67
ATOM     67  C   UNL A   1      38.906  30.818  30.804  1.00  0.00     0.023 A 
ATOM     68  C   UNL A   1      38.809  30.606  32.193  1.00  0.00     0.012 A 
ATOM     69  C   UNL A   1      37.878  31.518  30.143  1.00  0.00     0.148 A 
ATOM     70  C   UNL A   1      37.694  31.053  32.905  1.00  0.00     0.002 A 
ATOM     71  C   UNL A   1      36.798  32.008  30.867  1.00  0.00     0.091 A 
ATOM     72  F   UNL A   1      37.980  31.695  28.818  1.00  0.00    -0.205 F 
ATOM     73  C   UNL A   1      36.694  31.761  32.245  1.00  0.00     0.022 A 
BRANCH  71  74
ATOM     74  S   UNL A   1      35.528  33.040  30.124  1.00  0.00     0.127 S 
ATOM     75  O   UNL A   1      34.746  32.059  29.377  1.00  0.00    -0.237 OA
ATOM     76  O   UNL A   1      34.862  33.592  31.304  1.00  0.00    -0.237 OA
ATOM     77  O   UNL A   1      36.241  34.024  29.321  1.00  0.00    -0.744 OA
ENDBRANCH  71  74
ENDBRANCH  43  67
BRANCH  55  78
ATOM     78  C   UNL A   1      45.175  33.522  29.317  1.00  0.00     0.023 A 
ATOM     79  C   UNL A   1      45.839  33.746  30.539  1.00  0.00     0.012 A 
ATOM     80  C   UNL A   1      45.175  34.530  28.333  1.00  0.00     0.148 A 
ATOM     81  C   UNL A   1      46.462  34.969  30.790  1.00  0.00     0.002 A 
ATOM     82  C   UNL A   1      45.843  35.724  28.570  1.00  0.00     0.091 A 
ATOM     83  F   UNL A   1      44.524  34.300  27.183  1.00  0.00    -0.205 F 
ATOM     84  C   UNL A   1      46.474  35.952  29.802  1.00  0.00     0.022 A 
BRANCH  82  85
ATOM     85  S   UNL A   1      45.997  37.005  27.319  1.00  0.00     0.127 S 
ATOM     86  O   UNL A   1      44.610  37.440  27.166  1.00  0.00    -0.237 OA
ATOM     87  O   UNL A   1      46.871  37.977  27.978  1.00  0.00    -0.237 OA
ATOM     88  O   UNL A   1      46.583  36.361  26.152  1.00  0.00    -0.744 OA
ENDBRANCH  82  85
ENDBRANCH  55  78
ENDBRANCH  29  30
ENDBRANCH  22  24
ENDBRANCH  21  22
ENDBRANCH  20  21
ENDBRANCH   1  20
TORSDOF 19
ENDMDL
