MODEL 1
REMARK VINA RESULT:     -11.6      0.000      0.000
REMARK SMILES Cc1cc(=O)n2nc(C)c(C(=O)OCCOCCOC(=O)c3ccc(-c4c5nc(c(-c6cccc(S(=O)(=O)[O-])c6F)c6ccc([nH]6)c(-c6cccc(S(=O)(=O)[O-])c6F)c6nc(c(-c7cccc(S(=O)(=O)[O-])c7F)c7ccc4[nH]7)C=C6)C=C5)cc3)c2[nH]1
REMARK SMILES IDX 17 1 16 2 15 3 14 4 13 5 11 6 12 7 10 8 1 9 2 10 3 11 86 12
REMARK SMILES IDX 4 13 85 14 5 16 6 17 7 18 8 19 9 20 18 21 19 22 20 23 21 24
REMARK SMILES IDX 22 25 23 26 84 27 24 28 83 29 25 30 26 31 27 32 77 33 28 34
REMARK SMILES IDX 82 35 76 36 78 37 29 38 81 39 75 40 74 41 30 43 62 44 42 45
REMARK SMILES IDX 61 46 43 47 46 48 60 49 79 50 44 51 45 52 59 54 80 55 47 56
REMARK SMILES IDX 31 57 32 58 40 59 33 60 35 61 41 62 34 63 36 64 37 65 38 66
REMARK SMILES IDX 39 67 63 68 64 69 72 70 65 71 67 72 73 73 66 74 68 75 69 76
REMARK SMILES IDX 70 77 71 78 48 79 49 80 57 81 50 82 52 83 58 84 51 85 53 86
REMARK SMILES IDX 54 87 55 88 56 89
REMARK H PARENT 86 15 78 42 46 53
REMARK Flexibility Score: inf
ROOT
ATOM      1  C   UNL A   1      31.370  32.787  26.664  1.00  0.00     0.202 C 
ENDROOT
BRANCH   1   2
ATOM      2  O   UNL A   1      31.279  31.445  26.195  1.00  0.00    -0.374 OA
BRANCH   2   3
ATOM      3  C   UNL A   1      32.286  30.491  26.533  1.00  0.00     0.202 C 
BRANCH   3   4
ATOM      4  C   UNL A   1      31.954  29.003  26.392  1.00  0.00     0.261 C 
BRANCH   4   5
ATOM      5  O   UNL A   1      32.651  28.384  25.299  1.00  0.00    -0.459 OA
BRANCH   5   6
ATOM      6  C   UNL A   1      32.286  28.836  24.067  1.00  0.00     0.343 C 
ATOM      7  O   UNL A   1      33.056  29.326  23.252  1.00  0.00    -0.246 OA
BRANCH   6   8
ATOM      8  C   UNL A   1      30.912  28.528  23.735  1.00  0.00     0.125 A 
ATOM      9  C   UNL A   1      28.900  33.037  23.080  1.00  0.00     0.064 C 
ATOM     10  C   UNL A   1      28.774  31.548  23.243  1.00  0.00     0.019 A 
ATOM     11  C   UNL A   1      27.581  30.930  23.143  1.00  0.00     0.095 A 
ATOM     12  N   UNL A   1      29.934  30.833  23.490  1.00  0.00    -0.343 N 
ATOM     13  C   UNL A   1      27.498  29.442  23.221  1.00  0.00     0.274 A 
ATOM     14  C   UNL A   1      29.934  29.479  23.544  1.00  0.00     0.152 A 
ATOM     15  H   UNL A   1      30.779  31.321  23.628  1.00  0.00     0.168 HD
ATOM     16  O   UNL A   1      26.442  28.825  23.168  1.00  0.00    -0.267 OA
ATOM     17  N   UNL A   1      28.746  28.809  23.353  1.00  0.00    -0.179 N 
ATOM     18  N   UNL A   1      28.931  27.467  23.274  1.00  0.00    -0.168 NA
ATOM     19  C   UNL A   1      30.256  27.305  23.427  1.00  0.00     0.077 A 
ATOM     20  C   UNL A   1      30.853  25.954  23.260  1.00  0.00     0.070 C 
ENDBRANCH   6   8
ENDBRANCH   5   6
ENDBRANCH   4   5
ENDBRANCH   3   4
ENDBRANCH   2   3
ENDBRANCH   1   2
BRANCH   1  21
ATOM     21  C   UNL A   1      32.599  33.228  27.439  1.00  0.00     0.261 C 
BRANCH  21  22
ATOM     22  O   UNL A   1      32.349  34.396  28.197  1.00  0.00    -0.460 OA
BRANCH  22  23
ATOM     23  C   UNL A   1      33.268  34.614  29.166  1.00  0.00     0.338 C 
ATOM     24  O   UNL A   1      33.328  35.560  29.925  1.00  0.00    -0.246 OA
BRANCH  23  25
ATOM     25  C   UNL A   1      34.293  33.575  29.060  1.00  0.00     0.060 A 
ATOM     26  C   UNL A   1      34.627  32.926  30.249  1.00  0.00     0.016 A 
ATOM     27  C   UNL A   1      35.107  33.531  27.919  1.00  0.00     0.016 A 
ATOM     28  C   UNL A   1      35.908  32.453  30.377  1.00  0.00     0.010 A 
ATOM     29  C   UNL A   1      36.390  33.076  28.055  1.00  0.00     0.010 A 
ATOM     30  C   UNL A   1      36.796  32.638  29.310  1.00  0.00    -0.014 A 
BRANCH  30  31
ATOM     31  C   UNL A   1      38.165  32.219  29.483  1.00  0.00     0.031 A 
ATOM     32  C   UNL A   1      38.310  30.790  29.143  1.00  0.00     0.074 A 
ATOM     33  C   UNL A   1      39.145  33.078  29.819  1.00  0.00     0.049 A 
ATOM     34  N   UNL A   1      38.399  29.806  29.972  1.00  0.00    -0.248 NA
ATOM     35  C   UNL A   1      38.048  30.381  27.752  1.00  0.00     0.031 C 
ATOM     36  C   UNL A   1      39.073  34.543  29.891  1.00  0.00     0.029 A 
ATOM     37  N   UNL A   1      40.461  32.831  30.053  1.00  0.00    -0.354 N 
ATOM     38  C   UNL A   1      38.528  28.685  29.161  1.00  0.00     0.074 A 
ATOM     39  C   UNL A   1      38.014  29.054  27.872  1.00  0.00     0.031 C 
ATOM     40  C   UNL A   1      40.329  35.053  29.891  1.00  0.00     0.029 A 
ATOM     41  C   UNL A   1      41.279  33.957  29.976  1.00  0.00     0.049 A 
ATOM     42  H   UNL A   1      40.807  31.932  30.258  1.00  0.00     0.167 HD
ATOM     43  C   UNL A   1      39.402  27.700  29.498  1.00  0.00     0.034 A 
ATOM     44  C   UNL A   1      42.635  33.946  29.929  1.00  0.00     0.034 A 
ATOM     45  C   UNL A   1      39.838  27.849  30.862  1.00  0.00     0.049 A 
ATOM     46  C   UNL A   1      43.067  32.649  30.490  1.00  0.00     0.074 A 
ATOM     47  C   UNL A   1      39.301  27.644  32.113  1.00  0.00     0.029 A 
ATOM     48  N   UNL A   1      40.893  28.715  30.997  1.00  0.00    -0.354 N 
ATOM     49  N   UNL A   1      42.905  32.326  31.742  1.00  0.00    -0.248 NA
ATOM     50  C   UNL A   1      43.377  31.547  29.586  1.00  0.00     0.031 C 
ATOM     51  C   UNL A   1      39.981  28.542  32.986  1.00  0.00     0.029 A 
ATOM     52  C   UNL A   1      40.948  29.236  32.260  1.00  0.00     0.049 A 
ATOM     53  H   UNL A   1      41.528  28.933  30.278  1.00  0.00     0.167 HD
ATOM     54  C   UNL A   1      42.631  30.974  31.694  1.00  0.00     0.074 A 
ATOM     55  C   UNL A   1      43.126  30.518  30.400  1.00  0.00     0.031 C 
ATOM     56  C   UNL A   1      41.727  30.419  32.548  1.00  0.00     0.034 A 
BRANCH  43  57
ATOM     57  C   UNL A   1      40.233  26.919  28.506  1.00  0.00     0.023 A 
ATOM     58  C   UNL A   1      40.199  25.513  28.599  1.00  0.00     0.012 A 
ATOM     59  C   UNL A   1      41.232  27.478  27.673  1.00  0.00     0.148 A 
ATOM     60  C   UNL A   1      41.110  24.710  27.901  1.00  0.00     0.002 A 
ATOM     61  C   UNL A   1      42.071  26.678  26.909  1.00  0.00     0.091 A 
ATOM     62  F   UNL A   1      41.487  28.788  27.718  1.00  0.00    -0.205 F 
ATOM     63  C   UNL A   1      42.033  25.290  27.040  1.00  0.00     0.022 A 
BRANCH  61  64
ATOM     64  S   UNL A   1      43.236  27.384  25.735  1.00  0.00     0.127 S 
ATOM     65  O   UNL A   1      43.905  26.190  25.228  1.00  0.00    -0.237 OA
ATOM     66  O   UNL A   1      42.335  28.043  24.789  1.00  0.00    -0.237 OA
ATOM     67  O   UNL A   1      44.063  28.302  26.507  1.00  0.00    -0.744 OA
ENDBRANCH  61  64
ENDBRANCH  43  57
BRANCH  44  68
ATOM     68  C   UNL A   1      43.625  34.815  29.248  1.00  0.00     0.023 A 
ATOM     69  C   UNL A   1      44.399  35.702  30.029  1.00  0.00     0.012 A 
ATOM     70  C   UNL A   1      44.075  34.501  27.950  1.00  0.00     0.148 A 
ATOM     71  C   UNL A   1      45.628  36.188  29.571  1.00  0.00     0.002 A 
ATOM     72  C   UNL A   1      45.306  34.979  27.503  1.00  0.00     0.091 A 
ATOM     73  F   UNL A   1      43.352  33.654  27.207  1.00  0.00    -0.205 F 
ATOM     74  C   UNL A   1      46.092  35.808  28.317  1.00  0.00     0.022 A 
BRANCH  72  75
ATOM     75  S   UNL A   1      46.021  34.477  25.931  1.00  0.00     0.127 S 
ATOM     76  O   UNL A   1      44.916  34.728  25.003  1.00  0.00    -0.237 OA
ATOM     77  O   UNL A   1      47.145  35.400  25.808  1.00  0.00    -0.237 OA
ATOM     78  O   UNL A   1      46.367  33.071  26.088  1.00  0.00    -0.744 OA
ENDBRANCH  72  75
ENDBRANCH  44  68
BRANCH  56  79
ATOM     79  C   UNL A   1      41.411  31.170  33.809  1.00  0.00     0.023 A 
ATOM     80  C   UNL A   1      42.248  31.174  34.943  1.00  0.00     0.012 A 
ATOM     81  C   UNL A   1      40.279  31.998  33.790  1.00  0.00     0.148 A 
ATOM     82  C   UNL A   1      41.951  31.990  36.039  1.00  0.00     0.002 A 
ATOM     83  C   UNL A   1      40.019  32.847  34.853  1.00  0.00     0.091 A 
ATOM     84  F   UNL A   1      39.489  31.961  32.706  1.00  0.00    -0.205 F 
ATOM     85  C   UNL A   1      40.847  32.840  35.987  1.00  0.00     0.022 A 
BRANCH  83  86
ATOM     86  S   UNL A   1      38.695  34.053  34.777  1.00  0.00     0.127 S 
ATOM     87  O   UNL A   1      37.510  33.219  34.953  1.00  0.00    -0.237 OA
ATOM     88  O   UNL A   1      39.006  34.926  35.910  1.00  0.00    -0.237 OA
ATOM     89  O   UNL A   1      38.818  34.703  33.477  1.00  0.00    -0.744 OA
ENDBRANCH  83  86
ENDBRANCH  56  79
ENDBRANCH  30  31
ENDBRANCH  23  25
ENDBRANCH  22  23
ENDBRANCH  21  22
ENDBRANCH   1  21
TORSDOF 17
ENDMDL
MODEL 2
REMARK VINA RESULT:     -11.2      4.515      9.002
REMARK SMILES Cc1cc(=O)n2nc(C)c(C(=O)OCCOCCOC(=O)c3ccc(-c4c5nc(c(-c6cccc(S(=O)(=O)[O-])c6F)c6ccc([nH]6)c(-c6cccc(S(=O)(=O)[O-])c6F)c6nc(c(-c7cccc(S(=O)(=O)[O-])c7F)c7ccc4[nH]7)C=C6)C=C5)cc3)c2[nH]1
REMARK SMILES IDX 17 1 16 2 15 3 14 4 13 5 11 6 12 7 10 8 1 9 2 10 3 11 86 12
REMARK SMILES IDX 4 13 85 14 5 16 6 17 7 18 8 19 9 20 18 21 19 22 20 23 21 24
REMARK SMILES IDX 22 25 23 26 84 27 24 28 83 29 25 30 26 31 27 32 77 33 28 34
REMARK SMILES IDX 82 35 76 36 78 37 29 38 81 39 75 40 74 41 30 43 62 44 42 45
REMARK SMILES IDX 61 46 43 47 46 48 60 49 79 50 44 51 45 52 59 54 80 55 47 56
REMARK SMILES IDX 31 57 32 58 40 59 33 60 35 61 41 62 34 63 36 64 37 65 38 66
REMARK SMILES IDX 39 67 63 68 64 69 72 70 65 71 67 72 73 73 66 74 68 75 69 76
REMARK SMILES IDX 70 77 71 78 48 79 49 80 57 81 50 82 52 83 58 84 51 85 53 86
REMARK SMILES IDX 54 87 55 88 56 89
REMARK H PARENT 86 15 78 42 46 53
REMARK Flexibility Score: inf
ROOT
ATOM      1  C   UNL A   1      39.490  21.506  26.100  1.00  0.00     0.202 C 
ENDROOT
BRANCH   1   2
ATOM      2  O   UNL A   1      38.622  20.621  25.399  1.00  0.00    -0.374 OA
BRANCH   2   3
ATOM      3  C   UNL A   1      37.364  21.083  24.903  1.00  0.00     0.202 C 
BRANCH   3   4
ATOM      4  C   UNL A   1      36.698  22.268  25.606  1.00  0.00     0.261 C 
BRANCH   4   5
ATOM      5  O   UNL A   1      35.294  22.361  25.319  1.00  0.00    -0.459 OA
BRANCH   5   6
ATOM      6  C   UNL A   1      34.539  21.361  25.854  1.00  0.00     0.343 C 
ATOM      7  O   UNL A   1      34.441  21.131  27.053  1.00  0.00    -0.246 OA
BRANCH   6   8
ATOM      8  C   UNL A   1      33.717  20.685  24.874  1.00  0.00     0.125 A 
ATOM      9  C   UNL A   1      35.192  15.945  25.277  1.00  0.00     0.064 C 
ATOM     10  C   UNL A   1      34.439  17.037  24.568  1.00  0.00     0.019 A 
ATOM     11  C   UNL A   1      33.671  16.774  23.492  1.00  0.00     0.095 A 
ATOM     12  N   UNL A   1      34.554  18.321  25.071  1.00  0.00    -0.343 N 
ATOM     13  C   UNL A   1      32.865  17.860  22.863  1.00  0.00     0.274 A 
ATOM     14  C   UNL A   1      33.829  19.348  24.564  1.00  0.00     0.152 A 
ATOM     15  H   UNL A   1      35.178  18.493  25.813  1.00  0.00     0.168 HD
ATOM     16  O   UNL A   1      32.174  17.692  21.866  1.00  0.00    -0.267 OA
ATOM     17  N   UNL A   1      32.963  19.097  23.523  1.00  0.00    -0.179 N 
ATOM     18  N   UNL A   1      32.195  20.178  23.235  1.00  0.00    -0.168 NA
ATOM     19  C   UNL A   1      32.599  21.115  24.108  1.00  0.00     0.077 A 
ATOM     20  C   UNL A   1      31.875  22.411  24.179  1.00  0.00     0.070 C 
ENDBRANCH   6   8
ENDBRANCH   5   6
ENDBRANCH   4   5
ENDBRANCH   3   4
ENDBRANCH   2   3
ENDBRANCH   1   2
BRANCH   1  21
ATOM     21  C   UNL A   1      40.993  21.304  26.016  1.00  0.00     0.261 C 
BRANCH  21  22
ATOM     22  O   UNL A   1      41.678  22.054  27.000  1.00  0.00    -0.460 OA
BRANCH  22  23
ATOM     23  C   UNL A   1      41.976  23.313  26.603  1.00  0.00     0.338 C 
ATOM     24  O   UNL A   1      42.612  23.645  25.623  1.00  0.00    -0.246 OA
BRANCH  23  25
ATOM     25  C   UNL A   1      41.523  24.236  27.643  1.00  0.00     0.060 A 
ATOM     26  C   UNL A   1      40.315  24.890  27.394  1.00  0.00     0.016 A 
ATOM     27  C   UNL A   1      42.436  24.676  28.613  1.00  0.00     0.016 A 
ATOM     28  C   UNL A   1      40.147  26.140  27.932  1.00  0.00     0.010 A 
ATOM     29  C   UNL A   1      42.275  25.930  29.133  1.00  0.00     0.010 A 
ATOM     30  C   UNL A   1      41.184  26.678  28.704  1.00  0.00    -0.014 A 
BRANCH  30  31
ATOM     31  C   UNL A   1      41.039  28.027  29.194  1.00  0.00     0.031 A 
ATOM     32  C   UNL A   1      42.051  28.907  28.576  1.00  0.00     0.074 A 
ATOM     33  C   UNL A   1      40.044  28.390  30.024  1.00  0.00     0.049 A 
ATOM     34  N   UNL A   1      43.141  29.329  29.122  1.00  0.00    -0.248 NA
ATOM     35  C   UNL A   1      41.990  29.112  27.118  1.00  0.00     0.031 C 
ATOM     36  C   UNL A   1      38.874  27.599  30.427  1.00  0.00     0.029 A 
ATOM     37  N   UNL A   1      39.799  29.599  30.594  1.00  0.00    -0.354 N 
ATOM     38  C   UNL A   1      43.729  30.121  28.144  1.00  0.00     0.074 A 
ATOM     39  C   UNL A   1      43.159  29.714  26.891  1.00  0.00     0.031 C 
ATOM     40  C   UNL A   1      37.935  28.425  30.950  1.00  0.00     0.029 A 
ATOM     41  C   UNL A   1      38.496  29.761  31.060  1.00  0.00     0.049 A 
ATOM     42  H   UNL A   1      40.485  30.302  30.670  1.00  0.00     0.167 HD
ATOM     43  C   UNL A   1      44.320  31.297  28.487  1.00  0.00     0.034 A 
ATOM     44  C   UNL A   1      37.934  30.935  31.444  1.00  0.00     0.034 A 
ATOM     45  C   UNL A   1      44.516  31.372  29.911  1.00  0.00     0.049 A 
ATOM     46  C   UNL A   1      39.048  31.848  31.775  1.00  0.00     0.074 A 
ATOM     47  C   UNL A   1      45.365  30.807  30.837  1.00  0.00     0.029 A 
ATOM     48  N   UNL A   1      43.411  31.829  30.583  1.00  0.00    -0.354 N 
ATOM     49  N   UNL A   1      39.842  31.661  32.791  1.00  0.00    -0.248 NA
ATOM     50  C   UNL A   1      39.512  32.802  30.775  1.00  0.00     0.031 C 
ATOM     51  C   UNL A   1      44.655  30.806  32.073  1.00  0.00     0.029 A 
ATOM     52  C   UNL A   1      43.415  31.414  31.885  1.00  0.00     0.049 A 
ATOM     53  H   UNL A   1      42.706  32.385  30.179  1.00  0.00     0.167 HD
ATOM     54  C   UNL A   1      41.068  32.097  32.328  1.00  0.00     0.074 A 
ATOM     55  C   UNL A   1      40.773  32.956  31.188  1.00  0.00     0.031 C 
ATOM     56  C   UNL A   1      42.213  31.454  32.688  1.00  0.00     0.034 A 
BRANCH  43  57
ATOM     57  C   UNL A   1      44.271  32.554  27.650  1.00  0.00     0.023 A 
ATOM     58  C   UNL A   1      45.217  32.678  26.613  1.00  0.00     0.012 A 
ATOM     59  C   UNL A   1      43.535  33.717  27.982  1.00  0.00     0.148 A 
ATOM     60  C   UNL A   1      45.419  33.892  25.945  1.00  0.00     0.002 A 
ATOM     61  C   UNL A   1      43.669  34.892  27.255  1.00  0.00     0.091 A 
ATOM     62  F   UNL A   1      42.802  33.752  29.098  1.00  0.00    -0.205 F 
ATOM     63  C   UNL A   1      44.631  34.995  26.251  1.00  0.00     0.022 A 
BRANCH  61  64
ATOM     64  S   UNL A   1      42.626  36.322  27.575  1.00  0.00     0.127 S 
ATOM     65  O   UNL A   1      43.345  36.973  28.666  1.00  0.00    -0.237 OA
ATOM     66  O   UNL A   1      42.682  37.020  26.290  1.00  0.00    -0.237 OA
ATOM     67  O   UNL A   1      41.312  35.785  27.905  1.00  0.00    -0.744 OA
ENDBRANCH  61  64
ENDBRANCH  43  57
BRANCH  44  68
ATOM     68  C   UNL A   1      36.554  31.469  31.348  1.00  0.00     0.023 A 
ATOM     69  C   UNL A   1      35.991  32.101  32.479  1.00  0.00     0.012 A 
ATOM     70  C   UNL A   1      35.969  31.711  30.088  1.00  0.00     0.148 A 
ATOM     71  C   UNL A   1      34.940  33.015  32.352  1.00  0.00     0.002 A 
ATOM     72  C   UNL A   1      34.929  32.631  29.965  1.00  0.00     0.091 A 
ATOM     73  F   UNL A   1      36.502  31.122  29.009  1.00  0.00    -0.205 F 
ATOM     74  C   UNL A   1      34.425  33.297  31.092  1.00  0.00     0.022 A 
BRANCH  72  75
ATOM     75  S   UNL A   1      34.255  33.116  28.370  1.00  0.00     0.127 S 
ATOM     76  O   UNL A   1      33.667  31.862  27.897  1.00  0.00    -0.237 OA
ATOM     77  O   UNL A   1      33.288  34.139  28.755  1.00  0.00    -0.237 OA
ATOM     78  O   UNL A   1      35.393  33.580  27.588  1.00  0.00    -0.744 OA
ENDBRANCH  72  75
ENDBRANCH  44  68
BRANCH  56  79
ATOM     79  C   UNL A   1      42.175  30.607  33.927  1.00  0.00     0.023 A 
ATOM     80  C   UNL A   1      41.871  29.231  33.920  1.00  0.00     0.012 A 
ATOM     81  C   UNL A   1      42.582  31.214  35.124  1.00  0.00     0.148 A 
ATOM     82  C   UNL A   1      41.971  28.479  35.094  1.00  0.00     0.002 A 
ATOM     83  C   UNL A   1      42.733  30.454  36.273  1.00  0.00     0.091 A 
ATOM     84  F   UNL A   1      42.846  32.529  35.107  1.00  0.00    -0.205 F 
ATOM     85  C   UNL A   1      42.419  29.086  36.267  1.00  0.00     0.022 A 
BRANCH  83  86
ATOM     86  S   UNL A   1      43.436  31.156  37.765  1.00  0.00     0.127 S 
ATOM     87  O   UNL A   1      42.243  31.567  38.501  1.00  0.00    -0.237 OA
ATOM     88  O   UNL A   1      44.149  30.014  38.339  1.00  0.00    -0.237 OA
ATOM     89  O   UNL A   1      44.306  32.240  37.328  1.00  0.00    -0.744 OA
ENDBRANCH  83  86
ENDBRANCH  56  79
ENDBRANCH  30  31
ENDBRANCH  23  25
ENDBRANCH  22  23
ENDBRANCH  21  22
ENDBRANCH   1  21
TORSDOF 17
ENDMDL
MODEL 3
REMARK VINA RESULT:     -11.2      1.664      2.910
REMARK SMILES Cc1cc(=O)n2nc(C)c(C(=O)OCCOCCOC(=O)c3ccc(-c4c5nc(c(-c6cccc(S(=O)(=O)[O-])c6F)c6ccc([nH]6)c(-c6cccc(S(=O)(=O)[O-])c6F)c6nc(c(-c7cccc(S(=O)(=O)[O-])c7F)c7ccc4[nH]7)C=C6)C=C5)cc3)c2[nH]1
REMARK SMILES IDX 17 1 16 2 15 3 14 4 13 5 11 6 12 7 10 8 1 9 2 10 3 11 86 12
REMARK SMILES IDX 4 13 85 14 5 16 6 17 7 18 8 19 9 20 18 21 19 22 20 23 21 24
REMARK SMILES IDX 22 25 23 26 84 27 24 28 83 29 25 30 26 31 27 32 77 33 28 34
REMARK SMILES IDX 82 35 76 36 78 37 29 38 81 39 75 40 74 41 30 43 62 44 42 45
REMARK SMILES IDX 61 46 43 47 46 48 60 49 79 50 44 51 45 52 59 54 80 55 47 56
REMARK SMILES IDX 31 57 32 58 40 59 33 60 35 61 41 62 34 63 36 64 37 65 38 66
REMARK SMILES IDX 39 67 63 68 64 69 72 70 65 71 67 72 73 73 66 74 68 75 69 76
REMARK SMILES IDX 70 77 71 78 48 79 49 80 57 81 50 82 52 83 58 84 51 85 53 86
REMARK SMILES IDX 54 87 55 88 56 89
REMARK H PARENT 86 15 78 42 46 53
REMARK Flexibility Score: inf
ROOT
ATOM      1  C   UNL A   1      33.213  31.646  27.479  1.00  0.00     0.202 C 
ENDROOT
BRANCH   1   2
ATOM      2  O   UNL A   1      32.448  30.544  26.998  1.00  0.00    -0.374 OA
BRANCH   2   3
ATOM      3  C   UNL A   1      32.946  29.211  27.117  1.00  0.00     0.202 C 
BRANCH   3   4
ATOM      4  C   UNL A   1      31.938  28.074  27.299  1.00  0.00     0.261 C 
BRANCH   4   5
ATOM      5  O   UNL A   1      31.046  27.942  26.181  1.00  0.00    -0.459 OA
BRANCH   5   6
ATOM      6  C   UNL A   1      30.891  26.667  25.728  1.00  0.00     0.343 C 
ATOM      7  O   UNL A   1      30.429  25.747  26.391  1.00  0.00    -0.246 OA
BRANCH   6   8
ATOM      8  C   UNL A   1      31.170  26.530  24.315  1.00  0.00     0.125 A 
ATOM      9  C   UNL A   1      33.608  22.193  24.090  1.00  0.00     0.064 C 
ATOM     10  C   UNL A   1      33.145  23.480  23.465  1.00  0.00     0.019 A 
ATOM     11  C   UNL A   1      33.377  23.752  22.165  1.00  0.00     0.095 A 
ATOM     12  N   UNL A   1      32.459  24.370  24.274  1.00  0.00    -0.343 N 
ATOM     13  C   UNL A   1      32.828  24.995  21.550  1.00  0.00     0.274 A 
ATOM     14  C   UNL A   1      31.911  25.504  23.772  1.00  0.00     0.152 A 
ATOM     15  H   UNL A   1      32.368  24.175  25.234  1.00  0.00     0.168 HD
ATOM     16  O   UNL A   1      33.031  25.313  20.385  1.00  0.00    -0.267 OA
ATOM     17  N   UNL A   1      32.049  25.768  22.428  1.00  0.00    -0.179 N 
ATOM     18  N   UNL A   1      31.315  26.845  22.048  1.00  0.00    -0.168 NA
ATOM     19  C   UNL A   1      30.720  27.258  23.179  1.00  0.00     0.077 A 
ATOM     20  C   UNL A   1      29.716  28.352  23.122  1.00  0.00     0.070 C 
ENDBRANCH   6   8
ENDBRANCH   5   6
ENDBRANCH   4   5
ENDBRANCH   3   4
ENDBRANCH   2   3
ENDBRANCH   1   2
BRANCH   1  21
ATOM     21  C   UNL A   1      32.565  33.015  27.591  1.00  0.00     0.261 C 
BRANCH  21  22
ATOM     22  O   UNL A   1      33.512  34.018  27.900  1.00  0.00    -0.460 OA
BRANCH  22  23
ATOM     23  C   UNL A   1      33.547  34.337  29.215  1.00  0.00     0.338 C 
ATOM     24  O   UNL A   1      32.627  34.739  29.899  1.00  0.00    -0.246 OA
BRANCH  23  25
ATOM     25  C   UNL A   1      34.936  34.257  29.664  1.00  0.00     0.060 A 
ATOM     26  C   UNL A   1      35.906  34.527  28.698  1.00  0.00     0.016 A 
ATOM     27  C   UNL A   1      35.230  33.597  30.867  1.00  0.00     0.016 A 
ATOM     28  C   UNL A   1      37.118  33.898  28.820  1.00  0.00     0.010 A 
ATOM     29  C   UNL A   1      36.432  32.955  30.977  1.00  0.00     0.010 A 
ATOM     30  C   UNL A   1      37.315  33.036  29.906  1.00  0.00    -0.014 A 
BRANCH  30  31
ATOM     31  C   UNL A   1      38.557  32.309  29.982  1.00  0.00     0.031 A 
ATOM     32  C   UNL A   1      38.368  30.921  29.518  1.00  0.00     0.074 A 
ATOM     33  C   UNL A   1      39.715  32.893  30.344  1.00  0.00     0.049 A 
ATOM     34  N   UNL A   1      38.253  29.869  30.257  1.00  0.00    -0.248 NA
ATOM     35  C   UNL A   1      37.985  30.709  28.110  1.00  0.00     0.031 C 
ATOM     36  C   UNL A   1      39.977  34.325  30.541  1.00  0.00     0.029 A 
ATOM     37  N   UNL A   1      40.946  32.339  30.497  1.00  0.00    -0.354 N 
ATOM     38  C   UNL A   1      38.105  28.827  29.350  1.00  0.00     0.074 A 
ATOM     39  C   UNL A   1      37.655  29.417  28.121  1.00  0.00     0.031 C 
ATOM     40  C   UNL A   1      41.315  34.540  30.526  1.00  0.00     0.029 A 
ATOM     41  C   UNL A   1      41.995  33.256  30.477  1.00  0.00     0.049 A 
ATOM     42  H   UNL A   1      41.085  31.370  30.610  1.00  0.00     0.167 HD
ATOM     43  C   UNL A   1      38.742  27.645  29.565  1.00  0.00     0.034 A 
ATOM     44  C   UNL A   1      43.312  32.949  30.368  1.00  0.00     0.034 A 
ATOM     45  C   UNL A   1      39.234  27.568  30.915  1.00  0.00     0.049 A 
ATOM     46  C   UNL A   1      43.454  31.542  30.799  1.00  0.00     0.074 A 
ATOM     47  C   UNL A   1      38.697  27.375  32.168  1.00  0.00     0.029 A 
ATOM     48  N   UNL A   1      40.461  28.162  31.075  1.00  0.00    -0.354 N 
ATOM     49  N   UNL A   1      43.255  31.151  32.026  1.00  0.00    -0.248 NA
ATOM     50  C   UNL A   1      43.485  30.486  29.794  1.00  0.00     0.031 C 
ATOM     51  C   UNL A   1      39.584  28.015  33.081  1.00  0.00     0.029 A 
ATOM     52  C   UNL A   1      40.664  28.539  32.372  1.00  0.00     0.049 A 
ATOM     53  H   UNL A   1      41.111  28.297  30.348  1.00  0.00     0.167 HD
ATOM     54  C   UNL A   1      42.681  29.903  31.878  1.00  0.00     0.074 A 
ATOM     55  C   UNL A   1      43.028  29.469  30.530  1.00  0.00     0.031 C 
ATOM     56  C   UNL A   1      41.698  29.488  32.723  1.00  0.00     0.034 A 
BRANCH  43  57
ATOM     57  C   UNL A   1      39.350  26.793  28.475  1.00  0.00     0.023 A 
ATOM     58  C   UNL A   1      38.955  25.441  28.414  1.00  0.00     0.012 A 
ATOM     59  C   UNL A   1      40.464  27.166  27.684  1.00  0.00     0.148 A 
ATOM     60  C   UNL A   1      39.633  24.514  27.612  1.00  0.00     0.002 A 
ATOM     61  C   UNL A   1      41.073  26.268  26.819  1.00  0.00     0.091 A 
ATOM     62  F   UNL A   1      41.048  28.354  27.866  1.00  0.00    -0.205 F 
ATOM     63  C   UNL A   1      40.679  24.931  26.798  1.00  0.00     0.022 A 
BRANCH  61  64
ATOM     64  S   UNL A   1      42.388  26.778  25.703  1.00  0.00     0.127 S 
ATOM     65  O   UNL A   1      43.513  26.926  26.621  1.00  0.00    -0.237 OA
ATOM     66  O   UNL A   1      42.469  25.630  24.800  1.00  0.00    -0.237 OA
ATOM     67  O   UNL A   1      41.913  28.002  25.070  1.00  0.00    -0.744 OA
ENDBRANCH  61  64
ENDBRANCH  43  57
BRANCH  44  68
ATOM     68  C   UNL A   1      44.455  33.633  29.718  1.00  0.00     0.023 A 
ATOM     69  C   UNL A   1      45.640  33.831  30.463  1.00  0.00     0.012 A 
ATOM     70  C   UNL A   1      44.526  33.725  28.314  1.00  0.00     0.148 A 
ATOM     71  C   UNL A   1      46.872  34.021  29.829  1.00  0.00     0.002 A 
ATOM     72  C   UNL A   1      45.758  33.903  27.686  1.00  0.00     0.091 A 
ATOM     73  F   UNL A   1      43.410  33.530  27.600  1.00  0.00    -0.205 F 
ATOM     74  C   UNL A   1      46.934  34.033  28.441  1.00  0.00     0.022 A 
BRANCH  72  75
ATOM     75  S   UNL A   1      45.946  33.854  25.899  1.00  0.00     0.127 S 
ATOM     76  O   UNL A   1      45.163  35.018  25.480  1.00  0.00    -0.237 OA
ATOM     77  O   UNL A   1      47.390  34.001  25.747  1.00  0.00    -0.237 OA
ATOM     78  O   UNL A   1      45.391  32.573  25.481  1.00  0.00    -0.744 OA
ENDBRANCH  72  75
ENDBRANCH  44  68
BRANCH  56  79
ATOM     79  C   UNL A   1      41.591  30.173  34.055  1.00  0.00     0.023 A 
ATOM     80  C   UNL A   1      42.472  29.929  35.128  1.00  0.00     0.012 A 
ATOM     81  C   UNL A   1      40.631  31.189  34.173  1.00  0.00     0.148 A 
ATOM     82  C   UNL A   1      42.388  30.688  36.299  1.00  0.00     0.002 A 
ATOM     83  C   UNL A   1      40.587  31.976  35.313  1.00  0.00     0.091 A 
ATOM     84  F   UNL A   1      39.793  31.386  33.145  1.00  0.00    -0.205 F 
ATOM     85  C   UNL A   1      41.457  31.723  36.384  1.00  0.00     0.022 A 
BRANCH  83  86
ATOM     86  S   UNL A   1      39.506  33.401  35.416  1.00  0.00     0.127 S 
ATOM     87  O   UNL A   1      39.895  34.166  34.234  1.00  0.00    -0.237 OA
ATOM     88  O   UNL A   1      38.178  32.789  35.343  1.00  0.00    -0.237 OA
ATOM     89  O   UNL A   1      39.798  34.035  36.696  1.00  0.00    -0.744 OA
ENDBRANCH  83  86
ENDBRANCH  56  79
ENDBRANCH  30  31
ENDBRANCH  23  25
ENDBRANCH  22  23
ENDBRANCH  21  22
ENDBRANCH   1  21
TORSDOF 17
ENDMDL
