MODEL 1
REMARK VINA RESULT:     -10.9      0.000      0.000
REMARK SMILES Cn1ncc(C(=O)OCCOCCOC(=O)c2ccc(-c3c4nc(c(-c5cccc(S(=O)(=O)[O-])c5F)c5ccc([nH]5)c(-c5cccc(S(=O)(=O)[O-])c5F)c5nc(c(-c6cccc(S(=O)(=O)[O-])c6F)c6ccc3[nH]6)C=C5)C=C4)cc2)c1NS(=O)(=O)[C@@H]1CCS(=O)(=O)C1
REMARK SMILES IDX 11 1 10 2 9 3 8 4 6 5 7 6 5 7 1 8 2 9 3 10 80 11 4 12 81 13
REMARK SMILES IDX 82 15 83 16 84 17 85 18 86 19 91 20 87 21 88 22 89 23 90 24
REMARK SMILES IDX 12 25 13 26 14 27 15 28 16 29 17 30 18 31 79 32 19 33 78 34
REMARK SMILES IDX 20 35 21 36 22 37 72 38 23 39 77 40 71 41 73 42 24 43 76 44
REMARK SMILES IDX 70 45 69 46 25 48 57 49 37 50 56 51 38 52 41 53 55 54 74 55
REMARK SMILES IDX 39 56 40 57 54 59 75 60 42 61 26 62 27 63 35 64 28 65 30 66
REMARK SMILES IDX 36 67 29 68 31 69 32 70 33 71 34 72 58 73 59 74 67 75 60 76
REMARK SMILES IDX 62 77 68 78 61 79 63 80 64 81 65 82 66 83 43 84 44 85 52 86
REMARK SMILES IDX 45 87 47 88 53 89 46 90 48 91 49 92 50 93 51 94
REMARK H PARENT 81 14 73 47 41 58
REMARK Flexibility Score: inf
ROOT
ATOM      1  O   UNL A   1      33.001  30.287  26.148  1.00  0.00    -0.374 OA
ENDROOT
BRANCH   1   2
ATOM      2  C   UNL A   1      33.587  29.070  26.611  1.00  0.00     0.202 C 
BRANCH   2   3
ATOM      3  C   UNL A   1      33.318  27.871  25.667  1.00  0.00     0.261 C 
BRANCH   3   4
ATOM      4  O   UNL A   1      32.374  28.238  24.620  1.00  0.00    -0.460 OA
BRANCH   4   5
ATOM      5  C   UNL A   1      31.671  27.308  23.931  1.00  0.00     0.343 C 
ATOM      6  O   UNL A   1      31.517  27.368  22.719  1.00  0.00    -0.246 OA
BRANCH   5   7
ATOM      7  C   UNL A   1      31.335  26.086  24.692  1.00  0.00     0.123 A 
ATOM      8  C   UNL A   1      30.829  22.905  26.392  1.00  0.00     0.176 C 
ATOM      9  N   UNL A   1      30.889  24.253  25.862  1.00  0.00    -0.251 N 
ATOM     10  N   UNL A   1      30.021  25.141  26.344  1.00  0.00    -0.179 NA
ATOM     11  C   UNL A   1      31.763  24.751  24.898  1.00  0.00     0.152 A 
ATOM     12  C   UNL A   1      30.296  26.240  25.661  1.00  0.00     0.153 A 
BRANCH  11  13
ATOM     13  N   UNL A   1      32.832  23.922  24.505  1.00  0.00    -0.267 N 
ATOM     14  H   UNL A   1      32.652  22.964  24.646  1.00  0.00     0.181 HD
BRANCH  13  15
ATOM     15  S   UNL A   1      34.307  24.209  23.863  1.00  0.00     0.237 S 
ATOM     16  O   UNL A   1      34.099  24.826  22.575  1.00  0.00    -0.206 OA
ATOM     17  O   UNL A   1      35.111  24.865  24.872  1.00  0.00    -0.206 OA
BRANCH  15  18
ATOM     18  C   UNL A   1      34.997  22.641  23.590  1.00  0.00     0.145 C 
ATOM     19  C   UNL A   1      34.411  21.656  24.600  1.00  0.00     0.039 C 
ATOM     20  C   UNL A   1      36.496  22.596  23.582  1.00  0.00     0.158 C 
ATOM     21  C   UNL A   1      35.387  21.440  25.703  1.00  0.00     0.138 C 
ATOM     22  S   UNL A   1      36.963  21.936  25.127  1.00  0.00     0.151 S 
ATOM     23  O   UNL A   1      37.387  23.017  25.970  1.00  0.00    -0.229 OA
ATOM     24  O   UNL A   1      37.734  20.748  24.813  1.00  0.00    -0.229 OA
ENDBRANCH  15  18
ENDBRANCH  13  15
ENDBRANCH  11  13
ENDBRANCH   5   7
ENDBRANCH   4   5
ENDBRANCH   3   4
ENDBRANCH   2   3
ENDBRANCH   1   2
BRANCH   1  25
ATOM     25  C   UNL A   1      31.823  30.737  26.816  1.00  0.00     0.202 C 
BRANCH  25  26
ATOM     26  C   UNL A   1      31.608  32.265  26.830  1.00  0.00     0.261 C 
BRANCH  26  27
ATOM     27  O   UNL A   1      32.825  33.042  26.705  1.00  0.00    -0.460 OA
BRANCH  27  28
ATOM     28  C   UNL A   1      33.256  33.718  27.812  1.00  0.00     0.338 C 
ATOM     29  O   UNL A   1      32.647  34.620  28.366  1.00  0.00    -0.246 OA
BRANCH  28  30
ATOM     30  C   UNL A   1      34.509  33.111  28.376  1.00  0.00     0.060 A 
ATOM     31  C   UNL A   1      34.399  31.898  29.071  1.00  0.00     0.016 A 
ATOM     32  C   UNL A   1      35.790  33.636  28.153  1.00  0.00     0.016 A 
ATOM     33  C   UNL A   1      35.546  31.189  29.487  1.00  0.00     0.010 A 
ATOM     34  C   UNL A   1      36.938  32.902  28.537  1.00  0.00     0.010 A 
ATOM     35  C   UNL A   1      36.835  31.663  29.210  1.00  0.00    -0.014 A 
BRANCH  35  36
ATOM     36  C   UNL A   1      38.043  31.004  29.821  1.00  0.00     0.031 A 
ATOM     37  C   UNL A   1      38.417  31.439  31.214  1.00  0.00     0.074 A 
ATOM     38  C   UNL A   1      38.801  30.039  29.245  1.00  0.00     0.049 A 
ATOM     39  N   UNL A   1      39.359  30.987  32.000  1.00  0.00    -0.248 NA
ATOM     40  C   UNL A   1      37.593  32.503  31.812  1.00  0.00     0.031 C 
ATOM     41  C   UNL A   1      38.557  29.412  27.957  1.00  0.00     0.029 A 
ATOM     42  N   UNL A   1      39.969  29.426  29.666  1.00  0.00    -0.354 N 
ATOM     43  C   UNL A   1      39.226  31.691  33.186  1.00  0.00     0.074 A 
ATOM     44  C   UNL A   1      38.155  32.644  33.000  1.00  0.00     0.031 C 
ATOM     45  C   UNL A   1      39.592  28.621  27.619  1.00  0.00     0.029 A 
ATOM     46  C   UNL A   1      40.545  28.596  28.721  1.00  0.00     0.049 A 
ATOM     47  H   UNL A   1      40.356  29.568  30.560  1.00  0.00     0.167 HD
ATOM     48  C   UNL A   1      39.898  31.539  34.348  1.00  0.00     0.034 A 
ATOM     49  C   UNL A   1      41.684  27.868  28.736  1.00  0.00     0.034 A 
ATOM     50  C   UNL A   1      40.976  30.616  34.554  1.00  0.00     0.049 A 
ATOM     51  C   UNL A   1      42.482  27.784  30.015  1.00  0.00     0.074 A 
ATOM     52  C   UNL A   1      41.697  30.387  35.712  1.00  0.00     0.029 A 
ATOM     53  N   UNL A   1      41.515  29.794  33.578  1.00  0.00    -0.354 N 
ATOM     54  N   UNL A   1      42.238  28.345  31.173  1.00  0.00    -0.248 NA
ATOM     55  C   UNL A   1      43.669  26.911  30.015  1.00  0.00     0.031 C 
ATOM     56  C   UNL A   1      42.708  29.467  35.423  1.00  0.00     0.029 A 
ATOM     57  C   UNL A   1      42.581  29.082  34.099  1.00  0.00     0.049 A 
ATOM     58  H   UNL A   1      41.190  29.729  32.651  1.00  0.00     0.167 HD
ATOM     59  C   UNL A   1      43.200  27.852  32.048  1.00  0.00     0.074 A 
ATOM     60  C   UNL A   1      44.026  26.937  31.292  1.00  0.00     0.031 C 
ATOM     61  C   UNL A   1      43.378  28.137  33.361  1.00  0.00     0.034 A 
BRANCH  48  62
ATOM     62  C   UNL A   1      39.466  32.405  35.495  1.00  0.00     0.023 A 
ATOM     63  C   UNL A   1      38.574  31.896  36.461  1.00  0.00     0.012 A 
ATOM     64  C   UNL A   1      39.948  33.720  35.615  1.00  0.00     0.148 A 
ATOM     65  C   UNL A   1      38.134  32.701  37.510  1.00  0.00     0.002 A 
ATOM     66  C   UNL A   1      39.544  34.499  36.689  1.00  0.00     0.091 A 
ATOM     67  F   UNL A   1      40.772  34.188  34.666  1.00  0.00    -0.205 F 
ATOM     68  C   UNL A   1      38.626  33.998  37.628  1.00  0.00     0.022 A 
BRANCH  66  69
ATOM     69  S   UNL A   1      40.172  36.156  36.967  1.00  0.00     0.127 S 
ATOM     70  O   UNL A   1      41.592  35.896  37.195  1.00  0.00    -0.237 OA
ATOM     71  O   UNL A   1      39.867  36.812  35.696  1.00  0.00    -0.237 OA
ATOM     72  O   UNL A   1      39.444  36.677  38.116  1.00  0.00    -0.744 OA
ENDBRANCH  66  69
ENDBRANCH  48  62
BRANCH  49  73
ATOM     73  C   UNL A   1      42.118  27.074  27.539  1.00  0.00     0.023 A 
ATOM     74  C   UNL A   1      42.659  27.734  26.417  1.00  0.00     0.012 A 
ATOM     75  C   UNL A   1      41.942  25.676  27.484  1.00  0.00     0.148 A 
ATOM     76  C   UNL A   1      42.967  27.031  25.248  1.00  0.00     0.002 A 
ATOM     77  C   UNL A   1      42.300  24.973  26.336  1.00  0.00     0.091 A 
ATOM     78  F   UNL A   1      41.413  25.061  28.550  1.00  0.00    -0.205 F 
ATOM     79  C   UNL A   1      42.791  25.651  25.209  1.00  0.00     0.022 A 
BRANCH  77  80
ATOM     80  S   UNL A   1      42.214  23.180  26.222  1.00  0.00     0.127 S 
ATOM     81  O   UNL A   1      43.023  22.764  27.364  1.00  0.00    -0.237 OA
ATOM     82  O   UNL A   1      40.777  22.940  26.366  1.00  0.00    -0.237 OA
ATOM     83  O   UNL A   1      42.751  22.837  24.912  1.00  0.00    -0.744 OA
ENDBRANCH  77  80
ENDBRANCH  49  73
BRANCH  61  84
ATOM     84  C   UNL A   1      44.487  27.433  34.100  1.00  0.00     0.023 A 
ATOM     85  C   UNL A   1      45.690  28.109  34.381  1.00  0.00     0.012 A 
ATOM     86  C   UNL A   1      44.294  26.129  34.600  1.00  0.00     0.148 A 
ATOM     87  C   UNL A   1      46.695  27.487  35.123  1.00  0.00     0.002 A 
ATOM     88  C   UNL A   1      45.276  25.538  35.384  1.00  0.00     0.091 A 
ATOM     89  F   UNL A   1      43.149  25.497  34.306  1.00  0.00    -0.205 F 
ATOM     90  C   UNL A   1      46.483  26.210  35.636  1.00  0.00     0.022 A 
BRANCH  88  91
ATOM     91  S   UNL A   1      45.048  23.941  36.174  1.00  0.00     0.127 S 
ATOM     92  O   UNL A   1      46.177  23.182  35.640  1.00  0.00    -0.237 OA
ATOM     93  O   UNL A   1      45.157  24.281  37.593  1.00  0.00    -0.237 OA
ATOM     94  O   UNL A   1      43.732  23.471  35.762  1.00  0.00    -0.744 OA
ENDBRANCH  88  91
ENDBRANCH  61  84
ENDBRANCH  35  36
ENDBRANCH  28  30
ENDBRANCH  27  28
ENDBRANCH  26  27
ENDBRANCH  25  26
ENDBRANCH   1  25
TORSDOF 20
ENDMDL
MODEL 2
REMARK VINA RESULT:     -10.7      1.821      2.470
REMARK SMILES Cn1ncc(C(=O)OCCOCCOC(=O)c2ccc(-c3c4nc(c(-c5cccc(S(=O)(=O)[O-])c5F)c5ccc([nH]5)c(-c5cccc(S(=O)(=O)[O-])c5F)c5nc(c(-c6cccc(S(=O)(=O)[O-])c6F)c6ccc3[nH]6)C=C5)C=C4)cc2)c1NS(=O)(=O)[C@@H]1CCS(=O)(=O)C1
REMARK SMILES IDX 11 1 10 2 9 3 8 4 6 5 7 6 5 7 1 8 2 9 3 10 80 11 4 12 81 13
REMARK SMILES IDX 82 15 83 16 84 17 85 18 86 19 91 20 87 21 88 22 89 23 90 24
REMARK SMILES IDX 12 25 13 26 14 27 15 28 16 29 17 30 18 31 79 32 19 33 78 34
REMARK SMILES IDX 20 35 21 36 22 37 72 38 23 39 77 40 71 41 73 42 24 43 76 44
REMARK SMILES IDX 70 45 69 46 25 48 57 49 37 50 56 51 38 52 41 53 55 54 74 55
REMARK SMILES IDX 39 56 40 57 54 59 75 60 42 61 26 62 27 63 35 64 28 65 30 66
REMARK SMILES IDX 36 67 29 68 31 69 32 70 33 71 34 72 58 73 59 74 67 75 60 76
REMARK SMILES IDX 62 77 68 78 61 79 63 80 64 81 65 82 66 83 43 84 44 85 52 86
REMARK SMILES IDX 45 87 47 88 53 89 46 90 48 91 49 92 50 93 51 94
REMARK H PARENT 81 14 73 47 41 58
REMARK Flexibility Score: inf
ROOT
ATOM      1  O   UNL A   1      32.527  28.936  27.237  1.00  0.00    -0.374 OA
ENDROOT
BRANCH   1   2
ATOM      2  C   UNL A   1      31.884  28.007  26.365  1.00  0.00     0.202 C 
BRANCH   2   3
ATOM      3  C   UNL A   1      31.571  28.603  24.969  1.00  0.00     0.261 C 
BRANCH   3   4
ATOM      4  O   UNL A   1      30.620  27.767  24.250  1.00  0.00    -0.460 OA
BRANCH   4   5
ATOM      5  C   UNL A   1      30.885  27.280  23.014  1.00  0.00     0.343 C 
ATOM      6  O   UNL A   1      30.392  27.758  22.001  1.00  0.00    -0.246 OA
BRANCH   5   7
ATOM      7  C   UNL A   1      32.008  26.321  22.946  1.00  0.00     0.123 A 
ATOM      8  C   UNL A   1      34.602  23.769  23.088  1.00  0.00     0.176 C 
ATOM      9  N   UNL A   1      33.651  24.832  22.832  1.00  0.00    -0.251 N 
ATOM     10  N   UNL A   1      33.851  25.589  21.755  1.00  0.00    -0.179 NA
ATOM     11  C   UNL A   1      32.525  25.166  23.582  1.00  0.00     0.152 A 
ATOM     12  C   UNL A   1      32.863  26.467  21.809  1.00  0.00     0.153 A 
BRANCH  11  13
ATOM     13  N   UNL A   1      32.146  24.278  24.609  1.00  0.00    -0.267 N 
ATOM     14  H   UNL A   1      31.577  23.539  24.291  1.00  0.00     0.181 HD
BRANCH  13  15
ATOM     15  S   UNL A   1      32.448  24.209  26.212  1.00  0.00     0.237 S 
ATOM     16  O   UNL A   1      33.835  24.565  26.401  1.00  0.00    -0.206 OA
ATOM     17  O   UNL A   1      31.402  24.942  26.894  1.00  0.00    -0.206 OA
BRANCH  15  18
ATOM     18  C   UNL A   1      32.272  22.537  26.638  1.00  0.00     0.145 C 
ATOM     19  C   UNL A   1      33.657  21.903  26.746  1.00  0.00     0.039 C 
ATOM     20  C   UNL A   1      31.369  21.742  25.743  1.00  0.00     0.158 C 
ATOM     21  C   UNL A   1      33.945  21.131  25.505  1.00  0.00     0.138 C 
ATOM     22  S   UNL A   1      32.420  20.810  24.711  1.00  0.00     0.151 S 
ATOM     23  O   UNL A   1      32.480  21.453  23.429  1.00  0.00    -0.229 OA
ATOM     24  O   UNL A   1      32.057  19.426  24.952  1.00  0.00    -0.229 OA
ENDBRANCH  15  18
ENDBRANCH  13  15
ENDBRANCH  11  13
ENDBRANCH   5   7
ENDBRANCH   4   5
ENDBRANCH   3   4
ENDBRANCH   2   3
ENDBRANCH   1   2
BRANCH   1  25
ATOM     25  C   UNL A   1      32.100  30.296  27.166  1.00  0.00     0.202 C 
BRANCH  25  26
ATOM     26  C   UNL A   1      33.230  31.347  27.126  1.00  0.00     0.261 C 
BRANCH  26  27
ATOM     27  O   UNL A   1      32.804  32.696  27.442  1.00  0.00    -0.460 OA
BRANCH  27  28
ATOM     28  C   UNL A   1      33.736  33.540  27.978  1.00  0.00     0.338 C 
ATOM     29  O   UNL A   1      33.605  34.748  28.096  1.00  0.00    -0.246 OA
BRANCH  28  30
ATOM     30  C   UNL A   1      34.894  32.782  28.563  1.00  0.00     0.060 A 
ATOM     31  C   UNL A   1      36.173  33.031  28.047  1.00  0.00     0.016 A 
ATOM     32  C   UNL A   1      34.776  31.920  29.664  1.00  0.00     0.016 A 
ATOM     33  C   UNL A   1      37.323  32.479  28.651  1.00  0.00     0.010 A 
ATOM     34  C   UNL A   1      35.934  31.402  30.290  1.00  0.00     0.010 A 
ATOM     35  C   UNL A   1      37.230  31.675  29.794  1.00  0.00    -0.014 A 
BRANCH  35  36
ATOM     36  C   UNL A   1      38.436  30.938  30.315  1.00  0.00     0.031 A 
ATOM     37  C   UNL A   1      38.936  31.341  31.678  1.00  0.00     0.074 A 
ATOM     38  C   UNL A   1      39.089  29.932  29.684  1.00  0.00     0.049 A 
ATOM     39  N   UNL A   1      39.902  30.827  32.392  1.00  0.00    -0.248 NA
ATOM     40  C   UNL A   1      38.226  32.450  32.335  1.00  0.00     0.031 C 
ATOM     41  C   UNL A   1      38.714  29.328  28.416  1.00  0.00     0.029 A 
ATOM     42  N   UNL A   1      40.243  29.245  30.018  1.00  0.00    -0.354 N 
ATOM     43  C   UNL A   1      39.899  31.531  33.586  1.00  0.00     0.074 A 
ATOM     44  C   UNL A   1      38.879  32.549  33.480  1.00  0.00     0.031 C 
ATOM     45  C   UNL A   1      39.670  28.477  28.003  1.00  0.00     0.029 A 
ATOM     46  C   UNL A   1      40.697  28.387  29.033  1.00  0.00     0.049 A 
ATOM     47  H   UNL A   1      40.703  29.358  30.882  1.00  0.00     0.167 HD
ATOM     48  C   UNL A   1      40.644  31.330  34.696  1.00  0.00     0.034 A 
ATOM     49  C   UNL A   1      41.787  27.589  28.964  1.00  0.00     0.034 A 
ATOM     50  C   UNL A   1      41.674  30.341  34.822  1.00  0.00     0.049 A 
ATOM     51  C   UNL A   1      42.668  27.449  30.181  1.00  0.00     0.074 A 
ATOM     52  C   UNL A   1      42.461  30.062  35.924  1.00  0.00     0.029 A 
ATOM     53  N   UNL A   1      42.089  29.494  33.808  1.00  0.00    -0.354 N 
ATOM     54  N   UNL A   1      42.544  28.017  31.354  1.00  0.00    -0.248 NA
ATOM     55  C   UNL A   1      43.796  26.504  30.094  1.00  0.00     0.031 C 
ATOM     56  C   UNL A   1      43.389  29.082  35.562  1.00  0.00     0.029 A 
ATOM     57  C   UNL A   1      43.143  28.713  34.250  1.00  0.00     0.049 A 
ATOM     58  H   UNL A   1      41.694  29.454  32.907  1.00  0.00     0.167 HD
ATOM     59  C   UNL A   1      43.535  27.460  32.157  1.00  0.00     0.074 A 
ATOM     60  C   UNL A   1      44.245  26.500  31.341  1.00  0.00     0.031 C 
ATOM     61  C   UNL A   1      43.825  27.725  33.454  1.00  0.00     0.034 A 
BRANCH  48  62
ATOM     62  C   UNL A   1      40.350  32.215  35.873  1.00  0.00     0.023 A 
ATOM     63  C   UNL A   1      41.189  33.314  36.150  1.00  0.00     0.012 A 
ATOM     64  C   UNL A   1      39.240  31.958  36.696  1.00  0.00     0.148 A 
ATOM     65  C   UNL A   1      40.951  34.121  37.261  1.00  0.00     0.002 A 
ATOM     66  C   UNL A   1      38.981  32.796  37.771  1.00  0.00     0.091 A 
ATOM     67  F   UNL A   1      38.477  30.890  36.425  1.00  0.00    -0.205 F 
ATOM     68  C   UNL A   1      39.842  33.867  38.064  1.00  0.00     0.022 A 
BRANCH  66  69
ATOM     69  S   UNL A   1      37.543  32.593  38.824  1.00  0.00     0.127 S 
ATOM     70  O   UNL A   1      36.460  32.967  37.917  1.00  0.00    -0.237 OA
ATOM     71  O   UNL A   1      37.605  31.169  39.149  1.00  0.00    -0.237 OA
ATOM     72  O   UNL A   1      37.742  33.489  39.956  1.00  0.00    -0.744 OA
ENDBRANCH  66  69
ENDBRANCH  48  62
BRANCH  49  73
ATOM     73  C   UNL A   1      42.083  26.777  27.738  1.00  0.00     0.023 A 
ATOM     74  C   UNL A   1      42.591  27.408  26.583  1.00  0.00     0.012 A 
ATOM     75  C   UNL A   1      41.808  25.395  27.690  1.00  0.00     0.148 A 
ATOM     76  C   UNL A   1      42.769  26.694  25.394  1.00  0.00     0.002 A 
ATOM     77  C   UNL A   1      42.038  24.678  26.518  1.00  0.00     0.091 A 
ATOM     78  F   UNL A   1      41.312  24.809  28.788  1.00  0.00    -0.205 F 
ATOM     79  C   UNL A   1      42.497  25.330  25.362  1.00  0.00     0.022 A 
BRANCH  77  80
ATOM     80  S   UNL A   1      41.821  22.896  26.404  1.00  0.00     0.127 S 
ATOM     81  O   UNL A   1      40.371  22.760  26.500  1.00  0.00    -0.237 OA
ATOM     82  O   UNL A   1      42.381  22.610  25.083  1.00  0.00    -0.237 OA
ATOM     83  O   UNL A   1      42.580  22.330  27.512  1.00  0.00    -0.744 OA
ENDBRANCH  77  80
ENDBRANCH  49  73
BRANCH  61  84
ATOM     84  C   UNL A   1      44.938  26.950  34.110  1.00  0.00     0.023 A 
ATOM     85  C   UNL A   1      46.263  27.423  34.046  1.00  0.00     0.012 A 
ATOM     86  C   UNL A   1      44.652  25.800  34.872  1.00  0.00     0.148 A 
ATOM     87  C   UNL A   1      47.290  26.748  34.706  1.00  0.00     0.002 A 
ATOM     88  C   UNL A   1      45.670  25.164  35.572  1.00  0.00     0.091 A 
ATOM     89  F   UNL A   1      43.387  25.355  34.906  1.00  0.00    -0.205 F 
ATOM     90  C   UNL A   1      46.991  25.629  35.480  1.00  0.00     0.022 A 
BRANCH  88  91
ATOM     91  S   UNL A   1      45.363  23.781  36.677  1.00  0.00     0.127 S 
ATOM     92  O   UNL A   1      46.720  23.412  37.073  1.00  0.00    -0.237 OA
ATOM     93  O   UNL A   1      44.565  24.403  37.734  1.00  0.00    -0.237 OA
ATOM     94  O   UNL A   1      44.652  22.784  35.888  1.00  0.00    -0.744 OA
ENDBRANCH  88  91
ENDBRANCH  61  84
ENDBRANCH  35  36
ENDBRANCH  28  30
ENDBRANCH  27  28
ENDBRANCH  26  27
ENDBRANCH  25  26
ENDBRANCH   1  25
TORSDOF 20
ENDMDL
MODEL 3
REMARK VINA RESULT:     -10.7      1.784      2.225
REMARK SMILES Cn1ncc(C(=O)OCCOCCOC(=O)c2ccc(-c3c4nc(c(-c5cccc(S(=O)(=O)[O-])c5F)c5ccc([nH]5)c(-c5cccc(S(=O)(=O)[O-])c5F)c5nc(c(-c6cccc(S(=O)(=O)[O-])c6F)c6ccc3[nH]6)C=C5)C=C4)cc2)c1NS(=O)(=O)[C@@H]1CCS(=O)(=O)C1
REMARK SMILES IDX 11 1 10 2 9 3 8 4 6 5 7 6 5 7 1 8 2 9 3 10 80 11 4 12 81 13
REMARK SMILES IDX 82 15 83 16 84 17 85 18 86 19 91 20 87 21 88 22 89 23 90 24
REMARK SMILES IDX 12 25 13 26 14 27 15 28 16 29 17 30 18 31 79 32 19 33 78 34
REMARK SMILES IDX 20 35 21 36 22 37 72 38 23 39 77 40 71 41 73 42 24 43 76 44
REMARK SMILES IDX 70 45 69 46 25 48 57 49 37 50 56 51 38 52 41 53 55 54 74 55
REMARK SMILES IDX 39 56 40 57 54 59 75 60 42 61 26 62 27 63 35 64 28 65 30 66
REMARK SMILES IDX 36 67 29 68 31 69 32 70 33 71 34 72 58 73 59 74 67 75 60 76
REMARK SMILES IDX 62 77 68 78 61 79 63 80 64 81 65 82 66 83 43 84 44 85 52 86
REMARK SMILES IDX 45 87 47 88 53 89 46 90 48 91 49 92 50 93 51 94
REMARK H PARENT 81 14 73 47 41 58
REMARK Flexibility Score: inf
ROOT
ATOM      1  O   UNL A   1      31.421  29.488  25.175  1.00  0.00    -0.374 OA
ENDROOT
BRANCH   1   2
ATOM      2  C   UNL A   1      32.510  29.254  24.282  1.00  0.00     0.202 C 
BRANCH   2   3
ATOM      3  C   UNL A   1      32.166  28.242  23.160  1.00  0.00     0.261 C 
BRANCH   3   4
ATOM      4  O   UNL A   1      32.486  26.883  23.572  1.00  0.00    -0.460 OA
BRANCH   4   5
ATOM      5  C   UNL A   1      31.705  25.829  23.236  1.00  0.00     0.343 C 
ATOM      6  O   UNL A   1      31.642  25.397  22.092  1.00  0.00    -0.246 OA
BRANCH   5   7
ATOM      7  C   UNL A   1      31.148  25.071  24.377  1.00  0.00     0.123 A 
ATOM      8  C   UNL A   1      29.956  22.881  27.031  1.00  0.00     0.176 C 
ATOM      9  N   UNL A   1      30.374  23.918  26.108  1.00  0.00    -0.251 N 
ATOM     10  N   UNL A   1      30.058  25.175  26.413  1.00  0.00    -0.179 NA
ATOM     11  C   UNL A   1      31.085  23.765  24.920  1.00  0.00     0.152 A 
ATOM     12  C   UNL A   1      30.533  25.868  25.392  1.00  0.00     0.153 A 
BRANCH  11  13
ATOM     13  N   UNL A   1      31.626  22.492  24.651  1.00  0.00    -0.267 N 
ATOM     14  H   UNL A   1      31.026  21.754  24.906  1.00  0.00     0.181 HD
BRANCH  13  15
ATOM     15  S   UNL A   1      33.035  21.977  24.003  1.00  0.00     0.237 S 
ATOM     16  O   UNL A   1      33.297  20.663  24.544  1.00  0.00    -0.206 OA
ATOM     17  O   UNL A   1      32.970  22.183  22.572  1.00  0.00    -0.206 OA
BRANCH  15  18
ATOM     18  C   UNL A   1      34.243  23.053  24.628  1.00  0.00     0.145 C 
ATOM     19  C   UNL A   1      35.123  23.535  23.476  1.00  0.00     0.039 C 
ATOM     20  C   UNL A   1      35.064  22.505  25.757  1.00  0.00     0.158 C 
ATOM     21  C   UNL A   1      36.399  22.765  23.473  1.00  0.00     0.138 C 
ATOM     22  S   UNL A   1      36.597  22.056  25.060  1.00  0.00     0.151 S 
ATOM     23  O   UNL A   1      36.610  20.633  24.876  1.00  0.00    -0.229 OA
ATOM     24  O   UNL A   1      37.585  22.829  25.790  1.00  0.00    -0.229 OA
ENDBRANCH  15  18
ENDBRANCH  13  15
ENDBRANCH  11  13
ENDBRANCH   5   7
ENDBRANCH   4   5
ENDBRANCH   3   4
ENDBRANCH   2   3
ENDBRANCH   1   2
BRANCH   1  25
ATOM     25  C   UNL A   1      31.742  29.714  26.546  1.00  0.00     0.202 C 
BRANCH  25  26
ATOM     26  C   UNL A   1      32.166  31.156  26.902  1.00  0.00     0.261 C 
BRANCH  26  27
ATOM     27  O   UNL A   1      33.595  31.391  26.841  1.00  0.00    -0.460 OA
BRANCH  27  28
ATOM     28  C   UNL A   1      34.132  32.241  27.768  1.00  0.00     0.338 C 
ATOM     29  O   UNL A   1      33.602  33.263  28.173  1.00  0.00    -0.246 OA
BRANCH  28  30
ATOM     30  C   UNL A   1      35.395  31.684  28.359  1.00  0.00     0.060 A 
ATOM     31  C   UNL A   1      35.388  30.351  28.793  1.00  0.00     0.016 A 
ATOM     32  C   UNL A   1      36.605  32.392  28.402  1.00  0.00     0.016 A 
ATOM     33  C   UNL A   1      36.576  29.713  29.209  1.00  0.00     0.010 A 
ATOM     34  C   UNL A   1      37.801  31.736  28.781  1.00  0.00     0.010 A 
ATOM     35  C   UNL A   1      37.807  30.383  29.190  1.00  0.00    -0.014 A 
BRANCH  35  36
ATOM     36  C   UNL A   1      39.029  29.761  29.812  1.00  0.00     0.031 A 
ATOM     37  C   UNL A   1      39.464  30.314  31.145  1.00  0.00     0.074 A 
ATOM     38  C   UNL A   1      39.750  28.735  29.298  1.00  0.00     0.049 A 
ATOM     39  N   UNL A   1      40.429  29.919  31.932  1.00  0.00    -0.248 NA
ATOM     40  C   UNL A   1      38.679  31.442  31.674  1.00  0.00     0.031 C 
ATOM     41  C   UNL A   1      39.447  27.997  28.083  1.00  0.00     0.029 A 
ATOM     42  N   UNL A   1      40.924  28.142  29.729  1.00  0.00    -0.354 N 
ATOM     43  C   UNL A   1      40.353  30.730  33.053  1.00  0.00     0.074 A 
ATOM     44  C   UNL A   1      39.289  31.680  32.822  1.00  0.00     0.031 C 
ATOM     45  C   UNL A   1      40.456  27.161  27.780  1.00  0.00     0.029 A 
ATOM     46  C   UNL A   1      41.451  27.220  28.843  1.00  0.00     0.049 A 
ATOM     47  H   UNL A   1      41.349  28.358  30.591  1.00  0.00     0.167 HD
ATOM     48  C   UNL A   1      41.069  30.672  34.198  1.00  0.00     0.034 A 
ATOM     49  C   UNL A   1      42.580  26.476  28.881  1.00  0.00     0.034 A 
ATOM     50  C   UNL A   1      42.141  29.753  34.446  1.00  0.00     0.049 A 
ATOM     51  C   UNL A   1      43.426  26.495  30.130  1.00  0.00     0.074 A 
ATOM     52  C   UNL A   1      42.904  29.618  35.592  1.00  0.00     0.029 A 
ATOM     53  N   UNL A   1      42.629  28.837  33.529  1.00  0.00    -0.354 N 
ATOM     54  N   UNL A   1      43.236  27.163  31.240  1.00  0.00    -0.248 NA
ATOM     55  C   UNL A   1      44.600  25.604  30.165  1.00  0.00     0.031 C 
ATOM     56  C   UNL A   1      43.889  28.657  35.350  1.00  0.00     0.029 A 
ATOM     57  C   UNL A   1      43.705  28.156  34.072  1.00  0.00     0.049 A 
ATOM     58  H   UNL A   1      42.267  28.693  32.625  1.00  0.00     0.167 HD
ATOM     59  C   UNL A   1      44.225  26.734  32.120  1.00  0.00     0.074 A 
ATOM     60  C   UNL A   1      45.008  25.740  31.420  1.00  0.00     0.031 C 
ATOM     61  C   UNL A   1      44.459  27.134  33.393  1.00  0.00     0.034 A 
BRANCH  48  62
ATOM     62  C   UNL A   1      40.694  31.647  35.276  1.00  0.00     0.023 A 
ATOM     63  C   UNL A   1      41.517  32.764  35.529  1.00  0.00     0.012 A 
ATOM     64  C   UNL A   1      39.525  31.455  36.033  1.00  0.00     0.148 A 
ATOM     65  C   UNL A   1      41.202  33.655  36.552  1.00  0.00     0.002 A 
ATOM     66  C   UNL A   1      39.192  32.375  37.017  1.00  0.00     0.091 A 
ATOM     67  F   UNL A   1      38.777  30.369  35.791  1.00  0.00    -0.205 F 
ATOM     68  C   UNL A   1      40.036  33.465  37.288  1.00  0.00     0.022 A 
BRANCH  66  69
ATOM     69  S   UNL A   1      37.679  32.256  37.973  1.00  0.00     0.127 S 
ATOM     70  O   UNL A   1      36.726  32.935  37.098  1.00  0.00    -0.237 OA
ATOM     71  O   UNL A   1      37.496  30.808  38.070  1.00  0.00    -0.237 OA
ATOM     72  O   UNL A   1      37.947  32.925  39.238  1.00  0.00    -0.744 OA
ENDBRANCH  66  69
ENDBRANCH  48  62
BRANCH  49  73
ATOM     73  C   UNL A   1      42.955  25.570  27.746  1.00  0.00     0.023 A 
ATOM     74  C   UNL A   1      43.835  26.026  26.743  1.00  0.00     0.012 A 
ATOM     75  C   UNL A   1      42.398  24.280  27.623  1.00  0.00     0.148 A 
ATOM     76  C   UNL A   1      44.112  25.242  25.618  1.00  0.00     0.002 A 
ATOM     77  C   UNL A   1      42.719  23.482  26.527  1.00  0.00     0.091 A 
ATOM     78  F   UNL A   1      41.551  23.862  28.574  1.00  0.00    -0.205 F 
ATOM     79  C   UNL A   1      43.558  23.970  25.512  1.00  0.00     0.022 A 
BRANCH  77  80
ATOM     80  S   UNL A   1      42.144  21.788  26.350  1.00  0.00     0.127 S 
ATOM     81  O   UNL A   1      42.991  21.290  25.270  1.00  0.00    -0.237 OA
ATOM     82  O   UNL A   1      42.439  21.232  27.672  1.00  0.00    -0.237 OA
ATOM     83  O   UNL A   1      40.723  21.879  26.042  1.00  0.00    -0.744 OA
ENDBRANCH  77  80
ENDBRANCH  49  73
BRANCH  61  84
ATOM     84  C   UNL A   1      45.587  26.481  34.151  1.00  0.00     0.023 A 
ATOM     85  C   UNL A   1      46.867  27.067  34.159  1.00  0.00     0.012 A 
ATOM     86  C   UNL A   1      45.347  25.335  34.935  1.00  0.00     0.148 A 
ATOM     87  C   UNL A   1      47.899  26.506  34.912  1.00  0.00     0.002 A 
ATOM     88  C   UNL A   1      46.364  24.814  35.726  1.00  0.00     0.091 A 
ATOM     89  F   UNL A   1      44.126  24.781  34.901  1.00  0.00    -0.205 F 
ATOM     90  C   UNL A   1      47.644  25.390  35.705  1.00  0.00     0.022 A 
BRANCH  88  91
ATOM     91  S   UNL A   1      46.100  23.444  36.858  1.00  0.00     0.127 S 
ATOM     92  O   UNL A   1      45.851  22.340  35.935  1.00  0.00    -0.237 OA
ATOM     93  O   UNL A   1      47.382  23.376  37.561  1.00  0.00    -0.237 OA
ATOM     94  O   UNL A   1      44.969  23.824  37.695  1.00  0.00    -0.744 OA
ENDBRANCH  88  91
ENDBRANCH  61  84
ENDBRANCH  35  36
ENDBRANCH  28  30
ENDBRANCH  27  28
ENDBRANCH  26  27
ENDBRANCH  25  26
ENDBRANCH   1  25
TORSDOF 20
ENDMDL
