MODEL 1
REMARK VINA RESULT:     -11.4      0.000      0.000
REMARK SMILES CC(=O)c1c[nH]c(C(=O)N[C@H]2C=C[C@H](C(=O)OCCOCCOC(=O)c3ccc(-c4c5nc(c(-c6cccc(S(=O)(=O)[O-])c6F)c6ccc([nH]6)c(-c6cccc(S(=O)(=O)[O-])c6F)c6nc(c(-c7cccc(S(=O)(=O)[O-])c7F)c7ccc4[nH]7)C=C6)C=C5)cc3)C2)c1
REMARK SMILES IDX 20 1 19 2 18 3 17 4 15 5 16 6 14 7 11 8 12 9 89 10 13 11
REMARK SMILES IDX 10 12 8 13 9 14 7 16 4 17 5 18 90 19 6 20 2 22 1 23 3 24
REMARK SMILES IDX 21 25 22 26 23 27 24 28 25 29 26 30 27 31 88 32 28 33 87 34
REMARK SMILES IDX 29 35 30 36 31 37 81 38 32 39 86 40 80 41 82 42 33 43 85 44
REMARK SMILES IDX 79 45 78 46 34 48 66 49 46 50 65 51 47 52 50 53 64 54 83 55
REMARK SMILES IDX 48 56 49 57 63 59 84 60 51 61 35 62 36 63 44 64 37 65 39 66
REMARK SMILES IDX 45 67 38 68 40 69 41 70 42 71 43 72 67 73 68 74 76 75 69 76
REMARK SMILES IDX 71 77 77 78 70 79 72 80 73 81 74 82 75 83 52 84 53 85 61 86
REMARK SMILES IDX 54 87 56 88 62 89 55 90 57 91 58 92 59 93 60 94
REMARK H PARENT 10 15 6 21 82 47 50 58
REMARK Flexibility Score: inf
ROOT
ATOM      1  O   UNL A   1      36.902  21.272  25.767  1.00  0.00    -0.374 OA
ENDROOT
BRANCH   1   2
ATOM      2  C   UNL A   1      36.416  22.615  25.791  1.00  0.00     0.202 C 
BRANCH   2   3
ATOM      3  C   UNL A   1      35.980  23.266  24.482  1.00  0.00     0.261 C 
BRANCH   3   4
ATOM      4  O   UNL A   1      35.276  22.361  23.612  1.00  0.00    -0.463 OA
BRANCH   4   5
ATOM      5  C   UNL A   1      34.203  22.907  22.984  1.00  0.00     0.312 C 
ATOM      6  O   UNL A   1      34.221  23.993  22.412  1.00  0.00    -0.252 OA
BRANCH   5   7
ATOM      7  C   UNL A   1      32.979  21.983  23.014  1.00  0.00     0.124 C 
ATOM      8  C   UNL A   1      32.138  22.511  25.203  1.00  0.00     0.106 C 
ATOM      9  C   UNL A   1      32.875  21.205  25.220  1.00  0.00    -0.006 C 
ATOM     10  C   UNL A   1      31.767  22.624  23.722  1.00  0.00     0.048 C 
ATOM     11  C   UNL A   1      33.309  20.886  23.993  1.00  0.00    -0.014 C 
BRANCH   8  12
ATOM     12  N   UNL A   1      31.069  22.457  26.152  1.00  0.00    -0.345 N 
ATOM     13  C   UNL A   1      30.335  23.501  26.670  1.00  0.00     0.268 C 
ATOM     14  O   UNL A   1      29.560  23.235  27.593  1.00  0.00    -0.268 OA
ATOM     15  H   UNL A   1      30.826  21.559  26.475  1.00  0.00     0.164 HD
BRANCH  13  16
ATOM     16  C   UNL A   1      30.450  24.871  26.181  1.00  0.00     0.105 A 
ATOM     17  C   UNL A   1      30.932  27.044  25.608  1.00  0.00     0.035 A 
ATOM     18  C   UNL A   1      29.903  26.602  24.804  1.00  0.00     0.094 A 
ATOM     19  C   UNL A   1      31.239  25.969  26.486  1.00  0.00     0.045 A 
ATOM     20  N   UNL A   1      29.637  25.299  25.142  1.00  0.00    -0.356 N 
ATOM     21  H   UNL A   1      28.956  24.739  24.704  1.00  0.00     0.166 HD
BRANCH  17  22
ATOM     22  C   UNL A   1      31.609  28.335  25.590  1.00  0.00     0.161 C 
ATOM     23  C   UNL A   1      31.901  29.001  26.905  1.00  0.00     0.093 C 
ATOM     24  O   UNL A   1      31.984  28.842  24.535  1.00  0.00    -0.294 OA
ENDBRANCH  17  22
ENDBRANCH  13  16
ENDBRANCH   8  12
ENDBRANCH   5   7
ENDBRANCH   4   5
ENDBRANCH   3   4
ENDBRANCH   2   3
ENDBRANCH   1   2
BRANCH   1  25
ATOM     25  C   UNL A   1      38.052  20.928  25.005  1.00  0.00     0.202 C 
BRANCH  25  26
ATOM     26  C   UNL A   1      38.954  19.784  25.460  1.00  0.00     0.261 C 
BRANCH  26  27
ATOM     27  O   UNL A   1      39.922  20.180  26.411  1.00  0.00    -0.460 OA
BRANCH  27  28
ATOM     28  C   UNL A   1      41.119  19.610  26.135  1.00  0.00     0.338 C 
ATOM     29  O   UNL A   1      41.329  18.459  25.794  1.00  0.00    -0.246 OA
BRANCH  28  30
ATOM     30  C   UNL A   1      42.196  20.530  26.468  1.00  0.00     0.060 A 
ATOM     31  C   UNL A   1      42.184  20.978  27.793  1.00  0.00     0.016 A 
ATOM     32  C   UNL A   1      42.698  21.281  25.405  1.00  0.00     0.016 A 
ATOM     33  C   UNL A   1      42.446  22.304  28.017  1.00  0.00     0.010 A 
ATOM     34  C   UNL A   1      42.881  22.619  25.619  1.00  0.00     0.010 A 
ATOM     35  C   UNL A   1      42.722  23.121  26.914  1.00  0.00    -0.014 A 
BRANCH  35  36
ATOM     36  C   UNL A   1      43.080  24.509  27.179  1.00  0.00     0.031 A 
ATOM     37  C   UNL A   1      41.761  25.288  27.438  1.00  0.00     0.074 A 
ATOM     38  C   UNL A   1      44.420  24.788  27.073  1.00  0.00     0.049 A 
ATOM     39  N   UNL A   1      41.414  26.492  27.098  1.00  0.00    -0.248 NA
ATOM     40  C   UNL A   1      40.587  24.567  28.032  1.00  0.00     0.031 C 
ATOM     41  C   UNL A   1      45.509  23.797  26.838  1.00  0.00     0.029 A 
ATOM     42  N   UNL A   1      45.156  25.946  27.141  1.00  0.00    -0.354 N 
ATOM     43  C   UNL A   1      40.148  26.738  27.691  1.00  0.00     0.074 A 
ATOM     44  C   UNL A   1      39.612  25.475  28.066  1.00  0.00     0.031 C 
ATOM     45  C   UNL A   1      46.711  24.408  26.690  1.00  0.00     0.029 A 
ATOM     46  C   UNL A   1      46.543  25.842  26.839  1.00  0.00     0.049 A 
ATOM     47  H   UNL A   1      44.744  26.806  27.387  1.00  0.00     0.167 HD
ATOM     48  C   UNL A   1      39.718  27.988  28.034  1.00  0.00     0.034 A 
ATOM     49  C   UNL A   1      47.452  26.861  26.679  1.00  0.00     0.034 A 
ATOM     50  C   UNL A   1      40.735  28.927  27.696  1.00  0.00     0.049 A 
ATOM     51  C   UNL A   1      46.706  28.062  27.072  1.00  0.00     0.074 A 
ATOM     52  C   UNL A   1      41.179  29.406  26.493  1.00  0.00     0.029 A 
ATOM     53  N   UNL A   1      41.698  29.108  28.661  1.00  0.00    -0.354 N 
ATOM     54  N   UNL A   1      46.350  28.336  28.293  1.00  0.00    -0.248 NA
ATOM     55  C   UNL A   1      46.172  28.932  26.020  1.00  0.00     0.031 C 
ATOM     56  C   UNL A   1      42.578  29.397  26.662  1.00  0.00     0.029 A 
ATOM     57  C   UNL A   1      42.901  29.202  28.013  1.00  0.00     0.049 A 
ATOM     58  H   UNL A   1      41.551  29.160  29.633  1.00  0.00     0.167 HD
ATOM     59  C   UNL A   1      45.269  29.155  28.095  1.00  0.00     0.074 A 
ATOM     60  C   UNL A   1      45.427  29.732  26.775  1.00  0.00     0.031 C 
ATOM     61  C   UNL A   1      44.104  28.914  28.755  1.00  0.00     0.034 A 
BRANCH  48  62
ATOM     62  C   UNL A   1      38.613  28.510  28.918  1.00  0.00     0.023 A 
ATOM     63  C   UNL A   1      37.636  29.296  28.242  1.00  0.00     0.012 A 
ATOM     64  C   UNL A   1      38.646  28.583  30.320  1.00  0.00     0.148 A 
ATOM     65  C   UNL A   1      36.843  30.229  28.904  1.00  0.00     0.002 A 
ATOM     66  C   UNL A   1      37.805  29.481  30.986  1.00  0.00     0.091 A 
ATOM     67  F   UNL A   1      39.540  27.858  30.999  1.00  0.00    -0.205 F 
ATOM     68  C   UNL A   1      36.942  30.333  30.278  1.00  0.00     0.022 A 
BRANCH  66  69
ATOM     69  S   UNL A   1      37.765  29.646  32.774  1.00  0.00     0.127 S 
ATOM     70  O   UNL A   1      37.341  28.313  33.192  1.00  0.00    -0.237 OA
ATOM     71  O   UNL A   1      39.164  29.959  33.076  1.00  0.00    -0.237 OA
ATOM     72  O   UNL A   1      36.843  30.738  33.050  1.00  0.00    -0.744 OA
ENDBRANCH  66  69
ENDBRANCH  48  62
BRANCH  49  73
ATOM     73  C   UNL A   1      48.851  27.092  26.130  1.00  0.00     0.023 A 
ATOM     74  C   UNL A   1      50.038  26.893  26.847  1.00  0.00     0.012 A 
ATOM     75  C   UNL A   1      49.021  27.435  24.747  1.00  0.00     0.148 A 
ATOM     76  C   UNL A   1      51.297  26.928  26.202  1.00  0.00     0.002 A 
ATOM     77  C   UNL A   1      50.240  27.331  24.087  1.00  0.00     0.091 A 
ATOM     78  F   UNL A   1      47.983  27.910  24.049  1.00  0.00    -0.205 F 
ATOM     79  C   UNL A   1      51.397  27.090  24.818  1.00  0.00     0.022 A 
BRANCH  77  80
ATOM     80  S   UNL A   1      50.354  27.333  22.283  1.00  0.00     0.127 S 
ATOM     81  O   UNL A   1      50.148  28.741  21.955  1.00  0.00    -0.237 OA
ATOM     82  O   UNL A   1      51.720  26.848  22.076  1.00  0.00    -0.237 OA
ATOM     83  O   UNL A   1      49.316  26.428  21.805  1.00  0.00    -0.744 OA
ENDBRANCH  77  80
ENDBRANCH  49  73
BRANCH  61  84
ATOM     84  C   UNL A   1      44.236  28.113  30.062  1.00  0.00     0.023 A 
ATOM     85  C   UNL A   1      44.006  26.725  29.978  1.00  0.00     0.012 A 
ATOM     86  C   UNL A   1      44.464  28.635  31.362  1.00  0.00     0.148 A 
ATOM     87  C   UNL A   1      43.973  25.903  31.111  1.00  0.00     0.002 A 
ATOM     88  C   UNL A   1      44.406  27.819  32.503  1.00  0.00     0.091 A 
ATOM     89  F   UNL A   1      44.745  29.928  31.489  1.00  0.00    -0.205 F 
ATOM     90  C   UNL A   1      44.167  26.449  32.372  1.00  0.00     0.022 A 
BRANCH  88  91
ATOM     91  S   UNL A   1      44.564  28.420  34.201  1.00  0.00     0.127 S 
ATOM     92  O   UNL A   1      45.777  29.240  34.136  1.00  0.00    -0.237 OA
ATOM     93  O   UNL A   1      43.336  29.190  34.379  1.00  0.00    -0.237 OA
ATOM     94  O   UNL A   1      44.688  27.241  35.047  1.00  0.00    -0.744 OA
ENDBRANCH  88  91
ENDBRANCH  61  84
ENDBRANCH  35  36
ENDBRANCH  28  30
ENDBRANCH  27  28
ENDBRANCH  26  27
ENDBRANCH  25  26
ENDBRANCH   1  25
TORSDOF 20
ENDMDL
MODEL 2
REMARK VINA RESULT:     -11.2      3.222      8.145
REMARK SMILES CC(=O)c1c[nH]c(C(=O)N[C@H]2C=C[C@H](C(=O)OCCOCCOC(=O)c3ccc(-c4c5nc(c(-c6cccc(S(=O)(=O)[O-])c6F)c6ccc([nH]6)c(-c6cccc(S(=O)(=O)[O-])c6F)c6nc(c(-c7cccc(S(=O)(=O)[O-])c7F)c7ccc4[nH]7)C=C6)C=C5)cc3)C2)c1
REMARK SMILES IDX 20 1 19 2 18 3 17 4 15 5 16 6 14 7 11 8 12 9 89 10 13 11
REMARK SMILES IDX 10 12 8 13 9 14 7 16 4 17 5 18 90 19 6 20 2 22 1 23 3 24
REMARK SMILES IDX 21 25 22 26 23 27 24 28 25 29 26 30 27 31 88 32 28 33 87 34
REMARK SMILES IDX 29 35 30 36 31 37 81 38 32 39 86 40 80 41 82 42 33 43 85 44
REMARK SMILES IDX 79 45 78 46 34 48 66 49 46 50 65 51 47 52 50 53 64 54 83 55
REMARK SMILES IDX 48 56 49 57 63 59 84 60 51 61 35 62 36 63 44 64 37 65 39 66
REMARK SMILES IDX 45 67 38 68 40 69 41 70 42 71 43 72 67 73 68 74 76 75 69 76
REMARK SMILES IDX 71 77 77 78 70 79 72 80 73 81 74 82 75 83 52 84 53 85 61 86
REMARK SMILES IDX 54 87 56 88 62 89 55 90 57 91 58 92 59 93 60 94
REMARK H PARENT 10 15 6 21 82 47 50 58
REMARK Flexibility Score: inf
ROOT
ATOM      1  O   UNL A   1      33.451  30.048  26.008  1.00  0.00    -0.374 OA
ENDROOT
BRANCH   1   2
ATOM      2  C   UNL A   1      32.407  29.122  25.709  1.00  0.00     0.202 C 
BRANCH   2   3
ATOM      3  C   UNL A   1      31.913  29.005  24.270  1.00  0.00     0.261 C 
BRANCH   3   4
ATOM      4  O   UNL A   1      30.624  28.374  24.169  1.00  0.00    -0.463 OA
BRANCH   4   5
ATOM      5  C   UNL A   1      30.599  27.271  23.377  1.00  0.00     0.312 C 
ATOM      6  O   UNL A   1      31.336  27.104  22.409  1.00  0.00    -0.252 OA
BRANCH   5   7
ATOM      7  C   UNL A   1      29.588  26.226  23.866  1.00  0.00     0.124 C 
ATOM      8  C   UNL A   1      30.933  25.121  25.524  1.00  0.00     0.106 C 
ATOM      9  C   UNL A   1      30.866  24.305  24.268  1.00  0.00    -0.006 C 
ATOM     10  C   UNL A   1      29.675  25.982  25.387  1.00  0.00     0.048 C 
ATOM     11  C   UNL A   1      30.083  24.898  23.355  1.00  0.00    -0.014 C 
BRANCH   8  12
ATOM     12  N   UNL A   1      31.015  24.241  26.649  1.00  0.00    -0.345 N 
ATOM     13  C   UNL A   1      32.103  23.523  27.093  1.00  0.00     0.268 C 
ATOM     14  O   UNL A   1      31.903  22.708  27.997  1.00  0.00    -0.268 OA
ATOM     15  H   UNL A   1      30.188  24.135  27.173  1.00  0.00     0.164 HD
BRANCH  13  16
ATOM     16  C   UNL A   1      33.442  23.688  26.537  1.00  0.00     0.105 A 
ATOM     17  C   UNL A   1      35.577  23.589  25.691  1.00  0.00     0.035 A 
ATOM     18  C   UNL A   1      35.092  24.864  25.494  1.00  0.00     0.094 A 
ATOM     19  C   UNL A   1      34.554  22.877  26.374  1.00  0.00     0.045 A 
ATOM     20  N   UNL A   1      33.811  24.906  25.985  1.00  0.00    -0.356 N 
ATOM     21  H   UNL A   1      33.228  25.698  25.951  1.00  0.00     0.166 HD
BRANCH  17  22
ATOM     22  C   UNL A   1      36.864  23.034  25.288  1.00  0.00     0.161 C 
ATOM     23  C   UNL A   1      36.932  21.569  24.961  1.00  0.00     0.093 C 
ATOM     24  O   UNL A   1      37.854  23.750  25.162  1.00  0.00    -0.294 OA
ENDBRANCH  17  22
ENDBRANCH  13  16
ENDBRANCH   8  12
ENDBRANCH   5   7
ENDBRANCH   4   5
ENDBRANCH   3   4
ENDBRANCH   2   3
ENDBRANCH   1   2
BRANCH   1  25
ATOM     25  C   UNL A   1      33.520  30.682  27.279  1.00  0.00     0.202 C 
BRANCH  25  26
ATOM     26  C   UNL A   1      34.857  31.198  27.803  1.00  0.00     0.261 C 
BRANCH  26  27
ATOM     27  O   UNL A   1      35.577  30.232  28.543  1.00  0.00    -0.460 OA
BRANCH  27  28
ATOM     28  C   UNL A   1      36.892  30.554  28.590  1.00  0.00     0.338 C 
ATOM     29  O   UNL A   1      37.378  31.670  28.651  1.00  0.00    -0.246 OA
BRANCH  28  30
ATOM     30  C   UNL A   1      37.702  29.363  28.386  1.00  0.00     0.060 A 
ATOM     31  C   UNL A   1      37.936  28.617  29.545  1.00  0.00     0.016 A 
ATOM     32  C   UNL A   1      38.590  29.415  27.311  1.00  0.00     0.016 A 
ATOM     33  C   UNL A   1      39.198  28.119  29.736  1.00  0.00     0.010 A 
ATOM     34  C   UNL A   1      39.869  28.987  27.537  1.00  0.00     0.010 A 
ATOM     35  C   UNL A   1      40.166  28.374  28.758  1.00  0.00    -0.014 A 
BRANCH  35  36
ATOM     36  C   UNL A   1      41.479  27.767  28.938  1.00  0.00     0.031 A 
ATOM     37  C   UNL A   1      41.356  26.268  28.551  1.00  0.00     0.074 A 
ATOM     38  C   UNL A   1      42.437  28.610  29.443  1.00  0.00     0.049 A 
ATOM     39  N   UNL A   1      41.908  25.216  29.075  1.00  0.00    -0.248 NA
ATOM     40  C   UNL A   1      40.345  25.855  27.523  1.00  0.00     0.031 C 
ATOM     41  C   UNL A   1      42.279  30.071  29.698  1.00  0.00     0.029 A 
ATOM     42  N   UNL A   1      43.739  28.434  29.848  1.00  0.00    -0.354 N 
ATOM     43  C   UNL A   1      41.545  24.112  28.259  1.00  0.00     0.074 A 
ATOM     44  C   UNL A   1      40.441  24.528  27.465  1.00  0.00     0.031 C 
ATOM     45  C   UNL A   1      43.383  30.593  30.290  1.00  0.00     0.029 A 
ATOM     46  C   UNL A   1      44.377  29.550  30.456  1.00  0.00     0.049 A 
ATOM     47  H   UNL A   1      44.206  27.576  29.722  1.00  0.00     0.167 HD
ATOM     48  C   UNL A   1      42.320  22.995  28.133  1.00  0.00     0.034 A 
ATOM     49  C   UNL A   1      45.601  29.587  31.084  1.00  0.00     0.034 A 
ATOM     50  C   UNL A   1      43.486  23.156  28.935  1.00  0.00     0.049 A 
ATOM     51  C   UNL A   1      46.171  28.260  30.819  1.00  0.00     0.074 A 
ATOM     52  C   UNL A   1      43.678  23.141  30.290  1.00  0.00     0.029 A 
ATOM     53  N   UNL A   1      44.524  23.817  28.319  1.00  0.00    -0.354 N 
ATOM     54  N   UNL A   1      46.585  27.860  29.653  1.00  0.00    -0.248 NA
ATOM     55  C   UNL A   1      46.120  27.250  31.881  1.00  0.00     0.031 C 
ATOM     56  C   UNL A   1      44.557  24.225  30.484  1.00  0.00     0.029 A 
ATOM     57  C   UNL A   1      45.077  24.652  29.252  1.00  0.00     0.049 A 
ATOM     58  H   UNL A   1      44.814  23.710  27.384  1.00  0.00     0.167 HD
ATOM     59  C   UNL A   1      46.472  26.498  29.764  1.00  0.00     0.074 A 
ATOM     60  C   UNL A   1      46.525  26.196  31.180  1.00  0.00     0.031 C 
ATOM     61  C   UNL A   1      45.838  25.787  28.792  1.00  0.00     0.034 A 
BRANCH  48  62
ATOM     62  C   UNL A   1      42.355  21.848  27.153  1.00  0.00     0.023 A 
ATOM     63  C   UNL A   1      41.465  20.779  27.460  1.00  0.00     0.012 A 
ATOM     64  C   UNL A   1      43.372  21.596  26.218  1.00  0.00     0.148 A 
ATOM     65  C   UNL A   1      41.669  19.484  26.994  1.00  0.00     0.002 A 
ATOM     66  C   UNL A   1      43.537  20.304  25.707  1.00  0.00     0.091 A 
ATOM     67  F   UNL A   1      44.227  22.569  25.892  1.00  0.00    -0.205 F 
ATOM     68  C   UNL A   1      42.719  19.243  26.130  1.00  0.00     0.022 A 
BRANCH  66  69
ATOM     69  S   UNL A   1      44.801  19.878  24.505  1.00  0.00     0.127 S 
ATOM     70  O   UNL A   1      46.029  20.161  25.243  1.00  0.00    -0.237 OA
ATOM     71  O   UNL A   1      44.541  18.453  24.290  1.00  0.00    -0.237 OA
ATOM     72  O   UNL A   1      44.536  20.710  23.340  1.00  0.00    -0.744 OA
ENDBRANCH  66  69
ENDBRANCH  48  62
BRANCH  49  73
ATOM     73  C   UNL A   1      46.404  30.487  32.008  1.00  0.00     0.023 A 
ATOM     74  C   UNL A   1      46.077  30.766  33.341  1.00  0.00     0.012 A 
ATOM     75  C   UNL A   1      47.657  31.025  31.559  1.00  0.00     0.148 A 
ATOM     76  C   UNL A   1      46.985  31.440  34.192  1.00  0.00     0.002 A 
ATOM     77  C   UNL A   1      48.603  31.561  32.426  1.00  0.00     0.091 A 
ATOM     78  F   UNL A   1      47.936  31.055  30.251  1.00  0.00    -0.205 F 
ATOM     79  C   UNL A   1      48.265  31.787  33.754  1.00  0.00     0.022 A 
BRANCH  77  80
ATOM     80  S   UNL A   1      50.320  31.819  31.925  1.00  0.00     0.127 S 
ATOM     81  O   UNL A   1      50.887  32.506  33.083  1.00  0.00    -0.237 OA
ATOM     82  O   UNL A   1      50.781  30.442  31.741  1.00  0.00    -0.237 OA
ATOM     83  O   UNL A   1      50.277  32.607  30.699  1.00  0.00    -0.744 OA
ENDBRANCH  77  80
ENDBRANCH  49  73
BRANCH  61  84
ATOM     84  C   UNL A   1      45.789  26.455  27.407  1.00  0.00     0.023 A 
ATOM     85  C   UNL A   1      44.522  26.866  26.949  1.00  0.00     0.012 A 
ATOM     86  C   UNL A   1      46.867  26.610  26.498  1.00  0.00     0.148 A 
ATOM     87  C   UNL A   1      44.322  27.373  25.659  1.00  0.00     0.002 A 
ATOM     88  C   UNL A   1      46.667  27.094  25.195  1.00  0.00     0.091 A 
ATOM     89  F   UNL A   1      48.093  26.294  26.902  1.00  0.00    -0.205 F 
ATOM     90  C   UNL A   1      45.390  27.481  24.780  1.00  0.00     0.022 A 
BRANCH  88  91
ATOM     91  S   UNL A   1      47.960  27.209  23.935  1.00  0.00     0.127 S 
ATOM     92  O   UNL A   1      49.035  27.907  24.646  1.00  0.00    -0.237 OA
ATOM     93  O   UNL A   1      48.249  25.806  23.650  1.00  0.00    -0.237 OA
ATOM     94  O   UNL A   1      47.391  27.965  22.828  1.00  0.00    -0.744 OA
ENDBRANCH  88  91
ENDBRANCH  61  84
ENDBRANCH  35  36
ENDBRANCH  28  30
ENDBRANCH  27  28
ENDBRANCH  26  27
ENDBRANCH  25  26
ENDBRANCH   1  25
TORSDOF 20
ENDMDL
MODEL 3
REMARK VINA RESULT:     -10.8      2.838      4.473
REMARK SMILES CC(=O)c1c[nH]c(C(=O)N[C@H]2C=C[C@H](C(=O)OCCOCCOC(=O)c3ccc(-c4c5nc(c(-c6cccc(S(=O)(=O)[O-])c6F)c6ccc([nH]6)c(-c6cccc(S(=O)(=O)[O-])c6F)c6nc(c(-c7cccc(S(=O)(=O)[O-])c7F)c7ccc4[nH]7)C=C6)C=C5)cc3)C2)c1
REMARK SMILES IDX 20 1 19 2 18 3 17 4 15 5 16 6 14 7 11 8 12 9 89 10 13 11
REMARK SMILES IDX 10 12 8 13 9 14 7 16 4 17 5 18 90 19 6 20 2 22 1 23 3 24
REMARK SMILES IDX 21 25 22 26 23 27 24 28 25 29 26 30 27 31 88 32 28 33 87 34
REMARK SMILES IDX 29 35 30 36 31 37 81 38 32 39 86 40 80 41 82 42 33 43 85 44
REMARK SMILES IDX 79 45 78 46 34 48 66 49 46 50 65 51 47 52 50 53 64 54 83 55
REMARK SMILES IDX 48 56 49 57 63 59 84 60 51 61 35 62 36 63 44 64 37 65 39 66
REMARK SMILES IDX 45 67 38 68 40 69 41 70 42 71 43 72 67 73 68 74 76 75 69 76
REMARK SMILES IDX 71 77 77 78 70 79 72 80 73 81 74 82 75 83 52 84 53 85 61 86
REMARK SMILES IDX 54 87 56 88 62 89 55 90 57 91 58 92 59 93 60 94
REMARK H PARENT 10 15 6 21 82 47 50 58
REMARK Flexibility Score: inf
ROOT
ATOM      1  O   UNL A   1      41.317  19.073  25.740  1.00  0.00    -0.374 OA
ENDROOT
BRANCH   1   2
ATOM      2  C   UNL A   1      40.645  20.019  26.572  1.00  0.00     0.202 C 
BRANCH   2   3
ATOM      3  C   UNL A   1      40.167  21.332  25.961  1.00  0.00     0.261 C 
BRANCH   3   4
ATOM      4  O   UNL A   1      38.817  21.665  26.332  1.00  0.00    -0.463 OA
BRANCH   4   5
ATOM      5  C   UNL A   1      37.914  21.556  25.323  1.00  0.00     0.312 C 
ATOM      6  O   UNL A   1      37.813  20.572  24.595  1.00  0.00    -0.252 OA
BRANCH   5   7
ATOM      7  C   UNL A   1      36.991  22.778  25.234  1.00  0.00     0.124 C 
ATOM      8  C   UNL A   1      34.860  21.668  25.315  1.00  0.00     0.106 C 
ATOM      9  C   UNL A   1      35.194  22.069  23.910  1.00  0.00    -0.006 C 
ATOM     10  C   UNL A   1      35.734  22.637  26.117  1.00  0.00     0.048 C 
ATOM     11  C   UNL A   1      36.362  22.726  23.865  1.00  0.00    -0.014 C 
BRANCH   8  12
ATOM     12  N   UNL A   1      33.443  21.746  25.499  1.00  0.00    -0.345 N 
ATOM     13  C   UNL A   1      32.502  20.762  25.298  1.00  0.00     0.268 C 
ATOM     14  O   UNL A   1      31.317  21.099  25.373  1.00  0.00    -0.268 OA
ATOM     15  H   UNL A   1      33.097  22.614  25.810  1.00  0.00     0.164 HD
BRANCH  13  16
ATOM     16  C   UNL A   1      32.853  19.378  24.998  1.00  0.00     0.105 A 
ATOM     17  C   UNL A   1      33.312  17.129  24.867  1.00  0.00     0.035 A 
ATOM     18  C   UNL A   1      33.372  17.658  23.596  1.00  0.00     0.094 A 
ATOM     19  C   UNL A   1      33.024  18.217  25.736  1.00  0.00     0.045 A 
ATOM     20  N   UNL A   1      33.078  18.996  23.684  1.00  0.00    -0.356 N 
ATOM     21  H   UNL A   1      33.034  19.607  22.913  1.00  0.00     0.166 HD
BRANCH  17  22
ATOM     22  C   UNL A   1      33.486  15.743  25.284  1.00  0.00     0.161 C 
ATOM     23  C   UNL A   1      32.281  14.996  25.781  1.00  0.00     0.093 C 
ATOM     24  O   UNL A   1      34.573  15.180  25.180  1.00  0.00    -0.294 OA
ENDBRANCH  17  22
ENDBRANCH  13  16
ENDBRANCH   8  12
ENDBRANCH   5   7
ENDBRANCH   4   5
ENDBRANCH   3   4
ENDBRANCH   2   3
ENDBRANCH   1   2
BRANCH   1  25
ATOM     25  C   UNL A   1      42.600  18.574  26.094  1.00  0.00     0.202 C 
BRANCH  25  26
ATOM     26  C   UNL A   1      43.793  18.816  25.174  1.00  0.00     0.261 C 
BRANCH  26  27
ATOM     27  O   UNL A   1      44.541  19.965  25.518  1.00  0.00    -0.460 OA
BRANCH  27  28
ATOM     28  C   UNL A   1      44.312  20.963  24.632  1.00  0.00     0.338 C 
ATOM     29  O   UNL A   1      44.640  21.000  23.459  1.00  0.00    -0.246 OA
BRANCH  28  30
ATOM     30  C   UNL A   1      43.746  22.115  25.317  1.00  0.00     0.060 A 
ATOM     31  C   UNL A   1      43.939  23.333  24.656  1.00  0.00     0.016 A 
ATOM     32  C   UNL A   1      43.638  22.000  26.703  1.00  0.00     0.016 A 
ATOM     33  C   UNL A   1      44.285  24.419  25.416  1.00  0.00     0.010 A 
ATOM     34  C   UNL A   1      44.060  23.063  27.453  1.00  0.00     0.010 A 
ATOM     35  C   UNL A   1      44.408  24.249  26.800  1.00  0.00    -0.014 A 
BRANCH  35  36
ATOM     36  C   UNL A   1      44.695  25.433  27.599  1.00  0.00     0.031 A 
ATOM     37  C   UNL A   1      43.365  26.219  27.762  1.00  0.00     0.074 A 
ATOM     38  C   UNL A   1      46.016  25.591  27.939  1.00  0.00     0.049 A 
ATOM     39  N   UNL A   1      43.139  27.497  27.772  1.00  0.00    -0.248 NA
ATOM     40  C   UNL A   1      42.065  25.471  27.757  1.00  0.00     0.031 C 
ATOM     41  C   UNL A   1      47.116  24.622  27.669  1.00  0.00     0.029 A 
ATOM     42  N   UNL A   1      46.719  26.583  28.580  1.00  0.00    -0.354 N 
ATOM     43  C   UNL A   1      41.761  27.669  28.070  1.00  0.00     0.074 A 
ATOM     44  C   UNL A   1      41.129  26.415  27.847  1.00  0.00     0.031 C 
ATOM     45  C   UNL A   1      48.320  25.121  28.047  1.00  0.00     0.029 A 
ATOM     46  C   UNL A   1      48.134  26.439  28.624  1.00  0.00     0.049 A 
ATOM     47  H   UNL A   1      46.265  27.356  28.988  1.00  0.00     0.167 HD
ATOM     48  C   UNL A   1      41.269  28.779  28.693  1.00  0.00     0.034 A 
ATOM     49  C   UNL A   1      49.064  27.356  29.055  1.00  0.00     0.034 A 
ATOM     50  C   UNL A   1      42.350  29.667  28.963  1.00  0.00     0.049 A 
ATOM     51  C   UNL A   1      48.253  28.437  29.627  1.00  0.00     0.074 A 
ATOM     52  C   UNL A   1      43.113  30.459  28.148  1.00  0.00     0.029 A 
ATOM     53  N   UNL A   1      43.013  29.427  30.144  1.00  0.00    -0.354 N 
ATOM     54  N   UNL A   1      47.579  28.339  30.735  1.00  0.00    -0.248 NA
ATOM     55  C   UNL A   1      48.038  29.649  28.831  1.00  0.00     0.031 C 
ATOM     56  C   UNL A   1      44.412  30.251  28.655  1.00  0.00     0.029 A 
ATOM     57  C   UNL A   1      44.348  29.600  29.895  1.00  0.00     0.049 A 
ATOM     58  H   UNL A   1      42.606  29.178  31.006  1.00  0.00     0.167 HD
ATOM     59  C   UNL A   1      46.602  29.285  30.557  1.00  0.00     0.074 A 
ATOM     60  C   UNL A   1      47.124  30.236  29.597  1.00  0.00     0.031 C 
ATOM     61  C   UNL A   1      45.298  28.966  30.777  1.00  0.00     0.034 A 
BRANCH  48  62
ATOM     62  C   UNL A   1      39.970  29.101  29.389  1.00  0.00     0.023 A 
ATOM     63  C   UNL A   1      39.104  29.965  28.659  1.00  0.00     0.012 A 
ATOM     64  C   UNL A   1      39.702  28.921  30.757  1.00  0.00     0.148 A 
ATOM     65  C   UNL A   1      38.128  30.739  29.279  1.00  0.00     0.002 A 
ATOM     66  C   UNL A   1      38.681  29.659  31.364  1.00  0.00     0.091 A 
ATOM     67  F   UNL A   1      40.482  28.115  31.483  1.00  0.00    -0.205 F 
ATOM     68  C   UNL A   1      37.930  30.598  30.639  1.00  0.00     0.022 A 
BRANCH  66  69
ATOM     69  S   UNL A   1      38.255  29.500  33.102  1.00  0.00     0.127 S 
ATOM     70  O   UNL A   1      37.500  30.727  33.342  1.00  0.00    -0.237 OA
ATOM     71  O   UNL A   1      37.443  28.281  33.101  1.00  0.00    -0.237 OA
ATOM     72  O   UNL A   1      39.521  29.367  33.808  1.00  0.00    -0.744 OA
ENDBRANCH  66  69
ENDBRANCH  48  62
BRANCH  49  73
ATOM     73  C   UNL A   1      50.562  27.606  28.992  1.00  0.00     0.023 A 
ATOM     74  C   UNL A   1      51.342  28.083  30.054  1.00  0.00     0.012 A 
ATOM     75  C   UNL A   1      51.292  27.237  27.813  1.00  0.00     0.148 A 
ATOM     76  C   UNL A   1      52.755  28.088  29.979  1.00  0.00     0.002 A 
ATOM     77  C   UNL A   1      52.677  27.111  27.790  1.00  0.00     0.091 A 
ATOM     78  F   UNL A   1      50.639  27.035  26.664  1.00  0.00    -0.205 F 
ATOM     79  C   UNL A   1      53.423  27.552  28.876  1.00  0.00     0.022 A 
BRANCH  77  80
ATOM     80  S   UNL A   1      53.535  26.234  26.463  1.00  0.00     0.127 S 
ATOM     81  O   UNL A   1      52.867  24.935  26.459  1.00  0.00    -0.237 OA
ATOM     82  O   UNL A   1      53.233  27.083  25.309  1.00  0.00    -0.237 OA
ATOM     83  O   UNL A   1      54.944  26.204  26.833  1.00  0.00    -0.744 OA
ENDBRANCH  77  80
ENDBRANCH  49  73
BRANCH  61  84
ATOM     84  C   UNL A   1      45.057  27.778  31.724  1.00  0.00     0.023 A 
ATOM     85  C   UNL A   1      44.675  26.561  31.125  1.00  0.00     0.012 A 
ATOM     86  C   UNL A   1      45.079  27.802  33.143  1.00  0.00     0.148 A 
ATOM     87  C   UNL A   1      44.307  25.440  31.880  1.00  0.00     0.002 A 
ATOM     88  C   UNL A   1      44.686  26.688  33.903  1.00  0.00     0.091 A 
ATOM     89  F   UNL A   1      45.490  28.907  33.756  1.00  0.00    -0.205 F 
ATOM     90  C   UNL A   1      44.306  25.504  33.266  1.00  0.00     0.022 A 
BRANCH  88  91
ATOM     91  S   UNL A   1      44.568  26.671  35.708  1.00  0.00     0.127 S 
ATOM     92  O   UNL A   1      43.918  27.953  35.996  1.00  0.00    -0.237 OA
ATOM     93  O   UNL A   1      43.722  25.507  35.958  1.00  0.00    -0.237 OA
ATOM     94  O   UNL A   1      45.931  26.569  36.209  1.00  0.00    -0.744 OA
ENDBRANCH  88  91
ENDBRANCH  61  84
ENDBRANCH  35  36
ENDBRANCH  28  30
ENDBRANCH  27  28
ENDBRANCH  26  27
ENDBRANCH  25  26
ENDBRANCH   1  25
TORSDOF 20
ENDMDL
