MODEL 1
REMARK VINA RESULT:     -11.6      0.000      0.000
REMARK SMILES C[C@H](C(=O)OCCOCCOC(=O)c1ccc(-c2c3nc(c(-c4cccc(S(=O)(=O)[O-])c4F)c4ccc([nH]4)c(-c4cccc(S(=O)(=O)[O-])c4F)c4nc(c(-c5cccc(S(=O)(=O)[O-])c5F)c5ccc2[nH]5)C=C4)C=C3)cc1)c1cccc(C(=O)c2ccccc2)c1
REMARK SMILES IDX 8 1 7 2 6 3 5 4 3 5 4 6 2 7 1 8 77 9 78 10 90 11 79 12 81 13
REMARK SMILES IDX 80 14 82 15 83 16 84 17 85 18 89 19 86 20 88 21 87 22 9 23
REMARK SMILES IDX 10 24 11 25 12 26 13 27 14 28 15 29 76 30 16 31 75 32 17 33
REMARK SMILES IDX 18 34 19 35 69 36 20 37 74 38 68 39 70 40 21 41 73 42 67 43
REMARK SMILES IDX 66 44 22 46 54 47 34 48 53 49 35 50 38 51 52 52 71 53 36 54
REMARK SMILES IDX 37 55 51 57 72 58 39 59 23 60 24 61 32 62 25 63 27 64 33 65
REMARK SMILES IDX 26 66 28 67 29 68 30 69 31 70 55 71 56 72 64 73 57 74 59 75
REMARK SMILES IDX 65 76 58 77 60 78 61 79 62 80 63 81 40 82 41 83 49 84 42 85
REMARK SMILES IDX 44 86 50 87 43 88 45 89 46 90 47 91 48 92
REMARK H PARENT 70 45 38 56
REMARK Flexibility Score: inf
ROOT
ATOM      1  O   UNL A   1      30.799  29.185  24.243  1.00  0.00    -0.374 OA
ENDROOT
BRANCH   1   2
ATOM      2  C   UNL A   1      30.936  27.890  23.645  1.00  0.00     0.202 C 
BRANCH   2   3
ATOM      3  C   UNL A   1      30.320  26.742  24.451  1.00  0.00     0.261 C 
BRANCH   3   4
ATOM      4  O   UNL A   1      31.313  26.211  25.350  1.00  0.00    -0.463 OA
BRANCH   4   5
ATOM      5  C   UNL A   1      32.520  25.888  24.824  1.00  0.00     0.313 C 
ATOM      6  O   UNL A   1      33.559  26.497  25.063  1.00  0.00    -0.252 OA
BRANCH   5   7
ATOM      7  C   UNL A   1      32.498  24.599  23.993  1.00  0.00     0.126 C 
ATOM      8  C   UNL A   1      33.416  24.827  22.785  1.00  0.00     0.025 C 
BRANCH   7   9
ATOM      9  C   UNL A   1      32.748  23.265  24.702  1.00  0.00    -0.033 A 
ATOM     10  C   UNL A   1      33.229  23.208  26.023  1.00  0.00     0.004 A 
ATOM     11  C   UNL A   1      32.620  22.048  24.023  1.00  0.00     0.016 A 
ATOM     12  C   UNL A   1      33.528  21.985  26.639  1.00  0.00     0.001 A 
ATOM     13  C   UNL A   1      32.898  20.814  24.633  1.00  0.00     0.023 A 
ATOM     14  C   UNL A   1      33.354  20.787  25.949  1.00  0.00     0.012 A 
BRANCH  13  15
ATOM     15  C   UNL A   1      32.665  19.532  23.908  1.00  0.00     0.193 C 
ATOM     16  O   UNL A   1      32.151  19.525  22.797  1.00  0.00    -0.289 OA
BRANCH  15  17
ATOM     17  C   UNL A   1      33.181  18.281  24.504  1.00  0.00     0.022 A 
ATOM     18  C   UNL A   1      32.273  17.444  25.148  1.00  0.00     0.012 A 
ATOM     19  C   UNL A   1      34.490  17.857  24.254  1.00  0.00     0.012 A 
ATOM     20  C   UNL A   1      32.669  16.161  25.531  1.00  0.00     0.001 A 
ATOM     21  C   UNL A   1      34.879  16.574  24.642  1.00  0.00     0.001 A 
ATOM     22  C   UNL A   1      33.969  15.728  25.279  1.00  0.00     0.000 A 
ENDBRANCH  15  17
ENDBRANCH  13  15
ENDBRANCH   7   9
ENDBRANCH   5   7
ENDBRANCH   4   5
ENDBRANCH   3   4
ENDBRANCH   2   3
ENDBRANCH   1   2
BRANCH   1  23
ATOM     23  C   UNL A   1      31.900  29.656  25.014  1.00  0.00     0.202 C 
BRANCH  23  24
ATOM     24  C   UNL A   1      31.623  30.801  25.997  1.00  0.00     0.261 C 
BRANCH  24  25
ATOM     25  O   UNL A   1      32.395  30.736  27.203  1.00  0.00    -0.460 OA
BRANCH  25  26
ATOM     26  C   UNL A   1      33.222  31.793  27.383  1.00  0.00     0.338 C 
ATOM     27  O   UNL A   1      32.925  32.982  27.297  1.00  0.00    -0.246 OA
BRANCH  26  28
ATOM     28  C   UNL A   1      34.554  31.352  27.826  1.00  0.00     0.060 A 
ATOM     29  C   UNL A   1      34.731  29.986  28.084  1.00  0.00     0.016 A 
ATOM     30  C   UNL A   1      35.584  32.260  28.086  1.00  0.00     0.016 A 
ATOM     31  C   UNL A   1      35.918  29.530  28.654  1.00  0.00     0.010 A 
ATOM     32  C   UNL A   1      36.777  31.799  28.659  1.00  0.00     0.010 A 
ATOM     33  C   UNL A   1      36.936  30.437  28.979  1.00  0.00    -0.014 A 
BRANCH  33  34
ATOM     34  C   UNL A   1      38.122  29.971  29.742  1.00  0.00     0.031 A 
ATOM     35  C   UNL A   1      38.356  30.492  31.127  1.00  0.00     0.074 A 
ATOM     36  C   UNL A   1      38.979  29.084  29.204  1.00  0.00     0.049 A 
ATOM     37  N   UNL A   1      39.322  30.209  31.960  1.00  0.00    -0.248 NA
ATOM     38  C   UNL A   1      37.373  31.457  31.648  1.00  0.00     0.031 C 
ATOM     39  C   UNL A   1      38.846  28.520  27.870  1.00  0.00     0.029 A 
ATOM     40  N   UNL A   1      40.135  28.522  29.681  1.00  0.00    -0.354 N 
ATOM     41  C   UNL A   1      39.082  30.975  33.091  1.00  0.00     0.074 A 
ATOM     42  C   UNL A   1      37.884  31.746  32.836  1.00  0.00     0.031 C 
ATOM     43  C   UNL A   1      39.889  27.722  27.605  1.00  0.00     0.029 A 
ATOM     44  C   UNL A   1      40.777  27.723  28.759  1.00  0.00     0.049 A 
ATOM     45  H   UNL A   1      40.472  28.673  30.593  1.00  0.00     0.167 HD
ATOM     46  C   UNL A   1      39.791  31.017  34.243  1.00  0.00     0.034 A 
ATOM     47  C   UNL A   1      41.955  27.073  28.832  1.00  0.00     0.034 A 
ATOM     48  C   UNL A   1      40.979  30.241  34.482  1.00  0.00     0.049 A 
ATOM     49  C   UNL A   1      42.723  27.140  30.121  1.00  0.00     0.074 A 
ATOM     50  C   UNL A   1      41.753  30.183  35.626  1.00  0.00     0.029 A 
ATOM     51  N   UNL A   1      41.575  29.400  33.553  1.00  0.00    -0.354 N 
ATOM     52  N   UNL A   1      42.416  27.775  31.227  1.00  0.00    -0.248 NA
ATOM     53  C   UNL A   1      43.973  26.374  30.194  1.00  0.00     0.031 C 
ATOM     54  C   UNL A   1      42.830  29.323  35.381  1.00  0.00     0.029 A 
ATOM     55  C   UNL A   1      42.711  28.824  34.093  1.00  0.00     0.049 A 
ATOM     56  H   UNL A   1      41.238  29.238  32.642  1.00  0.00     0.167 HD
ATOM     57  C   UNL A   1      43.418  27.465  32.136  1.00  0.00     0.074 A 
ATOM     58  C   UNL A   1      44.329  26.563  31.457  1.00  0.00     0.031 C 
ATOM     59  C   UNL A   1      43.580  27.897  33.411  1.00  0.00     0.034 A 
BRANCH  46  60
ATOM     60  C   UNL A   1      39.282  31.918  35.335  1.00  0.00     0.023 A 
ATOM     61  C   UNL A   1      39.531  33.305  35.266  1.00  0.00     0.012 A 
ATOM     62  C   UNL A   1      38.538  31.402  36.414  1.00  0.00     0.148 A 
ATOM     63  C   UNL A   1      39.078  34.159  36.271  1.00  0.00     0.002 A 
ATOM     64  C   UNL A   1      38.056  32.265  37.391  1.00  0.00     0.091 A 
ATOM     65  F   UNL A   1      38.333  30.079  36.473  1.00  0.00    -0.205 F 
ATOM     66  C   UNL A   1      38.335  33.640  37.327  1.00  0.00     0.022 A 
BRANCH  64  67
ATOM     67  S   UNL A   1      37.034  31.707  38.758  1.00  0.00     0.127 S 
ATOM     68  O   UNL A   1      36.709  30.343  38.346  1.00  0.00    -0.237 OA
ATOM     69  O   UNL A   1      37.957  31.799  39.889  1.00  0.00    -0.237 OA
ATOM     70  O   UNL A   1      35.906  32.627  38.819  1.00  0.00    -0.744 OA
ENDBRANCH  64  67
ENDBRANCH  46  60
BRANCH  47  71
ATOM     71  C   UNL A   1      42.435  26.261  27.675  1.00  0.00     0.023 A 
ATOM     72  C   UNL A   1      43.358  26.821  26.772  1.00  0.00     0.012 A 
ATOM     73  C   UNL A   1      42.018  24.927  27.489  1.00  0.00     0.148 A 
ATOM     74  C   UNL A   1      43.835  26.080  25.689  1.00  0.00     0.002 A 
ATOM     75  C   UNL A   1      42.538  24.177  26.439  1.00  0.00     0.091 A 
ATOM     76  F   UNL A   1      41.127  24.413  28.350  1.00  0.00    -0.205 F 
ATOM     77  C   UNL A   1      43.433  24.757  25.529  1.00  0.00     0.022 A 
BRANCH  75  78
ATOM     78  S   UNL A   1      42.182  22.428  26.228  1.00  0.00     0.127 S 
ATOM     79  O   UNL A   1      42.922  22.116  25.010  1.00  0.00    -0.237 OA
ATOM     80  O   UNL A   1      42.742  21.853  27.452  1.00  0.00    -0.237 OA
ATOM     81  O   UNL A   1      40.732  22.330  26.132  1.00  0.00    -0.744 OA
ENDBRANCH  75  78
ENDBRANCH  47  71
BRANCH  59  82
ATOM     82  C   UNL A   1      44.774  27.380  34.165  1.00  0.00     0.023 A 
ATOM     83  C   UNL A   1      45.967  28.130  34.184  1.00  0.00     0.012 A 
ATOM     84  C   UNL A   1      44.693  26.186  34.906  1.00  0.00     0.148 A 
ATOM     85  C   UNL A   1      47.072  27.681  34.904  1.00  0.00     0.002 A 
ATOM     86  C   UNL A   1      45.781  25.770  35.661  1.00  0.00     0.091 A 
ATOM     87  F   UNL A   1      43.555  25.478  34.856  1.00  0.00    -0.205 F 
ATOM     88  C   UNL A   1      46.975  26.509  35.652  1.00  0.00     0.022 A 
BRANCH  86  89
ATOM     89  S   UNL A   1      45.715  24.325  36.726  1.00  0.00     0.127 S 
ATOM     90  O   UNL A   1      45.675  23.237  35.750  1.00  0.00    -0.237 OA
ATOM     91  O   UNL A   1      46.970  24.431  37.471  1.00  0.00    -0.237 OA
ATOM     92  O   UNL A   1      44.516  24.482  37.538  1.00  0.00    -0.744 OA
ENDBRANCH  86  89
ENDBRANCH  59  82
ENDBRANCH  33  34
ENDBRANCH  26  28
ENDBRANCH  25  26
ENDBRANCH  24  25
ENDBRANCH  23  24
ENDBRANCH   1  23
TORSDOF 20
ENDMDL
MODEL 2
REMARK VINA RESULT:     -10.8      6.303     13.372
REMARK SMILES C[C@H](C(=O)OCCOCCOC(=O)c1ccc(-c2c3nc(c(-c4cccc(S(=O)(=O)[O-])c4F)c4ccc([nH]4)c(-c4cccc(S(=O)(=O)[O-])c4F)c4nc(c(-c5cccc(S(=O)(=O)[O-])c5F)c5ccc2[nH]5)C=C4)C=C3)cc1)c1cccc(C(=O)c2ccccc2)c1
REMARK SMILES IDX 8 1 7 2 6 3 5 4 3 5 4 6 2 7 1 8 77 9 78 10 90 11 79 12 81 13
REMARK SMILES IDX 80 14 82 15 83 16 84 17 85 18 89 19 86 20 88 21 87 22 9 23
REMARK SMILES IDX 10 24 11 25 12 26 13 27 14 28 15 29 76 30 16 31 75 32 17 33
REMARK SMILES IDX 18 34 19 35 69 36 20 37 74 38 68 39 70 40 21 41 73 42 67 43
REMARK SMILES IDX 66 44 22 46 54 47 34 48 53 49 35 50 38 51 52 52 71 53 36 54
REMARK SMILES IDX 37 55 51 57 72 58 39 59 23 60 24 61 32 62 25 63 27 64 33 65
REMARK SMILES IDX 26 66 28 67 29 68 30 69 31 70 55 71 56 72 64 73 57 74 59 75
REMARK SMILES IDX 65 76 58 77 60 78 61 79 62 80 63 81 40 82 41 83 49 84 42 85
REMARK SMILES IDX 44 86 50 87 43 88 45 89 46 90 47 91 48 92
REMARK H PARENT 70 45 38 56
REMARK Flexibility Score: inf
ROOT
ATOM      1  O   UNL A   1      47.524  21.644  37.810  1.00  0.00    -0.374 OA
ENDROOT
BRANCH   1   2
ATOM      2  C   UNL A   1      47.025  20.304  37.909  1.00  0.00     0.202 C 
BRANCH   2   3
ATOM      3  C   UNL A   1      47.085  19.699  39.314  1.00  0.00     0.261 C 
BRANCH   3   4
ATOM      4  O   UNL A   1      45.943  18.841  39.508  1.00  0.00    -0.463 OA
BRANCH   4   5
ATOM      5  C   UNL A   1      45.488  18.686  40.776  1.00  0.00     0.313 C 
ATOM      6  O   UNL A   1      44.959  19.580  41.430  1.00  0.00    -0.252 OA
BRANCH   5   7
ATOM      7  C   UNL A   1      45.577  17.241  41.283  1.00  0.00     0.126 C 
ATOM      8  C   UNL A   1      46.033  17.305  42.746  1.00  0.00     0.025 C 
BRANCH   7   9
ATOM      9  C   UNL A   1      44.379  16.312  41.061  1.00  0.00    -0.033 A 
ATOM     10  C   UNL A   1      43.841  16.091  39.780  1.00  0.00     0.004 A 
ATOM     11  C   UNL A   1      43.697  15.739  42.140  1.00  0.00     0.016 A 
ATOM     12  C   UNL A   1      42.699  15.300  39.594  1.00  0.00     0.001 A 
ATOM     13  C   UNL A   1      42.563  14.930  41.968  1.00  0.00     0.023 A 
ATOM     14  C   UNL A   1      42.064  14.712  40.686  1.00  0.00     0.012 A 
BRANCH  13  15
ATOM     15  C   UNL A   1      41.914  14.263  43.134  1.00  0.00     0.193 C 
ATOM     16  O   UNL A   1      40.914  14.741  43.652  1.00  0.00    -0.289 OA
BRANCH  15  17
ATOM     17  C   UNL A   1      42.432  12.950  43.572  1.00  0.00     0.022 A 
ATOM     18  C   UNL A   1      41.766  11.807  43.135  1.00  0.00     0.012 A 
ATOM     19  C   UNL A   1      43.661  12.849  44.231  1.00  0.00     0.012 A 
ATOM     20  C   UNL A   1      42.340  10.552  43.340  1.00  0.00     0.001 A 
ATOM     21  C   UNL A   1      44.228  11.590  44.435  1.00  0.00     0.001 A 
ATOM     22  C   UNL A   1      43.568  10.444  43.990  1.00  0.00     0.000 A 
ENDBRANCH  15  17
ENDBRANCH  13  15
ENDBRANCH   7   9
ENDBRANCH   5   7
ENDBRANCH   4   5
ENDBRANCH   3   4
ENDBRANCH   2   3
ENDBRANCH   1   2
BRANCH   1  23
ATOM     23  C   UNL A   1      47.254  22.342  36.597  1.00  0.00     0.202 C 
BRANCH  23  24
ATOM     24  C   UNL A   1      47.980  23.677  36.386  1.00  0.00     0.261 C 
BRANCH  24  25
ATOM     25  O   UNL A   1      47.179  24.830  36.680  1.00  0.00    -0.460 OA
BRANCH  25  26
ATOM     26  C   UNL A   1      47.569  25.949  36.025  1.00  0.00     0.338 C 
ATOM     27  O   UNL A   1      48.723  26.299  35.790  1.00  0.00    -0.246 OA
BRANCH  26  28
ATOM     28  C   UNL A   1      46.408  26.685  35.499  1.00  0.00     0.060 A 
ATOM     29  C   UNL A   1      45.153  26.072  35.603  1.00  0.00     0.016 A 
ATOM     30  C   UNL A   1      46.548  27.900  34.824  1.00  0.00     0.016 A 
ATOM     31  C   UNL A   1      44.042  26.644  34.986  1.00  0.00     0.010 A 
ATOM     32  C   UNL A   1      45.430  28.473  34.204  1.00  0.00     0.010 A 
ATOM     33  C   UNL A   1      44.179  27.830  34.252  1.00  0.00    -0.014 A 
BRANCH  33  34
ATOM     34  C   UNL A   1      43.033  28.338  33.455  1.00  0.00     0.031 A 
ATOM     35  C   UNL A   1      42.039  29.256  34.099  1.00  0.00     0.074 A 
ATOM     36  C   UNL A   1      42.885  27.986  32.164  1.00  0.00     0.049 A 
ATOM     37  N   UNL A   1      40.977  29.813  33.580  1.00  0.00    -0.248 NA
ATOM     38  C   UNL A   1      42.269  29.596  35.513  1.00  0.00     0.031 C 
ATOM     39  C   UNL A   1      43.789  27.101  31.447  1.00  0.00     0.029 A 
ATOM     40  N   UNL A   1      41.925  28.295  31.235  1.00  0.00    -0.354 N 
ATOM     41  C   UNL A   1      40.397  30.548  34.604  1.00  0.00     0.074 A 
ATOM     42  C   UNL A   1      41.219  30.359  35.780  1.00  0.00     0.031 C 
ATOM     43  C   UNL A   1      43.335  26.897  30.203  1.00  0.00     0.029 A 
ATOM     44  C   UNL A   1      42.093  27.638  30.035  1.00  0.00     0.049 A 
ATOM     45  H   UNL A   1      41.189  28.925  31.408  1.00  0.00     0.167 HD
ATOM     46  C   UNL A   1      39.288  31.322  34.558  1.00  0.00     0.034 A 
ATOM     47  C   UNL A   1      41.326  27.626  28.928  1.00  0.00     0.034 A 
ATOM     48  C   UNL A   1      38.485  31.502  33.378  1.00  0.00     0.049 A 
ATOM     49  C   UNL A   1      40.098  28.492  28.905  1.00  0.00     0.074 A 
ATOM     50  C   UNL A   1      37.362  32.292  33.215  1.00  0.00     0.029 A 
ATOM     51  N   UNL A   1      38.709  30.870  32.164  1.00  0.00    -0.354 N 
ATOM     52  N   UNL A   1      39.632  29.278  29.846  1.00  0.00    -0.248 NA
ATOM     53  C   UNL A   1      39.314  28.506  27.665  1.00  0.00     0.031 C 
ATOM     54  C   UNL A   1      36.894  32.121  31.907  1.00  0.00     0.029 A 
ATOM     55  C   UNL A   1      37.742  31.244  31.247  1.00  0.00     0.049 A 
ATOM     56  H   UNL A   1      39.448  30.245  31.981  1.00  0.00     0.167 HD
ATOM     57  C   UNL A   1      38.517  29.902  29.304  1.00  0.00     0.074 A 
ATOM     58  C   UNL A   1      38.394  29.419  27.942  1.00  0.00     0.031 C 
ATOM     59  C   UNL A   1      37.664  30.781  29.884  1.00  0.00     0.034 A 
BRANCH  46  60
ATOM     60  C   UNL A   1      38.900  32.046  35.818  1.00  0.00     0.023 A 
ATOM     61  C   UNL A   1      39.277  33.394  35.992  1.00  0.00     0.012 A 
ATOM     62  C   UNL A   1      38.143  31.406  36.819  1.00  0.00     0.148 A 
ATOM     63  C   UNL A   1      38.938  34.082  37.155  1.00  0.00     0.002 A 
ATOM     64  C   UNL A   1      37.774  32.111  37.959  1.00  0.00     0.091 A 
ATOM     65  F   UNL A   1      37.815  30.118  36.646  1.00  0.00    -0.205 F 
ATOM     66  C   UNL A   1      38.180  33.444  38.133  1.00  0.00     0.022 A 
BRANCH  64  67
ATOM     67  S   UNL A   1      36.745  31.401  39.248  1.00  0.00     0.127 S 
ATOM     68  O   UNL A   1      36.292  30.163  38.616  1.00  0.00    -0.237 OA
ATOM     69  O   UNL A   1      37.703  31.214  40.338  1.00  0.00    -0.237 OA
ATOM     70  O   UNL A   1      35.703  32.382  39.517  1.00  0.00    -0.744 OA
ENDBRANCH  64  67
ENDBRANCH  46  60
BRANCH  47  71
ATOM     71  C   UNL A   1      41.736  26.818  27.742  1.00  0.00     0.023 A 
ATOM     72  C   UNL A   1      42.397  27.448  26.670  1.00  0.00     0.012 A 
ATOM     73  C   UNL A   1      41.515  25.427  27.686  1.00  0.00     0.148 A 
ATOM     74  C   UNL A   1      42.805  26.715  25.554  1.00  0.00     0.002 A 
ATOM     75  C   UNL A   1      41.971  24.694  26.595  1.00  0.00     0.091 A 
ATOM     76  F   UNL A   1      40.871  24.844  28.708  1.00  0.00    -0.205 F 
ATOM     77  C   UNL A   1      42.602  25.339  25.521  1.00  0.00     0.022 A 
BRANCH  75  78
ATOM     78  S   UNL A   1      41.872  22.900  26.523  1.00  0.00     0.127 S 
ATOM     79  O   UNL A   1      42.764  22.507  27.610  1.00  0.00    -0.237 OA
ATOM     80  O   UNL A   1      40.451  22.663  26.778  1.00  0.00    -0.237 OA
ATOM     81  O   UNL A   1      42.308  22.536  25.182  1.00  0.00    -0.744 OA
ENDBRANCH  75  78
ENDBRANCH  47  71
BRANCH  59  82
ATOM     82  C   UNL A   1      36.533  31.300  29.038  1.00  0.00     0.023 A 
ATOM     83  C   UNL A   1      36.479  32.668  28.705  1.00  0.00     0.012 A 
ATOM     84  C   UNL A   1      35.561  30.420  28.523  1.00  0.00     0.148 A 
ATOM     85  C   UNL A   1      35.456  33.158  27.896  1.00  0.00     0.002 A 
ATOM     86  C   UNL A   1      34.573  30.907  27.678  1.00  0.00     0.091 A 
ATOM     87  F   UNL A   1      35.620  29.127  28.871  1.00  0.00    -0.205 F 
ATOM     88  C   UNL A   1      34.511  32.277  27.373  1.00  0.00     0.022 A 
BRANCH  86  89
ATOM     89  S   UNL A   1      33.373  29.832  26.885  1.00  0.00     0.127 S 
ATOM     90  O   UNL A   1      32.966  28.970  27.994  1.00  0.00    -0.237 OA
ATOM     91  O   UNL A   1      32.350  30.781  26.443  1.00  0.00    -0.237 OA
ATOM     92  O   UNL A   1      34.085  29.166  25.803  1.00  0.00    -0.744 OA
ENDBRANCH  86  89
ENDBRANCH  59  82
ENDBRANCH  33  34
ENDBRANCH  26  28
ENDBRANCH  25  26
ENDBRANCH  24  25
ENDBRANCH  23  24
ENDBRANCH   1  23
TORSDOF 20
ENDMDL
MODEL 3
REMARK VINA RESULT:     -10.6      5.437     11.922
REMARK SMILES C[C@H](C(=O)OCCOCCOC(=O)c1ccc(-c2c3nc(c(-c4cccc(S(=O)(=O)[O-])c4F)c4ccc([nH]4)c(-c4cccc(S(=O)(=O)[O-])c4F)c4nc(c(-c5cccc(S(=O)(=O)[O-])c5F)c5ccc2[nH]5)C=C4)C=C3)cc1)c1cccc(C(=O)c2ccccc2)c1
REMARK SMILES IDX 8 1 7 2 6 3 5 4 3 5 4 6 2 7 1 8 77 9 78 10 90 11 79 12 81 13
REMARK SMILES IDX 80 14 82 15 83 16 84 17 85 18 89 19 86 20 88 21 87 22 9 23
REMARK SMILES IDX 10 24 11 25 12 26 13 27 14 28 15 29 76 30 16 31 75 32 17 33
REMARK SMILES IDX 18 34 19 35 69 36 20 37 74 38 68 39 70 40 21 41 73 42 67 43
REMARK SMILES IDX 66 44 22 46 54 47 34 48 53 49 35 50 38 51 52 52 71 53 36 54
REMARK SMILES IDX 37 55 51 57 72 58 39 59 23 60 24 61 32 62 25 63 27 64 33 65
REMARK SMILES IDX 26 66 28 67 29 68 30 69 31 70 55 71 56 72 64 73 57 74 59 75
REMARK SMILES IDX 65 76 58 77 60 78 61 79 62 80 63 81 40 82 41 83 49 84 42 85
REMARK SMILES IDX 44 86 50 87 43 88 45 89 46 90 47 91 48 92
REMARK H PARENT 70 45 38 56
REMARK Flexibility Score: inf
ROOT
ATOM      1  O   UNL A   1      42.635  22.714  24.795  1.00  0.00    -0.374 OA
ENDROOT
BRANCH   1   2
ATOM      2  C   UNL A   1      44.034  23.004  24.684  1.00  0.00     0.202 C 
BRANCH   2   3
ATOM      3  C   UNL A   1      44.495  24.244  25.456  1.00  0.00     0.261 C 
BRANCH   3   4
ATOM      4  O   UNL A   1      45.612  24.841  24.767  1.00  0.00    -0.463 OA
BRANCH   4   5
ATOM      5  C   UNL A   1      45.894  26.138  25.045  1.00  0.00     0.313 C 
ATOM      6  O   UNL A   1      46.424  26.910  24.251  1.00  0.00    -0.252 OA
BRANCH   5   7
ATOM      7  C   UNL A   1      45.369  26.597  26.410  1.00  0.00     0.126 C 
ATOM      8  C   UNL A   1      46.587  26.753  27.331  1.00  0.00     0.025 C 
BRANCH   7   9
ATOM      9  C   UNL A   1      44.411  27.791  26.463  1.00  0.00    -0.033 A 
ATOM     10  C   UNL A   1      43.135  27.743  25.872  1.00  0.00     0.004 A 
ATOM     11  C   UNL A   1      44.813  29.019  27.000  1.00  0.00     0.016 A 
ATOM     12  C   UNL A   1      42.294  28.864  25.858  1.00  0.00     0.001 A 
ATOM     13  C   UNL A   1      43.975  30.145  27.009  1.00  0.00     0.023 A 
ATOM     14  C   UNL A   1      42.709  30.064  26.434  1.00  0.00     0.012 A 
BRANCH  13  15
ATOM     15  C   UNL A   1      44.403  31.412  27.669  1.00  0.00     0.193 C 
ATOM     16  O   UNL A   1      45.187  31.395  28.609  1.00  0.00    -0.289 OA
BRANCH  15  17
ATOM     17  C   UNL A   1      43.958  32.696  27.086  1.00  0.00     0.022 A 
ATOM     18  C   UNL A   1      43.528  33.694  27.958  1.00  0.00     0.012 A 
ATOM     19  C   UNL A   1      44.153  32.971  25.729  1.00  0.00     0.012 A 
ATOM     20  C   UNL A   1      43.308  34.985  27.476  1.00  0.00     0.001 A 
ATOM     21  C   UNL A   1      43.928  34.264  25.253  1.00  0.00     0.001 A 
ATOM     22  C   UNL A   1      43.507  35.269  26.126  1.00  0.00     0.000 A 
ENDBRANCH  15  17
ENDBRANCH  13  15
ENDBRANCH   7   9
ENDBRANCH   5   7
ENDBRANCH   4   5
ENDBRANCH   3   4
ENDBRANCH   2   3
ENDBRANCH   1   2
BRANCH   1  23
ATOM     23  C   UNL A   1      42.255  21.750  25.773  1.00  0.00     0.202 C 
BRANCH  23  24
ATOM     24  C   UNL A   1      41.515  22.270  27.012  1.00  0.00     0.261 C 
BRANCH  24  25
ATOM     25  O   UNL A   1      40.138  21.875  27.079  1.00  0.00    -0.460 OA
BRANCH  25  26
ATOM     26  C   UNL A   1      39.287  22.753  26.496  1.00  0.00     0.338 C 
ATOM     27  O   UNL A   1      38.428  22.497  25.656  1.00  0.00    -0.246 OA
BRANCH  26  28
ATOM     28  C   UNL A   1      39.427  24.095  27.085  1.00  0.00     0.060 A 
ATOM     29  C   UNL A   1      40.132  25.054  26.347  1.00  0.00     0.016 A 
ATOM     30  C   UNL A   1      38.975  24.385  28.375  1.00  0.00     0.016 A 
ATOM     31  C   UNL A   1      40.433  26.291  26.916  1.00  0.00     0.010 A 
ATOM     32  C   UNL A   1      39.280  25.629  28.944  1.00  0.00     0.010 A 
ATOM     33  C   UNL A   1      40.041  26.574  28.231  1.00  0.00    -0.014 A 
BRANCH  33  34
ATOM     34  C   UNL A   1      40.515  27.819  28.889  1.00  0.00     0.031 A 
ATOM     35  C   UNL A   1      41.888  27.857  29.487  1.00  0.00     0.074 A 
ATOM     36  C   UNL A   1      39.725  28.907  28.946  1.00  0.00     0.049 A 
ATOM     37  N   UNL A   1      42.491  28.842  30.097  1.00  0.00    -0.248 NA
ATOM     38  C   UNL A   1      42.692  26.629  29.382  1.00  0.00     0.031 C 
ATOM     39  C   UNL A   1      38.379  28.974  28.402  1.00  0.00     0.029 A 
ATOM     40  N   UNL A   1      39.913  30.147  29.502  1.00  0.00    -0.354 N 
ATOM     41  C   UNL A   1      43.733  28.350  30.473  1.00  0.00     0.074 A 
ATOM     42  C   UNL A   1      43.795  26.973  30.031  1.00  0.00     0.031 C 
ATOM     43  C   UNL A   1      37.834  30.167  28.674  1.00  0.00     0.029 A 
ATOM     44  C   UNL A   1      38.800  30.955  29.427  1.00  0.00     0.049 A 
ATOM     45  H   UNL A   1      40.761  30.431  29.914  1.00  0.00     0.167 HD
ATOM     46  C   UNL A   1      44.734  28.996  31.114  1.00  0.00     0.034 A 
ATOM     47  C   UNL A   1      38.579  32.190  29.919  1.00  0.00     0.034 A 
ATOM     48  C   UNL A   1      44.657  30.367  31.543  1.00  0.00     0.049 A 
ATOM     49  C   UNL A   1      39.706  32.883  30.630  1.00  0.00     0.074 A 
ATOM     50  C   UNL A   1      45.627  31.128  32.170  1.00  0.00     0.029 A 
ATOM     51  N   UNL A   1      43.540  31.178  31.405  1.00  0.00    -0.354 N 
ATOM     52  N   UNL A   1      40.919  32.444  30.869  1.00  0.00    -0.248 NA
ATOM     53  C   UNL A   1      39.457  34.250  31.103  1.00  0.00     0.031 C 
ATOM     54  C   UNL A   1      45.088  32.393  32.430  1.00  0.00     0.029 A 
ATOM     55  C   UNL A   1      43.791  32.429  31.941  1.00  0.00     0.049 A 
ATOM     56  H   UNL A   1      42.691  30.903  30.987  1.00  0.00     0.167 HD
ATOM     57  C   UNL A   1      41.587  33.486  31.494  1.00  0.00     0.074 A 
ATOM     58  C   UNL A   1      40.649  34.590  31.574  1.00  0.00     0.031 C 
ATOM     59  C   UNL A   1      42.854  33.525  31.973  1.00  0.00     0.034 A 
BRANCH  46  60
ATOM     60  C   UNL A   1      46.002  28.226  31.367  1.00  0.00     0.023 A 
ATOM     61  C   UNL A   1      46.032  27.246  32.381  1.00  0.00     0.012 A 
ATOM     62  C   UNL A   1      47.155  28.452  30.590  1.00  0.00     0.148 A 
ATOM     63  C   UNL A   1      47.198  26.528  32.641  1.00  0.00     0.002 A 
ATOM     64  C   UNL A   1      48.301  27.704  30.828  1.00  0.00     0.091 A 
ATOM     65  F   UNL A   1      47.113  29.404  29.647  1.00  0.00    -0.205 F 
ATOM     66  C   UNL A   1      48.328  26.751  31.860  1.00  0.00     0.022 A 
BRANCH  64  67
ATOM     67  S   UNL A   1      49.790  27.868  29.837  1.00  0.00     0.127 S 
ATOM     68  O   UNL A   1      50.078  29.295  29.971  1.00  0.00    -0.237 OA
ATOM     69  O   UNL A   1      50.725  26.989  30.539  1.00  0.00    -0.237 OA
ATOM     70  O   UNL A   1      49.431  27.427  28.496  1.00  0.00    -0.744 OA
ENDBRANCH  64  67
ENDBRANCH  46  60
BRANCH  47  71
ATOM     71  C   UNL A   1      37.264  32.860  29.697  1.00  0.00     0.023 A 
ATOM     72  C   UNL A   1      36.799  33.053  28.382  1.00  0.00     0.012 A 
ATOM     73  C   UNL A   1      36.453  33.267  30.776  1.00  0.00     0.148 A 
ATOM     74  C   UNL A   1      35.566  33.664  28.144  1.00  0.00     0.002 A 
ATOM     75  C   UNL A   1      35.203  33.827  30.534  1.00  0.00     0.091 A 
ATOM     76  F   UNL A   1      36.917  33.090  32.022  1.00  0.00    -0.205 F 
ATOM     77  C   UNL A   1      34.765  34.041  29.218  1.00  0.00     0.022 A 
BRANCH  75  78
ATOM     78  S   UNL A   1      34.046  34.223  31.851  1.00  0.00     0.127 S 
ATOM     79  O   UNL A   1      34.821  35.161  32.658  1.00  0.00    -0.237 OA
ATOM     80  O   UNL A   1      32.934  34.822  31.111  1.00  0.00    -0.237 OA
ATOM     81  O   UNL A   1      33.725  32.953  32.488  1.00  0.00    -0.744 OA
ENDBRANCH  75  78
ENDBRANCH  47  71
BRANCH  59  82
ATOM     82  C   UNL A   1      43.312  34.811  32.605  1.00  0.00     0.023 A 
ATOM     83  C   UNL A   1      43.209  34.981  34.000  1.00  0.00     0.012 A 
ATOM     84  C   UNL A   1      43.900  35.824  31.824  1.00  0.00     0.148 A 
ATOM     85  C   UNL A   1      43.658  36.153  34.604  1.00  0.00     0.002 A 
ATOM     86  C   UNL A   1      44.389  36.969  32.438  1.00  0.00     0.091 A 
ATOM     87  F   UNL A   1      43.967  35.651  30.495  1.00  0.00    -0.205 F 
ATOM     88  C   UNL A   1      44.259  37.140  33.826  1.00  0.00     0.022 A 
BRANCH  86  89
ATOM     89  S   UNL A   1      45.260  38.250  31.529  1.00  0.00     0.127 S 
ATOM     90  O   UNL A   1      46.172  37.461  30.702  1.00  0.00    -0.237 OA
ATOM     91  O   UNL A   1      44.176  38.900  30.792  1.00  0.00    -0.237 OA
ATOM     92  O   UNL A   1      45.896  39.091  32.534  1.00  0.00    -0.744 OA
ENDBRANCH  86  89
ENDBRANCH  59  82
ENDBRANCH  33  34
ENDBRANCH  26  28
ENDBRANCH  25  26
ENDBRANCH  24  25
ENDBRANCH  23  24
ENDBRANCH   1  23
TORSDOF 20
ENDMDL
