MODEL 1
REMARK VINA RESULT:     -11.1      0.000      0.000
REMARK SMILES C[C@@H]1[C@@H](C)CCC[C@H]1NC(=O)N[C@@](C)(C(=O)OCCOCCOC(=O)c1ccc(-c2c3nc(c(-c4cccc(S(=O)(=O)[O-])c4F)c4ccc([nH]4)c(-c4cccc(S(=O)(=O)[O-])c4F)c4nc(c(-c5cccc(S(=O)(=O)[O-])c5F)c5ccc2[nH]5)C=C4)C=C3)cc1)C(F)(F)F
REMARK SMILES IDX 21 1 20 2 19 3 18 4 17 5 15 6 16 7 13 8 14 9 12 10 9 11
REMARK SMILES IDX 10 12 11 14 8 16 1 17 2 18 3 19 5 20 4 21 7 22 6 23 89 24
REMARK SMILES IDX 90 25 91 26 92 27 22 28 23 29 24 30 25 31 26 32 27 33 88 34
REMARK SMILES IDX 28 35 87 36 29 37 30 38 31 39 81 40 32 41 86 42 80 43 82 44
REMARK SMILES IDX 33 45 85 46 79 47 78 48 34 50 66 51 46 52 65 53 47 54 50 55
REMARK SMILES IDX 64 56 83 57 48 58 49 59 63 61 84 62 51 63 35 64 36 65 44 66
REMARK SMILES IDX 37 67 39 68 45 69 38 70 40 71 41 72 42 73 43 74 67 75 68 76
REMARK SMILES IDX 76 77 69 78 71 79 77 80 70 81 72 82 73 83 74 84 75 85 52 86
REMARK SMILES IDX 53 87 61 88 54 89 56 90 62 91 55 92 57 93 58 94 59 95 60 96
REMARK H PARENT 9 13 12 15 82 49 50 60
REMARK Flexibility Score: inf
ROOT
ATOM      1  C   UNL A   1      35.997  19.966  24.797  1.00  0.00     0.202 C 
ENDROOT
BRANCH   1   2
ATOM      2  O   UNL A   1      35.244  18.753  24.806  1.00  0.00    -0.374 OA
BRANCH   2   3
ATOM      3  C   UNL A   1      33.926  18.782  24.268  1.00  0.00     0.202 C 
BRANCH   3   4
ATOM      4  C   UNL A   1      32.755  19.051  25.226  1.00  0.00     0.261 C 
BRANCH   4   5
ATOM      5  O   UNL A   1      32.220  20.378  25.110  1.00  0.00    -0.461 OA
BRANCH   5   6
ATOM      6  C   UNL A   1      32.762  21.317  25.944  1.00  0.00     0.341 C 
ATOM      7  O   UNL A   1      33.292  21.043  27.014  1.00  0.00    -0.249 OA
BRANCH   6   8
ATOM      8  C   UNL A   1      32.607  22.748  25.392  1.00  0.00     0.232 C 
ATOM      9  C   UNL A   1      32.516  22.650  23.863  1.00  0.00     0.058 C 
BRANCH   8  10
ATOM     10  N   UNL A   1      33.871  23.532  25.717  1.00  0.00    -0.315 N 
ATOM     11  N   UNL A   1      34.202  25.687  24.762  1.00  0.00    -0.335 N 
ATOM     12  C   UNL A   1      34.631  24.519  25.248  1.00  0.00     0.316 C 
ATOM     13  H   UNL A   1      34.895  26.185  24.271  1.00  0.00     0.165 HD
ATOM     14  O   UNL A   1      35.851  24.390  25.373  1.00  0.00    -0.249 OA
ATOM     15  H   UNL A   1      34.258  23.193  26.556  1.00  0.00     0.166 HD
BRANCH  11  16
ATOM     16  C   UNL A   1      32.923  26.373  24.809  1.00  0.00     0.087 C 
ATOM     17  C   UNL A   1      31.100  26.920  26.447  1.00  0.00     0.010 C 
ATOM     18  C   UNL A   1      32.615  27.044  26.178  1.00  0.00     0.011 C 
ATOM     19  C   UNL A   1      33.036  28.531  26.299  1.00  0.00    -0.009 C 
ATOM     20  C   UNL A   1      32.713  29.334  25.035  1.00  0.00     0.004 C 
ATOM     21  C   UNL A   1      34.510  28.680  26.690  1.00  0.00     0.008 C 
ATOM     22  C   UNL A   1      32.765  27.291  23.592  1.00  0.00     0.025 C 
ATOM     23  C   UNL A   1      33.308  28.698  23.790  1.00  0.00     0.002 C 
ENDBRANCH  11  16
ENDBRANCH   8  10
BRANCH   8  24
ATOM     24  C   UNL A   1      31.237  23.174  25.932  1.00  0.00     0.422 C 
ATOM     25  F   UNL A   1      31.315  23.776  27.142  1.00  0.00    -0.168 F 
ATOM     26  F   UNL A   1      30.619  24.027  25.081  1.00  0.00    -0.168 F 
ATOM     27  F   UNL A   1      30.375  22.138  26.073  1.00  0.00    -0.168 F 
ENDBRANCH   8  24
ENDBRANCH   6   8
ENDBRANCH   5   6
ENDBRANCH   4   5
ENDBRANCH   3   4
ENDBRANCH   2   3
ENDBRANCH   1   2
BRANCH   1  28
ATOM     28  C   UNL A   1      37.520  19.895  24.977  1.00  0.00     0.261 C 
BRANCH  28  29
ATOM     29  O   UNL A   1      38.110  21.144  25.387  1.00  0.00    -0.460 OA
BRANCH  29  30
ATOM     30  C   UNL A   1      39.283  21.019  26.062  1.00  0.00     0.338 C 
ATOM     31  O   UNL A   1      40.022  20.051  26.086  1.00  0.00    -0.246 OA
BRANCH  30  32
ATOM     32  C   UNL A   1      39.671  22.314  26.649  1.00  0.00     0.060 A 
ATOM     33  C   UNL A   1      39.055  23.472  26.154  1.00  0.00     0.016 A 
ATOM     34  C   UNL A   1      40.711  22.401  27.574  1.00  0.00     0.016 A 
ATOM     35  C   UNL A   1      39.495  24.728  26.570  1.00  0.00     0.010 A 
ATOM     36  C   UNL A   1      41.159  23.663  27.979  1.00  0.00     0.010 A 
ATOM     37  C   UNL A   1      40.573  24.831  27.458  1.00  0.00    -0.014 A 
BRANCH  37  38
ATOM     38  C   UNL A   1      41.166  26.159  27.751  1.00  0.00     0.031 A 
ATOM     39  C   UNL A   1      42.583  26.439  27.336  1.00  0.00     0.074 A 
ATOM     40  C   UNL A   1      40.450  27.097  28.395  1.00  0.00     0.049 A 
ATOM     41  N   UNL A   1      43.305  27.512  27.533  1.00  0.00    -0.248 NA
ATOM     42  C   UNL A   1      43.279  25.371  26.600  1.00  0.00     0.031 C 
ATOM     43  C   UNL A   1      39.066  26.943  28.840  1.00  0.00     0.029 A 
ATOM     44  N   UNL A   1      40.800  28.358  28.811  1.00  0.00    -0.354 N 
ATOM     45  C   UNL A   1      44.548  27.240  26.971  1.00  0.00     0.074 A 
ATOM     46  C   UNL A   1      44.484  25.899  26.431  1.00  0.00     0.031 C 
ATOM     47  C   UNL A   1      38.696  28.054  29.501  1.00  0.00     0.029 A 
ATOM     48  C   UNL A   1      39.822  28.986  29.545  1.00  0.00     0.049 A 
ATOM     49  H   UNL A   1      41.669  28.773  28.603  1.00  0.00     0.167 HD
ATOM     50  C   UNL A   1      45.638  28.041  26.900  1.00  0.00     0.034 A 
ATOM     51  C   UNL A   1      39.841  30.164  30.198  1.00  0.00     0.034 A 
ATOM     52  C   UNL A   1      45.693  29.379  27.423  1.00  0.00     0.049 A 
ATOM     53  C   UNL A   1      41.080  31.021  30.133  1.00  0.00     0.074 A 
ATOM     54  C   UNL A   1      46.735  30.287  27.352  1.00  0.00     0.029 A 
ATOM     55  N   UNL A   1      44.670  29.996  28.126  1.00  0.00    -0.354 N 
ATOM     56  N   UNL A   1      42.201  30.803  29.488  1.00  0.00    -0.248 NA
ATOM     57  C   UNL A   1      41.046  32.298  30.862  1.00  0.00     0.031 C 
ATOM     58  C   UNL A   1      46.349  31.446  28.034  1.00  0.00     0.029 A 
ATOM     59  C   UNL A   1      45.060  31.267  28.511  1.00  0.00     0.049 A 
ATOM     60  H   UNL A   1      43.795  29.590  28.322  1.00  0.00     0.167 HD
ATOM     61  C   UNL A   1      42.993  31.926  29.708  1.00  0.00     0.074 A 
ATOM     62  C   UNL A   1      42.214  32.832  30.529  1.00  0.00     0.031 C 
ATOM     63  C   UNL A   1      44.256  32.178  29.283  1.00  0.00     0.034 A 
BRANCH  50  64
ATOM     64  C   UNL A   1      46.857  27.498  26.204  1.00  0.00     0.023 A 
ATOM     65  C   UNL A   1      47.030  27.731  24.825  1.00  0.00     0.012 A 
ATOM     66  C   UNL A   1      47.855  26.809  26.920  1.00  0.00     0.148 A 
ATOM     67  C   UNL A   1      48.165  27.264  24.163  1.00  0.00     0.002 A 
ATOM     68  C   UNL A   1      49.001  26.380  26.261  1.00  0.00     0.091 A 
ATOM     69  F   UNL A   1      47.660  26.576  28.226  1.00  0.00    -0.205 F 
ATOM     70  C   UNL A   1      49.154  26.598  24.882  1.00  0.00     0.022 A 
BRANCH  68  71
ATOM     71  S   UNL A   1      50.362  25.575  27.114  1.00  0.00     0.127 S 
ATOM     72  O   UNL A   1      49.724  24.354  27.602  1.00  0.00    -0.237 OA
ATOM     73  O   UNL A   1      51.327  25.369  26.033  1.00  0.00    -0.237 OA
ATOM     74  O   UNL A   1      50.797  26.509  28.144  1.00  0.00    -0.744 OA
ENDBRANCH  68  71
ENDBRANCH  50  64
BRANCH  51  75
ATOM     75  C   UNL A   1      38.638  30.617  30.949  1.00  0.00     0.023 A 
ATOM     76  C   UNL A   1      38.562  30.398  32.338  1.00  0.00     0.012 A 
ATOM     77  C   UNL A   1      37.580  31.286  30.301  1.00  0.00     0.148 A 
ATOM     78  C   UNL A   1      37.445  30.814  33.063  1.00  0.00     0.002 A 
ATOM     79  C   UNL A   1      36.495  31.745  31.038  1.00  0.00     0.091 A 
ATOM     80  F   UNL A   1      37.661  31.466  28.975  1.00  0.00    -0.205 F 
ATOM     81  C   UNL A   1      36.417  31.496  32.417  1.00  0.00     0.022 A 
BRANCH  79  82
ATOM     82  S   UNL A   1      35.196  32.748  30.308  1.00  0.00     0.127 S 
ATOM     83  O   UNL A   1      34.680  31.860  29.269  1.00  0.00    -0.237 OA
ATOM     84  O   UNL A   1      34.297  32.955  31.444  1.00  0.00    -0.237 OA
ATOM     85  O   UNL A   1      35.854  33.960  29.840  1.00  0.00    -0.744 OA
ENDBRANCH  79  82
ENDBRANCH  51  75
BRANCH  63  86
ATOM     86  C   UNL A   1      44.878  33.494  29.673  1.00  0.00     0.023 A 
ATOM     87  C   UNL A   1      45.610  33.589  30.873  1.00  0.00     0.012 A 
ATOM     88  C   UNL A   1      44.813  34.607  28.811  1.00  0.00     0.148 A 
ATOM     89  C   UNL A   1      46.248  34.779  31.221  1.00  0.00     0.002 A 
ATOM     90  C   UNL A   1      45.489  35.776  29.144  1.00  0.00     0.091 A 
ATOM     91  F   UNL A   1      44.097  34.502  27.683  1.00  0.00    -0.205 F 
ATOM     92  C   UNL A   1      46.198  35.867  30.352  1.00  0.00     0.022 A 
BRANCH  90  93
ATOM     93  S   UNL A   1      45.558  37.195  28.043  1.00  0.00     0.127 S 
ATOM     94  O   UNL A   1      46.132  36.607  26.834  1.00  0.00    -0.237 OA
ATOM     95  O   UNL A   1      44.149  37.570  27.929  1.00  0.00    -0.237 OA
ATOM     96  O   UNL A   1      46.393  38.182  28.714  1.00  0.00    -0.744 OA
ENDBRANCH  90  93
ENDBRANCH  63  86
ENDBRANCH  37  38
ENDBRANCH  30  32
ENDBRANCH  29  30
ENDBRANCH  28  29
ENDBRANCH   1  28
TORSDOF 20
ENDMDL
MODEL 2
REMARK VINA RESULT:     -11.0      5.096     10.367
REMARK SMILES C[C@@H]1[C@@H](C)CCC[C@H]1NC(=O)N[C@@](C)(C(=O)OCCOCCOC(=O)c1ccc(-c2c3nc(c(-c4cccc(S(=O)(=O)[O-])c4F)c4ccc([nH]4)c(-c4cccc(S(=O)(=O)[O-])c4F)c4nc(c(-c5cccc(S(=O)(=O)[O-])c5F)c5ccc2[nH]5)C=C4)C=C3)cc1)C(F)(F)F
REMARK SMILES IDX 21 1 20 2 19 3 18 4 17 5 15 6 16 7 13 8 14 9 12 10 9 11
REMARK SMILES IDX 10 12 11 14 8 16 1 17 2 18 3 19 5 20 4 21 7 22 6 23 89 24
REMARK SMILES IDX 90 25 91 26 92 27 22 28 23 29 24 30 25 31 26 32 27 33 88 34
REMARK SMILES IDX 28 35 87 36 29 37 30 38 31 39 81 40 32 41 86 42 80 43 82 44
REMARK SMILES IDX 33 45 85 46 79 47 78 48 34 50 66 51 46 52 65 53 47 54 50 55
REMARK SMILES IDX 64 56 83 57 48 58 49 59 63 61 84 62 51 63 35 64 36 65 44 66
REMARK SMILES IDX 37 67 39 68 45 69 38 70 40 71 41 72 42 73 43 74 67 75 68 76
REMARK SMILES IDX 76 77 69 78 71 79 77 80 70 81 72 82 73 83 74 84 75 85 52 86
REMARK SMILES IDX 53 87 61 88 54 89 56 90 62 91 55 92 57 93 58 94 59 95 60 96
REMARK H PARENT 9 13 12 15 82 49 50 60
REMARK Flexibility Score: inf
ROOT
ATOM      1  C   UNL A   1      31.513  31.663  26.583  1.00  0.00     0.202 C 
ENDROOT
BRANCH   1   2
ATOM      2  O   UNL A   1      32.449  30.586  26.517  1.00  0.00    -0.374 OA
BRANCH   2   3
ATOM      3  C   UNL A   1      32.117  29.373  27.185  1.00  0.00     0.202 C 
BRANCH   3   4
ATOM      4  C   UNL A   1      33.006  28.143  26.942  1.00  0.00     0.261 C 
BRANCH   4   5
ATOM      5  O   UNL A   1      32.407  27.174  26.069  1.00  0.00    -0.461 OA
BRANCH   5   6
ATOM      6  C   UNL A   1      32.604  27.372  24.730  1.00  0.00     0.341 C 
ATOM      7  O   UNL A   1      33.608  27.899  24.267  1.00  0.00    -0.249 OA
BRANCH   6   8
ATOM      8  C   UNL A   1      31.413  26.878  23.885  1.00  0.00     0.232 C 
ATOM      9  C   UNL A   1      30.385  26.265  24.845  1.00  0.00     0.058 C 
BRANCH   8  10
ATOM     10  N   UNL A   1      31.898  25.759  22.973  1.00  0.00    -0.315 N 
ATOM     11  N   UNL A   1      33.308  24.052  23.846  1.00  0.00    -0.335 N 
ATOM     12  C   UNL A   1      32.862  24.846  22.870  1.00  0.00     0.316 C 
ATOM     13  H   UNL A   1      34.160  23.607  23.629  1.00  0.00     0.165 HD
ATOM     14  O   UNL A   1      33.311  24.637  21.740  1.00  0.00    -0.249 OA
ATOM     15  H   UNL A   1      31.297  25.688  22.197  1.00  0.00     0.166 HD
BRANCH  11  16
ATOM     16  C   UNL A   1      32.796  23.709  25.160  1.00  0.00     0.087 C 
ATOM     17  C   UNL A   1      30.740  22.733  26.222  1.00  0.00     0.010 C 
ATOM     18  C   UNL A   1      31.838  22.483  25.167  1.00  0.00     0.011 C 
ATOM     19  C   UNL A   1      32.512  21.114  25.443  1.00  0.00    -0.009 C 
ATOM     20  C   UNL A   1      33.558  21.194  26.559  1.00  0.00     0.004 C 
ATOM     21  C   UNL A   1      33.103  20.499  24.170  1.00  0.00     0.008 C 
ATOM     22  C   UNL A   1      33.941  23.636  26.177  1.00  0.00     0.025 C 
ATOM     23  C   UNL A   1      34.598  22.269  26.289  1.00  0.00     0.002 C 
ENDBRANCH  11  16
ENDBRANCH   8  10
BRANCH   8  24
ATOM     24  C   UNL A   1      30.833  28.179  23.320  1.00  0.00     0.422 C 
ATOM     25  F   UNL A   1      30.646  29.125  24.270  1.00  0.00    -0.168 F 
ATOM     26  F   UNL A   1      31.639  28.701  22.365  1.00  0.00    -0.168 F 
ATOM     27  F   UNL A   1      29.637  28.007  22.708  1.00  0.00    -0.168 F 
ENDBRANCH   8  24
ENDBRANCH   6   8
ENDBRANCH   5   6
ENDBRANCH   4   5
ENDBRANCH   3   4
ENDBRANCH   2   3
ENDBRANCH   1   2
BRANCH   1  28
ATOM     28  C   UNL A   1      32.034  33.083  26.850  1.00  0.00     0.261 C 
BRANCH  28  29
ATOM     29  O   UNL A   1      32.827  33.190  28.049  1.00  0.00    -0.460 OA
BRANCH  29  30
ATOM     30  C   UNL A   1      33.984  33.886  27.899  1.00  0.00     0.338 C 
ATOM     31  O   UNL A   1      34.105  35.073  27.652  1.00  0.00    -0.246 OA
BRANCH  30  32
ATOM     32  C   UNL A   1      35.136  33.041  28.262  1.00  0.00     0.060 A 
ATOM     33  C   UNL A   1      34.877  31.763  28.778  1.00  0.00     0.016 A 
ATOM     34  C   UNL A   1      36.436  33.541  28.218  1.00  0.00     0.016 A 
ATOM     35  C   UNL A   1      35.924  30.987  29.274  1.00  0.00     0.010 A 
ATOM     36  C   UNL A   1      37.483  32.766  28.729  1.00  0.00     0.010 A 
ATOM     37  C   UNL A   1      37.227  31.499  29.285  1.00  0.00    -0.014 A 
BRANCH  37  38
ATOM     38  C   UNL A   1      38.307  30.759  29.984  1.00  0.00     0.031 A 
ATOM     39  C   UNL A   1      38.621  31.095  31.415  1.00  0.00     0.074 A 
ATOM     40  C   UNL A   1      39.007  29.808  29.341  1.00  0.00     0.049 A 
ATOM     41  N   UNL A   1      39.548  30.604  32.194  1.00  0.00    -0.248 NA
ATOM     42  C   UNL A   1      37.777  32.120  32.053  1.00  0.00     0.031 C 
ATOM     43  C   UNL A   1      38.789  29.391  27.957  1.00  0.00     0.029 A 
ATOM     44  N   UNL A   1      40.065  29.041  29.763  1.00  0.00    -0.354 N 
ATOM     45  C   UNL A   1      39.420  31.276  33.405  1.00  0.00     0.074 A 
ATOM     46  C   UNL A   1      38.329  32.214  33.255  1.00  0.00     0.031 C 
ATOM     47  C   UNL A   1      39.711  28.468  27.632  1.00  0.00     0.029 A 
ATOM     48  C   UNL A   1      40.596  28.247  28.774  1.00  0.00     0.049 A 
ATOM     49  H   UNL A   1      40.410  29.058  30.685  1.00  0.00     0.167 HD
ATOM     50  C   UNL A   1      40.138  31.115  34.542  1.00  0.00     0.034 A 
ATOM     51  C   UNL A   1      41.685  27.454  28.782  1.00  0.00     0.034 A 
ATOM     52  C   UNL A   1      41.211  30.171  34.694  1.00  0.00     0.049 A 
ATOM     53  C   UNL A   1      42.488  27.320  30.051  1.00  0.00     0.074 A 
ATOM     54  C   UNL A   1      41.962  29.897  35.824  1.00  0.00     0.029 A 
ATOM     55  N   UNL A   1      41.696  29.355  33.684  1.00  0.00    -0.354 N 
ATOM     56  N   UNL A   1      42.275  27.865  31.224  1.00  0.00    -0.248 NA
ATOM     57  C   UNL A   1      43.666  26.440  30.004  1.00  0.00     0.031 C 
ATOM     58  C   UNL A   1      42.918  28.932  35.488  1.00  0.00     0.029 A 
ATOM     59  C   UNL A   1      42.748  28.590  34.156  1.00  0.00     0.049 A 
ATOM     60  H   UNL A   1      41.343  29.325  32.765  1.00  0.00     0.167 HD
ATOM     61  C   UNL A   1      43.270  27.372  32.062  1.00  0.00     0.074 A 
ATOM     62  C   UNL A   1      44.075  26.467  31.266  1.00  0.00     0.031 C 
ATOM     63  C   UNL A   1      43.507  27.655  33.367  1.00  0.00     0.034 A 
BRANCH  50  64
ATOM     64  C   UNL A   1      39.765  31.965  35.728  1.00  0.00     0.023 A 
ATOM     65  C   UNL A   1      40.394  33.213  35.914  1.00  0.00     0.012 A 
ATOM     66  C   UNL A   1      38.755  31.559  36.622  1.00  0.00     0.148 A 
ATOM     67  C   UNL A   1      40.044  34.031  36.987  1.00  0.00     0.002 A 
ATOM     68  C   UNL A   1      38.385  32.397  37.668  1.00  0.00     0.091 A 
ATOM     69  F   UNL A   1      38.186  30.359  36.442  1.00  0.00    -0.205 F 
ATOM     70  C   UNL A   1      39.034  33.628  37.857  1.00  0.00     0.022 A 
BRANCH  68  71
ATOM     71  S   UNL A   1      37.048  31.998  38.799  1.00  0.00     0.127 S 
ATOM     72  O   UNL A   1      36.945  30.549  38.635  1.00  0.00    -0.237 OA
ATOM     73  O   UNL A   1      37.592  32.428  40.087  1.00  0.00    -0.237 OA
ATOM     74  O   UNL A   1      35.896  32.764  38.342  1.00  0.00    -0.744 OA
ENDBRANCH  68  71
ENDBRANCH  50  64
BRANCH  51  75
ATOM     75  C   UNL A   1      42.066  26.702  27.555  1.00  0.00     0.023 A 
ATOM     76  C   UNL A   1      42.693  27.378  26.491  1.00  0.00     0.012 A 
ATOM     77  C   UNL A   1      41.833  25.316  27.444  1.00  0.00     0.148 A 
ATOM     78  C   UNL A   1      43.059  26.695  25.331  1.00  0.00     0.002 A 
ATOM     79  C   UNL A   1      42.249  24.632  26.309  1.00  0.00     0.091 A 
ATOM     80  F   UNL A   1      41.215  24.693  28.458  1.00  0.00    -0.205 F 
ATOM     81  C   UNL A   1      42.848  25.321  25.243  1.00  0.00     0.022 A 
BRANCH  79  82
ATOM     82  S   UNL A   1      42.137  22.844  26.172  1.00  0.00     0.127 S 
ATOM     83  O   UNL A   1      42.766  22.603  24.875  1.00  0.00    -0.237 OA
ATOM     84  O   UNL A   1      42.918  22.401  27.328  1.00  0.00    -0.237 OA
ATOM     85  O   UNL A   1      40.716  22.534  26.258  1.00  0.00    -0.744 OA
ENDBRANCH  79  82
ENDBRANCH  51  75
BRANCH  63  86
ATOM     86  C   UNL A   1      44.668  26.966  34.035  1.00  0.00     0.023 A 
ATOM     87  C   UNL A   1      45.912  27.622  34.119  1.00  0.00     0.012 A 
ATOM     88  C   UNL A   1      44.505  25.711  34.655  1.00  0.00     0.148 A 
ATOM     89  C   UNL A   1      46.982  27.030  34.789  1.00  0.00     0.002 A 
ATOM     90  C   UNL A   1      45.562  25.147  35.360  1.00  0.00     0.091 A 
ATOM     91  F   UNL A   1      43.319  25.095  34.548  1.00  0.00    -0.205 F 
ATOM     92  C   UNL A   1      46.804  25.800  35.419  1.00  0.00     0.022 A 
BRANCH  90  93
ATOM     93  S   UNL A   1      45.398  23.612  36.280  1.00  0.00     0.127 S 
ATOM     94  O   UNL A   1      44.160  23.066  35.728  1.00  0.00    -0.237 OA
ATOM     95  O   UNL A   1      46.609  22.887  35.896  1.00  0.00    -0.237 OA
ATOM     96  O   UNL A   1      45.341  23.992  37.685  1.00  0.00    -0.744 OA
ENDBRANCH  90  93
ENDBRANCH  63  86
ENDBRANCH  37  38
ENDBRANCH  30  32
ENDBRANCH  29  30
ENDBRANCH  28  29
ENDBRANCH   1  28
TORSDOF 20
ENDMDL
MODEL 3
REMARK VINA RESULT:     -11.0      1.792      2.492
REMARK SMILES C[C@@H]1[C@@H](C)CCC[C@H]1NC(=O)N[C@@](C)(C(=O)OCCOCCOC(=O)c1ccc(-c2c3nc(c(-c4cccc(S(=O)(=O)[O-])c4F)c4ccc([nH]4)c(-c4cccc(S(=O)(=O)[O-])c4F)c4nc(c(-c5cccc(S(=O)(=O)[O-])c5F)c5ccc2[nH]5)C=C4)C=C3)cc1)C(F)(F)F
REMARK SMILES IDX 21 1 20 2 19 3 18 4 17 5 15 6 16 7 13 8 14 9 12 10 9 11
REMARK SMILES IDX 10 12 11 14 8 16 1 17 2 18 3 19 5 20 4 21 7 22 6 23 89 24
REMARK SMILES IDX 90 25 91 26 92 27 22 28 23 29 24 30 25 31 26 32 27 33 88 34
REMARK SMILES IDX 28 35 87 36 29 37 30 38 31 39 81 40 32 41 86 42 80 43 82 44
REMARK SMILES IDX 33 45 85 46 79 47 78 48 34 50 66 51 46 52 65 53 47 54 50 55
REMARK SMILES IDX 64 56 83 57 48 58 49 59 63 61 84 62 51 63 35 64 36 65 44 66
REMARK SMILES IDX 37 67 39 68 45 69 38 70 40 71 41 72 42 73 43 74 67 75 68 76
REMARK SMILES IDX 76 77 69 78 71 79 77 80 70 81 72 82 73 83 74 84 75 85 52 86
REMARK SMILES IDX 53 87 61 88 54 89 56 90 62 91 55 92 57 93 58 94 59 95 60 96
REMARK H PARENT 9 13 12 15 82 49 50 60
REMARK Flexibility Score: inf
ROOT
ATOM      1  C   UNL A   1      38.026  19.770  24.759  1.00  0.00     0.202 C 
ENDROOT
BRANCH   1   2
ATOM      2  O   UNL A   1      37.005  20.683  25.165  1.00  0.00    -0.374 OA
BRANCH   2   3
ATOM      3  C   UNL A   1      36.968  21.962  24.539  1.00  0.00     0.202 C 
BRANCH   3   4
ATOM      4  C   UNL A   1      35.993  23.013  25.093  1.00  0.00     0.261 C 
BRANCH   4   5
ATOM      5  O   UNL A   1      34.633  22.793  24.691  1.00  0.00    -0.461 OA
BRANCH   5   6
ATOM      6  C   UNL A   1      33.855  22.090  25.570  1.00  0.00     0.341 C 
ATOM      7  O   UNL A   1      34.143  21.935  26.750  1.00  0.00    -0.249 OA
BRANCH   6   8
ATOM      8  C   UNL A   1      32.598  21.504  24.897  1.00  0.00     0.232 C 
ATOM      9  C   UNL A   1      32.587  21.978  23.438  1.00  0.00     0.058 C 
BRANCH   8  10
ATOM     10  N   UNL A   1      31.368  22.096  25.571  1.00  0.00    -0.315 N 
ATOM     11  N   UNL A   1      31.447  24.313  26.433  1.00  0.00    -0.335 N 
ATOM     12  C   UNL A   1      31.010  23.052  26.427  1.00  0.00     0.316 C 
ATOM     13  H   UNL A   1      31.234  24.796  27.265  1.00  0.00     0.165 HD
ATOM     14  O   UNL A   1      30.108  22.777  27.221  1.00  0.00    -0.249 OA
ATOM     15  H   UNL A   1      30.567  21.607  25.274  1.00  0.00     0.166 HD
BRANCH  11  16
ATOM     16  C   UNL A   1      32.171  25.119  25.467  1.00  0.00     0.087 C 
ATOM     17  C   UNL A   1      32.497  25.302  22.984  1.00  0.00     0.010 C 
ATOM     18  C   UNL A   1      31.437  25.287  24.106  1.00  0.00     0.011 C 
ATOM     19  C   UNL A   1      30.543  26.547  23.983  1.00  0.00    -0.009 C 
ATOM     20  C   UNL A   1      31.205  27.792  24.581  1.00  0.00     0.004 C 
ATOM     21  C   UNL A   1      29.148  26.321  24.574  1.00  0.00     0.008 C 
ATOM     22  C   UNL A   1      32.641  26.429  26.110  1.00  0.00     0.025 C 
ATOM     23  C   UNL A   1      31.639  27.569  26.021  1.00  0.00     0.002 C 
ENDBRANCH  11  16
ENDBRANCH   8  10
BRANCH   8  24
ATOM     24  C   UNL A   1      32.875  19.997  24.914  1.00  0.00     0.422 C 
ATOM     25  F   UNL A   1      32.585  19.424  26.106  1.00  0.00    -0.168 F 
ATOM     26  F   UNL A   1      32.159  19.356  23.958  1.00  0.00    -0.168 F 
ATOM     27  F   UNL A   1      34.166  19.689  24.644  1.00  0.00    -0.168 F 
ENDBRANCH   8  24
ENDBRANCH   6   8
ENDBRANCH   5   6
ENDBRANCH   4   5
ENDBRANCH   3   4
ENDBRANCH   2   3
ENDBRANCH   1   2
BRANCH   1  28
ATOM     28  C   UNL A   1      39.150  19.427  25.748  1.00  0.00     0.261 C 
BRANCH  28  29
ATOM     29  O   UNL A   1      40.186  20.427  25.812  1.00  0.00    -0.460 OA
BRANCH  29  30
ATOM     30  C   UNL A   1      40.835  20.490  27.005  1.00  0.00     0.338 C 
ATOM     31  O   UNL A   1      41.376  19.576  27.601  1.00  0.00    -0.246 OA
BRANCH  30  32
ATOM     32  C   UNL A   1      40.974  21.894  27.432  1.00  0.00     0.060 A 
ATOM     33  C   UNL A   1      40.355  22.883  26.656  1.00  0.00     0.016 A 
ATOM     34  C   UNL A   1      41.803  22.241  28.499  1.00  0.00     0.016 A 
ATOM     35  C   UNL A   1      40.582  24.231  26.933  1.00  0.00     0.010 A 
ATOM     36  C   UNL A   1      42.040  23.594  28.766  1.00  0.00     0.010 A 
ATOM     37  C   UNL A   1      41.454  24.593  27.967  1.00  0.00    -0.014 A 
BRANCH  37  38
ATOM     38  C   UNL A   1      41.846  26.013  28.140  1.00  0.00     0.031 A 
ATOM     39  C   UNL A   1      43.226  26.449  27.734  1.00  0.00     0.074 A 
ATOM     40  C   UNL A   1      40.983  26.899  28.669  1.00  0.00     0.049 A 
ATOM     41  N   UNL A   1      43.785  27.626  27.840  1.00  0.00    -0.248 NA
ATOM     42  C   UNL A   1      44.090  25.424  27.127  1.00  0.00     0.031 C 
ATOM     43  C   UNL A   1      39.618  26.595  29.094  1.00  0.00     0.029 A 
ATOM     44  N   UNL A   1      41.140  28.230  28.965  1.00  0.00    -0.354 N 
ATOM     45  C   UNL A   1      45.074  27.480  27.339  1.00  0.00     0.074 A 
ATOM     46  C   UNL A   1      45.216  26.098  26.935  1.00  0.00     0.031 C 
ATOM     47  C   UNL A   1      39.074  27.701  29.631  1.00  0.00     0.029 A 
ATOM     48  C   UNL A   1      40.057  28.781  29.609  1.00  0.00     0.049 A 
ATOM     49  H   UNL A   1      41.951  28.741  28.739  1.00  0.00     0.167 HD
ATOM     50  C   UNL A   1      46.045  28.416  27.215  1.00  0.00     0.034 A 
ATOM     51  C   UNL A   1      39.890  30.008  30.141  1.00  0.00     0.034 A 
ATOM     52  C   UNL A   1      45.895  29.792  27.602  1.00  0.00     0.049 A 
ATOM     53  C   UNL A   1      41.000  31.020  30.021  1.00  0.00     0.074 A 
ATOM     54  C   UNL A   1      46.804  30.827  27.466  1.00  0.00     0.029 A 
ATOM     55  N   UNL A   1      44.771  30.324  28.214  1.00  0.00    -0.354 N 
ATOM     56  N   UNL A   1      42.164  30.902  29.428  1.00  0.00    -0.248 NA
ATOM     57  C   UNL A   1      40.763  32.343  30.617  1.00  0.00     0.031 C 
ATOM     58  C   UNL A   1      46.236  31.981  28.019  1.00  0.00     0.029 A 
ATOM     59  C   UNL A   1      44.967  31.668  28.479  1.00  0.00     0.049 A 
ATOM     60  H   UNL A   1      43.954  29.819  28.429  1.00  0.00     0.167 HD
ATOM     61  C   UNL A   1      42.785  32.141  29.554  1.00  0.00     0.074 A 
ATOM     62  C   UNL A   1      41.858  33.002  30.261  1.00  0.00     0.031 C 
ATOM     63  C   UNL A   1      44.016  32.527  29.136  1.00  0.00     0.034 A 
BRANCH  50  64
ATOM     64  C   UNL A   1      47.353  27.986  26.607  1.00  0.00     0.023 A 
ATOM     65  C   UNL A   1      48.436  27.659  27.447  1.00  0.00     0.012 A 
ATOM     66  C   UNL A   1      47.494  27.849  25.212  1.00  0.00     0.148 A 
ATOM     67  C   UNL A   1      49.648  27.229  26.909  1.00  0.00     0.002 A 
ATOM     68  C   UNL A   1      48.693  27.384  24.684  1.00  0.00     0.091 A 
ATOM     69  F   UNL A   1      46.460  28.188  24.428  1.00  0.00    -0.205 F 
ATOM     70  C   UNL A   1      49.774  27.083  25.530  1.00  0.00     0.022 A 
BRANCH  68  71
ATOM     71  S   UNL A   1      48.929  27.095  22.927  1.00  0.00     0.127 S 
ATOM     72  O   UNL A   1      48.262  28.259  22.345  1.00  0.00    -0.237 OA
ATOM     73  O   UNL A   1      50.387  27.102  22.804  1.00  0.00    -0.237 OA
ATOM     74  O   UNL A   1      48.303  25.810  22.646  1.00  0.00    -0.744 OA
ENDBRANCH  68  71
ENDBRANCH  50  64
BRANCH  51  75
ATOM     75  C   UNL A   1      38.608  30.356  30.813  1.00  0.00     0.023 A 
ATOM     76  C   UNL A   1      38.398  29.973  32.152  1.00  0.00     0.012 A 
ATOM     77  C   UNL A   1      37.605  31.087  30.143  1.00  0.00     0.148 A 
ATOM     78  C   UNL A   1      37.205  30.290  32.803  1.00  0.00     0.002 A 
ATOM     79  C   UNL A   1      36.443  31.445  30.815  1.00  0.00     0.091 A 
ATOM     80  F   UNL A   1      37.814  31.423  28.862  1.00  0.00    -0.205 F 
ATOM     81  C   UNL A   1      36.233  31.034  32.140  1.00  0.00     0.022 A 
BRANCH  79  82
ATOM     82  S   UNL A   1      35.201  32.514  30.078  1.00  0.00     0.127 S 
ATOM     83  O   UNL A   1      34.706  31.687  28.981  1.00  0.00    -0.237 OA
ATOM     84  O   UNL A   1      34.262  32.697  31.186  1.00  0.00    -0.237 OA
ATOM     85  O   UNL A   1      35.910  33.727  29.691  1.00  0.00    -0.744 OA
ENDBRANCH  79  82
ENDBRANCH  51  75
BRANCH  63  86
ATOM     86  C   UNL A   1      44.436  33.948  29.408  1.00  0.00     0.023 A 
ATOM     87  C   UNL A   1      45.101  34.260  30.610  1.00  0.00     0.012 A 
ATOM     88  C   UNL A   1      44.251  34.954  28.438  1.00  0.00     0.148 A 
ATOM     89  C   UNL A   1      45.556  35.556  30.853  1.00  0.00     0.002 A 
ATOM     90  C   UNL A   1      44.747  36.232  28.668  1.00  0.00     0.091 A 
ATOM     91  F   UNL A   1      43.600  34.641  27.309  1.00  0.00    -0.205 F 
ATOM     92  C   UNL A   1      45.389  36.537  29.878  1.00  0.00     0.022 A 
BRANCH  90  93
ATOM     93  S   UNL A   1      44.662  37.534  27.433  1.00  0.00     0.127 S 
ATOM     94  O   UNL A   1      45.000  38.717  28.223  1.00  0.00    -0.237 OA
ATOM     95  O   UNL A   1      45.690  37.124  26.476  1.00  0.00    -0.237 OA
ATOM     96  O   UNL A   1      43.303  37.502  26.909  1.00  0.00    -0.744 OA
ENDBRANCH  90  93
ENDBRANCH  63  86
ENDBRANCH  37  38
ENDBRANCH  30  32
ENDBRANCH  29  30
ENDBRANCH  28  29
ENDBRANCH   1  28
TORSDOF 20
ENDMDL
