MODEL 1
REMARK VINA RESULT:     -11.1      0.000      0.000
REMARK SMILES O=C1C[C@@H]([N@@H+]2CCO[C@@H](CC(=O)OCCOCCOC(=O)c3ccc(-c4c5nc(c(-c6cccc(S(=O)(=O)[O-])c6F)c6ccc([nH]6)c(-c6cccc(S(=O)(=O)[O-])c6F)c6nc(c(-c7cccc(S(=O)(=O)[O-])c7F)c7ccc4[nH]7)C=C6)C=C5)cc3)C2)C(=O)N1
REMARK SMILES IDX 17 1 16 2 15 3 14 4 13 5 11 6 12 7 10 8 9 9 5 10 6 11 85 12
REMARK SMILES IDX 7 14 8 15 4 16 1 17 2 18 3 19 88 20 86 21 87 23 18 24 19 25
REMARK SMILES IDX 20 26 21 27 22 28 23 29 84 30 24 31 83 32 25 33 26 34 27 35
REMARK SMILES IDX 77 36 28 37 82 38 76 39 78 40 29 41 81 42 75 43 74 44 30 46
REMARK SMILES IDX 62 47 42 48 61 49 43 50 46 51 60 52 79 53 44 54 45 55 59 57
REMARK SMILES IDX 80 58 47 59 31 60 32 61 40 62 33 63 35 64 41 65 34 66 36 67
REMARK SMILES IDX 37 68 38 69 39 70 63 71 64 72 72 73 65 74 67 75 73 76 66 77
REMARK SMILES IDX 68 78 69 79 70 80 71 81 48 82 49 83 57 84 50 85 52 86 58 87
REMARK SMILES IDX 51 88 53 89 54 90 55 91 56 92
REMARK H PARENT 5 13 88 22 78 45 46 56
REMARK Flexibility Score: inf
ROOT
ATOM      1  C   UNL A   1      36.516  19.348  24.730  1.00  0.00     0.202 C 
ENDROOT
BRANCH   1   2
ATOM      2  O   UNL A   1      35.816  20.587  24.689  1.00  0.00    -0.374 OA
BRANCH   2   3
ATOM      3  C   UNL A   1      34.394  20.547  24.776  1.00  0.00     0.202 C 
BRANCH   3   4
ATOM      4  C   UNL A   1      33.634  21.779  24.280  1.00  0.00     0.261 C 
BRANCH   4   5
ATOM      5  O   UNL A   1      33.223  22.652  25.350  1.00  0.00    -0.463 OA
BRANCH   5   6
ATOM      6  C   UNL A   1      34.211  23.381  25.927  1.00  0.00     0.308 C 
ATOM      7  O   UNL A   1      34.690  23.159  27.033  1.00  0.00    -0.252 OA
BRANCH   6   8
ATOM      8  C   UNL A   1      34.633  24.554  25.087  1.00  0.00     0.160 C 
BRANCH   8   9
ATOM      9  C   UNL A   1      33.573  25.310  24.278  1.00  0.00     0.184 C 
ATOM     10  N   UNL A   1      32.825  27.634  23.519  1.00  0.00    -0.320 N 
ATOM     11  C   UNL A   1      33.234  27.237  22.171  1.00  0.00     0.291 C 
ATOM     12  C   UNL A   1      33.554  26.842  24.528  1.00  0.00     0.295 C 
ATOM     13  H   UNL A   1      33.121  28.605  23.618  1.00  0.00     0.348 HD
ATOM     14  C   UNL A   1      33.167  25.727  21.933  1.00  0.00     0.222 C 
ATOM     15  O   UNL A   1      33.918  25.004  22.905  1.00  0.00    -0.366 OA
BRANCH  10  16
ATOM     16  C   UNL A   1      31.394  27.865  23.773  1.00  0.00     0.284 C 
ATOM     17  O   UNL A   1      29.483  29.704  21.392  1.00  0.00    -0.274 OA
ATOM     18  C   UNL A   1      30.067  29.272  22.368  1.00  0.00     0.233 C 
ATOM     19  C   UNL A   1      30.395  27.832  22.617  1.00  0.00     0.176 C 
ATOM     20  N   UNL A   1      30.468  29.998  23.440  1.00  0.00    -0.291 N 
ATOM     21  C   UNL A   1      31.161  29.264  24.351  1.00  0.00     0.285 C 
ATOM     22  H   UNL A   1      30.277  30.959  23.548  1.00  0.00     0.173 HD
ATOM     23  O   UNL A   1      31.542  29.687  25.430  1.00  0.00    -0.268 OA
ENDBRANCH  10  16
ENDBRANCH   8   9
ENDBRANCH   6   8
ENDBRANCH   5   6
ENDBRANCH   4   5
ENDBRANCH   3   4
ENDBRANCH   2   3
ENDBRANCH   1   2
BRANCH   1  24
ATOM     24  C   UNL A   1      38.023  19.417  24.997  1.00  0.00     0.261 C 
BRANCH  24  25
ATOM     25  O   UNL A   1      38.423  20.660  25.608  1.00  0.00    -0.460 OA
BRANCH  25  26
ATOM     26  C   UNL A   1      39.674  20.651  26.140  1.00  0.00     0.338 C 
ATOM     27  O   UNL A   1      40.503  19.763  26.031  1.00  0.00    -0.246 OA
BRANCH  26  28
ATOM     28  C   UNL A   1      40.007  21.959  26.742  1.00  0.00     0.060 A 
ATOM     29  C   UNL A   1      39.399  23.092  26.190  1.00  0.00     0.016 A 
ATOM     30  C   UNL A   1      40.986  22.097  27.727  1.00  0.00     0.016 A 
ATOM     31  C   UNL A   1      39.799  24.368  26.585  1.00  0.00     0.010 A 
ATOM     32  C   UNL A   1      41.380  23.380  28.131  1.00  0.00     0.010 A 
ATOM     33  C   UNL A   1      40.822  24.523  27.531  1.00  0.00    -0.014 A 
BRANCH  33  34
ATOM     34  C   UNL A   1      41.388  25.874  27.788  1.00  0.00     0.031 A 
ATOM     35  C   UNL A   1      42.787  26.194  27.325  1.00  0.00     0.074 A 
ATOM     36  C   UNL A   1      40.658  26.818  28.410  1.00  0.00     0.049 A 
ATOM     37  N   UNL A   1      43.471  27.300  27.462  1.00  0.00    -0.248 NA
ATOM     38  C   UNL A   1      43.510  25.127  26.615  1.00  0.00     0.031 C 
ATOM     39  C   UNL A   1      39.294  26.639  28.905  1.00  0.00     0.029 A 
ATOM     40  N   UNL A   1      40.972  28.112  28.751  1.00  0.00    -0.354 N 
ATOM     41  C   UNL A   1      44.711  27.057  26.882  1.00  0.00     0.074 A 
ATOM     42  C   UNL A   1      44.691  25.690  26.406  1.00  0.00     0.031 C 
ATOM     43  C   UNL A   1      38.897  27.771  29.512  1.00  0.00     0.029 A 
ATOM     44  C   UNL A   1      39.988  28.743  29.475  1.00  0.00     0.049 A 
ATOM     45  H   UNL A   1      41.820  28.544  28.500  1.00  0.00     0.167 HD
ATOM     46  C   UNL A   1      45.765  27.896  26.740  1.00  0.00     0.034 A 
ATOM     47  C   UNL A   1      39.978  29.955  30.067  1.00  0.00     0.034 A 
ATOM     48  C   UNL A   1      45.782  29.259  27.201  1.00  0.00     0.049 A 
ATOM     49  C   UNL A   1      41.176  30.858  29.923  1.00  0.00     0.074 A 
ATOM     50  C   UNL A   1      46.789  30.199  27.066  1.00  0.00     0.029 A 
ATOM     51  N   UNL A   1      44.753  29.875  27.896  1.00  0.00    -0.354 N 
ATOM     52  N   UNL A   1      42.296  30.650  29.274  1.00  0.00    -0.248 NA
ATOM     53  C   UNL A   1      41.093  32.180  30.564  1.00  0.00     0.031 C 
ATOM     54  C   UNL A   1      46.383  31.371  27.712  1.00  0.00     0.029 A 
ATOM     55  C   UNL A   1      45.105  31.177  28.209  1.00  0.00     0.049 A 
ATOM     56  H   UNL A   1      43.898  29.448  28.132  1.00  0.00     0.167 HD
ATOM     57  C   UNL A   1      43.032  31.824  29.395  1.00  0.00     0.074 A 
ATOM     58  C   UNL A   1      42.223  32.747  30.162  1.00  0.00     0.031 C 
ATOM     59  C   UNL A   1      44.272  32.108  28.925  1.00  0.00     0.034 A 
BRANCH  46  60
ATOM     60  C   UNL A   1      46.992  27.374  26.036  1.00  0.00     0.023 A 
ATOM     61  C   UNL A   1      47.145  27.586  24.650  1.00  0.00     0.012 A 
ATOM     62  C   UNL A   1      48.024  26.740  26.755  1.00  0.00     0.148 A 
ATOM     63  C   UNL A   1      48.290  27.148  23.986  1.00  0.00     0.002 A 
ATOM     64  C   UNL A   1      49.182  26.347  26.096  1.00  0.00     0.091 A 
ATOM     65  F   UNL A   1      47.854  26.533  28.069  1.00  0.00    -0.205 F 
ATOM     66  C   UNL A   1      49.312  26.539  24.710  1.00  0.00     0.022 A 
BRANCH  64  67
ATOM     67  S   UNL A   1      50.591  25.629  26.949  1.00  0.00     0.127 S 
ATOM     68  O   UNL A   1      51.502  25.357  25.837  1.00  0.00    -0.237 OA
ATOM     69  O   UNL A   1      51.009  26.725  27.824  1.00  0.00    -0.237 OA
ATOM     70  O   UNL A   1      50.088  24.452  27.641  1.00  0.00    -0.744 OA
ENDBRANCH  64  67
ENDBRANCH  46  60
BRANCH  47  71
ATOM     71  C   UNL A   1      38.787  30.394  30.848  1.00  0.00     0.023 A 
ATOM     72  C   UNL A   1      38.704  30.109  32.225  1.00  0.00     0.012 A 
ATOM     73  C   UNL A   1      37.733  31.094  30.228  1.00  0.00     0.148 A 
ATOM     74  C   UNL A   1      37.577  30.476  32.960  1.00  0.00     0.002 A 
ATOM     75  C   UNL A   1      36.640  31.510  30.978  1.00  0.00     0.091 A 
ATOM     76  F   UNL A   1      37.822  31.342  28.914  1.00  0.00    -0.205 F 
ATOM     77  C   UNL A   1      36.550  31.184  32.340  1.00  0.00     0.022 A 
BRANCH  75  78
ATOM     78  S   UNL A   1      35.338  32.539  30.295  1.00  0.00     0.127 S 
ATOM     79  O   UNL A   1      34.873  31.728  29.173  1.00  0.00    -0.237 OA
ATOM     80  O   UNL A   1      34.406  32.631  31.419  1.00  0.00    -0.237 OA
ATOM     81  O   UNL A   1      35.977  33.800  29.942  1.00  0.00    -0.744 OA
ENDBRANCH  75  78
ENDBRANCH  47  71
BRANCH  59  82
ATOM     82  C   UNL A   1      44.821  33.490  29.174  1.00  0.00     0.023 A 
ATOM     83  C   UNL A   1      45.479  33.785  30.384  1.00  0.00     0.012 A 
ATOM     84  C   UNL A   1      44.741  34.480  28.173  1.00  0.00     0.148 A 
ATOM     85  C   UNL A   1      46.017  35.052  30.609  1.00  0.00     0.002 A 
ATOM     86  C   UNL A   1      45.325  35.723  28.383  1.00  0.00     0.091 A 
ATOM     87  F   UNL A   1      44.096  34.188  27.035  1.00  0.00    -0.205 F 
ATOM     88  C   UNL A   1      45.951  36.016  29.606  1.00  0.00     0.022 A 
BRANCH  86  89
ATOM     89  S   UNL A   1      45.375  36.994  27.114  1.00  0.00     0.127 S 
ATOM     90  O   UNL A   1      43.953  37.242  26.884  1.00  0.00    -0.237 OA
ATOM     91  O   UNL A   1      46.080  38.082  27.793  1.00  0.00    -0.237 OA
ATOM     92  O   UNL A   1      46.097  36.414  25.990  1.00  0.00    -0.744 OA
ENDBRANCH  86  89
ENDBRANCH  59  82
ENDBRANCH  33  34
ENDBRANCH  26  28
ENDBRANCH  25  26
ENDBRANCH  24  25
ENDBRANCH   1  24
TORSDOF 19
ENDMDL
MODEL 2
REMARK VINA RESULT:     -10.7      1.707      2.149
REMARK SMILES O=C1C[C@@H]([N@@H+]2CCO[C@@H](CC(=O)OCCOCCOC(=O)c3ccc(-c4c5nc(c(-c6cccc(S(=O)(=O)[O-])c6F)c6ccc([nH]6)c(-c6cccc(S(=O)(=O)[O-])c6F)c6nc(c(-c7cccc(S(=O)(=O)[O-])c7F)c7ccc4[nH]7)C=C6)C=C5)cc3)C2)C(=O)N1
REMARK SMILES IDX 17 1 16 2 15 3 14 4 13 5 11 6 12 7 10 8 9 9 5 10 6 11 85 12
REMARK SMILES IDX 7 14 8 15 4 16 1 17 2 18 3 19 88 20 86 21 87 23 18 24 19 25
REMARK SMILES IDX 20 26 21 27 22 28 23 29 84 30 24 31 83 32 25 33 26 34 27 35
REMARK SMILES IDX 77 36 28 37 82 38 76 39 78 40 29 41 81 42 75 43 74 44 30 46
REMARK SMILES IDX 62 47 42 48 61 49 43 50 46 51 60 52 79 53 44 54 45 55 59 57
REMARK SMILES IDX 80 58 47 59 31 60 32 61 40 62 33 63 35 64 41 65 34 66 36 67
REMARK SMILES IDX 37 68 38 69 39 70 63 71 64 72 72 73 65 74 67 75 73 76 66 77
REMARK SMILES IDX 68 78 69 79 70 80 71 81 48 82 49 83 57 84 50 85 52 86 58 87
REMARK SMILES IDX 51 88 53 89 54 90 55 91 56 92
REMARK H PARENT 5 13 88 22 78 45 46 56
REMARK Flexibility Score: inf
ROOT
ATOM      1  C   UNL A   1      36.487  21.200  24.986  1.00  0.00     0.202 C 
ENDROOT
BRANCH   1   2
ATOM      2  O   UNL A   1      35.557  21.290  26.061  1.00  0.00    -0.374 OA
BRANCH   2   3
ATOM      3  C   UNL A   1      34.176  21.109  25.757  1.00  0.00     0.202 C 
BRANCH   3   4
ATOM      4  C   UNL A   1      33.172  21.886  26.610  1.00  0.00     0.261 C 
BRANCH   4   5
ATOM      5  O   UNL A   1      31.840  21.873  26.060  1.00  0.00    -0.463 OA
BRANCH   5   6
ATOM      6  C   UNL A   1      31.087  22.971  26.320  1.00  0.00     0.308 C 
ATOM      7  O   UNL A   1      30.601  23.245  27.411  1.00  0.00    -0.252 OA
BRANCH   6   8
ATOM      8  C   UNL A   1      30.844  23.812  25.097  1.00  0.00     0.160 C 
BRANCH   8   9
ATOM      9  C   UNL A   1      31.503  25.194  25.003  1.00  0.00     0.184 C 
ATOM     10  N   UNL A   1      31.462  27.568  25.950  1.00  0.00    -0.320 N 
ATOM     11  C   UNL A   1      32.750  27.255  26.571  1.00  0.00     0.291 C 
ATOM     12  C   UNL A   1      30.703  26.328  25.697  1.00  0.00     0.295 C 
ATOM     13  H   UNL A   1      30.949  28.106  26.646  1.00  0.00     0.348 HD
ATOM     14  C   UNL A   1      33.548  26.188  25.819  1.00  0.00     0.222 C 
ATOM     15  O   UNL A   1      32.792  24.994  25.633  1.00  0.00    -0.366 OA
BRANCH  10  16
ATOM     16  C   UNL A   1      31.431  28.587  24.888  1.00  0.00     0.284 C 
ATOM     17  O   UNL A   1      33.920  28.516  22.339  1.00  0.00    -0.274 OA
ATOM     18  C   UNL A   1      33.171  28.779  23.262  1.00  0.00     0.233 C 
ATOM     19  C   UNL A   1      31.798  28.212  23.453  1.00  0.00     0.176 C 
ATOM     20  N   UNL A   1      33.408  29.679  24.246  1.00  0.00    -0.291 N 
ATOM     21  C   UNL A   1      32.424  29.714  25.184  1.00  0.00     0.285 C 
ATOM     22  H   UNL A   1      34.210  30.251  24.279  1.00  0.00     0.173 HD
ATOM     23  O   UNL A   1      32.384  30.506  26.110  1.00  0.00    -0.268 OA
ENDBRANCH  10  16
ENDBRANCH   8   9
ENDBRANCH   6   8
ENDBRANCH   5   6
ENDBRANCH   4   5
ENDBRANCH   3   4
ENDBRANCH   2   3
ENDBRANCH   1   2
BRANCH   1  24
ATOM     24  C   UNL A   1      37.819  20.504  25.283  1.00  0.00     0.261 C 
BRANCH  24  25
ATOM     25  O   UNL A   1      38.932  21.419  25.301  1.00  0.00    -0.460 OA
BRANCH  25  26
ATOM     26  C   UNL A   1      39.787  21.249  26.346  1.00  0.00     0.338 C 
ATOM     27  O   UNL A   1      40.358  20.217  26.654  1.00  0.00    -0.246 OA
BRANCH  26  28
ATOM     28  C   UNL A   1      40.102  22.539  26.993  1.00  0.00     0.060 A 
ATOM     29  C   UNL A   1      39.388  23.664  26.562  1.00  0.00     0.016 A 
ATOM     30  C   UNL A   1      41.157  22.681  27.896  1.00  0.00     0.016 A 
ATOM     31  C   UNL A   1      39.754  24.938  26.995  1.00  0.00     0.010 A 
ATOM     32  C   UNL A   1      41.517  23.961  28.338  1.00  0.00     0.010 A 
ATOM     33  C   UNL A   1      40.848  25.101  27.857  1.00  0.00    -0.014 A 
BRANCH  33  34
ATOM     34  C   UNL A   1      41.362  26.467  28.143  1.00  0.00     0.031 A 
ATOM     35  C   UNL A   1      42.780  26.820  27.771  1.00  0.00     0.074 A 
ATOM     36  C   UNL A   1      40.569  27.395  28.709  1.00  0.00     0.049 A 
ATOM     37  N   UNL A   1      43.426  27.943  27.946  1.00  0.00    -0.248 NA
ATOM     38  C   UNL A   1      43.575  25.767  27.116  1.00  0.00     0.031 C 
ATOM     39  C   UNL A   1      39.180  27.184  29.115  1.00  0.00     0.029 A 
ATOM     40  N   UNL A   1      40.828  28.697  29.062  1.00  0.00    -0.354 N 
ATOM     41  C   UNL A   1      44.707  27.728  27.450  1.00  0.00     0.074 A 
ATOM     42  C   UNL A   1      44.752  26.359  26.982  1.00  0.00     0.031 C 
ATOM     43  C   UNL A   1      38.717  28.309  29.687  1.00  0.00     0.029 A 
ATOM     44  C   UNL A   1      39.784  29.307  29.716  1.00  0.00     0.049 A 
ATOM     45  H   UNL A   1      41.680  29.149  28.866  1.00  0.00     0.167 HD
ATOM     46  C   UNL A   1      45.747  28.593  27.373  1.00  0.00     0.034 A 
ATOM     47  C   UNL A   1      39.704  30.521  30.299  1.00  0.00     0.034 A 
ATOM     48  C   UNL A   1      45.700  29.958  27.826  1.00  0.00     0.049 A 
ATOM     49  C   UNL A   1      40.887  31.453  30.229  1.00  0.00     0.074 A 
ATOM     50  C   UNL A   1      46.691  30.922  27.752  1.00  0.00     0.029 A 
ATOM     51  N   UNL A   1      44.613  30.550  28.448  1.00  0.00    -0.354 N 
ATOM     52  N   UNL A   1      42.052  31.270  29.656  1.00  0.00    -0.248 NA
ATOM     53  C   UNL A   1      40.730  32.776  30.855  1.00  0.00     0.031 C 
ATOM     54  C   UNL A   1      46.214  32.086  28.363  1.00  0.00     0.029 A 
ATOM     55  C   UNL A   1      44.912  31.863  28.775  1.00  0.00     0.049 A 
ATOM     56  H   UNL A   1      43.755  30.104  28.630  1.00  0.00     0.167 HD
ATOM     57  C   UNL A   1      42.750  32.463  29.819  1.00  0.00     0.074 A 
ATOM     58  C   UNL A   1      41.869  33.369  30.525  1.00  0.00     0.031 C 
ATOM     59  C   UNL A   1      44.010  32.775  29.430  1.00  0.00     0.034 A 
BRANCH  46  60
ATOM     60  C   UNL A   1      47.030  28.098  26.754  1.00  0.00     0.023 A 
ATOM     61  C   UNL A   1      48.078  27.647  27.583  1.00  0.00     0.012 A 
ATOM     62  C   UNL A   1      47.172  28.011  25.355  1.00  0.00     0.148 A 
ATOM     63  C   UNL A   1      49.257  27.147  27.031  1.00  0.00     0.002 A 
ATOM     64  C   UNL A   1      48.331  27.470  24.812  1.00  0.00     0.091 A 
ATOM     65  F   UNL A   1      46.172  28.459  24.582  1.00  0.00    -0.205 F 
ATOM     66  C   UNL A   1      49.379  27.049  25.648  1.00  0.00     0.022 A 
BRANCH  64  67
ATOM     67  S   UNL A   1      48.555  27.221  23.047  1.00  0.00     0.127 S 
ATOM     68  O   UNL A   1      47.565  28.145  22.492  1.00  0.00    -0.237 OA
ATOM     69  O   UNL A   1      49.946  27.632  22.854  1.00  0.00    -0.237 OA
ATOM     70  O   UNL A   1      48.294  25.811  22.801  1.00  0.00    -0.744 OA
ENDBRANCH  64  67
ENDBRANCH  46  60
BRANCH  47  71
ATOM     71  C   UNL A   1      38.454  30.934  30.997  1.00  0.00     0.023 A 
ATOM     72  C   UNL A   1      38.290  30.657  32.368  1.00  0.00     0.012 A 
ATOM     73  C   UNL A   1      37.424  31.599  30.304  1.00  0.00     0.148 A 
ATOM     74  C   UNL A   1      37.108  31.000  33.026  1.00  0.00     0.002 A 
ATOM     75  C   UNL A   1      36.275  31.992  30.978  1.00  0.00     0.091 A 
ATOM     76  F   UNL A   1      37.592  31.840  28.996  1.00  0.00    -0.205 F 
ATOM     77  C   UNL A   1      36.105  31.674  32.334  1.00  0.00     0.022 A 
BRANCH  75  78
ATOM     78  S   UNL A   1      34.992  32.980  30.201  1.00  0.00     0.127 S 
ATOM     79  O   UNL A   1      35.758  34.110  29.683  1.00  0.00    -0.237 OA
ATOM     80  O   UNL A   1      34.480  32.061  29.184  1.00  0.00    -0.237 OA
ATOM     81  O   UNL A   1      34.041  33.292  31.260  1.00  0.00    -0.744 OA
ENDBRANCH  75  78
ENDBRANCH  47  71
BRANCH  59  82
ATOM     82  C   UNL A   1      44.507  34.172  29.706  1.00  0.00     0.023 A 
ATOM     83  C   UNL A   1      45.128  34.474  30.934  1.00  0.00     0.012 A 
ATOM     84  C   UNL A   1      44.418  35.170  28.714  1.00  0.00     0.148 A 
ATOM     85  C   UNL A   1      45.618  35.756  31.185  1.00  0.00     0.002 A 
ATOM     86  C   UNL A   1      44.956  36.429  28.950  1.00  0.00     0.091 A 
ATOM     87  F   UNL A   1      43.810  34.870  27.558  1.00  0.00    -0.205 F 
ATOM     88  C   UNL A   1      45.543  36.728  30.191  1.00  0.00     0.022 A 
BRANCH  86  89
ATOM     89  S   UNL A   1      44.993  37.715  27.697  1.00  0.00     0.127 S 
ATOM     90  O   UNL A   1      45.767  37.075  26.635  1.00  0.00    -0.237 OA
ATOM     91  O   UNL A   1      43.572  37.891  27.393  1.00  0.00    -0.237 OA
ATOM     92  O   UNL A   1      45.626  38.869  28.320  1.00  0.00    -0.744 OA
ENDBRANCH  86  89
ENDBRANCH  59  82
ENDBRANCH  33  34
ENDBRANCH  26  28
ENDBRANCH  25  26
ENDBRANCH  24  25
ENDBRANCH   1  24
TORSDOF 19
ENDMDL
MODEL 3
REMARK VINA RESULT:     -10.6      4.612     10.018
REMARK SMILES O=C1C[C@@H]([N@@H+]2CCO[C@@H](CC(=O)OCCOCCOC(=O)c3ccc(-c4c5nc(c(-c6cccc(S(=O)(=O)[O-])c6F)c6ccc([nH]6)c(-c6cccc(S(=O)(=O)[O-])c6F)c6nc(c(-c7cccc(S(=O)(=O)[O-])c7F)c7ccc4[nH]7)C=C6)C=C5)cc3)C2)C(=O)N1
REMARK SMILES IDX 17 1 16 2 15 3 14 4 13 5 11 6 12 7 10 8 9 9 5 10 6 11 85 12
REMARK SMILES IDX 7 14 8 15 4 16 1 17 2 18 3 19 88 20 86 21 87 23 18 24 19 25
REMARK SMILES IDX 20 26 21 27 22 28 23 29 84 30 24 31 83 32 25 33 26 34 27 35
REMARK SMILES IDX 77 36 28 37 82 38 76 39 78 40 29 41 81 42 75 43 74 44 30 46
REMARK SMILES IDX 62 47 42 48 61 49 43 50 46 51 60 52 79 53 44 54 45 55 59 57
REMARK SMILES IDX 80 58 47 59 31 60 32 61 40 62 33 63 35 64 41 65 34 66 36 67
REMARK SMILES IDX 37 68 38 69 39 70 63 71 64 72 72 73 65 74 67 75 73 76 66 77
REMARK SMILES IDX 68 78 69 79 70 80 71 81 48 82 49 83 57 84 50 85 52 86 58 87
REMARK SMILES IDX 51 88 53 89 54 90 55 91 56 92
REMARK H PARENT 5 13 88 22 78 45 46 56
REMARK Flexibility Score: inf
ROOT
ATOM      1  C   UNL A   1      33.451  29.058  25.858  1.00  0.00     0.202 C 
ENDROOT
BRANCH   1   2
ATOM      2  O   UNL A   1      32.753  29.493  24.696  1.00  0.00    -0.374 OA
BRANCH   2   3
ATOM      3  C   UNL A   1      31.629  28.724  24.273  1.00  0.00     0.202 C 
BRANCH   3   4
ATOM      4  C   UNL A   1      31.639  27.234  24.625  1.00  0.00     0.261 C 
BRANCH   4   5
ATOM      5  O   UNL A   1      30.360  26.759  25.087  1.00  0.00    -0.463 OA
BRANCH   5   6
ATOM      6  C   UNL A   1      30.400  25.781  26.025  1.00  0.00     0.308 C 
ATOM      7  O   UNL A   1      29.417  25.218  26.493  1.00  0.00    -0.252 OA
BRANCH   6   8
ATOM      8  C   UNL A   1      31.797  25.482  26.495  1.00  0.00     0.160 C 
BRANCH   8   9
ATOM      9  C   UNL A   1      32.367  24.074  26.288  1.00  0.00     0.184 C 
ATOM     10  N   UNL A   1      34.520  22.760  25.875  1.00  0.00    -0.320 N 
ATOM     11  C   UNL A   1      34.371  22.246  27.238  1.00  0.00     0.291 C 
ATOM     12  C   UNL A   1      33.817  24.050  25.737  1.00  0.00     0.295 C 
ATOM     13  H   UNL A   1      35.517  22.938  25.760  1.00  0.00     0.348 HD
ATOM     14  C   UNL A   1      32.921  22.211  27.722  1.00  0.00     0.222 C 
ATOM     15  O   UNL A   1      32.293  23.485  27.610  1.00  0.00    -0.366 OA
BRANCH  10  16
ATOM     16  C   UNL A   1      34.385  21.814  24.756  1.00  0.00     0.284 C 
ATOM     17  O   UNL A   1      32.150  19.056  25.072  1.00  0.00    -0.274 OA
ATOM     18  C   UNL A   1      33.096  19.809  24.937  1.00  0.00     0.233 C 
ATOM     19  C   UNL A   1      33.022  21.213  24.419  1.00  0.00     0.176 C 
ATOM     20  N   UNL A   1      34.396  19.500  25.162  1.00  0.00    -0.291 N 
ATOM     21  C   UNL A   1      35.231  20.560  24.996  1.00  0.00     0.285 C 
ATOM     22  H   UNL A   1      34.704  18.601  25.419  1.00  0.00     0.173 HD
ATOM     23  O   UNL A   1      36.448  20.495  25.061  1.00  0.00    -0.268 OA
ENDBRANCH  10  16
ENDBRANCH   8   9
ENDBRANCH   6   8
ENDBRANCH   5   6
ENDBRANCH   4   5
ENDBRANCH   3   4
ENDBRANCH   2   3
ENDBRANCH   1   2
BRANCH   1  24
ATOM     24  C   UNL A   1      33.277  29.905  27.123  1.00  0.00     0.261 C 
BRANCH  24  25
ATOM     25  O   UNL A   1      34.019  31.140  27.071  1.00  0.00    -0.460 OA
BRANCH  25  26
ATOM     26  C   UNL A   1      34.659  31.464  28.226  1.00  0.00     0.338 C 
ATOM     27  O   UNL A   1      34.270  32.247  29.076  1.00  0.00    -0.246 OA
BRANCH  26  28
ATOM     28  C   UNL A   1      35.841  30.604  28.441  1.00  0.00     0.060 A 
ATOM     29  C   UNL A   1      35.845  29.794  29.583  1.00  0.00     0.016 A 
ATOM     30  C   UNL A   1      36.974  30.679  27.630  1.00  0.00     0.016 A 
ATOM     31  C   UNL A   1      36.996  29.095  29.945  1.00  0.00     0.010 A 
ATOM     32  C   UNL A   1      38.126  29.968  27.989  1.00  0.00     0.010 A 
ATOM     33  C   UNL A   1      38.160  29.207  29.172  1.00  0.00    -0.014 A 
BRANCH  33  34
ATOM     34  C   UNL A   1      39.436  28.634  29.676  1.00  0.00     0.031 A 
ATOM     35  C   UNL A   1      40.098  29.244  30.885  1.00  0.00     0.074 A 
ATOM     36  C   UNL A   1      39.994  27.566  29.076  1.00  0.00     0.049 A 
ATOM     37  N   UNL A   1      41.216  28.907  31.475  1.00  0.00    -0.248 NA
ATOM     38  C   UNL A   1      39.408  30.382  31.515  1.00  0.00     0.031 C 
ATOM     39  C   UNL A   1      39.456  26.882  27.901  1.00  0.00     0.029 A 
ATOM     40  N   UNL A   1      41.152  26.883  29.362  1.00  0.00    -0.354 N 
ATOM     41  C   UNL A   1      41.380  29.805  32.524  1.00  0.00     0.074 A 
ATOM     42  C   UNL A   1      40.253  30.712  32.480  1.00  0.00     0.031 C 
ATOM     43  C   UNL A   1      40.297  25.894  27.548  1.00  0.00     0.029 A 
ATOM     44  C   UNL A   1      41.445  25.895  28.452  1.00  0.00     0.049 A 
ATOM     45  H   UNL A   1      41.716  27.084  30.143  1.00  0.00     0.167 HD
ATOM     46  C   UNL A   1      42.366  29.861  33.451  1.00  0.00     0.034 A 
ATOM     47  C   UNL A   1      42.530  25.101  28.341  1.00  0.00     0.034 A 
ATOM     48  C   UNL A   1      43.480  28.952  33.503  1.00  0.00     0.049 A 
ATOM     49  C   UNL A   1      43.630  25.204  29.366  1.00  0.00     0.074 A 
ATOM     50  C   UNL A   1      44.507  28.905  34.430  1.00  0.00     0.029 A 
ATOM     51  N   UNL A   1      43.723  27.941  32.588  1.00  0.00    -0.354 N 
ATOM     52  N   UNL A   1      43.711  25.986  30.416  1.00  0.00    -0.248 NA
ATOM     53  C   UNL A   1      44.772  24.290  29.212  1.00  0.00     0.031 C 
ATOM     54  C   UNL A   1      45.391  27.888  34.053  1.00  0.00     0.029 A 
ATOM     55  C   UNL A   1      44.890  27.272  32.919  1.00  0.00     0.049 A 
ATOM     56  H   UNL A   1      43.150  27.729  31.816  1.00  0.00     0.167 HD
ATOM     57  C   UNL A   1      44.890  25.632  31.065  1.00  0.00     0.074 A 
ATOM     58  C   UNL A   1      45.479  24.552  30.303  1.00  0.00     0.031 C 
ATOM     59  C   UNL A   1      45.441  26.162  32.185  1.00  0.00     0.034 A 
BRANCH  46  60
ATOM     60  C   UNL A   1      42.280  30.933  34.507  1.00  0.00     0.023 A 
ATOM     61  C   UNL A   1      41.725  30.629  35.768  1.00  0.00     0.012 A 
ATOM     62  C   UNL A   1      42.812  32.218  34.280  1.00  0.00     0.148 A 
ATOM     63  C   UNL A   1      41.673  31.594  36.773  1.00  0.00     0.002 A 
ATOM     64  C   UNL A   1      42.797  33.161  35.301  1.00  0.00     0.091 A 
ATOM     65  F   UNL A   1      43.321  32.494  33.071  1.00  0.00    -0.205 F 
ATOM     66  C   UNL A   1      42.218  32.854  36.543  1.00  0.00     0.022 A 
BRANCH  64  67
ATOM     67  S   UNL A   1      43.547  34.785  35.136  1.00  0.00     0.127 S 
ATOM     68  O   UNL A   1      44.963  34.443  35.000  1.00  0.00    -0.237 OA
ATOM     69  O   UNL A   1      42.921  35.288  33.914  1.00  0.00    -0.237 OA
ATOM     70  O   UNL A   1      43.199  35.516  36.346  1.00  0.00    -0.744 OA
ENDBRANCH  64  67
ENDBRANCH  46  60
BRANCH  47  71
ATOM     71  C   UNL A   1      42.630  24.126  27.218  1.00  0.00     0.023 A 
ATOM     72  C   UNL A   1      43.298  24.486  26.032  1.00  0.00     0.012 A 
ATOM     73  C   UNL A   1      42.062  22.841  27.323  1.00  0.00     0.148 A 
ATOM     74  C   UNL A   1      43.363  23.600  24.956  1.00  0.00     0.002 A 
ATOM     75  C   UNL A   1      42.182  21.941  26.271  1.00  0.00     0.091 A 
ATOM     76  F   UNL A   1      41.417  22.523  28.454  1.00  0.00    -0.205 F 
ATOM     77  C   UNL A   1      42.814  22.326  25.079  1.00  0.00     0.022 A 
BRANCH  75  78
ATOM     78  S   UNL A   1      41.624  20.239  26.391  1.00  0.00     0.127 S 
ATOM     79  O   UNL A   1      42.156  19.840  27.691  1.00  0.00    -0.237 OA
ATOM     80  O   UNL A   1      40.170  20.396  26.340  1.00  0.00    -0.237 OA
ATOM     81  O   UNL A   1      42.195  19.556  25.237  1.00  0.00    -0.744 OA
ENDBRANCH  75  78
ENDBRANCH  47  71
BRANCH  59  82
ATOM     82  C   UNL A   1      46.723  25.553  32.696  1.00  0.00     0.023 A 
ATOM     83  C   UNL A   1      47.966  26.089  32.308  1.00  0.00     0.012 A 
ATOM     84  C   UNL A   1      46.689  24.488  33.619  1.00  0.00     0.148 A 
ATOM     85  C   UNL A   1      49.156  25.552  32.801  1.00  0.00     0.002 A 
ATOM     86  C   UNL A   1      47.875  23.992  34.146  1.00  0.00     0.091 A 
ATOM     87  F   UNL A   1      45.497  23.979  33.964  1.00  0.00    -0.205 F 
ATOM     88  C   UNL A   1      49.110  24.513  33.727  1.00  0.00     0.022 A 
BRANCH  86  89
ATOM     89  S   UNL A   1      47.911  22.722  35.416  1.00  0.00     0.127 S 
ATOM     90  O   UNL A   1      49.346  22.584  35.659  1.00  0.00    -0.237 OA
ATOM     91  O   UNL A   1      47.167  23.354  36.506  1.00  0.00    -0.237 OA
ATOM     92  O   UNL A   1      47.262  21.554  34.837  1.00  0.00    -0.744 OA
ENDBRANCH  86  89
ENDBRANCH  59  82
ENDBRANCH  33  34
ENDBRANCH  26  28
ENDBRANCH  25  26
ENDBRANCH  24  25
ENDBRANCH   1  24
TORSDOF 19
ENDMDL
