MODEL 1
REMARK VINA RESULT:     -10.1      0.000      0.000
REMARK SMILES C=CCN(CC(=O)OCCOCCOC(=O)c1ccc(-c2c3nc(c(-c4cccc(S(=O)(=O)[O-])c4F)c4ccc([nH]4)c(-c4cccc(S(=O)(=O)[O-])c4F)c4nc(c(-c5cccc(S(=O)(=O)[O-])c5F)c5ccc2[nH]5)C=C4)C=C3)cc1)C(=O)/C=C/c1ccc(OC)cc1
REMARK SMILES IDX 10 1 9 2 8 3 6 4 7 5 5 6 4 7 3 8 2 9 1 10 80 11 81 12 82 13
REMARK SMILES IDX 83 14 84 15 85 16 91 17 86 18 90 19 87 20 88 21 89 22 11 23
REMARK SMILES IDX 12 24 13 25 14 26 15 27 16 28 17 29 18 30 79 31 19 32 78 33
REMARK SMILES IDX 20 34 21 35 22 36 72 37 23 38 77 39 71 40 73 41 24 42 76 43
REMARK SMILES IDX 70 44 69 45 25 47 57 48 37 49 56 50 38 51 41 52 55 53 74 54
REMARK SMILES IDX 39 55 40 56 54 58 75 59 42 60 26 61 27 62 35 63 28 64 30 65
REMARK SMILES IDX 36 66 29 67 31 68 32 69 33 70 34 71 58 72 59 73 67 74 60 75
REMARK SMILES IDX 62 76 68 77 61 78 63 79 64 80 65 81 66 82 43 83 44 84 52 85
REMARK SMILES IDX 45 86 47 87 53 88 46 89 48 90 49 91 50 92 51 93
REMARK H PARENT 73 46 41 57
REMARK Flexibility Score: inf
ROOT
ATOM      1  C   UNL A   1      32.307  29.613  26.022  1.00  0.00     0.202 C 
ENDROOT
BRANCH   1   2
ATOM      2  C   UNL A   1      31.626  28.241  25.915  1.00  0.00     0.261 C 
BRANCH   2   3
ATOM      3  O   UNL A   1      30.932  28.106  24.652  1.00  0.00    -0.462 OA
BRANCH   3   4
ATOM      4  C   UNL A   1      30.549  26.849  24.303  1.00  0.00     0.325 C 
ATOM      5  O   UNL A   1      29.384  26.469  24.233  1.00  0.00    -0.250 OA
BRANCH   4   6
ATOM      6  C   UNL A   1      31.728  25.883  24.127  1.00  0.00     0.242 C 
BRANCH   6   7
ATOM      7  N   UNL A   1      32.000  24.880  25.166  1.00  0.00    -0.324 N 
BRANCH   7   8
ATOM      8  C   UNL A   1      33.206  25.089  25.972  1.00  0.00     0.147 C 
BRANCH   8   9
ATOM      9  C   UNL A   1      34.429  24.884  25.119  1.00  0.00    -0.014 C 
ATOM     10  C   UNL A   1      35.426  24.047  25.442  1.00  0.00     0.006 C 
ENDBRANCH   8   9
ENDBRANCH   7   8
BRANCH   7  11
ATOM     11  C   UNL A   1      31.234  23.764  25.465  1.00  0.00     0.247 C 
ATOM     12  O   UNL A   1      30.363  23.782  26.342  1.00  0.00    -0.270 OA
BRANCH  11  13
ATOM     13  C   UNL A   1      31.494  22.405  24.899  1.00  0.00     0.072 C 
ATOM     14  C   UNL A   1      32.368  21.896  24.018  1.00  0.00     0.014 C 
BRANCH  14  15
ATOM     15  C   UNL A   1      32.607  20.440  23.948  1.00  0.00    -0.025 A 
ATOM     16  C   UNL A   1      33.087  19.812  25.106  1.00  0.00     0.012 A 
ATOM     17  C   UNL A   1      32.284  19.648  22.839  1.00  0.00     0.012 A 
ATOM     18  C   UNL A   1      33.215  18.423  25.161  1.00  0.00     0.047 A 
ATOM     19  C   UNL A   1      32.431  18.252  22.893  1.00  0.00     0.047 A 
ATOM     20  C   UNL A   1      32.903  17.637  24.054  1.00  0.00     0.118 A 
BRANCH  20  21
ATOM     21  O   UNL A   1      33.083  16.294  24.241  1.00  0.00    -0.497 OA
ATOM     22  C   UNL A   1      33.983  15.908  25.268  1.00  0.00     0.278 C 
ENDBRANCH  20  21
ENDBRANCH  14  15
ENDBRANCH  11  13
ENDBRANCH   7  11
ENDBRANCH   6   7
ENDBRANCH   4   6
ENDBRANCH   3   4
ENDBRANCH   2   3
ENDBRANCH   1   2
BRANCH   1  23
ATOM     23  O   UNL A   1      32.766  29.972  27.329  1.00  0.00    -0.374 OA
BRANCH  23  24
ATOM     24  C   UNL A   1      33.537  31.166  27.408  1.00  0.00     0.202 C 
BRANCH  24  25
ATOM     25  C   UNL A   1      32.792  32.497  27.375  1.00  0.00     0.261 C 
BRANCH  25  26
ATOM     26  O   UNL A   1      33.713  33.578  27.397  1.00  0.00    -0.460 OA
BRANCH  26  27
ATOM     27  C   UNL A   1      33.542  34.382  28.466  1.00  0.00     0.338 C 
ATOM     28  O   UNL A   1      32.630  35.170  28.673  1.00  0.00    -0.246 OA
BRANCH  27  29
ATOM     29  C   UNL A   1      34.543  34.021  29.473  1.00  0.00     0.060 A 
ATOM     30  C   UNL A   1      35.878  34.262  29.138  1.00  0.00     0.016 A 
ATOM     31  C   UNL A   1      34.186  33.475  30.712  1.00  0.00     0.016 A 
ATOM     32  C   UNL A   1      36.876  33.861  30.005  1.00  0.00     0.010 A 
ATOM     33  C   UNL A   1      35.190  33.084  31.588  1.00  0.00     0.010 A 
ATOM     34  C   UNL A   1      36.532  33.221  31.203  1.00  0.00    -0.014 A 
BRANCH  34  35
ATOM     35  C   UNL A   1      37.600  32.529  31.943  1.00  0.00     0.031 A 
ATOM     36  C   UNL A   1      38.288  31.371  31.281  1.00  0.00     0.074 A 
ATOM     37  C   UNL A   1      37.982  32.992  33.142  1.00  0.00     0.049 A 
ATOM     38  N   UNL A   1      39.307  30.673  31.698  1.00  0.00    -0.248 NA
ATOM     39  C   UNL A   1      37.762  30.945  29.971  1.00  0.00     0.031 C 
ATOM     40  C   UNL A   1      37.363  34.115  33.847  1.00  0.00     0.029 A 
ATOM     41  N   UNL A   1      38.981  32.575  33.976  1.00  0.00    -0.354 N 
ATOM     42  C   UNL A   1      39.529  29.711  30.720  1.00  0.00     0.074 A 
ATOM     43  C   UNL A   1      38.527  29.900  29.697  1.00  0.00     0.031 C 
ATOM     44  C   UNL A   1      37.997  34.294  35.018  1.00  0.00     0.029 A 
ATOM     45  C   UNL A   1      39.044  33.285  35.149  1.00  0.00     0.049 A 
ATOM     46  H   UNL A   1      39.596  31.838  33.757  1.00  0.00     0.167 HD
ATOM     47  C   UNL A   1      40.495  28.767  30.677  1.00  0.00     0.034 A 
ATOM     48  C   UNL A   1      39.853  33.119  36.212  1.00  0.00     0.034 A 
ATOM     49  C   UNL A   1      41.487  28.608  31.704  1.00  0.00     0.049 A 
ATOM     50  C   UNL A   1      40.911  32.052  36.141  1.00  0.00     0.074 A 
ATOM     51  C   UNL A   1      42.540  27.714  31.754  1.00  0.00     0.029 A 
ATOM     52  N   UNL A   1      41.535  29.355  32.873  1.00  0.00    -0.354 N 
ATOM     53  N   UNL A   1      41.181  31.219  35.164  1.00  0.00    -0.248 NA
ATOM     54  C   UNL A   1      41.801  31.928  37.301  1.00  0.00     0.031 C 
ATOM     55  C   UNL A   1      43.200  27.892  32.974  1.00  0.00     0.029 A 
ATOM     56  C   UNL A   1      42.589  28.930  33.661  1.00  0.00     0.049 A 
ATOM     57  H   UNL A   1      40.912  30.079  33.106  1.00  0.00     0.167 HD
ATOM     58  C   UNL A   1      42.291  30.493  35.575  1.00  0.00     0.074 A 
ATOM     59  C   UNL A   1      42.656  31.006  36.882  1.00  0.00     0.031 C 
ATOM     60  C   UNL A   1      42.945  29.487  34.943  1.00  0.00     0.034 A 
BRANCH  47  61
ATOM     61  C   UNL A   1      40.520  27.843  29.488  1.00  0.00     0.023 A 
ATOM     62  C   UNL A   1      39.650  26.735  29.433  1.00  0.00     0.012 A 
ATOM     63  C   UNL A   1      41.384  28.095  28.405  1.00  0.00     0.148 A 
ATOM     64  C   UNL A   1      39.663  25.874  28.336  1.00  0.00     0.002 A 
ATOM     65  C   UNL A   1      41.356  27.263  27.293  1.00  0.00     0.091 A 
ATOM     66  F   UNL A   1      42.224  29.137  28.487  1.00  0.00    -0.205 F 
ATOM     67  C   UNL A   1      40.507  26.144  27.262  1.00  0.00     0.022 A 
BRANCH  65  68
ATOM     68  S   UNL A   1      42.348  27.570  25.827  1.00  0.00     0.127 S 
ATOM     69  O   UNL A   1      41.954  26.457  24.965  1.00  0.00    -0.237 OA
ATOM     70  O   UNL A   1      41.857  28.879  25.397  1.00  0.00    -0.237 OA
ATOM     71  O   UNL A   1      43.736  27.554  26.268  1.00  0.00    -0.744 OA
ENDBRANCH  65  68
ENDBRANCH  47  61
BRANCH  48  72
ATOM     72  C   UNL A   1      39.707  34.001  37.401  1.00  0.00     0.023 A 
ATOM     73  C   UNL A   1      40.211  35.314  37.370  1.00  0.00     0.012 A 
ATOM     74  C   UNL A   1      39.038  33.548  38.555  1.00  0.00     0.148 A 
ATOM     75  C   UNL A   1      40.082  36.150  38.480  1.00  0.00     0.002 A 
ATOM     76  C   UNL A   1      38.861  34.403  39.634  1.00  0.00     0.091 A 
ATOM     77  F   UNL A   1      38.574  32.290  38.567  1.00  0.00    -0.205 F 
ATOM     78  C   UNL A   1      39.399  35.700  39.607  1.00  0.00     0.022 A 
BRANCH  76  79
ATOM     79  S   UNL A   1      37.877  33.953  41.067  1.00  0.00     0.127 S 
ATOM     80  O   UNL A   1      36.732  33.290  40.448  1.00  0.00    -0.237 OA
ATOM     81  O   UNL A   1      38.788  33.066  41.791  1.00  0.00    -0.237 OA
ATOM     82  O   UNL A   1      37.587  35.204  41.756  1.00  0.00    -0.744 OA
ENDBRANCH  76  79
ENDBRANCH  48  72
BRANCH  60  83
ATOM     83  C   UNL A   1      44.144  28.902  35.641  1.00  0.00     0.023 A 
ATOM     84  C   UNL A   1      45.426  29.440  35.414  1.00  0.00     0.012 A 
ATOM     85  C   UNL A   1      43.987  27.848  36.563  1.00  0.00     0.148 A 
ATOM     86  C   UNL A   1      46.541  28.906  36.058  1.00  0.00     0.002 A 
ATOM     87  C   UNL A   1      45.094  27.361  37.245  1.00  0.00     0.091 A 
ATOM     88  F   UNL A   1      42.761  27.340  36.753  1.00  0.00    -0.205 F 
ATOM     89  C   UNL A   1      46.374  27.877  36.981  1.00  0.00     0.022 A 
BRANCH  87  90
ATOM     90  S   UNL A   1      44.959  26.110  38.526  1.00  0.00     0.127 S 
ATOM     91  O   UNL A   1      44.395  26.879  39.634  1.00  0.00    -0.237 OA
ATOM     92  O   UNL A   1      44.039  25.147  37.921  1.00  0.00    -0.237 OA
ATOM     93  O   UNL A   1      46.308  25.605  38.738  1.00  0.00    -0.744 OA
ENDBRANCH  87  90
ENDBRANCH  60  83
ENDBRANCH  34  35
ENDBRANCH  27  29
ENDBRANCH  26  27
ENDBRANCH  25  26
ENDBRANCH  24  25
ENDBRANCH  23  24
ENDBRANCH   1  23
TORSDOF 24
ENDMDL
MODEL 2
REMARK VINA RESULT:      -9.8      5.930      9.888
REMARK SMILES C=CCN(CC(=O)OCCOCCOC(=O)c1ccc(-c2c3nc(c(-c4cccc(S(=O)(=O)[O-])c4F)c4ccc([nH]4)c(-c4cccc(S(=O)(=O)[O-])c4F)c4nc(c(-c5cccc(S(=O)(=O)[O-])c5F)c5ccc2[nH]5)C=C4)C=C3)cc1)C(=O)/C=C/c1ccc(OC)cc1
REMARK SMILES IDX 10 1 9 2 8 3 6 4 7 5 5 6 4 7 3 8 2 9 1 10 80 11 81 12 82 13
REMARK SMILES IDX 83 14 84 15 85 16 91 17 86 18 90 19 87 20 88 21 89 22 11 23
REMARK SMILES IDX 12 24 13 25 14 26 15 27 16 28 17 29 18 30 79 31 19 32 78 33
REMARK SMILES IDX 20 34 21 35 22 36 72 37 23 38 77 39 71 40 73 41 24 42 76 43
REMARK SMILES IDX 70 44 69 45 25 47 57 48 37 49 56 50 38 51 41 52 55 53 74 54
REMARK SMILES IDX 39 55 40 56 54 58 75 59 42 60 26 61 27 62 35 63 28 64 30 65
REMARK SMILES IDX 36 66 29 67 31 68 32 69 33 70 34 71 58 72 59 73 67 74 60 75
REMARK SMILES IDX 62 76 68 77 61 78 63 79 64 80 65 81 66 82 43 83 44 84 52 85
REMARK SMILES IDX 45 86 47 87 53 88 46 89 48 90 49 91 50 92 51 93
REMARK H PARENT 73 46 41 57
REMARK Flexibility Score: inf
ROOT
ATOM      1  C   UNL A   1      37.376  22.794  25.181  1.00  0.00     0.202 C 
ENDROOT
BRANCH   1   2
ATOM      2  C   UNL A   1      35.958  22.955  25.745  1.00  0.00     0.261 C 
BRANCH   2   3
ATOM      3  O   UNL A   1      35.317  21.667  25.910  1.00  0.00    -0.462 OA
BRANCH   3   4
ATOM      4  C   UNL A   1      34.191  21.643  26.671  1.00  0.00     0.325 C 
ATOM      5  O   UNL A   1      34.175  21.490  27.889  1.00  0.00    -0.250 OA
BRANCH   4   6
ATOM      6  C   UNL A   1      32.899  21.691  25.844  1.00  0.00     0.242 C 
BRANCH   6   7
ATOM      7  N   UNL A   1      32.383  22.989  25.387  1.00  0.00    -0.324 N 
BRANCH   7   8
ATOM      8  C   UNL A   1      32.532  23.280  23.958  1.00  0.00     0.147 C 
BRANCH   8   9
ATOM      9  C   UNL A   1      32.883  22.018  23.216  1.00  0.00    -0.014 C 
ATOM     10  C   UNL A   1      31.975  21.240  22.608  1.00  0.00     0.006 C 
ENDBRANCH   8   9
ENDBRANCH   7   8
BRANCH   7  11
ATOM     11  C   UNL A   1      31.768  23.959  26.162  1.00  0.00     0.247 C 
ATOM     12  O   UNL A   1      31.344  23.719  27.298  1.00  0.00    -0.270 OA
BRANCH  11  13
ATOM     13  C   UNL A   1      31.401  25.316  25.654  1.00  0.00     0.072 C 
ATOM     14  C   UNL A   1      32.070  26.454  25.419  1.00  0.00     0.014 C 
BRANCH  14  15
ATOM     15  C   UNL A   1      31.488  27.510  24.566  1.00  0.00    -0.025 A 
ATOM     16  C   UNL A   1      31.020  27.127  23.301  1.00  0.00     0.012 A 
ATOM     17  C   UNL A   1      31.286  28.830  24.985  1.00  0.00     0.012 A 
ATOM     18  C   UNL A   1      30.340  28.036  22.489  1.00  0.00     0.047 A 
ATOM     19  C   UNL A   1      30.616  29.746  24.158  1.00  0.00     0.047 A 
ATOM     20  C   UNL A   1      30.147  29.352  22.903  1.00  0.00     0.118 A 
BRANCH  20  21
ATOM     21  O   UNL A   1      29.476  30.137  22.008  1.00  0.00    -0.497 OA
ATOM     22  C   UNL A   1      28.158  30.526  22.362  1.00  0.00     0.278 C 
ENDBRANCH  20  21
ENDBRANCH  14  15
ENDBRANCH  11  13
ENDBRANCH   7  11
ENDBRANCH   6   7
ENDBRANCH   4   6
ENDBRANCH   3   4
ENDBRANCH   2   3
ENDBRANCH   1   2
BRANCH   1  23
ATOM     23  O   UNL A   1      37.824  21.444  25.020  1.00  0.00    -0.374 OA
BRANCH  23  24
ATOM     24  C   UNL A   1      38.744  20.976  26.000  1.00  0.00     0.202 C 
BRANCH  24  25
ATOM     25  C   UNL A   1      39.679  19.834  25.610  1.00  0.00     0.261 C 
BRANCH  25  26
ATOM     26  O   UNL A   1      40.723  19.704  26.564  1.00  0.00    -0.460 OA
BRANCH  26  27
ATOM     27  C   UNL A   1      41.868  20.293  26.163  1.00  0.00     0.338 C 
ATOM     28  O   UNL A   1      42.703  19.855  25.384  1.00  0.00    -0.246 OA
BRANCH  27  29
ATOM     29  C   UNL A   1      41.872  21.670  26.663  1.00  0.00     0.060 A 
ATOM     30  C   UNL A   1      41.860  22.682  25.700  1.00  0.00     0.016 A 
ATOM     31  C   UNL A   1      41.876  21.962  28.033  1.00  0.00     0.016 A 
ATOM     32  C   UNL A   1      41.954  24.000  26.103  1.00  0.00     0.010 A 
ATOM     33  C   UNL A   1      41.959  23.288  28.436  1.00  0.00     0.010 A 
ATOM     34  C   UNL A   1      42.062  24.298  27.468  1.00  0.00    -0.014 A 
BRANCH  34  35
ATOM     35  C   UNL A   1      42.478  25.659  27.843  1.00  0.00     0.031 A 
ATOM     36  C   UNL A   1      43.845  26.122  27.434  1.00  0.00     0.074 A 
ATOM     37  C   UNL A   1      41.609  26.470  28.465  1.00  0.00     0.049 A 
ATOM     38  N   UNL A   1      44.390  27.299  27.573  1.00  0.00    -0.248 NA
ATOM     39  C   UNL A   1      44.715  25.131  26.775  1.00  0.00     0.031 C 
ATOM     40  C   UNL A   1      40.261  26.091  28.890  1.00  0.00     0.029 A 
ATOM     41  N   UNL A   1      41.731  27.777  28.843  1.00  0.00    -0.354 N 
ATOM     42  C   UNL A   1      45.670  27.184  27.045  1.00  0.00     0.074 A 
ATOM     43  C   UNL A   1      45.831  25.819  26.601  1.00  0.00     0.031 C 
ATOM     44  C   UNL A   1      39.681  27.148  29.482  1.00  0.00     0.029 A 
ATOM     45  C   UNL A   1      40.625  28.262  29.494  1.00  0.00     0.049 A 
ATOM     46  H   UNL A   1      42.534  28.318  28.666  1.00  0.00     0.167 HD
ATOM     47  C   UNL A   1      46.619  28.141  26.929  1.00  0.00     0.034 A 
ATOM     48  C   UNL A   1      40.414  29.470  30.049  1.00  0.00     0.034 A 
ATOM     49  C   UNL A   1      46.428  29.496  27.370  1.00  0.00     0.049 A 
ATOM     50  C   UNL A   1      41.491  30.511  29.915  1.00  0.00     0.074 A 
ATOM     51  C   UNL A   1      47.298  30.564  27.271  1.00  0.00     0.029 A 
ATOM     52  N   UNL A   1      45.288  29.961  28.010  1.00  0.00    -0.354 N 
ATOM     53  N   UNL A   1      42.657  30.424  29.318  1.00  0.00    -0.248 NA
ATOM     54  C   UNL A   1      41.210  31.829  30.496  1.00  0.00     0.031 C 
ATOM     55  C   UNL A   1      46.701  31.666  27.891  1.00  0.00     0.029 A 
ATOM     56  C   UNL A   1      45.438  31.297  28.330  1.00  0.00     0.049 A 
ATOM     57  H   UNL A   1      44.490  29.419  28.208  1.00  0.00     0.167 HD
ATOM     58  C   UNL A   1      43.235  31.682  29.422  1.00  0.00     0.074 A 
ATOM     59  C   UNL A   1      42.277  32.519  30.118  1.00  0.00     0.031 C 
ATOM     60  C   UNL A   1      44.449  32.109  28.995  1.00  0.00     0.034 A 
BRANCH  47  61
ATOM     61  C   UNL A   1      47.933  27.753  26.307  1.00  0.00     0.023 A 
ATOM     62  C   UNL A   1      49.017  27.368  27.121  1.00  0.00     0.012 A 
ATOM     63  C   UNL A   1      48.083  27.737  24.906  1.00  0.00     0.148 A 
ATOM     64  C   UNL A   1      50.239  27.005  26.554  1.00  0.00     0.002 A 
ATOM     65  C   UNL A   1      49.287  27.327  24.347  1.00  0.00     0.091 A 
ATOM     66  F   UNL A   1      47.051  28.135  24.149  1.00  0.00    -0.205 F 
ATOM     67  C   UNL A   1      50.370  26.973  25.169  1.00  0.00     0.022 A 
BRANCH  65  68
ATOM     68  S   UNL A   1      49.531  27.178  22.573  1.00  0.00     0.127 S 
ATOM     69  O   UNL A   1      49.019  28.462  22.095  1.00  0.00    -0.237 OA
ATOM     70  O   UNL A   1      50.983  27.026  22.478  1.00  0.00    -0.237 OA
ATOM     71  O   UNL A   1      48.767  26.010  22.158  1.00  0.00    -0.744 OA
ENDBRANCH  65  68
ENDBRANCH  47  61
BRANCH  48  72
ATOM     72  C   UNL A   1      39.129  29.754  30.743  1.00  0.00     0.023 A 
ATOM     73  C   UNL A   1      38.910  29.269  32.045  1.00  0.00     0.012 A 
ATOM     74  C   UNL A   1      38.134  30.536  30.122  1.00  0.00     0.148 A 
ATOM     75  C   UNL A   1      37.707  29.527  32.705  1.00  0.00     0.002 A 
ATOM     76  C   UNL A   1      36.965  30.839  30.807  1.00  0.00     0.091 A 
ATOM     77  F   UNL A   1      38.360  30.981  28.878  1.00  0.00    -0.205 F 
ATOM     78  C   UNL A   1      36.740  30.319  32.092  1.00  0.00     0.022 A 
BRANCH  76  79
ATOM     79  S   UNL A   1      35.729  31.963  30.148  1.00  0.00     0.127 S 
ATOM     80  O   UNL A   1      35.230  31.216  28.997  1.00  0.00    -0.237 OA
ATOM     81  O   UNL A   1      34.793  32.071  31.268  1.00  0.00    -0.237 OA
ATOM     82  O   UNL A   1      36.441  33.197  29.843  1.00  0.00    -0.744 OA
ENDBRANCH  76  79
ENDBRANCH  48  72
BRANCH  60  83
ATOM     83  C   UNL A   1      44.792  33.556  29.237  1.00  0.00     0.023 A 
ATOM     84  C   UNL A   1      45.377  33.948  30.457  1.00  0.00     0.012 A 
ATOM     85  C   UNL A   1      44.579  34.516  28.229  1.00  0.00     0.148 A 
ATOM     86  C   UNL A   1      45.700  35.285  30.688  1.00  0.00     0.002 A 
ATOM     87  C   UNL A   1      44.958  35.834  28.444  1.00  0.00     0.091 A 
ATOM     88  F   UNL A   1      44.007  34.124  27.081  1.00  0.00    -0.205 F 
ATOM     89  C   UNL A   1      45.503  36.224  29.679  1.00  0.00     0.022 A 
BRANCH  87  90
ATOM     90  S   UNL A   1      44.837  37.089  27.165  1.00  0.00     0.127 S 
ATOM     91  O   UNL A   1      45.758  36.572  26.154  1.00  0.00    -0.237 OA
ATOM     92  O   UNL A   1      43.423  37.019  26.796  1.00  0.00    -0.237 OA
ATOM     93  O   UNL A   1      45.236  38.342  27.793  1.00  0.00    -0.744 OA
ENDBRANCH  87  90
ENDBRANCH  60  83
ENDBRANCH  34  35
ENDBRANCH  27  29
ENDBRANCH  26  27
ENDBRANCH  25  26
ENDBRANCH  24  25
ENDBRANCH  23  24
ENDBRANCH   1  23
TORSDOF 24
ENDMDL
MODEL 3
REMARK VINA RESULT:      -9.8      2.185      8.014
REMARK SMILES C=CCN(CC(=O)OCCOCCOC(=O)c1ccc(-c2c3nc(c(-c4cccc(S(=O)(=O)[O-])c4F)c4ccc([nH]4)c(-c4cccc(S(=O)(=O)[O-])c4F)c4nc(c(-c5cccc(S(=O)(=O)[O-])c5F)c5ccc2[nH]5)C=C4)C=C3)cc1)C(=O)/C=C/c1ccc(OC)cc1
REMARK SMILES IDX 10 1 9 2 8 3 6 4 7 5 5 6 4 7 3 8 2 9 1 10 80 11 81 12 82 13
REMARK SMILES IDX 83 14 84 15 85 16 91 17 86 18 90 19 87 20 88 21 89 22 11 23
REMARK SMILES IDX 12 24 13 25 14 26 15 27 16 28 17 29 18 30 79 31 19 32 78 33
REMARK SMILES IDX 20 34 21 35 22 36 72 37 23 38 77 39 71 40 73 41 24 42 76 43
REMARK SMILES IDX 70 44 69 45 25 47 57 48 37 49 56 50 38 51 41 52 55 53 74 54
REMARK SMILES IDX 39 55 40 56 54 58 75 59 42 60 26 61 27 62 35 63 28 64 30 65
REMARK SMILES IDX 36 66 29 67 31 68 32 69 33 70 34 71 58 72 59 73 67 74 60 75
REMARK SMILES IDX 62 76 68 77 61 78 63 79 64 80 65 81 66 82 43 83 44 84 52 85
REMARK SMILES IDX 45 86 47 87 53 88 46 89 48 90 49 91 50 92 51 93
REMARK H PARENT 73 46 41 57
REMARK Flexibility Score: inf
ROOT
ATOM      1  C   UNL A   1      31.439  30.385  25.665  1.00  0.00     0.202 C 
ENDROOT
BRANCH   1   2
ATOM      2  C   UNL A   1      31.799  28.903  25.485  1.00  0.00     0.261 C 
BRANCH   2   3
ATOM      3  O   UNL A   1      31.986  28.583  24.086  1.00  0.00    -0.462 OA
BRANCH   3   4
ATOM      4  C   UNL A   1      32.779  27.513  23.810  1.00  0.00     0.325 C 
ATOM      5  O   UNL A   1      33.995  27.568  23.653  1.00  0.00    -0.250 OA
BRANCH   4   6
ATOM      6  C   UNL A   1      31.990  26.218  23.572  1.00  0.00     0.242 C 
BRANCH   6   7
ATOM      7  N   UNL A   1      32.717  24.967  23.319  1.00  0.00    -0.324 N 
BRANCH   7   8
ATOM      8  C   UNL A   1      32.750  24.505  21.928  1.00  0.00     0.147 C 
BRANCH   8   9
ATOM      9  C   UNL A   1      32.537  25.671  21.001  1.00  0.00    -0.014 C 
ATOM     10  C   UNL A   1      32.593  25.575  19.664  1.00  0.00     0.006 C 
ENDBRANCH   8   9
ENDBRANCH   7   8
BRANCH   7  11
ATOM     11  C   UNL A   1      33.375  24.184  24.253  1.00  0.00     0.247 C 
ATOM     12  O   UNL A   1      34.364  24.593  24.871  1.00  0.00    -0.270 OA
BRANCH  11  13
ATOM     13  C   UNL A   1      33.078  22.736  24.479  1.00  0.00     0.072 C 
ATOM     14  C   UNL A   1      32.301  21.823  23.879  1.00  0.00     0.014 C 
BRANCH  14  15
ATOM     15  C   UNL A   1      32.509  20.380  24.118  1.00  0.00    -0.025 A 
ATOM     16  C   UNL A   1      32.752  19.978  25.439  1.00  0.00     0.012 A 
ATOM     17  C   UNL A   1      32.373  19.397  23.131  1.00  0.00     0.012 A 
ATOM     18  C   UNL A   1      32.829  18.623  25.768  1.00  0.00     0.047 A 
ATOM     19  C   UNL A   1      32.469  18.036  23.463  1.00  0.00     0.047 A 
ATOM     20  C   UNL A   1      32.703  17.646  24.782  1.00  0.00     0.118 A 
BRANCH  20  21
ATOM     21  O   UNL A   1      32.809  16.362  25.240  1.00  0.00    -0.497 OA
ATOM     22  C   UNL A   1      34.117  15.814  25.307  1.00  0.00     0.278 C 
ENDBRANCH  20  21
ENDBRANCH  14  15
ENDBRANCH  11  13
ENDBRANCH   7  11
ENDBRANCH   6   7
ENDBRANCH   4   6
ENDBRANCH   3   4
ENDBRANCH   2   3
ENDBRANCH   1   2
BRANCH   1  23
ATOM     23  O   UNL A   1      31.628  30.908  26.984  1.00  0.00    -0.374 OA
BRANCH  23  24
ATOM     24  C   UNL A   1      32.777  31.728  27.165  1.00  0.00     0.202 C 
BRANCH  24  25
ATOM     25  C   UNL A   1      32.559  33.227  27.348  1.00  0.00     0.261 C 
BRANCH  25  26
ATOM     26  O   UNL A   1      33.787  33.870  27.660  1.00  0.00    -0.460 OA
BRANCH  26  27
ATOM     27  C   UNL A   1      34.076  33.822  28.976  1.00  0.00     0.338 C 
ATOM     28  O   UNL A   1      33.385  34.204  29.909  1.00  0.00    -0.246 OA
BRANCH  27  29
ATOM     29  C   UNL A   1      35.302  33.039  29.145  1.00  0.00     0.060 A 
ATOM     30  C   UNL A   1      35.162  31.784  29.743  1.00  0.00     0.016 A 
ATOM     31  C   UNL A   1      36.550  33.513  28.721  1.00  0.00     0.016 A 
ATOM     32  C   UNL A   1      36.290  31.034  30.014  1.00  0.00     0.010 A 
ATOM     33  C   UNL A   1      37.682  32.752  28.983  1.00  0.00     0.010 A 
ATOM     34  C   UNL A   1      37.553  31.544  29.686  1.00  0.00    -0.014 A 
BRANCH  34  35
ATOM     35  C   UNL A   1      38.733  30.883  30.265  1.00  0.00     0.031 A 
ATOM     36  C   UNL A   1      39.137  31.248  31.663  1.00  0.00     0.074 A 
ATOM     37  C   UNL A   1      39.364  29.925  29.570  1.00  0.00     0.049 A 
ATOM     38  N   UNL A   1      40.079  30.737  32.407  1.00  0.00    -0.248 NA
ATOM     39  C   UNL A   1      38.378  32.331  32.315  1.00  0.00     0.031 C 
ATOM     40  C   UNL A   1      39.026  29.512  28.207  1.00  0.00     0.029 A 
ATOM     41  N   UNL A   1      40.418  29.127  29.916  1.00  0.00    -0.354 N 
ATOM     42  C   UNL A   1      40.043  31.449  33.599  1.00  0.00     0.074 A 
ATOM     43  C   UNL A   1      39.002  32.443  33.476  1.00  0.00     0.031 C 
ATOM     44  C   UNL A   1      39.867  28.537  27.829  1.00  0.00     0.029 A 
ATOM     45  C   UNL A   1      40.811  28.278  28.912  1.00  0.00     0.049 A 
ATOM     46  H   UNL A   1      40.853  29.159  30.799  1.00  0.00     0.167 HD
ATOM     47  C   UNL A   1      40.804  31.274  34.704  1.00  0.00     0.034 A 
ATOM     48  C   UNL A   1      41.833  27.403  28.877  1.00  0.00     0.034 A 
ATOM     49  C   UNL A   1      41.827  30.269  34.804  1.00  0.00     0.049 A 
ATOM     50  C   UNL A   1      42.670  27.237  30.116  1.00  0.00     0.074 A 
ATOM     51  C   UNL A   1      42.637  29.969  35.882  1.00  0.00     0.029 A 
ATOM     52  N   UNL A   1      42.189  29.412  33.775  1.00  0.00    -0.354 N 
ATOM     53  N   UNL A   1      42.559  27.840  31.276  1.00  0.00    -0.248 NA
ATOM     54  C   UNL A   1      43.749  26.245  30.055  1.00  0.00     0.031 C 
ATOM     55  C   UNL A   1      43.519  28.957  35.491  1.00  0.00     0.029 A 
ATOM     56  C   UNL A   1      43.225  28.593  34.186  1.00  0.00     0.049 A 
ATOM     57  H   UNL A   1      41.772  29.390  32.884  1.00  0.00     0.167 HD
ATOM     58  C   UNL A   1      43.529  27.279  32.094  1.00  0.00     0.074 A 
ATOM     59  C   UNL A   1      44.202  26.268  31.301  1.00  0.00     0.031 C 
ATOM     60  C   UNL A   1      43.849  27.574  33.379  1.00  0.00     0.034 A 
BRANCH  47  61
ATOM     61  C   UNL A   1      40.557  32.184  35.876  1.00  0.00     0.023 A 
ATOM     62  C   UNL A   1      41.415  33.275  36.121  1.00  0.00     0.012 A 
ATOM     63  C   UNL A   1      39.447  31.978  36.719  1.00  0.00     0.148 A 
ATOM     64  C   UNL A   1      41.194  34.126  37.205  1.00  0.00     0.002 A 
ATOM     65  C   UNL A   1      39.204  32.858  37.767  1.00  0.00     0.091 A 
ATOM     66  F   UNL A   1      38.658  30.919  36.489  1.00  0.00    -0.205 F 
ATOM     67  C   UNL A   1      40.083  33.925  38.019  1.00  0.00     0.022 A 
BRANCH  65  68
ATOM     68  S   UNL A   1      37.758  32.730  38.824  1.00  0.00     0.127 S 
ATOM     69  O   UNL A   1      38.018  33.779  39.810  1.00  0.00    -0.237 OA
ATOM     70  O   UNL A   1      36.671  33.027  37.891  1.00  0.00    -0.237 OA
ATOM     71  O   UNL A   1      37.759  31.371  39.347  1.00  0.00    -0.744 OA
ENDBRANCH  65  68
ENDBRANCH  47  61
BRANCH  48  72
ATOM     72  C   UNL A   1      42.088  26.607  27.646  1.00  0.00     0.023 A 
ATOM     73  C   UNL A   1      42.690  27.213  26.528  1.00  0.00     0.012 A 
ATOM     74  C   UNL A   1      41.761  25.237  27.594  1.00  0.00     0.148 A 
ATOM     75  C   UNL A   1      42.931  26.478  25.367  1.00  0.00     0.002 A 
ATOM     76  C   UNL A   1      42.058  24.498  26.458  1.00  0.00     0.091 A 
ATOM     77  F   UNL A   1      41.179  24.682  28.667  1.00  0.00    -0.205 F 
ATOM     78  C   UNL A   1      42.625  25.119  25.334  1.00  0.00     0.022 A 
BRANCH  76  79
ATOM     79  S   UNL A   1      41.824  22.718  26.380  1.00  0.00     0.127 S 
ATOM     80  O   UNL A   1      40.370  22.605  26.447  1.00  0.00    -0.237 OA
ATOM     81  O   UNL A   1      42.411  22.395  25.080  1.00  0.00    -0.237 OA
ATOM     82  O   UNL A   1      42.555  22.175  27.518  1.00  0.00    -0.744 OA
ENDBRANCH  76  79
ENDBRANCH  48  72
BRANCH  60  83
ATOM     83  C   UNL A   1      44.951  26.767  34.016  1.00  0.00     0.023 A 
ATOM     84  C   UNL A   1      46.276  27.245  33.998  1.00  0.00     0.012 A 
ATOM     85  C   UNL A   1      44.657  25.557  34.675  1.00  0.00     0.148 A 
ATOM     86  C   UNL A   1      47.301  26.506  34.587  1.00  0.00     0.002 A 
ATOM     87  C   UNL A   1      45.674  24.857  35.310  1.00  0.00     0.091 A 
ATOM     88  F   UNL A   1      43.392  25.113  34.666  1.00  0.00    -0.205 F 
ATOM     89  C   UNL A   1      46.999  25.321  35.253  1.00  0.00     0.022 A 
BRANCH  87  90
ATOM     90  S   UNL A   1      45.361  23.378  36.279  1.00  0.00     0.127 S 
ATOM     91  O   UNL A   1      44.997  23.944  37.576  1.00  0.00    -0.237 OA
ATOM     92  O   UNL A   1      44.254  22.760  35.550  1.00  0.00    -0.237 OA
ATOM     93  O   UNL A   1      46.601  22.613  36.256  1.00  0.00    -0.744 OA
ENDBRANCH  87  90
ENDBRANCH  60  83
ENDBRANCH  34  35
ENDBRANCH  27  29
ENDBRANCH  26  27
ENDBRANCH  25  26
ENDBRANCH  24  25
ENDBRANCH  23  24
ENDBRANCH   1  23
TORSDOF 24
ENDMDL
