MODEL 1
REMARK VINA RESULT:     -12.0      0.000      0.000
REMARK SMILES Cc1c(CC(=O)OCCOCCOC(=O)c2ccc(-c3c4nc(c(-c5cccc(S(=O)(=O)[O-])c5F)c5ccc([nH]5)c(-c5cccc(S(=O)(=O)[O-])c5F)c5nc(c(-c6cccc(S(=O)(=O)[O-])c6F)c6ccc3[nH]6)C=C5)C=C4)cc2)cc(-c2ccc(S(C)(=O)=O)cc2)n1-c1cccc(F)c1
REMARK SMILES IDX 10 1 9 2 8 3 7 4 5 5 6 6 4 7 3 8 1 9 2 10 91 11 79 12 80 13
REMARK SMILES IDX 92 14 93 15 98 16 94 17 96 18 95 19 97 20 81 21 82 22 90 23
REMARK SMILES IDX 83 24 89 25 84 26 85 27 86 28 87 29 88 30 11 31 12 32 13 33
REMARK SMILES IDX 14 34 15 35 16 36 17 37 78 38 18 39 77 40 19 41 20 42 21 43
REMARK SMILES IDX 71 44 22 45 76 46 70 47 72 48 23 49 75 50 69 51 68 52 24 54
REMARK SMILES IDX 56 55 36 56 55 57 37 58 40 59 54 60 73 61 38 62 39 63 53 65
REMARK SMILES IDX 74 66 41 67 25 68 26 69 34 70 27 71 29 72 35 73 28 74 30 75
REMARK SMILES IDX 31 76 32 77 33 78 57 79 58 80 66 81 59 82 61 83 67 84 60 85
REMARK SMILES IDX 62 86 63 87 64 88 65 89 42 90 43 91 51 92 44 93 46 94 52 95
REMARK SMILES IDX 45 96 47 97 48 98 49 99 50 100
REMARK H PARENT 72 53 40 64
REMARK Flexibility Score: inf
ROOT
ATOM      1  O   UNL A   1      32.239  30.464  26.082  1.00  0.00    -0.374 OA
ENDROOT
BRANCH   1   2
ATOM      2  C   UNL A   1      31.529  30.125  24.903  1.00  0.00     0.202 C 
BRANCH   2   3
ATOM      3  C   UNL A   1      30.900  28.720  24.897  1.00  0.00     0.261 C 
BRANCH   3   4
ATOM      4  O   UNL A   1      30.017  28.491  23.776  1.00  0.00    -0.463 OA
BRANCH   4   5
ATOM      5  C   UNL A   1      30.222  27.344  23.072  1.00  0.00     0.310 C 
ATOM      6  O   UNL A   1      30.531  27.316  21.880  1.00  0.00    -0.252 OA
BRANCH   5   7
ATOM      7  C   UNL A   1      29.942  26.058  23.827  1.00  0.00     0.160 C 
BRANCH   7   8
ATOM      8  C   UNL A   1      31.046  25.052  24.054  1.00  0.00    -0.015 A 
ATOM      9  C   UNL A   1      33.232  26.454  23.762  1.00  0.00     0.065 C 
ATOM     10  C   UNL A   1      32.436  25.222  24.041  1.00  0.00     0.024 A 
ATOM     11  N   UNL A   1      33.044  23.973  24.232  1.00  0.00    -0.313 N 
ATOM     12  C   UNL A   1      30.831  23.651  24.119  1.00  0.00     0.033 A 
ATOM     13  C   UNL A   1      32.054  23.007  24.135  1.00  0.00     0.053 A 
BRANCH  11  14
ATOM     14  C   UNL A   1      34.430  23.719  24.464  1.00  0.00     0.049 A 
ATOM     15  C   UNL A   1      35.061  24.056  25.660  1.00  0.00     0.027 A 
ATOM     16  C   UNL A   1      35.216  23.252  23.416  1.00  0.00     0.065 A 
ATOM     17  C   UNL A   1      36.448  23.857  25.798  1.00  0.00     0.005 A 
ATOM     18  C   UNL A   1      36.577  23.031  23.559  1.00  0.00     0.125 A 
ATOM     19  C   UNL A   1      37.207  23.329  24.750  1.00  0.00     0.039 A 
ATOM     20  F   UNL A   1      37.278  22.553  22.523  1.00  0.00    -0.207 F 
ENDBRANCH  11  14
BRANCH  13  21
ATOM     21  C   UNL A   1      32.291  21.572  24.175  1.00  0.00    -0.001 A 
ATOM     22  C   UNL A   1      32.198  20.822  23.001  1.00  0.00     0.011 A 
ATOM     23  C   UNL A   1      32.641  20.947  25.376  1.00  0.00     0.011 A 
ATOM     24  C   UNL A   1      32.427  19.449  23.020  1.00  0.00     0.021 A 
ATOM     25  C   UNL A   1      32.873  19.572  25.404  1.00  0.00     0.021 A 
ATOM     26  C   UNL A   1      32.758  18.830  24.224  1.00  0.00     0.067 A 
BRANCH  26  27
ATOM     27  S   UNL A   1      33.120  17.091  24.236  1.00  0.00     0.175 S 
ATOM     28  C   UNL A   1      34.794  16.983  24.814  1.00  0.00     0.163 C 
ATOM     29  O   UNL A   1      32.233  16.499  25.229  1.00  0.00    -0.224 OA
ATOM     30  O   UNL A   1      33.096  16.638  22.863  1.00  0.00    -0.224 OA
ENDBRANCH  26  27
ENDBRANCH  13  21
ENDBRANCH   7   8
ENDBRANCH   5   7
ENDBRANCH   4   5
ENDBRANCH   3   4
ENDBRANCH   2   3
ENDBRANCH   1   2
BRANCH   1  31
ATOM     31  C   UNL A   1      31.592  31.409  26.937  1.00  0.00     0.202 C 
BRANCH  31  32
ATOM     32  C   UNL A   1      32.029  32.905  26.868  1.00  0.00     0.261 C 
BRANCH  32  33
ATOM     33  O   UNL A   1      32.631  33.655  28.029  1.00  0.00    -0.460 OA
BRANCH  33  34
ATOM     34  C   UNL A   1      34.032  33.732  28.033  1.00  0.00     0.338 C 
ATOM     35  O   UNL A   1      34.563  34.825  27.830  1.00  0.00    -0.246 OA
BRANCH  34  36
ATOM     36  C   UNL A   1      34.991  32.528  28.430  1.00  0.00     0.060 A 
ATOM     37  C   UNL A   1      36.334  32.728  28.176  1.00  0.00     0.016 A 
ATOM     38  C   UNL A   1      34.753  31.159  28.735  1.00  0.00     0.016 A 
ATOM     39  C   UNL A   1      37.337  31.675  28.298  1.00  0.00     0.010 A 
ATOM     40  C   UNL A   1      35.828  30.047  28.816  1.00  0.00     0.010 A 
ATOM     41  C   UNL A   1      37.201  30.252  28.593  1.00  0.00    -0.014 A 
BRANCH  41  42
ATOM     42  C   UNL A   1      38.618  29.221  28.468  1.00  0.00     0.031 A 
ATOM     43  C   UNL A   1      38.908  28.979  29.890  1.00  0.00     0.074 A 
ATOM     44  C   UNL A   1      39.769  28.723  27.763  1.00  0.00     0.049 A 
ATOM     45  N   UNL A   1      39.259  30.056  30.507  1.00  0.00    -0.248 NA
ATOM     46  C   UNL A   1      38.463  27.904  30.768  1.00  0.00     0.031 C 
ATOM     47  C   UNL A   1      40.304  29.094  26.433  1.00  0.00     0.029 A 
ATOM     48  N   UNL A   1      40.855  27.778  28.138  1.00  0.00    -0.354 N 
ATOM     49  C   UNL A   1      39.248  29.830  31.836  1.00  0.00     0.074 A 
ATOM     50  C   UNL A   1      38.682  28.487  31.963  1.00  0.00     0.031 C 
ATOM     51  C   UNL A   1      41.390  28.340  26.050  1.00  0.00     0.029 A 
ATOM     52  C   UNL A   1      41.812  27.381  27.086  1.00  0.00     0.049 A 
ATOM     53  H   UNL A   1      40.935  27.428  29.055  1.00  0.00     0.167 HD
ATOM     54  C   UNL A   1      40.217  30.534  32.473  1.00  0.00     0.034 A 
ATOM     55  C   UNL A   1      42.925  26.496  27.076  1.00  0.00     0.034 A 
ATOM     56  C   UNL A   1      41.348  29.677  32.681  1.00  0.00     0.049 A 
ATOM     57  C   UNL A   1      43.564  26.724  28.381  1.00  0.00     0.074 A 
ATOM     58  C   UNL A   1      41.436  28.337  33.018  1.00  0.00     0.029 A 
ATOM     59  N   UNL A   1      42.495  29.997  31.996  1.00  0.00    -0.354 N 
ATOM     60  N   UNL A   1      44.329  27.761  28.567  1.00  0.00    -0.248 NA
ATOM     61  C   UNL A   1      43.608  25.721  29.438  1.00  0.00     0.031 C 
ATOM     62  C   UNL A   1      42.343  27.799  32.083  1.00  0.00     0.029 A 
ATOM     63  C   UNL A   1      43.087  28.836  31.538  1.00  0.00     0.049 A 
ATOM     64  H   UNL A   1      42.840  30.907  31.854  1.00  0.00     0.167 HD
ATOM     65  C   UNL A   1      44.482  27.793  29.917  1.00  0.00     0.074 A 
ATOM     66  C   UNL A   1      44.272  26.425  30.360  1.00  0.00     0.031 C 
ATOM     67  C   UNL A   1      44.094  28.945  30.512  1.00  0.00     0.034 A 
BRANCH  54  68
ATOM     68  C   UNL A   1      40.247  32.005  31.996  1.00  0.00     0.023 A 
ATOM     69  C   UNL A   1      39.555  32.279  30.804  1.00  0.00     0.012 A 
ATOM     70  C   UNL A   1      41.144  33.011  32.486  1.00  0.00     0.148 A 
ATOM     71  C   UNL A   1      39.785  33.466  30.096  1.00  0.00     0.002 A 
ATOM     72  C   UNL A   1      41.468  34.123  31.706  1.00  0.00     0.091 A 
ATOM     73  F   UNL A   1      41.699  32.867  33.701  1.00  0.00    -0.205 F 
ATOM     74  C   UNL A   1      40.770  34.361  30.518  1.00  0.00     0.022 A 
BRANCH  72  75
ATOM     75  S   UNL A   1      42.926  35.150  32.033  1.00  0.00     0.127 S 
ATOM     76  O   UNL A   1      43.994  34.154  32.194  1.00  0.00    -0.237 OA
ATOM     77  O   UNL A   1      43.045  35.952  30.820  1.00  0.00    -0.237 OA
ATOM     78  O   UNL A   1      42.649  35.892  33.259  1.00  0.00    -0.744 OA
ENDBRANCH  72  75
ENDBRANCH  54  68
BRANCH  55  79
ATOM     79  C   UNL A   1      44.055  25.644  26.245  1.00  0.00     0.023 A 
ATOM     80  C   UNL A   1      45.461  25.993  26.384  1.00  0.00     0.012 A 
ATOM     81  C   UNL A   1      43.871  24.311  25.794  1.00  0.00     0.148 A 
ATOM     82  C   UNL A   1      46.549  25.098  26.239  1.00  0.00     0.002 A 
ATOM     83  C   UNL A   1      44.978  23.416  25.613  1.00  0.00     0.091 A 
ATOM     84  F   UNL A   1      42.619  23.873  25.625  1.00  0.00    -0.205 F 
ATOM     85  C   UNL A   1      46.305  23.796  25.870  1.00  0.00     0.022 A 
BRANCH  83  86
ATOM     86  S   UNL A   1      44.810  21.675  25.128  1.00  0.00     0.127 S 
ATOM     87  O   UNL A   1      43.667  21.222  25.925  1.00  0.00    -0.237 OA
ATOM     88  O   UNL A   1      44.533  21.785  23.696  1.00  0.00    -0.237 OA
ATOM     89  O   UNL A   1      46.076  21.055  25.488  1.00  0.00    -0.744 OA
ENDBRANCH  83  86
ENDBRANCH  55  79
BRANCH  67  90
ATOM     90  C   UNL A   1      44.535  30.256  29.891  1.00  0.00     0.023 A 
ATOM     91  C   UNL A   1      43.739  31.098  29.081  1.00  0.00     0.012 A 
ATOM     92  C   UNL A   1      45.850  30.670  30.155  1.00  0.00     0.148 A 
ATOM     93  C   UNL A   1      44.241  32.291  28.549  1.00  0.00     0.002 A 
ATOM     94  C   UNL A   1      46.327  31.887  29.687  1.00  0.00     0.091 A 
ATOM     95  F   UNL A   1      46.633  29.851  30.875  1.00  0.00    -0.205 F 
ATOM     96  C   UNL A   1      45.531  32.699  28.871  1.00  0.00     0.022 A 
BRANCH  94  97
ATOM     97  S   UNL A   1      47.951  32.460  30.178  1.00  0.00     0.127 S 
ATOM     98  O   UNL A   1      48.826  31.640  29.343  1.00  0.00    -0.237 OA
ATOM     99  O   UNL A   1      47.929  33.879  29.831  1.00  0.00    -0.237 OA
ATOM    100  O   UNL A   1      48.031  32.199  31.613  1.00  0.00    -0.744 OA
ENDBRANCH  94  97
ENDBRANCH  67  90
ENDBRANCH  41  42
ENDBRANCH  34  36
ENDBRANCH  33  34
ENDBRANCH  32  33
ENDBRANCH  31  32
ENDBRANCH   1  31
TORSDOF 21
ENDMDL
MODEL 2
REMARK VINA RESULT:     -12.0      2.337      2.860
REMARK SMILES Cc1c(CC(=O)OCCOCCOC(=O)c2ccc(-c3c4nc(c(-c5cccc(S(=O)(=O)[O-])c5F)c5ccc([nH]5)c(-c5cccc(S(=O)(=O)[O-])c5F)c5nc(c(-c6cccc(S(=O)(=O)[O-])c6F)c6ccc3[nH]6)C=C5)C=C4)cc2)cc(-c2ccc(S(C)(=O)=O)cc2)n1-c1cccc(F)c1
REMARK SMILES IDX 10 1 9 2 8 3 7 4 5 5 6 6 4 7 3 8 1 9 2 10 91 11 79 12 80 13
REMARK SMILES IDX 92 14 93 15 98 16 94 17 96 18 95 19 97 20 81 21 82 22 90 23
REMARK SMILES IDX 83 24 89 25 84 26 85 27 86 28 87 29 88 30 11 31 12 32 13 33
REMARK SMILES IDX 14 34 15 35 16 36 17 37 78 38 18 39 77 40 19 41 20 42 21 43
REMARK SMILES IDX 71 44 22 45 76 46 70 47 72 48 23 49 75 50 69 51 68 52 24 54
REMARK SMILES IDX 56 55 36 56 55 57 37 58 40 59 54 60 73 61 38 62 39 63 53 65
REMARK SMILES IDX 74 66 41 67 25 68 26 69 34 70 27 71 29 72 35 73 28 74 30 75
REMARK SMILES IDX 31 76 32 77 33 78 57 79 58 80 66 81 59 82 61 83 67 84 60 85
REMARK SMILES IDX 62 86 63 87 64 88 65 89 42 90 43 91 51 92 44 93 46 94 52 95
REMARK SMILES IDX 45 96 47 97 48 98 49 99 50 100
REMARK H PARENT 72 53 40 64
REMARK Flexibility Score: inf
ROOT
ATOM      1  O   UNL A   1      32.070  30.649  26.757  1.00  0.00    -0.374 OA
ENDROOT
BRANCH   1   2
ATOM      2  C   UNL A   1      31.923  29.997  25.506  1.00  0.00     0.202 C 
BRANCH   2   3
ATOM      3  C   UNL A   1      31.735  28.471  25.580  1.00  0.00     0.261 C 
BRANCH   3   4
ATOM      4  O   UNL A   1      30.499  28.016  24.984  1.00  0.00    -0.463 OA
BRANCH   4   5
ATOM      5  C   UNL A   1      30.573  27.595  23.693  1.00  0.00     0.310 C 
ATOM      6  O   UNL A   1      30.757  28.347  22.735  1.00  0.00    -0.252 OA
BRANCH   5   7
ATOM      7  C   UNL A   1      30.306  26.117  23.472  1.00  0.00     0.160 C 
BRANCH   7   8
ATOM      8  C   UNL A   1      31.381  25.097  23.763  1.00  0.00    -0.015 A 
ATOM      9  C   UNL A   1      33.599  26.349  23.175  1.00  0.00     0.065 C 
ATOM     10  C   UNL A   1      32.773  25.199  23.652  1.00  0.00     0.024 A 
ATOM     11  N   UNL A   1      33.341  23.957  23.966  1.00  0.00    -0.313 N 
ATOM     12  C   UNL A   1      31.115  23.726  24.017  1.00  0.00     0.033 A 
ATOM     13  C   UNL A   1      32.310  23.033  24.047  1.00  0.00     0.053 A 
BRANCH  11  14
ATOM     14  C   UNL A   1      34.729  23.669  24.151  1.00  0.00     0.049 A 
ATOM     15  C   UNL A   1      35.480  22.975  23.206  1.00  0.00     0.027 A 
ATOM     16  C   UNL A   1      35.321  23.963  25.374  1.00  0.00     0.065 A 
ATOM     17  C   UNL A   1      36.821  22.649  23.483  1.00  0.00     0.005 A 
ATOM     18  C   UNL A   1      36.650  23.667  25.638  1.00  0.00     0.125 A 
ATOM     19  C   UNL A   1      37.414  23.009  24.696  1.00  0.00     0.039 A 
ATOM     20  F   UNL A   1      37.175  24.000  26.824  1.00  0.00    -0.207 F 
ENDBRANCH  11  14
BRANCH  13  21
ATOM     21  C   UNL A   1      32.493  21.605  24.255  1.00  0.00    -0.001 A 
ATOM     22  C   UNL A   1      32.755  21.120  25.538  1.00  0.00     0.011 A 
ATOM     23  C   UNL A   1      32.378  20.714  23.184  1.00  0.00     0.011 A 
ATOM     24  C   UNL A   1      32.928  19.757  25.757  1.00  0.00     0.021 A 
ATOM     25  C   UNL A   1      32.548  19.346  23.393  1.00  0.00     0.021 A 
ATOM     26  C   UNL A   1      32.828  18.877  24.680  1.00  0.00     0.067 A 
BRANCH  26  27
ATOM     27  S   UNL A   1      32.977  17.130  24.970  1.00  0.00     0.175 S 
ATOM     28  C   UNL A   1      33.375  16.443  23.384  1.00  0.00     0.163 C 
ATOM     29  O   UNL A   1      34.117  16.962  25.862  1.00  0.00    -0.224 OA
ATOM     30  O   UNL A   1      31.668  16.644  25.347  1.00  0.00    -0.224 OA
ENDBRANCH  26  27
ENDBRANCH  13  21
ENDBRANCH   7   8
ENDBRANCH   5   7
ENDBRANCH   4   5
ENDBRANCH   3   4
ENDBRANCH   2   3
ENDBRANCH   1   2
BRANCH   1  31
ATOM     31  C   UNL A   1      31.450  31.932  26.857  1.00  0.00     0.202 C 
BRANCH  31  32
ATOM     32  C   UNL A   1      32.338  33.171  27.190  1.00  0.00     0.261 C 
BRANCH  32  33
ATOM     33  O   UNL A   1      33.235  33.254  28.400  1.00  0.00    -0.460 OA
BRANCH  33  34
ATOM     34  C   UNL A   1      34.612  33.230  28.129  1.00  0.00     0.338 C 
ATOM     35  O   UNL A   1      35.144  34.251  27.689  1.00  0.00    -0.246 OA
BRANCH  34  36
ATOM     36  C   UNL A   1      35.571  32.016  28.490  1.00  0.00     0.060 A 
ATOM     37  C   UNL A   1      36.904  32.341  28.663  1.00  0.00     0.016 A 
ATOM     38  C   UNL A   1      35.423  30.604  28.404  1.00  0.00     0.016 A 
ATOM     39  C   UNL A   1      37.957  31.343  28.815  1.00  0.00     0.010 A 
ATOM     40  C   UNL A   1      36.564  29.562  28.522  1.00  0.00     0.010 A 
ATOM     41  C   UNL A   1      37.916  29.886  28.734  1.00  0.00    -0.014 A 
BRANCH  41  42
ATOM     42  C   UNL A   1      39.427  28.991  28.771  1.00  0.00     0.031 A 
ATOM     43  C   UNL A   1      39.446  28.542  30.171  1.00  0.00     0.074 A 
ATOM     44  C   UNL A   1      40.742  28.697  28.268  1.00  0.00     0.049 A 
ATOM     45  N   UNL A   1      39.551  29.525  30.999  1.00  0.00    -0.248 NA
ATOM     46  C   UNL A   1      38.945  27.308  30.767  1.00  0.00     0.031 C 
ATOM     47  C   UNL A   1      41.495  29.317  27.153  1.00  0.00     0.029 A 
ATOM     48  N   UNL A   1      41.822  27.782  28.728  1.00  0.00    -0.354 N 
ATOM     49  C   UNL A   1      39.294  29.084  32.247  1.00  0.00     0.074 A 
ATOM     50  C   UNL A   1      38.855  27.702  32.052  1.00  0.00     0.031 C 
ATOM     51  C   UNL A   1      42.708  28.713  26.910  1.00  0.00     0.029 A 
ATOM     52  C   UNL A   1      43.007  27.630  27.862  1.00  0.00     0.049 A 
ATOM     53  H   UNL A   1      41.748  27.294  29.580  1.00  0.00     0.167 HD
ATOM     54  C   UNL A   1      40.035  29.742  33.174  1.00  0.00     0.034 A 
ATOM     55  C   UNL A   1      44.185  26.839  27.966  1.00  0.00     0.034 A 
ATOM     56  C   UNL A   1      41.182  28.944  33.496  1.00  0.00     0.049 A 
ATOM     57  C   UNL A   1      44.519  26.895  29.398  1.00  0.00     0.074 A 
ATOM     58  C   UNL A   1      41.338  27.576  33.646  1.00  0.00     0.029 A 
ATOM     59  N   UNL A   1      42.406  29.451  33.130  1.00  0.00    -0.354 N 
ATOM     60  N   UNL A   1      45.118  27.939  29.892  1.00  0.00    -0.248 NA
ATOM     61  C   UNL A   1      44.450  25.739  30.282  1.00  0.00     0.031 C 
ATOM     62  C   UNL A   1      42.467  27.263  32.862  1.00  0.00     0.029 A 
ATOM     63  C   UNL A   1      43.195  28.424  32.647  1.00  0.00     0.049 A 
ATOM     64  H   UNL A   1      42.676  30.394  33.199  1.00  0.00     0.167 HD
ATOM     65  C   UNL A   1      44.989  27.761  31.234  1.00  0.00     0.074 A 
ATOM     66  C   UNL A   1      44.836  26.328  31.417  1.00  0.00     0.031 C 
ATOM     67  C   UNL A   1      44.372  28.770  31.891  1.00  0.00     0.034 A 
BRANCH  54  68
ATOM     68  C   UNL A   1      40.010  31.270  32.932  1.00  0.00     0.023 A 
ATOM     69  C   UNL A   1      41.216  31.843  32.495  1.00  0.00     0.012 A 
ATOM     70  C   UNL A   1      38.983  32.158  33.393  1.00  0.00     0.148 A 
ATOM     71  C   UNL A   1      41.422  33.227  32.570  1.00  0.00     0.002 A 
ATOM     72  C   UNL A   1      39.248  33.515  33.592  1.00  0.00     0.091 A 
ATOM     73  F   UNL A   1      37.760  31.672  33.662  1.00  0.00    -0.205 F 
ATOM     74  C   UNL A   1      40.463  34.053  33.158  1.00  0.00     0.022 A 
BRANCH  72  75
ATOM     75  S   UNL A   1      38.186  34.574  34.612  1.00  0.00     0.127 S 
ATOM     76  O   UNL A   1      39.082  35.680  34.972  1.00  0.00    -0.237 OA
ATOM     77  O   UNL A   1      37.117  34.954  33.694  1.00  0.00    -0.237 OA
ATOM     78  O   UNL A   1      37.778  33.773  35.762  1.00  0.00    -0.744 OA
ENDBRANCH  72  75
ENDBRANCH  54  68
BRANCH  55  79
ATOM     79  C   UNL A   1      45.542  26.216  27.286  1.00  0.00     0.023 A 
ATOM     80  C   UNL A   1      45.560  24.822  26.870  1.00  0.00     0.012 A 
ATOM     81  C   UNL A   1      46.522  26.994  26.613  1.00  0.00     0.148 A 
ATOM     82  C   UNL A   1      46.344  24.287  25.817  1.00  0.00     0.002 A 
ATOM     83  C   UNL A   1      47.340  26.440  25.573  1.00  0.00     0.091 A 
ATOM     84  F   UNL A   1      46.605  28.294  26.913  1.00  0.00    -0.205 F 
ATOM     85  C   UNL A   1      47.225  25.106  25.152  1.00  0.00     0.022 A 
BRANCH  83  86
ATOM     86  S   UNL A   1      48.545  27.396  24.610  1.00  0.00     0.127 S 
ATOM     87  O   UNL A   1      49.591  26.412  24.323  1.00  0.00    -0.237 OA
ATOM     88  O   UNL A   1      47.756  27.788  23.441  1.00  0.00    -0.237 OA
ATOM     89  O   UNL A   1      48.964  28.478  25.489  1.00  0.00    -0.744 OA
ENDBRANCH  83  86
ENDBRANCH  55  79
BRANCH  67  90
ATOM     90  C   UNL A   1      44.793  30.193  31.576  1.00  0.00     0.023 A 
ATOM     91  C   UNL A   1      45.847  30.901  32.199  1.00  0.00     0.012 A 
ATOM     92  C   UNL A   1      44.075  30.857  30.570  1.00  0.00     0.148 A 
ATOM     93  C   UNL A   1      46.155  32.218  31.839  1.00  0.00     0.002 A 
ATOM     94  C   UNL A   1      44.425  32.137  30.163  1.00  0.00     0.091 A 
ATOM     95  F   UNL A   1      43.036  30.214  30.013  1.00  0.00    -0.205 F 
ATOM     96  C   UNL A   1      45.459  32.831  30.803  1.00  0.00     0.022 A 
BRANCH  94  97
ATOM     97  S   UNL A   1      43.594  32.892  28.768  1.00  0.00     0.127 S 
ATOM     98  O   UNL A   1      42.216  32.974  29.246  1.00  0.00    -0.237 OA
ATOM     99  O   UNL A   1      44.270  34.179  28.628  1.00  0.00    -0.237 OA
ATOM    100  O   UNL A   1      43.817  31.978  27.651  1.00  0.00    -0.744 OA
ENDBRANCH  94  97
ENDBRANCH  67  90
ENDBRANCH  41  42
ENDBRANCH  34  36
ENDBRANCH  33  34
ENDBRANCH  32  33
ENDBRANCH  31  32
ENDBRANCH   1  31
TORSDOF 21
ENDMDL
MODEL 3
REMARK VINA RESULT:     -11.6      3.278      9.425
REMARK SMILES Cc1c(CC(=O)OCCOCCOC(=O)c2ccc(-c3c4nc(c(-c5cccc(S(=O)(=O)[O-])c5F)c5ccc([nH]5)c(-c5cccc(S(=O)(=O)[O-])c5F)c5nc(c(-c6cccc(S(=O)(=O)[O-])c6F)c6ccc3[nH]6)C=C5)C=C4)cc2)cc(-c2ccc(S(C)(=O)=O)cc2)n1-c1cccc(F)c1
REMARK SMILES IDX 10 1 9 2 8 3 7 4 5 5 6 6 4 7 3 8 1 9 2 10 91 11 79 12 80 13
REMARK SMILES IDX 92 14 93 15 98 16 94 17 96 18 95 19 97 20 81 21 82 22 90 23
REMARK SMILES IDX 83 24 89 25 84 26 85 27 86 28 87 29 88 30 11 31 12 32 13 33
REMARK SMILES IDX 14 34 15 35 16 36 17 37 78 38 18 39 77 40 19 41 20 42 21 43
REMARK SMILES IDX 71 44 22 45 76 46 70 47 72 48 23 49 75 50 69 51 68 52 24 54
REMARK SMILES IDX 56 55 36 56 55 57 37 58 40 59 54 60 73 61 38 62 39 63 53 65
REMARK SMILES IDX 74 66 41 67 25 68 26 69 34 70 27 71 29 72 35 73 28 74 30 75
REMARK SMILES IDX 31 76 32 77 33 78 57 79 58 80 66 81 59 82 61 83 67 84 60 85
REMARK SMILES IDX 62 86 63 87 64 88 65 89 42 90 43 91 51 92 44 93 46 94 52 95
REMARK SMILES IDX 45 96 47 97 48 98 49 99 50 100
REMARK H PARENT 72 53 40 64
REMARK Flexibility Score: inf
ROOT
ATOM      1  O   UNL A   1      44.071  19.580  24.490  1.00  0.00    -0.374 OA
ENDROOT
BRANCH   1   2
ATOM      2  C   UNL A   1      42.969  19.197  25.296  1.00  0.00     0.202 C 
BRANCH   2   3
ATOM      3  C   UNL A   1      43.105  19.526  26.793  1.00  0.00     0.261 C 
BRANCH   3   4
ATOM      4  O   UNL A   1      42.780  20.898  27.112  1.00  0.00    -0.463 OA
BRANCH   4   5
ATOM      5  C   UNL A   1      41.459  21.182  27.270  1.00  0.00     0.310 C 
ATOM      6  O   UNL A   1      40.735  20.637  28.104  1.00  0.00    -0.252 OA
BRANCH   5   7
ATOM      7  C   UNL A   1      40.879  22.163  26.268  1.00  0.00     0.160 C 
BRANCH   7   8
ATOM      8  C   UNL A   1      39.407  22.128  25.932  1.00  0.00    -0.015 A 
ATOM      9  C   UNL A   1      38.504  24.397  26.861  1.00  0.00     0.065 C 
ATOM     10  C   UNL A   1      38.406  23.078  26.169  1.00  0.00     0.024 A 
ATOM     11  N   UNL A   1      37.179  22.555  25.739  1.00  0.00    -0.313 N 
ATOM     12  C   UNL A   1      38.732  20.965  25.475  1.00  0.00     0.033 A 
ATOM     13  C   UNL A   1      37.373  21.212  25.451  1.00  0.00     0.053 A 
BRANCH  11  14
ATOM     14  C   UNL A   1      35.937  23.254  25.631  1.00  0.00     0.049 A 
ATOM     15  C   UNL A   1      34.965  23.208  26.628  1.00  0.00     0.027 A 
ATOM     16  C   UNL A   1      35.621  23.888  24.434  1.00  0.00     0.065 A 
ATOM     17  C   UNL A   1      33.729  23.850  26.427  1.00  0.00     0.005 A 
ATOM     18  C   UNL A   1      34.415  24.544  24.245  1.00  0.00     0.125 A 
ATOM     19  C   UNL A   1      33.457  24.534  25.238  1.00  0.00     0.039 A 
ATOM     20  F   UNL A   1      34.178  25.161  23.081  1.00  0.00    -0.207 F 
ENDBRANCH  11  14
BRANCH  13  21
ATOM     21  C   UNL A   1      36.318  20.286  25.068  1.00  0.00    -0.001 A 
ATOM     22  C   UNL A   1      36.626  18.945  24.835  1.00  0.00     0.011 A 
ATOM     23  C   UNL A   1      34.995  20.727  24.963  1.00  0.00     0.011 A 
ATOM     24  C   UNL A   1      35.629  18.044  24.473  1.00  0.00     0.021 A 
ATOM     25  C   UNL A   1      33.989  19.831  24.603  1.00  0.00     0.021 A 
ATOM     26  C   UNL A   1      34.315  18.494  24.354  1.00  0.00     0.067 A 
BRANCH  26  27
ATOM     27  S   UNL A   1      33.031  17.331  23.962  1.00  0.00     0.175 S 
ATOM     28  C   UNL A   1      32.414  16.793  25.537  1.00  0.00     0.163 C 
ATOM     29  O   UNL A   1      31.991  18.089  23.277  1.00  0.00    -0.224 OA
ATOM     30  O   UNL A   1      33.659  16.196  23.322  1.00  0.00    -0.224 OA
ENDBRANCH  26  27
ENDBRANCH  13  21
ENDBRANCH   7   8
ENDBRANCH   5   7
ENDBRANCH   4   5
ENDBRANCH   3   4
ENDBRANCH   2   3
ENDBRANCH   1   2
BRANCH   1  31
ATOM     31  C   UNL A   1      45.328  19.652  25.164  1.00  0.00     0.202 C 
BRANCH  31  32
ATOM     32  C   UNL A   1      45.988  21.050  25.376  1.00  0.00     0.261 C 
BRANCH  32  33
ATOM     33  O   UNL A   1      46.170  22.063  24.275  1.00  0.00    -0.460 OA
BRANCH  33  34
ATOM     34  C   UNL A   1      45.065  22.893  24.033  1.00  0.00     0.338 C 
ATOM     35  O   UNL A   1      44.266  22.569  23.152  1.00  0.00    -0.246 OA
BRANCH  34  36
ATOM     36  C   UNL A   1      44.687  24.156  24.919  1.00  0.00     0.060 A 
ATOM     37  C   UNL A   1      43.448  24.106  25.530  1.00  0.00     0.016 A 
ATOM     38  C   UNL A   1      45.220  25.472  25.010  1.00  0.00     0.016 A 
ATOM     39  C   UNL A   1      42.852  25.241  26.226  1.00  0.00     0.010 A 
ATOM     40  C   UNL A   1      44.549  26.677  25.716  1.00  0.00     0.010 A 
ATOM     41  C   UNL A   1      43.305  26.622  26.370  1.00  0.00    -0.014 A 
BRANCH  41  42
ATOM     42  C   UNL A   1      42.230  27.793  27.119  1.00  0.00     0.031 A 
ATOM     43  C   UNL A   1      43.149  28.926  27.308  1.00  0.00     0.074 A 
ATOM     44  C   UNL A   1      41.052  28.139  27.868  1.00  0.00     0.049 A 
ATOM     45  N   UNL A   1      44.088  28.659  28.152  1.00  0.00    -0.248 NA
ATOM     46  C   UNL A   1      43.433  30.059  26.435  1.00  0.00     0.031 C 
ATOM     47  C   UNL A   1      40.016  27.268  28.468  1.00  0.00     0.029 A 
ATOM     48  N   UNL A   1      40.524  29.431  28.385  1.00  0.00    -0.354 N 
ATOM     49  C   UNL A   1      45.035  29.616  28.081  1.00  0.00     0.074 A 
ATOM     50  C   UNL A   1      44.618  30.443  26.948  1.00  0.00     0.031 C 
ATOM     51  C   UNL A   1      38.983  27.967  29.049  1.00  0.00     0.029 A 
ATOM     52  C   UNL A   1      39.182  29.425  28.999  1.00  0.00     0.049 A 
ATOM     53  H   UNL A   1      41.050  30.260  28.320  1.00  0.00     0.167 HD
ATOM     54  C   UNL A   1      45.604  29.849  29.290  1.00  0.00     0.034 A 
ATOM     55  C   UNL A   1      38.369  30.452  29.556  1.00  0.00     0.034 A 
ATOM     56  C   UNL A   1      44.975  30.993  29.882  1.00  0.00     0.049 A 
ATOM     57  C   UNL A   1      39.329  31.307  30.272  1.00  0.00     0.074 A 
ATOM     58  C   UNL A   1      44.523  32.182  29.333  1.00  0.00     0.029 A 
ATOM     59  N   UNL A   1      44.235  30.769  31.019  1.00  0.00    -0.354 N 
ATOM     60  N   UNL A   1      39.774  30.958  31.444  1.00  0.00    -0.248 NA
ATOM     61  C   UNL A   1      39.640  32.673  29.869  1.00  0.00     0.031 C 
ATOM     62  C   UNL A   1      43.217  32.330  29.841  1.00  0.00     0.029 A 
ATOM     63  C   UNL A   1      43.086  31.533  30.969  1.00  0.00     0.049 A 
ATOM     64  H   UNL A   1      44.485  30.160  31.750  1.00  0.00     0.167 HD
ATOM     65  C   UNL A   1      40.820  31.803  31.641  1.00  0.00     0.074 A 
ATOM     66  C   UNL A   1      40.532  32.967  30.820  1.00  0.00     0.031 C 
ATOM     67  C   UNL A   1      42.010  31.202  31.869  1.00  0.00     0.034 A 
BRANCH  54  68
ATOM     68  C   UNL A   1      45.973  28.526  30.000  1.00  0.00     0.023 A 
ATOM     69  C   UNL A   1      47.327  28.152  29.940  1.00  0.00     0.012 A 
ATOM     70  C   UNL A   1      45.032  27.535  30.435  1.00  0.00     0.148 A 
ATOM     71  C   UNL A   1      47.725  26.842  30.235  1.00  0.00     0.002 A 
ATOM     72  C   UNL A   1      45.418  26.202  30.591  1.00  0.00     0.091 A 
ATOM     73  F   UNL A   1      43.758  27.890  30.668  1.00  0.00    -0.205 F 
ATOM     74  C   UNL A   1      46.771  25.860  30.512  1.00  0.00     0.022 A 
BRANCH  72  75
ATOM     75  S   UNL A   1      44.219  24.843  30.651  1.00  0.00     0.127 S 
ATOM     76  O   UNL A   1      43.231  25.238  29.639  1.00  0.00    -0.237 OA
ATOM     77  O   UNL A   1      45.018  23.680  30.275  1.00  0.00    -0.237 OA
ATOM     78  O   UNL A   1      43.673  24.825  32.004  1.00  0.00    -0.744 OA
ENDBRANCH  72  75
ENDBRANCH  54  68
BRANCH  55  79
ATOM     79  C   UNL A   1      36.915  30.966  30.113  1.00  0.00     0.023 A 
ATOM     80  C   UNL A   1      36.656  30.969  31.545  1.00  0.00     0.012 A 
ATOM     81  C   UNL A   1      36.065  31.860  29.409  1.00  0.00     0.148 A 
ATOM     82  C   UNL A   1      35.774  31.847  32.221  1.00  0.00     0.002 A 
ATOM     83  C   UNL A   1      35.145  32.724  30.093  1.00  0.00     0.091 A 
ATOM     84  F   UNL A   1      36.206  31.945  28.082  1.00  0.00    -0.205 F 
ATOM     85  C   UNL A   1      35.028  32.743  31.492  1.00  0.00     0.022 A 
BRANCH  83  86
ATOM     86  S   UNL A   1      34.098  33.953  29.266  1.00  0.00     0.127 S 
ATOM     87  O   UNL A   1      35.073  34.904  28.726  1.00  0.00    -0.237 OA
ATOM     88  O   UNL A   1      33.427  33.144  28.249  1.00  0.00    -0.237 OA
ATOM     89  O   UNL A   1      33.247  34.497  30.313  1.00  0.00    -0.744 OA
ENDBRANCH  83  86
ENDBRANCH  55  79
BRANCH  67  90
ATOM     90  C   UNL A   1      42.054  30.054  32.860  1.00  0.00     0.023 A 
ATOM     91  C   UNL A   1      41.670  28.719  32.598  1.00  0.00     0.012 A 
ATOM     92  C   UNL A   1      42.528  30.348  34.148  1.00  0.00     0.148 A 
ATOM     93  C   UNL A   1      41.744  27.729  33.584  1.00  0.00     0.002 A 
ATOM     94  C   UNL A   1      42.670  29.353  35.105  1.00  0.00     0.091 A 
ATOM     95  F   UNL A   1      42.842  31.624  34.424  1.00  0.00    -0.205 F 
ATOM     96  C   UNL A   1      42.267  28.040  34.835  1.00  0.00     0.022 A 
BRANCH  94  97
ATOM     97  S   UNL A   1      43.430  29.730  36.682  1.00  0.00     0.127 S 
ATOM     98  O   UNL A   1      42.378  30.494  37.350  1.00  0.00    -0.237 OA
ATOM     99  O   UNL A   1      43.687  28.412  37.258  1.00  0.00    -0.237 OA
ATOM    100  O   UNL A   1      44.638  30.482  36.354  1.00  0.00    -0.744 OA
ENDBRANCH  94  97
ENDBRANCH  67  90
ENDBRANCH  41  42
ENDBRANCH  34  36
ENDBRANCH  33  34
ENDBRANCH  32  33
ENDBRANCH  31  32
ENDBRANCH   1  31
TORSDOF 21
ENDMDL
