MODEL 1
REMARK VINA RESULT:     -11.5      0.000      0.000
REMARK SMILES CC1(C)C[C@@H](Nc2ccc(Cl)c(C(=O)OCCOCCOC(=O)c3ccc(-c4c5nc(c(-c6cccc(S(=O)(=O)[O-])c6F)c6ccc([nH]6)c(-c6cccc(S(=O)(=O)[O-])c6F)c6nc(c(-c7cccc(S(=O)(=O)[O-])c7F)c7ccc4[nH]7)C=C6)C=C5)cc3)c2)C(C)(C)O1
REMARK SMILES IDX 19 1 18 2 17 3 16 4 15 5 13 6 14 7 12 8 7 9 8 10 87 11 9 12
REMARK SMILES IDX 10 13 11 14 6 15 5 17 1 18 2 19 3 20 4 21 91 22 88 23 89 24
REMARK SMILES IDX 90 25 20 26 21 27 22 28 23 29 24 30 25 31 86 32 26 33 85 34
REMARK SMILES IDX 27 35 28 36 29 37 79 38 30 39 84 40 78 41 80 42 31 43 83 44
REMARK SMILES IDX 77 45 76 46 32 48 64 49 44 50 63 51 45 52 48 53 62 54 81 55
REMARK SMILES IDX 46 56 47 57 61 59 82 60 49 61 33 62 34 63 42 64 35 65 37 66
REMARK SMILES IDX 43 67 36 68 38 69 39 70 40 71 41 72 65 73 66 74 74 75 67 76
REMARK SMILES IDX 69 77 75 78 68 79 70 80 71 81 72 82 73 83 50 84 51 85 59 86
REMARK SMILES IDX 52 87 54 88 60 89 53 90 55 91 56 92 57 93 58 94
REMARK H PARENT 6 16 80 47 48 58
REMARK Flexibility Score: inf
ROOT
ATOM      1  C   UNL A   1      32.646  29.339  24.876  1.00  0.00     0.202 C 
ENDROOT
BRANCH   1   2
ATOM      2  O   UNL A   1      32.460  29.372  23.460  1.00  0.00    -0.374 OA
BRANCH   2   3
ATOM      3  C   UNL A   1      33.460  28.731  22.662  1.00  0.00     0.202 C 
BRANCH   3   4
ATOM      4  C   UNL A   1      33.941  27.375  23.182  1.00  0.00     0.261 C 
BRANCH   4   5
ATOM      5  O   UNL A   1      33.526  26.331  22.287  1.00  0.00    -0.460 OA
BRANCH   5   6
ATOM      6  C   UNL A   1      32.195  26.152  22.158  1.00  0.00     0.339 C 
ATOM      7  O   UNL A   1      31.556  26.108  21.115  1.00  0.00    -0.246 OA
BRANCH   6   8
ATOM      8  C   UNL A   1      31.605  25.767  23.454  1.00  0.00     0.080 A 
ATOM      9  C   UNL A   1      31.760  24.213  25.328  1.00  0.00     0.035 A 
ATOM     10  C   UNL A   1      30.608  24.786  25.868  1.00  0.00     0.027 A 
ATOM     11  C   UNL A   1      32.247  24.706  24.118  1.00  0.00     0.043 A 
ATOM     12  C   UNL A   1      29.982  25.865  25.233  1.00  0.00     0.023 A 
ATOM     13  C   UNL A   1      30.475  26.359  24.022  1.00  0.00     0.055 A 
ATOM     14  Cl  UNL A   1      29.606  27.648  23.278  1.00  0.00    -0.083 Cl
BRANCH   9  15
ATOM     15  N   UNL A   1      32.349  23.098  25.913  1.00  0.00    -0.379 N 
ATOM     16  H   UNL A   1      32.505  23.045  26.883  1.00  0.00     0.160 HD
BRANCH  15  17
ATOM     17  C   UNL A   1      32.726  22.007  25.013  1.00  0.00     0.113 C 
ATOM     18  C   UNL A   1      32.738  18.319  25.407  1.00  0.00     0.042 C 
ATOM     19  C   UNL A   1      32.849  19.665  24.697  1.00  0.00     0.065 C 
ATOM     20  C   UNL A   1      32.526  19.494  23.208  1.00  0.00     0.042 C 
ATOM     21  C   UNL A   1      31.986  20.733  25.364  1.00  0.00     0.062 C 
ATOM     22  O   UNL A   1      34.209  20.131  24.800  1.00  0.00    -0.367 OA
ATOM     23  C   UNL A   1      34.205  21.553  25.095  1.00  0.00     0.083 C 
ATOM     24  C   UNL A   1      34.857  21.698  26.476  1.00  0.00     0.044 C 
ATOM     25  C   UNL A   1      35.070  22.254  24.047  1.00  0.00     0.044 C 
ENDBRANCH  15  17
ENDBRANCH   9  15
ENDBRANCH   6   8
ENDBRANCH   5   6
ENDBRANCH   4   5
ENDBRANCH   3   4
ENDBRANCH   2   3
ENDBRANCH   1   2
BRANCH   1  26
ATOM     26  C   UNL A   1      31.749  30.270  25.701  1.00  0.00     0.261 C 
BRANCH  26  27
ATOM     27  O   UNL A   1      32.223  30.436  27.047  1.00  0.00    -0.460 OA
BRANCH  27  28
ATOM     28  C   UNL A   1      32.911  31.582  27.269  1.00  0.00     0.338 C 
ATOM     29  O   UNL A   1      32.474  32.724  27.217  1.00  0.00    -0.246 OA
BRANCH  28  30
ATOM     30  C   UNL A   1      34.267  31.275  27.761  1.00  0.00     0.060 A 
ATOM     31  C   UNL A   1      34.565  29.935  28.043  1.00  0.00     0.016 A 
ATOM     32  C   UNL A   1      35.209  32.277  28.006  1.00  0.00     0.016 A 
ATOM     33  C   UNL A   1      35.787  29.597  28.621  1.00  0.00     0.010 A 
ATOM     34  C   UNL A   1      36.433  31.935  28.592  1.00  0.00     0.010 A 
ATOM     35  C   UNL A   1      36.713  30.600  28.935  1.00  0.00    -0.014 A 
BRANCH  35  36
ATOM     36  C   UNL A   1      37.919  30.265  29.731  1.00  0.00     0.031 A 
ATOM     37  C   UNL A   1      38.941  29.325  29.153  1.00  0.00     0.074 A 
ATOM     38  C   UNL A   1      38.101  30.793  30.954  1.00  0.00     0.049 A 
ATOM     39  N   UNL A   1      40.052  28.885  29.682  1.00  0.00    -0.248 NA
ATOM     40  C   UNL A   1      38.673  28.809  27.800  1.00  0.00     0.031 C 
ATOM     41  C   UNL A   1      37.181  31.713  31.622  1.00  0.00     0.029 A 
ATOM     42  N   UNL A   1      39.113  30.608  31.863  1.00  0.00    -0.354 N 
ATOM     43  C   UNL A   1      40.604  28.020  28.744  1.00  0.00     0.074 A 
ATOM     44  C   UNL A   1      39.698  27.988  27.616  1.00  0.00     0.031 C 
ATOM     45  C   UNL A   1      37.658  31.990  32.848  1.00  0.00     0.029 A 
ATOM     46  C   UNL A   1      38.902  31.252  33.058  1.00  0.00     0.049 A 
ATOM     47  H   UNL A   1      39.913  30.065  31.676  1.00  0.00     0.167 HD
ATOM     48  C   UNL A   1      41.767  27.329  28.807  1.00  0.00     0.034 A 
ATOM     49  C   UNL A   1      39.620  31.234  34.198  1.00  0.00     0.034 A 
ATOM     50  C   UNL A   1      42.678  27.380  29.918  1.00  0.00     0.049 A 
ATOM     51  C   UNL A   1      40.902  30.443  34.249  1.00  0.00     0.074 A 
ATOM     52  C   UNL A   1      43.907  26.758  30.052  1.00  0.00     0.029 A 
ATOM     53  N   UNL A   1      42.454  28.082  31.093  1.00  0.00    -0.354 N 
ATOM     54  N   UNL A   1      41.475  29.735  33.305  1.00  0.00    -0.248 NA
ATOM     55  C   UNL A   1      41.656  30.475  35.512  1.00  0.00     0.031 C 
ATOM     56  C   UNL A   1      44.416  27.066  31.318  1.00  0.00     0.029 A 
ATOM     57  C   UNL A   1      43.515  27.899  31.963  1.00  0.00     0.049 A 
ATOM     58  H   UNL A   1      41.658  28.630  31.281  1.00  0.00     0.167 HD
ATOM     59  C   UNL A   1      42.669  29.269  33.846  1.00  0.00     0.074 A 
ATOM     60  C   UNL A   1      42.747  29.791  35.195  1.00  0.00     0.031 C 
ATOM     61  C   UNL A   1      43.608  28.469  33.283  1.00  0.00     0.034 A 
BRANCH  48  62
ATOM     62  C   UNL A   1      42.139  26.479  27.621  1.00  0.00     0.023 A 
ATOM     63  C   UNL A   1      42.846  27.055  26.547  1.00  0.00     0.012 A 
ATOM     64  C   UNL A   1      41.840  25.103  27.595  1.00  0.00     0.148 A 
ATOM     65  C   UNL A   1      43.225  26.281  25.450  1.00  0.00     0.002 A 
ATOM     66  C   UNL A   1      42.257  24.330  26.517  1.00  0.00     0.091 A 
ATOM     67  F   UNL A   1      41.146  24.578  28.614  1.00  0.00    -0.205 F 
ATOM     68  C   UNL A   1      42.940  24.919  25.440  1.00  0.00     0.022 A 
BRANCH  66  69
ATOM     69  S   UNL A   1      42.002  22.553  26.446  1.00  0.00     0.127 S 
ATOM     70  O   UNL A   1      40.543  22.463  26.457  1.00  0.00    -0.237 OA
ATOM     71  O   UNL A   1      42.625  22.202  25.169  1.00  0.00    -0.237 OA
ATOM     72  O   UNL A   1      42.673  22.005  27.617  1.00  0.00    -0.744 OA
ENDBRANCH  66  69
ENDBRANCH  48  62
BRANCH  49  73
ATOM     73  C   UNL A   1      39.164  32.022  35.378  1.00  0.00     0.023 A 
ATOM     74  C   UNL A   1      39.398  33.410  35.418  1.00  0.00     0.012 A 
ATOM     75  C   UNL A   1      38.484  31.408  36.448  1.00  0.00     0.148 A 
ATOM     76  C   UNL A   1      38.988  34.168  36.515  1.00  0.00     0.002 A 
ATOM     77  C   UNL A   1      38.031  32.178  37.513  1.00  0.00     0.091 A 
ATOM     78  F   UNL A   1      38.288  30.083  36.400  1.00  0.00    -0.205 F 
ATOM     79  C   UNL A   1      38.295  33.556  37.556  1.00  0.00     0.022 A 
BRANCH  77  80
ATOM     80  S   UNL A   1      37.025  31.495  38.835  1.00  0.00     0.127 S 
ATOM     81  O   UNL A   1      36.781  30.137  38.355  1.00  0.00    -0.237 OA
ATOM     82  O   UNL A   1      37.927  31.591  39.982  1.00  0.00    -0.237 OA
ATOM     83  O   UNL A   1      35.852  32.356  38.922  1.00  0.00    -0.744 OA
ENDBRANCH  77  80
ENDBRANCH  49  73
BRANCH  61  84
ATOM     84  C   UNL A   1      44.825  28.130  34.104  1.00  0.00     0.023 A 
ATOM     85  C   UNL A   1      45.911  29.026  34.149  1.00  0.00     0.012 A 
ATOM     86  C   UNL A   1      44.859  26.964  34.895  1.00  0.00     0.148 A 
ATOM     87  C   UNL A   1      47.024  28.753  34.945  1.00  0.00     0.002 A 
ATOM     88  C   UNL A   1      45.950  26.722  35.722  1.00  0.00     0.091 A 
ATOM     89  F   UNL A   1      43.824  26.113  34.825  1.00  0.00    -0.205 F 
ATOM     90  C   UNL A   1      47.038  27.609  35.739  1.00  0.00     0.022 A 
BRANCH  88  91
ATOM     91  S   UNL A   1      46.012  25.324  36.849  1.00  0.00     0.127 S 
ATOM     92  O   UNL A   1      46.017  24.193  35.923  1.00  0.00    -0.237 OA
ATOM     93  O   UNL A   1      47.277  25.545  37.550  1.00  0.00    -0.237 OA
ATOM     94  O   UNL A   1      44.828  25.437  37.692  1.00  0.00    -0.744 OA
ENDBRANCH  88  91
ENDBRANCH  61  84
ENDBRANCH  35  36
ENDBRANCH  28  30
ENDBRANCH  27  28
ENDBRANCH  26  27
ENDBRANCH   1  26
TORSDOF 19
ENDMDL
MODEL 2
REMARK VINA RESULT:     -11.5      1.416      7.720
REMARK SMILES CC1(C)C[C@@H](Nc2ccc(Cl)c(C(=O)OCCOCCOC(=O)c3ccc(-c4c5nc(c(-c6cccc(S(=O)(=O)[O-])c6F)c6ccc([nH]6)c(-c6cccc(S(=O)(=O)[O-])c6F)c6nc(c(-c7cccc(S(=O)(=O)[O-])c7F)c7ccc4[nH]7)C=C6)C=C5)cc3)c2)C(C)(C)O1
REMARK SMILES IDX 19 1 18 2 17 3 16 4 15 5 13 6 14 7 12 8 7 9 8 10 87 11 9 12
REMARK SMILES IDX 10 13 11 14 6 15 5 17 1 18 2 19 3 20 4 21 91 22 88 23 89 24
REMARK SMILES IDX 90 25 20 26 21 27 22 28 23 29 24 30 25 31 86 32 26 33 85 34
REMARK SMILES IDX 27 35 28 36 29 37 79 38 30 39 84 40 78 41 80 42 31 43 83 44
REMARK SMILES IDX 77 45 76 46 32 48 64 49 44 50 63 51 45 52 48 53 62 54 81 55
REMARK SMILES IDX 46 56 47 57 61 59 82 60 49 61 33 62 34 63 42 64 35 65 37 66
REMARK SMILES IDX 43 67 36 68 38 69 39 70 40 71 41 72 65 73 66 74 74 75 67 76
REMARK SMILES IDX 69 77 75 78 68 79 70 80 71 81 72 82 73 83 50 84 51 85 59 86
REMARK SMILES IDX 52 87 54 88 60 89 53 90 55 91 56 92 57 93 58 94
REMARK H PARENT 6 16 80 47 48 58
REMARK Flexibility Score: inf
ROOT
ATOM      1  C   UNL A   1      31.569  31.855  26.796  1.00  0.00     0.202 C 
ENDROOT
BRANCH   1   2
ATOM      2  O   UNL A   1      32.369  30.717  27.120  1.00  0.00    -0.374 OA
BRANCH   2   3
ATOM      3  C   UNL A   1      32.198  29.554  26.303  1.00  0.00     0.202 C 
BRANCH   3   4
ATOM      4  C   UNL A   1      33.127  29.464  25.091  1.00  0.00     0.261 C 
BRANCH   4   5
ATOM      5  O   UNL A   1      32.355  29.259  23.897  1.00  0.00    -0.460 OA
BRANCH   5   6
ATOM      6  C   UNL A   1      32.926  28.494  22.943  1.00  0.00     0.339 C 
ATOM      7  O   UNL A   1      33.861  28.802  22.215  1.00  0.00    -0.246 OA
BRANCH   6   8
ATOM      8  C   UNL A   1      32.432  27.108  23.038  1.00  0.00     0.080 A 
ATOM      9  C   UNL A   1      33.094  24.762  23.145  1.00  0.00     0.035 A 
ATOM     10  C   UNL A   1      31.745  24.405  23.111  1.00  0.00     0.027 A 
ATOM     11  C   UNL A   1      33.428  26.115  23.101  1.00  0.00     0.043 A 
ATOM     12  C   UNL A   1      30.747  25.385  23.084  1.00  0.00     0.023 A 
ATOM     13  C   UNL A   1      31.085  26.741  23.044  1.00  0.00     0.055 A 
ATOM     14  Cl  UNL A   1      29.793  27.878  22.949  1.00  0.00    -0.083 Cl
BRANCH   9  15
ATOM     15  N   UNL A   1      34.094  23.797  23.102  1.00  0.00    -0.379 N 
ATOM     16  H   UNL A   1      34.217  23.216  22.318  1.00  0.00     0.160 HD
BRANCH  15  17
ATOM     17  C   UNL A   1      34.955  23.691  24.280  1.00  0.00     0.113 C 
ATOM     18  C   UNL A   1      37.833  21.499  25.096  1.00  0.00     0.042 C 
ATOM     19  C   UNL A   1      36.839  22.645  25.258  1.00  0.00     0.065 C 
ATOM     20  C   UNL A   1      37.472  23.767  26.089  1.00  0.00     0.042 C 
ATOM     21  C   UNL A   1      36.316  23.138  23.911  1.00  0.00     0.062 C 
ATOM     22  O   UNL A   1      35.688  22.161  25.979  1.00  0.00    -0.367 OA
ATOM     23  C   UNL A   1      34.483  22.688  25.364  1.00  0.00     0.083 C 
ATOM     24  C   UNL A   1      33.712  21.472  24.838  1.00  0.00     0.044 C 
ATOM     25  C   UNL A   1      33.663  23.380  26.453  1.00  0.00     0.044 C 
ENDBRANCH  15  17
ENDBRANCH   9  15
ENDBRANCH   6   8
ENDBRANCH   5   6
ENDBRANCH   4   5
ENDBRANCH   3   4
ENDBRANCH   2   3
ENDBRANCH   1   2
BRANCH   1  26
ATOM     26  C   UNL A   1      32.271  33.217  26.854  1.00  0.00     0.261 C 
BRANCH  26  27
ATOM     27  O   UNL A   1      32.464  33.677  28.202  1.00  0.00    -0.460 OA
BRANCH  27  28
ATOM     28  C   UNL A   1      33.566  34.442  28.389  1.00  0.00     0.338 C 
ATOM     29  O   UNL A   1      33.616  35.665  28.423  1.00  0.00    -0.246 OA
BRANCH  28  30
ATOM     30  C   UNL A   1      34.724  33.594  28.724  1.00  0.00     0.060 A 
ATOM     31  C   UNL A   1      34.474  32.403  29.419  1.00  0.00     0.016 A 
ATOM     32  C   UNL A   1      36.034  33.980  28.428  1.00  0.00     0.016 A 
ATOM     33  C   UNL A   1      35.535  31.619  29.867  1.00  0.00     0.010 A 
ATOM     34  C   UNL A   1      37.098  33.193  28.884  1.00  0.00     0.010 A 
ATOM     35  C   UNL A   1      36.854  32.030  29.636  1.00  0.00    -0.014 A 
BRANCH  35  36
ATOM     36  C   UNL A   1      37.975  31.307  30.286  1.00  0.00     0.031 A 
ATOM     37  C   UNL A   1      38.322  31.624  31.715  1.00  0.00     0.074 A 
ATOM     38  C   UNL A   1      38.676  30.379  29.610  1.00  0.00     0.049 A 
ATOM     39  N   UNL A   1      39.270  31.128  32.465  1.00  0.00    -0.248 NA
ATOM     40  C   UNL A   1      37.491  32.638  32.386  1.00  0.00     0.031 C 
ATOM     41  C   UNL A   1      38.438  29.987  28.222  1.00  0.00     0.029 A 
ATOM     42  N   UNL A   1      39.750  29.617  29.997  1.00  0.00    -0.354 N 
ATOM     43  C   UNL A   1      39.171  31.785  33.686  1.00  0.00     0.074 A 
ATOM     44  C   UNL A   1      38.077  32.726  33.572  1.00  0.00     0.031 C 
ATOM     45  C   UNL A   1      39.359  29.075  27.863  1.00  0.00     0.029 A 
ATOM     46  C   UNL A   1      40.261  28.837  28.988  1.00  0.00     0.049 A 
ATOM     47  H   UNL A   1      40.118  29.628  30.910  1.00  0.00     0.167 HD
ATOM     48  C   UNL A   1      39.912  31.611  34.806  1.00  0.00     0.034 A 
ATOM     49  C   UNL A   1      41.346  28.037  28.967  1.00  0.00     0.034 A 
ATOM     50  C   UNL A   1      40.984  30.660  34.926  1.00  0.00     0.049 A 
ATOM     51  C   UNL A   1      42.165  27.872  30.222  1.00  0.00     0.074 A 
ATOM     52  C   UNL A   1      41.757  30.371  36.037  1.00  0.00     0.029 A 
ATOM     53  N   UNL A   1      41.443  29.852  33.897  1.00  0.00    -0.354 N 
ATOM     54  N   UNL A   1      41.977  28.404  31.407  1.00  0.00    -0.248 NA
ATOM     55  C   UNL A   1      43.325  26.971  30.148  1.00  0.00     0.031 C 
ATOM     56  C   UNL A   1      42.700  29.404  35.673  1.00  0.00     0.029 A 
ATOM     57  C   UNL A   1      42.498  29.073  34.342  1.00  0.00     0.049 A 
ATOM     58  H   UNL A   1      41.074  29.834  32.985  1.00  0.00     0.167 HD
ATOM     59  C   UNL A   1      42.970  27.876  32.225  1.00  0.00     0.074 A 
ATOM     60  C   UNL A   1      43.746  26.968  31.406  1.00  0.00     0.031 C 
ATOM     61  C   UNL A   1      43.227  28.131  33.532  1.00  0.00     0.034 A 
BRANCH  48  62
ATOM     62  C   UNL A   1      39.566  32.448  36.009  1.00  0.00     0.023 A 
ATOM     63  C   UNL A   1      40.137  33.727  36.154  1.00  0.00     0.012 A 
ATOM     64  C   UNL A   1      38.633  31.993  36.963  1.00  0.00     0.148 A 
ATOM     65  C   UNL A   1      39.810  34.531  37.247  1.00  0.00     0.002 A 
ATOM     66  C   UNL A   1      38.282  32.816  38.027  1.00  0.00     0.091 A 
ATOM     67  F   UNL A   1      38.119  30.764  36.820  1.00  0.00    -0.205 F 
ATOM     68  C   UNL A   1      38.876  34.081  38.175  1.00  0.00     0.022 A 
BRANCH  66  69
ATOM     69  S   UNL A   1      37.034  32.356  39.234  1.00  0.00     0.127 S 
ATOM     70  O   UNL A   1      35.799  32.654  38.510  1.00  0.00    -0.237 OA
ATOM     71  O   UNL A   1      37.299  30.929  39.424  1.00  0.00    -0.237 OA
ATOM     72  O   UNL A   1      37.287  33.180  40.407  1.00  0.00    -0.744 OA
ENDBRANCH  66  69
ENDBRANCH  48  62
BRANCH  49  73
ATOM     73  C   UNL A   1      41.701  27.296  27.724  1.00  0.00     0.023 A 
ATOM     74  C   UNL A   1      42.132  28.011  26.590  1.00  0.00     0.012 A 
ATOM     75  C   UNL A   1      41.635  25.891  27.667  1.00  0.00     0.148 A 
ATOM     76  C   UNL A   1      42.462  27.341  25.411  1.00  0.00     0.002 A 
ATOM     77  C   UNL A   1      42.017  25.226  26.507  1.00  0.00     0.091 A 
ATOM     78  F   UNL A   1      41.205  25.230  28.751  1.00  0.00    -0.205 F 
ATOM     79  C   UNL A   1      42.416  25.950  25.373  1.00  0.00     0.022 A 
BRANCH  77  80
ATOM     80  S   UNL A   1      42.107  23.435  26.409  1.00  0.00     0.127 S 
ATOM     81  O   UNL A   1      40.703  23.057  26.548  1.00  0.00    -0.237 OA
ATOM     82  O   UNL A   1      42.670  23.233  25.073  1.00  0.00    -0.237 OA
ATOM     83  O   UNL A   1      42.984  23.025  27.497  1.00  0.00    -0.744 OA
ENDBRANCH  77  80
ENDBRANCH  49  73
BRANCH  61  84
ATOM     84  C   UNL A   1      44.373  27.397  34.179  1.00  0.00     0.023 A 
ATOM     85  C   UNL A   1      45.630  28.022  34.291  1.00  0.00     0.012 A 
ATOM     86  C   UNL A   1      44.182  26.122  34.749  1.00  0.00     0.148 A 
ATOM     87  C   UNL A   1      46.688  27.378  34.934  1.00  0.00     0.002 A 
ATOM     88  C   UNL A   1      45.226  25.506  35.429  1.00  0.00     0.091 A 
ATOM     89  F   UNL A   1      42.983  25.535  34.616  1.00  0.00    -0.205 F 
ATOM     90  C   UNL A   1      46.483  26.127  35.512  1.00  0.00     0.022 A 
BRANCH  88  91
ATOM     91  S   UNL A   1      45.027  23.940  36.286  1.00  0.00     0.127 S 
ATOM     92  O   UNL A   1      46.376  23.381  36.205  1.00  0.00    -0.237 OA
ATOM     93  O   UNL A   1      44.623  24.366  37.626  1.00  0.00    -0.237 OA
ATOM     94  O   UNL A   1      44.002  23.210  35.551  1.00  0.00    -0.744 OA
ENDBRANCH  88  91
ENDBRANCH  61  84
ENDBRANCH  35  36
ENDBRANCH  28  30
ENDBRANCH  27  28
ENDBRANCH  26  27
ENDBRANCH   1  26
TORSDOF 19
ENDMDL
MODEL 3
REMARK VINA RESULT:     -11.1      2.199      3.222
REMARK SMILES CC1(C)C[C@@H](Nc2ccc(Cl)c(C(=O)OCCOCCOC(=O)c3ccc(-c4c5nc(c(-c6cccc(S(=O)(=O)[O-])c6F)c6ccc([nH]6)c(-c6cccc(S(=O)(=O)[O-])c6F)c6nc(c(-c7cccc(S(=O)(=O)[O-])c7F)c7ccc4[nH]7)C=C6)C=C5)cc3)c2)C(C)(C)O1
REMARK SMILES IDX 19 1 18 2 17 3 16 4 15 5 13 6 14 7 12 8 7 9 8 10 87 11 9 12
REMARK SMILES IDX 10 13 11 14 6 15 5 17 1 18 2 19 3 20 4 21 91 22 88 23 89 24
REMARK SMILES IDX 90 25 20 26 21 27 22 28 23 29 24 30 25 31 86 32 26 33 85 34
REMARK SMILES IDX 27 35 28 36 29 37 79 38 30 39 84 40 78 41 80 42 31 43 83 44
REMARK SMILES IDX 77 45 76 46 32 48 64 49 44 50 63 51 45 52 48 53 62 54 81 55
REMARK SMILES IDX 46 56 47 57 61 59 82 60 49 61 33 62 34 63 42 64 35 65 37 66
REMARK SMILES IDX 43 67 36 68 38 69 39 70 40 71 41 72 65 73 66 74 74 75 67 76
REMARK SMILES IDX 69 77 75 78 68 79 70 80 71 81 72 82 73 83 50 84 51 85 59 86
REMARK SMILES IDX 52 87 54 88 60 89 53 90 55 91 56 92 57 93 58 94
REMARK H PARENT 6 16 80 47 48 58
REMARK Flexibility Score: inf
ROOT
ATOM      1  C   UNL A   1      32.436  32.308  27.178  1.00  0.00     0.202 C 
ENDROOT
BRANCH   1   2
ATOM      2  O   UNL A   1      33.521  31.493  27.624  1.00  0.00    -0.374 OA
BRANCH   2   3
ATOM      3  C   UNL A   1      33.517  30.125  27.203  1.00  0.00     0.202 C 
BRANCH   3   4
ATOM      4  C   UNL A   1      32.453  29.763  26.164  1.00  0.00     0.261 C 
BRANCH   4   5
ATOM      5  O   UNL A   1      32.693  28.441  25.656  1.00  0.00    -0.460 OA
BRANCH   5   6
ATOM      6  C   UNL A   1      32.918  28.345  24.330  1.00  0.00     0.339 C 
ATOM      7  O   UNL A   1      33.535  29.137  23.629  1.00  0.00    -0.246 OA
BRANCH   6   8
ATOM      8  C   UNL A   1      32.525  27.010  23.842  1.00  0.00     0.080 A 
ATOM      9  C   UNL A   1      33.336  24.780  23.274  1.00  0.00     0.035 A 
ATOM     10  C   UNL A   1      32.051  24.449  22.844  1.00  0.00     0.027 A 
ATOM     11  C   UNL A   1      33.565  26.065  23.765  1.00  0.00     0.043 A 
ATOM     12  C   UNL A   1      31.002  25.370  22.948  1.00  0.00     0.023 A 
ATOM     13  C   UNL A   1      31.234  26.656  23.444  1.00  0.00     0.055 A 
ATOM     14  Cl  UNL A   1      29.900  27.746  23.479  1.00  0.00    -0.083 Cl
BRANCH   9  15
ATOM     15  N   UNL A   1      34.398  23.898  23.111  1.00  0.00    -0.379 N 
ATOM     16  H   UNL A   1      34.573  23.454  22.250  1.00  0.00     0.160 HD
BRANCH  15  17
ATOM     17  C   UNL A   1      35.243  23.665  24.283  1.00  0.00     0.113 C 
ATOM     18  C   UNL A   1      37.897  21.177  25.006  1.00  0.00     0.042 C 
ATOM     19  C   UNL A   1      37.017  22.406  25.215  1.00  0.00     0.065 C 
ATOM     20  C   UNL A   1      37.753  23.430  26.088  1.00  0.00     0.042 C 
ATOM     21  C   UNL A   1      36.545  22.999  23.890  1.00  0.00     0.062 C 
ATOM     22  O   UNL A   1      35.824  22.006  25.919  1.00  0.00    -0.367 OA
ATOM     23  C   UNL A   1      34.676  22.670  25.328  1.00  0.00     0.083 C 
ATOM     24  C   UNL A   1      33.793  21.554  24.756  1.00  0.00     0.044 C 
ATOM     25  C   UNL A   1      33.924  23.394  26.445  1.00  0.00     0.044 C 
ENDBRANCH  15  17
ENDBRANCH   9  15
ENDBRANCH   6   8
ENDBRANCH   5   6
ENDBRANCH   4   5
ENDBRANCH   3   4
ENDBRANCH   2   3
ENDBRANCH   1   2
BRANCH   1  26
ATOM     26  C   UNL A   1      32.645  33.825  27.268  1.00  0.00     0.261 C 
BRANCH  26  27
ATOM     27  O   UNL A   1      32.317  34.346  28.567  1.00  0.00    -0.460 OA
BRANCH  27  28
ATOM     28  C   UNL A   1      33.265  35.145  29.114  1.00  0.00     0.338 C 
ATOM     29  O   UNL A   1      33.174  36.344  29.343  1.00  0.00    -0.246 OA
BRANCH  28  30
ATOM     30  C   UNL A   1      34.410  34.337  29.571  1.00  0.00     0.060 A 
ATOM     31  C   UNL A   1      34.169  33.373  30.559  1.00  0.00     0.016 A 
ATOM     32  C   UNL A   1      35.706  34.557  29.097  1.00  0.00     0.016 A 
ATOM     33  C   UNL A   1      35.229  32.661  31.115  1.00  0.00     0.010 A 
ATOM     34  C   UNL A   1      36.770  33.844  29.662  1.00  0.00     0.010 A 
ATOM     35  C   UNL A   1      36.541  32.920  30.697  1.00  0.00    -0.014 A 
BRANCH  35  36
ATOM     36  C   UNL A   1      37.680  32.314  31.428  1.00  0.00     0.031 A 
ATOM     37  C   UNL A   1      38.425  31.165  30.804  1.00  0.00     0.074 A 
ATOM     38  C   UNL A   1      38.047  32.781  32.635  1.00  0.00     0.049 A 
ATOM     39  N   UNL A   1      39.432  30.479  31.275  1.00  0.00    -0.248 NA
ATOM     40  C   UNL A   1      37.969  30.730  29.473  1.00  0.00     0.031 C 
ATOM     41  C   UNL A   1      37.403  33.885  33.344  1.00  0.00     0.029 A 
ATOM     42  N   UNL A   1      39.038  32.364  33.488  1.00  0.00    -0.354 N 
ATOM     43  C   UNL A   1      39.717  29.514  30.315  1.00  0.00     0.074 A 
ATOM     44  C   UNL A   1      38.766  29.696  29.239  1.00  0.00     0.031 C 
ATOM     45  C   UNL A   1      37.998  34.041  34.539  1.00  0.00     0.029 A 
ATOM     46  C   UNL A   1      39.049  33.035  34.687  1.00  0.00     0.049 A 
ATOM     47  H   UNL A   1      39.681  31.652  33.262  1.00  0.00     0.167 HD
ATOM     48  C   UNL A   1      40.691  28.573  30.320  1.00  0.00     0.034 A 
ATOM     49  C   UNL A   1      39.806  32.847  35.786  1.00  0.00     0.034 A 
ATOM     50  C   UNL A   1      41.650  28.409  31.379  1.00  0.00     0.049 A 
ATOM     51  C   UNL A   1      40.873  31.782  35.773  1.00  0.00     0.074 A 
ATOM     52  C   UNL A   1      42.708  27.520  31.450  1.00  0.00     0.029 A 
ATOM     53  N   UNL A   1      41.660  29.139  32.557  1.00  0.00    -0.354 N 
ATOM     54  N   UNL A   1      41.213  30.965  34.805  1.00  0.00    -0.248 NA
ATOM     55  C   UNL A   1      41.683  31.635  36.992  1.00  0.00     0.031 C 
ATOM     56  C   UNL A   1      43.344  27.697  32.683  1.00  0.00     0.029 A 
ATOM     57  C   UNL A   1      42.697  28.713  33.369  1.00  0.00     0.049 A 
ATOM     58  H   UNL A   1      41.023  29.855  32.784  1.00  0.00     0.167 HD
ATOM     59  C   UNL A   1      42.295  30.234  35.283  1.00  0.00     0.074 A 
ATOM     60  C   UNL A   1      42.567  30.719  36.621  1.00  0.00     0.031 C 
ATOM     61  C   UNL A   1      42.992  29.241  34.676  1.00  0.00     0.034 A 
BRANCH  48  62
ATOM     62  C   UNL A   1      40.790  27.665  29.123  1.00  0.00     0.023 A 
ATOM     63  C   UNL A   1      39.972  26.521  29.049  1.00  0.00     0.012 A 
ATOM     64  C   UNL A   1      41.648  27.975  28.049  1.00  0.00     0.148 A 
ATOM     65  C   UNL A   1      40.027  25.680  27.937  1.00  0.00     0.002 A 
ATOM     66  C   UNL A   1      41.667  27.154  26.927  1.00  0.00     0.091 A 
ATOM     67  F   UNL A   1      42.435  29.055  28.149  1.00  0.00    -0.205 F 
ATOM     68  C   UNL A   1      40.865  26.002  26.873  1.00  0.00     0.022 A 
BRANCH  66  69
ATOM     69  S   UNL A   1      42.659  27.525  25.475  1.00  0.00     0.127 S 
ATOM     70  O   UNL A   1      42.402  26.355  24.636  1.00  0.00    -0.237 OA
ATOM     71  O   UNL A   1      42.050  28.766  24.995  1.00  0.00    -0.237 OA
ATOM     72  O   UNL A   1      44.028  27.667  25.951  1.00  0.00    -0.744 OA
ENDBRANCH  66  69
ENDBRANCH  48  62
BRANCH  49  73
ATOM     73  C   UNL A   1      39.611  33.714  36.982  1.00  0.00     0.023 A 
ATOM     74  C   UNL A   1      40.104  35.033  36.971  1.00  0.00     0.012 A 
ATOM     75  C   UNL A   1      38.922  33.247  38.118  1.00  0.00     0.148 A 
ATOM     76  C   UNL A   1      39.941  35.862  38.081  1.00  0.00     0.002 A 
ATOM     77  C   UNL A   1      38.716  34.096  39.200  1.00  0.00     0.091 A 
ATOM     78  F   UNL A   1      38.477  31.984  38.117  1.00  0.00    -0.205 F 
ATOM     79  C   UNL A   1      39.238  35.399  39.190  1.00  0.00     0.022 A 
BRANCH  77  80
ATOM     80  S   UNL A   1      37.717  33.625  40.617  1.00  0.00     0.127 S 
ATOM     81  O   UNL A   1      38.689  32.918  41.446  1.00  0.00    -0.237 OA
ATOM     82  O   UNL A   1      37.295  34.926  41.135  1.00  0.00    -0.237 OA
ATOM     83  O   UNL A   1      36.633  32.813  40.080  1.00  0.00    -0.744 OA
ENDBRANCH  77  80
ENDBRANCH  49  73
BRANCH  61  84
ATOM     84  C   UNL A   1      44.143  28.628  35.432  1.00  0.00     0.023 A 
ATOM     85  C   UNL A   1      45.444  29.139  35.262  1.00  0.00     0.012 A 
ATOM     86  C   UNL A   1      43.922  27.600  36.371  1.00  0.00     0.148 A 
ATOM     87  C   UNL A   1      46.512  28.619  35.992  1.00  0.00     0.002 A 
ATOM     88  C   UNL A   1      44.983  27.118  37.130  1.00  0.00     0.091 A 
ATOM     89  F   UNL A   1      42.680  27.113  36.506  1.00  0.00    -0.205 F 
ATOM     90  C   UNL A   1      46.280  27.618  36.933  1.00  0.00     0.022 A 
BRANCH  88  91
ATOM     91  S   UNL A   1      44.761  25.899  38.430  1.00  0.00     0.127 S 
ATOM     92  O   UNL A   1      46.128  25.732  38.920  1.00  0.00    -0.237 OA
ATOM     93  O   UNL A   1      43.861  26.588  39.355  1.00  0.00    -0.237 OA
ATOM     94  O   UNL A   1      44.180  24.727  37.785  1.00  0.00    -0.744 OA
ENDBRANCH  88  91
ENDBRANCH  61  84
ENDBRANCH  35  36
ENDBRANCH  28  30
ENDBRANCH  27  28
ENDBRANCH  26  27
ENDBRANCH   1  26
TORSDOF 19
ENDMDL
