MODEL 1
REMARK VINA RESULT:      -9.5      0.000      0.000
REMARK SMILES O=C(CSc1ccc2ccccc2c1)OCCOCCOC(=O)c1ccc(-c2c3nc(c(-c4cccc(S(=O)(=O)[O-])c4F)c4ccc([nH]4)c(-c4cccc(S(=O)(=O)[O-])c4F)c4nc(c(-c5cccc(S(=O)(=O)[O-])c5F)c5ccc2[nH]5)C=C4)C=C3)cc1
REMARK SMILES IDX 19 1 18 2 17 3 16 4 15 5 2 6 1 7 3 8 4 9 5 10 6 11 14 12
REMARK SMILES IDX 7 13 13 14 8 15 12 16 9 17 11 18 10 19 20 20 21 21 22 22
REMARK SMILES IDX 23 23 24 24 25 25 86 26 26 27 85 28 27 29 28 30 29 31 79 32
REMARK SMILES IDX 30 33 84 34 78 35 80 36 31 37 83 38 77 39 76 40 32 42 64 43
REMARK SMILES IDX 44 44 63 45 45 46 48 47 62 48 81 49 46 50 47 51 61 53 82 54
REMARK SMILES IDX 49 55 33 56 34 57 42 58 35 59 37 60 43 61 36 62 38 63 39 64
REMARK SMILES IDX 40 65 41 66 65 67 66 68 74 69 67 70 69 71 75 72 68 73 70 74
REMARK SMILES IDX 71 75 72 76 73 77 50 78 51 79 59 80 52 81 54 82 60 83 53 84
REMARK SMILES IDX 55 85 56 86 57 87 58 88
REMARK H PARENT 80 41 48 52
REMARK Flexibility Score: inf
ROOT
ATOM      1  C   UNL A   1      34.061  35.312  28.463  1.00  0.00     0.202 C 
ENDROOT
BRANCH   1   2
ATOM      2  O   UNL A   1      33.048  36.129  29.064  1.00  0.00    -0.374 OA
BRANCH   2   3
ATOM      3  C   UNL A   1      32.646  35.774  30.383  1.00  0.00     0.202 C 
BRANCH   3   4
ATOM      4  C   UNL A   1      33.740  35.632  31.437  1.00  0.00     0.261 C 
BRANCH   4   5
ATOM      5  O   UNL A   1      33.575  34.510  32.315  1.00  0.00    -0.463 OA
BRANCH   5   6
ATOM      6  C   UNL A   1      34.302  33.372  32.301  1.00  0.00     0.316 C 
ATOM      7  O   UNL A   1      34.246  32.652  31.300  1.00  0.00    -0.251 OA
BRANCH   6   8
ATOM      8  C   UNL A   1      35.118  32.934  33.493  1.00  0.00     0.197 C 
BRANCH   8   9
ATOM      9  S   UNL A   1      35.894  34.239  34.491  1.00  0.00    -0.114 SA
BRANCH   9  10
ATOM     10  C   UNL A   1      37.454  34.423  33.666  1.00  0.00     0.008 A 
ATOM     11  C   UNL A   1      38.604  34.426  34.452  1.00  0.00     0.016 A 
ATOM     12  C   UNL A   1      37.570  34.547  32.280  1.00  0.00     0.023 A 
ATOM     13  C   UNL A   1      39.861  34.470  33.853  1.00  0.00     0.010 A 
ATOM     14  C   UNL A   1      38.822  34.522  31.659  1.00  0.00    -0.017 A 
ATOM     15  C   UNL A   1      39.985  34.484  32.456  1.00  0.00    -0.018 A 
ATOM     16  C   UNL A   1      38.929  34.507  30.261  1.00  0.00     0.009 A 
ATOM     17  C   UNL A   1      41.236  34.450  31.827  1.00  0.00     0.009 A 
ATOM     18  C   UNL A   1      40.180  34.445  29.653  1.00  0.00     0.001 A 
ATOM     19  C   UNL A   1      41.332  34.423  30.434  1.00  0.00     0.001 A 
ENDBRANCH   9  10
ENDBRANCH   8   9
ENDBRANCH   6   8
ENDBRANCH   5   6
ENDBRANCH   4   5
ENDBRANCH   3   4
ENDBRANCH   2   3
ENDBRANCH   1   2
BRANCH   1  20
ATOM     20  C   UNL A   1      33.694  33.856  28.163  1.00  0.00     0.261 C 
BRANCH  20  21
ATOM     21  O   UNL A   1      34.859  33.056  27.916  1.00  0.00    -0.460 OA
BRANCH  21  22
ATOM     22  C   UNL A   1      34.661  31.724  28.038  1.00  0.00     0.338 C 
ATOM     23  O   UNL A   1      33.611  31.119  27.861  1.00  0.00    -0.246 OA
BRANCH  22  24
ATOM     24  C   UNL A   1      35.956  31.040  28.204  1.00  0.00     0.060 A 
ATOM     25  C   UNL A   1      35.918  29.698  28.606  1.00  0.00     0.016 A 
ATOM     26  C   UNL A   1      37.176  31.690  28.003  1.00  0.00     0.016 A 
ATOM     27  C   UNL A   1      37.098  29.031  28.902  1.00  0.00     0.010 A 
ATOM     28  C   UNL A   1      38.363  31.016  28.302  1.00  0.00     0.010 A 
ATOM     29  C   UNL A   1      38.322  29.706  28.808  1.00  0.00    -0.014 A 
BRANCH  29  30
ATOM     30  C   UNL A   1      39.519  29.077  29.408  1.00  0.00     0.031 A 
ATOM     31  C   UNL A   1      40.048  29.618  30.708  1.00  0.00     0.074 A 
ATOM     32  C   UNL A   1      40.071  27.992  28.839  1.00  0.00     0.049 A 
ATOM     33  N   UNL A   1      41.033  29.180  31.446  1.00  0.00    -0.248 NA
ATOM     34  C   UNL A   1      39.377  30.814  31.252  1.00  0.00     0.031 C 
ATOM     35  C   UNL A   1      39.640  27.391  27.578  1.00  0.00     0.029 A 
ATOM     36  N   UNL A   1      41.121  27.212  29.246  1.00  0.00    -0.354 N 
ATOM     37  C   UNL A   1      41.109  30.048  32.530  1.00  0.00     0.074 A 
ATOM     38  C   UNL A   1      40.092  31.056  32.340  1.00  0.00     0.031 C 
ATOM     39  C   UNL A   1      40.434  26.342  27.303  1.00  0.00     0.029 A 
ATOM     40  C   UNL A   1      41.436  26.213  28.358  1.00  0.00     0.049 A 
ATOM     41  H   UNL A   1      41.602  27.353  30.093  1.00  0.00     0.167 HD
ATOM     42  C   UNL A   1      41.937  29.994  33.600  1.00  0.00     0.034 A 
ATOM     43  C   UNL A   1      42.434  25.308  28.389  1.00  0.00     0.034 A 
ATOM     44  C   UNL A   1      42.942  28.981  33.784  1.00  0.00     0.049 A 
ATOM     45  C   UNL A   1      43.348  25.278  29.584  1.00  0.00     0.074 A 
ATOM     46  C   UNL A   1      43.818  28.819  34.842  1.00  0.00     0.029 A 
ATOM     47  N   UNL A   1      43.211  27.963  32.882  1.00  0.00    -0.354 N 
ATOM     48  N   UNL A   1      43.340  26.040  30.652  1.00  0.00    -0.248 NA
ATOM     49  C   UNL A   1      44.383  24.235  29.598  1.00  0.00     0.031 C 
ATOM     50  C   UNL A   1      44.637  27.719  34.565  1.00  0.00     0.029 A 
ATOM     51  C   UNL A   1      44.245  27.172  33.354  1.00  0.00     0.049 A 
ATOM     52  H   UNL A   1      42.737  27.823  32.031  1.00  0.00     0.167 HD
ATOM     53  C   UNL A   1      44.347  25.551  31.476  1.00  0.00     0.074 A 
ATOM     54  C   UNL A   1      44.919  24.405  30.799  1.00  0.00     0.031 C 
ATOM     55  C   UNL A   1      44.776  26.016  32.678  1.00  0.00     0.034 A 
BRANCH  42  56
ATOM     56  C   UNL A   1      41.769  31.043  34.668  1.00  0.00     0.023 A 
ATOM     57  C   UNL A   1      40.776  30.882  35.657  1.00  0.00     0.012 A 
ATOM     58  C   UNL A   1      42.624  32.162  34.728  1.00  0.00     0.148 A 
ATOM     59  C   UNL A   1      40.618  31.828  36.668  1.00  0.00     0.002 A 
ATOM     60  C   UNL A   1      42.491  33.077  35.765  1.00  0.00     0.091 A 
ATOM     61  F   UNL A   1      43.548  32.311  33.767  1.00  0.00    -0.205 F 
ATOM     62  C   UNL A   1      41.482  32.919  36.729  1.00  0.00     0.022 A 
BRANCH  60  63
ATOM     63  S   UNL A   1      43.600  34.474  35.979  1.00  0.00     0.127 S 
ATOM     64  O   UNL A   1      43.397  35.205  34.728  1.00  0.00    -0.237 OA
ATOM     65  O   UNL A   1      43.043  35.126  37.164  1.00  0.00    -0.237 OA
ATOM     66  O   UNL A   1      44.930  33.910  36.160  1.00  0.00    -0.744 OA
ENDBRANCH  60  63
ENDBRANCH  42  56
BRANCH  43  67
ATOM     67  C   UNL A   1      42.605  24.351  27.261  1.00  0.00     0.023 A 
ATOM     68  C   UNL A   1      43.332  24.730  26.116  1.00  0.00     0.012 A 
ATOM     69  C   UNL A   1      42.056  23.056  27.328  1.00  0.00     0.148 A 
ATOM     70  C   UNL A   1      43.476  23.849  25.043  1.00  0.00     0.002 A 
ATOM     71  C   UNL A   1      42.257  22.163  26.284  1.00  0.00     0.091 A 
ATOM     72  F   UNL A   1      41.354  22.720  28.420  1.00  0.00    -0.205 F 
ATOM     73  C   UNL A   1      42.949  22.563  25.131  1.00  0.00     0.022 A 
BRANCH  71  74
ATOM     74  S   UNL A   1      41.731  20.448  26.376  1.00  0.00     0.127 S 
ATOM     75  O   UNL A   1      42.474  19.847  25.274  1.00  0.00    -0.237 OA
ATOM     76  O   UNL A   1      42.188  20.065  27.712  1.00  0.00    -0.237 OA
ATOM     77  O   UNL A   1      40.282  20.474  26.225  1.00  0.00    -0.744 OA
ENDBRANCH  71  74
ENDBRANCH  43  67
BRANCH  55  78
ATOM     78  C   UNL A   1      45.900  25.264  33.343  1.00  0.00     0.023 A 
ATOM     79  C   UNL A   1      47.233  25.684  33.160  1.00  0.00     0.012 A 
ATOM     80  C   UNL A   1      45.633  24.159  34.175  1.00  0.00     0.148 A 
ATOM     81  C   UNL A   1      48.285  24.982  33.747  1.00  0.00     0.002 A 
ATOM     82  C   UNL A   1      46.683  23.499  34.803  1.00  0.00     0.091 A 
ATOM     83  F   UNL A   1      44.361  23.764  34.327  1.00  0.00    -0.205 F 
ATOM     84  C   UNL A   1      48.009  23.897  34.575  1.00  0.00     0.022 A 
BRANCH  82  85
ATOM     85  S   UNL A   1      46.414  22.153  35.961  1.00  0.00     0.127 S 
ATOM     86  O   UNL A   1      47.779  21.687  36.198  1.00  0.00    -0.237 OA
ATOM     87  O   UNL A   1      45.799  22.840  37.097  1.00  0.00    -0.237 OA
ATOM     88  O   UNL A   1      45.537  21.209  35.282  1.00  0.00    -0.744 OA
ENDBRANCH  82  85
ENDBRANCH  55  78
ENDBRANCH  29  30
ENDBRANCH  22  24
ENDBRANCH  21  22
ENDBRANCH  20  21
ENDBRANCH   1  20
TORSDOF 19
ENDMDL
MODEL 2
REMARK VINA RESULT:      -9.4      3.737      6.565
REMARK SMILES O=C(CSc1ccc2ccccc2c1)OCCOCCOC(=O)c1ccc(-c2c3nc(c(-c4cccc(S(=O)(=O)[O-])c4F)c4ccc([nH]4)c(-c4cccc(S(=O)(=O)[O-])c4F)c4nc(c(-c5cccc(S(=O)(=O)[O-])c5F)c5ccc2[nH]5)C=C4)C=C3)cc1
REMARK SMILES IDX 19 1 18 2 17 3 16 4 15 5 2 6 1 7 3 8 4 9 5 10 6 11 14 12
REMARK SMILES IDX 7 13 13 14 8 15 12 16 9 17 11 18 10 19 20 20 21 21 22 22
REMARK SMILES IDX 23 23 24 24 25 25 86 26 26 27 85 28 27 29 28 30 29 31 79 32
REMARK SMILES IDX 30 33 84 34 78 35 80 36 31 37 83 38 77 39 76 40 32 42 64 43
REMARK SMILES IDX 44 44 63 45 45 46 48 47 62 48 81 49 46 50 47 51 61 53 82 54
REMARK SMILES IDX 49 55 33 56 34 57 42 58 35 59 37 60 43 61 36 62 38 63 39 64
REMARK SMILES IDX 40 65 41 66 65 67 66 68 74 69 67 70 69 71 75 72 68 73 70 74
REMARK SMILES IDX 71 75 72 76 73 77 50 78 51 79 59 80 52 81 54 82 60 83 53 84
REMARK SMILES IDX 55 85 56 86 57 87 58 88
REMARK H PARENT 80 41 48 52
REMARK Flexibility Score: inf
ROOT
ATOM      1  C   UNL A   1      31.605  29.798  25.331  1.00  0.00     0.202 C 
ENDROOT
BRANCH   1   2
ATOM      2  O   UNL A   1      30.636  29.731  24.278  1.00  0.00    -0.374 OA
BRANCH   2   3
ATOM      3  C   UNL A   1      30.817  28.697  23.314  1.00  0.00     0.202 C 
BRANCH   3   4
ATOM      4  C   UNL A   1      29.992  27.426  23.483  1.00  0.00     0.261 C 
BRANCH   4   5
ATOM      5  O   UNL A   1      30.215  26.734  24.720  1.00  0.00    -0.463 OA
BRANCH   5   6
ATOM      6  C   UNL A   1      31.185  25.824  24.961  1.00  0.00     0.316 C 
ATOM      7  O   UNL A   1      32.331  26.230  25.173  1.00  0.00    -0.251 OA
BRANCH   6   8
ATOM      8  C   UNL A   1      30.914  24.340  24.910  1.00  0.00     0.197 C 
BRANCH   8   9
ATOM      9  S   UNL A   1      31.151  23.401  26.448  1.00  0.00    -0.114 SA
BRANCH   9  10
ATOM     10  C   UNL A   1      32.725  22.640  26.148  1.00  0.00     0.008 A 
ATOM     11  C   UNL A   1      32.729  21.326  25.686  1.00  0.00     0.016 A 
ATOM     12  C   UNL A   1      33.939  23.303  26.338  1.00  0.00     0.023 A 
ATOM     13  C   UNL A   1      33.930  20.708  25.342  1.00  0.00     0.010 A 
ATOM     14  C   UNL A   1      35.145  22.726  25.933  1.00  0.00    -0.017 A 
ATOM     15  C   UNL A   1      35.141  21.408  25.428  1.00  0.00    -0.018 A 
ATOM     16  C   UNL A   1      36.345  23.448  25.998  1.00  0.00     0.009 A 
ATOM     17  C   UNL A   1      36.352  20.839  25.014  1.00  0.00     0.009 A 
ATOM     18  C   UNL A   1      37.535  22.876  25.557  1.00  0.00     0.001 A 
ATOM     19  C   UNL A   1      37.539  21.571  25.072  1.00  0.00     0.001 A 
ENDBRANCH   9  10
ENDBRANCH   8   9
ENDBRANCH   6   8
ENDBRANCH   5   6
ENDBRANCH   4   5
ENDBRANCH   3   4
ENDBRANCH   2   3
ENDBRANCH   1   2
BRANCH   1  20
ATOM     20  C   UNL A   1      31.623  31.071  26.182  1.00  0.00     0.261 C 
BRANCH  20  21
ATOM     21  O   UNL A   1      32.537  30.959  27.282  1.00  0.00    -0.460 OA
BRANCH  21  22
ATOM     22  C   UNL A   1      33.316  32.048  27.476  1.00  0.00     0.338 C 
ATOM     23  O   UNL A   1      32.944  33.212  27.556  1.00  0.00    -0.246 OA
BRANCH  22  24
ATOM     24  C   UNL A   1      34.689  31.626  27.808  1.00  0.00     0.060 A 
ATOM     25  C   UNL A   1      34.899  30.256  28.015  1.00  0.00     0.016 A 
ATOM     26  C   UNL A   1      35.740  32.536  27.942  1.00  0.00     0.016 A 
ATOM     27  C   UNL A   1      36.136  29.804  28.452  1.00  0.00     0.010 A 
ATOM     28  C   UNL A   1      36.984  32.079  28.383  1.00  0.00     0.010 A 
ATOM     29  C   UNL A   1      37.166  30.721  28.694  1.00  0.00    -0.014 A 
BRANCH  29  30
ATOM     30  C   UNL A   1      38.360  30.257  29.435  1.00  0.00     0.031 A 
ATOM     31  C   UNL A   1      38.558  30.719  30.853  1.00  0.00     0.074 A 
ATOM     32  C   UNL A   1      39.204  29.376  28.874  1.00  0.00     0.049 A 
ATOM     33  N   UNL A   1      39.487  30.383  31.709  1.00  0.00    -0.248 NA
ATOM     34  C   UNL A   1      37.580  31.688  31.378  1.00  0.00     0.031 C 
ATOM     35  C   UNL A   1      39.107  28.869  27.506  1.00  0.00     0.029 A 
ATOM     36  N   UNL A   1      40.317  28.761  29.385  1.00  0.00    -0.354 N 
ATOM     37  C   UNL A   1      39.214  31.105  32.865  1.00  0.00     0.074 A 
ATOM     38  C   UNL A   1      38.053  31.921  32.593  1.00  0.00     0.031 C 
ATOM     39  C   UNL A   1      40.133  28.030  27.279  1.00  0.00     0.029 A 
ATOM     40  C   UNL A   1      40.964  27.959  28.477  1.00  0.00     0.049 A 
ATOM     41  H   UNL A   1      40.622  28.882  30.313  1.00  0.00     0.167 HD
ATOM     42  C   UNL A   1      39.860  31.073  34.055  1.00  0.00     0.034 A 
ATOM     43  C   UNL A   1      42.111  27.261  28.599  1.00  0.00     0.034 A 
ATOM     44  C   UNL A   1      41.011  30.252  34.318  1.00  0.00     0.049 A 
ATOM     45  C   UNL A   1      42.816  27.252  29.929  1.00  0.00     0.074 A 
ATOM     46  C   UNL A   1      41.728  30.124  35.494  1.00  0.00     0.029 A 
ATOM     47  N   UNL A   1      41.620  29.424  33.387  1.00  0.00    -0.354 N 
ATOM     48  N   UNL A   1      42.486  27.857  31.045  1.00  0.00    -0.248 NA
ATOM     49  C   UNL A   1      44.028  26.428  30.028  1.00  0.00     0.031 C 
ATOM     50  C   UNL A   1      42.789  29.241  35.265  1.00  0.00     0.029 A 
ATOM     51  C   UNL A   1      42.710  28.788  33.957  1.00  0.00     0.049 A 
ATOM     52  H   UNL A   1      41.323  29.307  32.456  1.00  0.00     0.167 HD
ATOM     53  C   UNL A   1      43.433  27.466  31.985  1.00  0.00     0.074 A 
ATOM     54  C   UNL A   1      44.326  26.543  31.315  1.00  0.00     0.031 C 
ATOM     55  C   UNL A   1      43.566  27.847  33.281  1.00  0.00     0.034 A 
BRANCH  42  56
ATOM     56  C   UNL A   1      39.316  31.928  35.170  1.00  0.00     0.023 A 
ATOM     57  C   UNL A   1      38.351  31.398  36.051  1.00  0.00     0.012 A 
ATOM     58  C   UNL A   1      39.796  33.236  35.381  1.00  0.00     0.148 A 
ATOM     59  C   UNL A   1      37.851  32.163  37.103  1.00  0.00     0.002 A 
ATOM     60  C   UNL A   1      39.328  33.977  36.460  1.00  0.00     0.091 A 
ATOM     61  F   UNL A   1      40.697  33.732  34.520  1.00  0.00    -0.205 F 
ATOM     62  C   UNL A   1      38.347  33.447  37.314  1.00  0.00     0.022 A 
BRANCH  60  63
ATOM     63  S   UNL A   1      39.957  35.610  36.865  1.00  0.00     0.127 S 
ATOM     64  O   UNL A   1      41.387  35.345  37.023  1.00  0.00    -0.237 OA
ATOM     65  O   UNL A   1      39.608  36.376  35.669  1.00  0.00    -0.237 OA
ATOM     66  O   UNL A   1      39.263  36.020  38.077  1.00  0.00    -0.744 OA
ENDBRANCH  60  63
ENDBRANCH  42  56
BRANCH  43  67
ATOM     67  C   UNL A   1      42.648  26.504  27.435  1.00  0.00     0.023 A 
ATOM     68  C   UNL A   1      43.502  27.137  26.512  1.00  0.00     0.012 A 
ATOM     69  C   UNL A   1      42.320  25.147  27.248  1.00  0.00     0.148 A 
ATOM     70  C   UNL A   1      43.990  26.443  25.404  1.00  0.00     0.002 A 
ATOM     71  C   UNL A   1      42.860  24.445  26.178  1.00  0.00     0.091 A 
ATOM     72  F   UNL A   1      41.492  24.567  28.128  1.00  0.00    -0.205 F 
ATOM     73  C   UNL A   1      43.678  25.095  25.242  1.00  0.00     0.022 A 
BRANCH  71  74
ATOM     74  S   UNL A   1      42.619  22.677  25.975  1.00  0.00     0.127 S 
ATOM     75  O   UNL A   1      41.164  22.570  25.975  1.00  0.00    -0.237 OA
ATOM     76  O   UNL A   1      43.257  22.433  24.681  1.00  0.00    -0.237 OA
ATOM     77  O   UNL A   1      43.301  22.056  27.103  1.00  0.00    -0.744 OA
ENDBRANCH  71  74
ENDBRANCH  43  67
BRANCH  55  78
ATOM     78  C   UNL A   1      44.703  27.241  34.061  1.00  0.00     0.023 A 
ATOM     79  C   UNL A   1      45.988  27.817  33.994  1.00  0.00     0.012 A 
ATOM     80  C   UNL A   1      44.494  26.118  34.885  1.00  0.00     0.148 A 
ATOM     81  C   UNL A   1      47.057  27.252  34.689  1.00  0.00     0.002 A 
ATOM     82  C   UNL A   1      45.551  25.594  35.619  1.00  0.00     0.091 A 
ATOM     83  F   UNL A   1      43.270  25.573  34.927  1.00  0.00    -0.205 F 
ATOM     84  C   UNL A   1      46.836  26.147  35.508  1.00  0.00     0.022 A 
BRANCH  82  85
ATOM     85  S   UNL A   1      45.338  24.234  36.773  1.00  0.00     0.127 S 
ATOM     86  O   UNL A   1      44.153  24.657  37.516  1.00  0.00    -0.237 OA
ATOM     87  O   UNL A   1      45.121  23.098  35.875  1.00  0.00    -0.237 OA
ATOM     88  O   UNL A   1      46.572  24.165  37.543  1.00  0.00    -0.744 OA
ENDBRANCH  82  85
ENDBRANCH  55  78
ENDBRANCH  29  30
ENDBRANCH  22  24
ENDBRANCH  21  22
ENDBRANCH  20  21
ENDBRANCH   1  20
TORSDOF 19
ENDMDL
MODEL 3
REMARK VINA RESULT:      -9.2      1.610      2.532
REMARK SMILES O=C(CSc1ccc2ccccc2c1)OCCOCCOC(=O)c1ccc(-c2c3nc(c(-c4cccc(S(=O)(=O)[O-])c4F)c4ccc([nH]4)c(-c4cccc(S(=O)(=O)[O-])c4F)c4nc(c(-c5cccc(S(=O)(=O)[O-])c5F)c5ccc2[nH]5)C=C4)C=C3)cc1
REMARK SMILES IDX 19 1 18 2 17 3 16 4 15 5 2 6 1 7 3 8 4 9 5 10 6 11 14 12
REMARK SMILES IDX 7 13 13 14 8 15 12 16 9 17 11 18 10 19 20 20 21 21 22 22
REMARK SMILES IDX 23 23 24 24 25 25 86 26 26 27 85 28 27 29 28 30 29 31 79 32
REMARK SMILES IDX 30 33 84 34 78 35 80 36 31 37 83 38 77 39 76 40 32 42 64 43
REMARK SMILES IDX 44 44 63 45 45 46 48 47 62 48 81 49 46 50 47 51 61 53 82 54
REMARK SMILES IDX 49 55 33 56 34 57 42 58 35 59 37 60 43 61 36 62 38 63 39 64
REMARK SMILES IDX 40 65 41 66 65 67 66 68 74 69 67 70 69 71 75 72 68 73 70 74
REMARK SMILES IDX 71 75 72 76 73 77 50 78 51 79 59 80 52 81 54 82 60 83 53 84
REMARK SMILES IDX 55 85 56 86 57 87 58 88
REMARK H PARENT 80 41 48 52
REMARK Flexibility Score: inf
ROOT
ATOM      1  C   UNL A   1      33.156  35.017  28.459  1.00  0.00     0.202 C 
ENDROOT
BRANCH   1   2
ATOM      2  O   UNL A   1      32.667  34.861  29.797  1.00  0.00    -0.374 OA
BRANCH   2   3
ATOM      3  C   UNL A   1      32.595  36.043  30.588  1.00  0.00     0.202 C 
BRANCH   3   4
ATOM      4  C   UNL A   1      32.227  35.882  32.060  1.00  0.00     0.261 C 
BRANCH   4   5
ATOM      5  O   UNL A   1      33.242  35.261  32.860  1.00  0.00    -0.463 OA
BRANCH   5   6
ATOM      6  C   UNL A   1      34.534  35.645  32.950  1.00  0.00     0.316 C 
ATOM      7  O   UNL A   1      34.779  36.826  33.213  1.00  0.00    -0.251 OA
BRANCH   6   8
ATOM      8  C   UNL A   1      35.669  34.689  32.671  1.00  0.00     0.197 C 
BRANCH   8   9
ATOM      9  S   UNL A   1      36.461  33.902  34.106  1.00  0.00    -0.114 SA
BRANCH   9  10
ATOM     10  C   UNL A   1      36.754  32.267  33.484  1.00  0.00     0.008 A 
ATOM     11  C   UNL A   1      35.982  31.839  32.406  1.00  0.00     0.016 A 
ATOM     12  C   UNL A   1      37.722  31.413  34.015  1.00  0.00     0.023 A 
ATOM     13  C   UNL A   1      36.232  30.602  31.813  1.00  0.00     0.010 A 
ATOM     14  C   UNL A   1      38.033  30.202  33.392  1.00  0.00    -0.017 A 
ATOM     15  C   UNL A   1      37.277  29.789  32.275  1.00  0.00    -0.018 A 
ATOM     16  C   UNL A   1      39.099  29.413  33.847  1.00  0.00     0.009 A 
ATOM     17  C   UNL A   1      37.599  28.579  31.649  1.00  0.00     0.009 A 
ATOM     18  C   UNL A   1      39.423  28.226  33.195  1.00  0.00     0.001 A 
ATOM     19  C   UNL A   1      38.670  27.806  32.102  1.00  0.00     0.001 A 
ENDBRANCH   9  10
ENDBRANCH   8   9
ENDBRANCH   6   8
ENDBRANCH   5   6
ENDBRANCH   4   5
ENDBRANCH   3   4
ENDBRANCH   2   3
ENDBRANCH   1   2
BRANCH   1  20
ATOM     20  C   UNL A   1      34.491  34.347  28.121  1.00  0.00     0.261 C 
BRANCH  20  21
ATOM     21  O   UNL A   1      34.703  33.164  28.905  1.00  0.00    -0.460 OA
BRANCH  21  22
ATOM     22  C   UNL A   1      34.906  32.041  28.180  1.00  0.00     0.338 C 
ATOM     23  O   UNL A   1      34.142  31.549  27.359  1.00  0.00    -0.246 OA
BRANCH  22  24
ATOM     24  C   UNL A   1      36.298  31.586  28.346  1.00  0.00     0.060 A 
ATOM     25  C   UNL A   1      36.578  30.258  27.995  1.00  0.00     0.016 A 
ATOM     26  C   UNL A   1      37.301  32.415  28.855  1.00  0.00     0.016 A 
ATOM     27  C   UNL A   1      37.836  29.728  28.242  1.00  0.00     0.010 A 
ATOM     28  C   UNL A   1      38.566  31.878  29.103  1.00  0.00     0.010 A 
ATOM     29  C   UNL A   1      38.817  30.519  28.852  1.00  0.00    -0.014 A 
BRANCH  29  30
ATOM     30  C   UNL A   1      40.032  29.854  29.372  1.00  0.00     0.031 A 
ATOM     31  C   UNL A   1      40.708  30.425  30.589  1.00  0.00     0.074 A 
ATOM     32  C   UNL A   1      40.473  28.715  28.811  1.00  0.00     0.049 A 
ATOM     33  N   UNL A   1      41.734  29.968  31.255  1.00  0.00    -0.248 NA
ATOM     34  C   UNL A   1      40.152  31.679  31.129  1.00  0.00     0.031 C 
ATOM     35  C   UNL A   1      39.896  28.080  27.628  1.00  0.00     0.029 A 
ATOM     36  N   UNL A   1      41.516  27.898  29.160  1.00  0.00    -0.354 N 
ATOM     37  C   UNL A   1      41.956  30.880  32.281  1.00  0.00     0.074 A 
ATOM     38  C   UNL A   1      40.977  31.933  32.133  1.00  0.00     0.031 C 
ATOM     39  C   UNL A   1      40.607  26.977  27.336  1.00  0.00     0.029 A 
ATOM     40  C   UNL A   1      41.695  26.843  28.300  1.00  0.00     0.049 A 
ATOM     41  H   UNL A   1      42.081  28.052  29.952  1.00  0.00     0.167 HD
ATOM     42  C   UNL A   1      42.876  30.831  33.273  1.00  0.00     0.034 A 
ATOM     43  C   UNL A   1      42.645  25.887  28.286  1.00  0.00     0.034 A 
ATOM     44  C   UNL A   1      43.842  29.774  33.416  1.00  0.00     0.049 A 
ATOM     45  C   UNL A   1      43.665  25.862  29.393  1.00  0.00     0.074 A 
ATOM     46  C   UNL A   1      44.805  29.613  34.396  1.00  0.00     0.029 A 
ATOM     47  N   UNL A   1      43.973  28.702  32.547  1.00  0.00    -0.354 N 
ATOM     48  N   UNL A   1      43.795  26.672  30.416  1.00  0.00    -0.248 NA
ATOM     49  C   UNL A   1      44.642  24.766  29.366  1.00  0.00     0.031 C 
ATOM     50  C   UNL A   1      45.537  28.459  34.103  1.00  0.00     0.029 A 
ATOM     51  C   UNL A   1      45.006  27.877  32.962  1.00  0.00     0.049 A 
ATOM     52  H   UNL A   1      43.415  28.549  31.750  1.00  0.00     0.167 HD
ATOM     53  C   UNL A   1      44.850  26.168  31.169  1.00  0.00     0.074 A 
ATOM     54  C   UNL A   1      45.297  24.962  30.502  1.00  0.00     0.031 C 
ATOM     55  C   UNL A   1      45.412  26.664  32.301  1.00  0.00     0.034 A 
BRANCH  42  56
ATOM     56  C   UNL A   1      42.863  31.936  34.296  1.00  0.00     0.023 A 
ATOM     57  C   UNL A   1      43.532  33.148  34.024  1.00  0.00     0.012 A 
ATOM     58  C   UNL A   1      42.147  31.801  35.503  1.00  0.00     0.148 A 
ATOM     59  C   UNL A   1      43.513  34.194  34.946  1.00  0.00     0.002 A 
ATOM     60  C   UNL A   1      42.095  32.864  36.396  1.00  0.00     0.091 A 
ATOM     61  F   UNL A   1      41.537  30.634  35.754  1.00  0.00    -0.205 F 
ATOM     62  C   UNL A   1      42.787  34.056  36.126  1.00  0.00     0.022 A 
BRANCH  60  63
ATOM     63  S   UNL A   1      41.125  32.818  37.907  1.00  0.00     0.127 S 
ATOM     64  O   UNL A   1      41.907  31.896  38.731  1.00  0.00    -0.237 OA
ATOM     65  O   UNL A   1      41.171  34.214  38.342  1.00  0.00    -0.237 OA
ATOM     66  O   UNL A   1      39.804  32.340  37.525  1.00  0.00    -0.744 OA
ENDBRANCH  60  63
ENDBRANCH  42  56
BRANCH  43  67
ATOM     67  C   UNL A   1      42.661  24.871  27.198  1.00  0.00     0.023 A 
ATOM     68  C   UNL A   1      43.403  25.103  26.024  1.00  0.00     0.012 A 
ATOM     69  C   UNL A   1      41.949  23.663  27.332  1.00  0.00     0.148 A 
ATOM     70  C   UNL A   1      43.403  24.167  24.988  1.00  0.00     0.002 A 
ATOM     71  C   UNL A   1      42.005  22.709  26.324  1.00  0.00     0.091 A 
ATOM     72  F   UNL A   1      41.236  23.468  28.451  1.00  0.00    -0.205 F 
ATOM     73  C   UNL A   1      42.714  22.967  25.142  1.00  0.00     0.022 A 
BRANCH  71  74
ATOM     74  S   UNL A   1      41.260  21.085  26.502  1.00  0.00     0.127 S 
ATOM     75  O   UNL A   1      41.849  20.361  25.379  1.00  0.00    -0.237 OA
ATOM     76  O   UNL A   1      41.742  20.675  27.822  1.00  0.00    -0.237 OA
ATOM     77  O   UNL A   1      39.822  21.303  26.432  1.00  0.00    -0.744 OA
ENDBRANCH  71  74
ENDBRANCH  43  67
BRANCH  55  78
ATOM     78  C   UNL A   1      46.554  25.883  32.899  1.00  0.00     0.023 A 
ATOM     79  C   UNL A   1      47.883  26.213  32.565  1.00  0.00     0.012 A 
ATOM     80  C   UNL A   1      46.312  24.842  33.815  1.00  0.00     0.148 A 
ATOM     81  C   UNL A   1      48.949  25.482  33.089  1.00  0.00     0.002 A 
ATOM     82  C   UNL A   1      47.381  24.155  34.377  1.00  0.00     0.091 A 
ATOM     83  F   UNL A   1      45.042  24.531  34.111  1.00  0.00    -0.205 F 
ATOM     84  C   UNL A   1      48.698  24.461  34.001  1.00  0.00     0.022 A 
BRANCH  82  85
ATOM     85  S   UNL A   1      47.157  22.890  35.633  1.00  0.00     0.127 S 
ATOM     86  O   UNL A   1      45.882  22.297  35.234  1.00  0.00    -0.237 OA
ATOM     87  O   UNL A   1      48.322  22.031  35.418  1.00  0.00    -0.237 OA
ATOM     88  O   UNL A   1      47.152  23.590  36.910  1.00  0.00    -0.744 OA
ENDBRANCH  82  85
ENDBRANCH  55  78
ENDBRANCH  29  30
ENDBRANCH  22  24
ENDBRANCH  21  22
ENDBRANCH  20  21
ENDBRANCH   1  20
TORSDOF 19
ENDMDL
