MODEL 1
REMARK VINA RESULT:     -10.9      0.000      0.000
REMARK SMILES [NH3+][C@H](C(=O)OCCOCCOC(=O)c1ccc(-c2c3nc(c(-c4cccc(S(=O)(=O)[O-])c4F)c4ccc([nH]4)c(-c4cccc(S(=O)(=O)[O-])c4F)c4nc(c(-c5cccc(S(=O)(=O)[O-])c5F)c5ccc2[nH]5)C=C4)C=C3)cc1)c1cccc(OCc2ccc(F)cc2)c1
REMARK SMILES IDX 7 1 6 2 5 3 3 4 4 5 2 6 1 7 77 11 78 12 91 13 79 14 81 15
REMARK SMILES IDX 80 16 82 17 83 18 84 19 85 20 90 21 86 22 89 23 87 24 88 25
REMARK SMILES IDX 8 26 9 27 10 28 11 29 12 30 13 31 14 32 15 33 76 34 16 35
REMARK SMILES IDX 75 36 17 37 18 38 19 39 69 40 20 41 74 42 68 43 70 44 21 45
REMARK SMILES IDX 73 46 67 47 66 48 22 50 54 51 34 52 53 53 35 54 38 55 52 56
REMARK SMILES IDX 71 57 36 58 37 59 51 61 72 62 39 63 23 64 24 65 32 66 25 67
REMARK SMILES IDX 27 68 33 69 26 70 28 71 29 72 30 73 31 74 55 75 56 76 64 77
REMARK SMILES IDX 57 78 59 79 65 80 58 81 60 82 61 83 62 84 63 85 40 86 41 87
REMARK SMILES IDX 49 88 42 89 44 90 50 91 43 92 45 93 46 94 47 95 48 96
REMARK H PARENT 1 8 1 9 1 10 70 49 38 60
REMARK Flexibility Score: inf
ROOT
ATOM      1  C   UNL A   1      31.412  28.654  26.327  1.00  0.00     0.202 C 
ENDROOT
BRANCH   1   2
ATOM      2  C   UNL A   1      32.412  27.956  27.259  1.00  0.00     0.261 C 
BRANCH   2   3
ATOM      3  O   UNL A   1      33.413  27.190  26.558  1.00  0.00    -0.459 OA
BRANCH   3   4
ATOM      4  C   UNL A   1      33.010  25.979  26.079  1.00  0.00     0.369 C 
ATOM      5  O   UNL A   1      32.099  25.303  26.553  1.00  0.00    -0.245 OA
BRANCH   4   6
ATOM      6  C   UNL A   1      33.879  25.502  24.886  1.00  0.00     0.323 C 
BRANCH   6   7
ATOM      7  N   UNL A   1      34.216  24.063  25.088  1.00  0.00    -0.342 N 
ATOM      8  H   UNL A   1      35.220  23.969  25.250  1.00  0.00     0.345 HD
ATOM      9  H   UNL A   1      33.955  23.533  24.258  1.00  0.00     0.345 HD
ATOM     10  H   UNL A   1      33.707  23.705  25.895  1.00  0.00     0.345 HD
ENDBRANCH   6   7
BRANCH   6  11
ATOM     11  C   UNL A   1      33.222  25.712  23.528  1.00  0.00     0.024 A 
ATOM     12  C   UNL A   1      33.572  24.926  22.416  1.00  0.00     0.011 A 
ATOM     13  C   UNL A   1      32.211  26.686  23.370  1.00  0.00     0.057 A 
ATOM     14  C   UNL A   1      32.932  25.102  21.189  1.00  0.00     0.004 A 
ATOM     15  C   UNL A   1      31.506  26.800  22.164  1.00  0.00     0.120 A 
ATOM     16  C   UNL A   1      31.899  26.027  21.070  1.00  0.00     0.046 A 
BRANCH  15  17
ATOM     17  O   UNL A   1      30.358  27.514  21.944  1.00  0.00    -0.489 OA
BRANCH  17  18
ATOM     18  C   UNL A   1      29.687  28.197  23.013  1.00  0.00     0.265 C 
BRANCH  18  19
ATOM     19  C   UNL A   1      29.012  29.519  22.695  1.00  0.00    -0.011 A 
ATOM     20  C   UNL A   1      29.472  30.276  21.599  1.00  0.00     0.010 A 
ATOM     21  C   UNL A   1      28.048  30.085  23.532  1.00  0.00     0.010 A 
ATOM     22  C   UNL A   1      29.096  31.612  21.448  1.00  0.00     0.039 A 
ATOM     23  C   UNL A   1      27.744  31.434  23.426  1.00  0.00     0.039 A 
ATOM     24  C   UNL A   1      28.288  32.194  22.409  1.00  0.00     0.123 A 
ATOM     25  F   UNL A   1      28.034  33.505  22.389  1.00  0.00    -0.207 F 
ENDBRANCH  18  19
ENDBRANCH  17  18
ENDBRANCH  15  17
ENDBRANCH   6  11
ENDBRANCH   4   6
ENDBRANCH   3   4
ENDBRANCH   2   3
ENDBRANCH   1   2
BRANCH   1  26
ATOM     26  O   UNL A   1      31.980  29.685  25.522  1.00  0.00    -0.374 OA
BRANCH  26  27
ATOM     27  C   UNL A   1      31.247  30.913  25.503  1.00  0.00     0.202 C 
BRANCH  27  28
ATOM     28  C   UNL A   1      31.592  31.858  26.658  1.00  0.00     0.261 C 
BRANCH  28  29
ATOM     29  O   UNL A   1      32.846  31.481  27.259  1.00  0.00    -0.460 OA
BRANCH  29  30
ATOM     30  C   UNL A   1      33.658  32.493  27.650  1.00  0.00     0.338 C 
ATOM     31  O   UNL A   1      33.365  33.675  27.729  1.00  0.00    -0.246 OA
BRANCH  30  32
ATOM     32  C   UNL A   1      34.936  31.930  28.148  1.00  0.00     0.060 A 
ATOM     33  C   UNL A   1      34.988  30.558  28.423  1.00  0.00     0.016 A 
ATOM     34  C   UNL A   1      36.080  32.716  28.310  1.00  0.00     0.016 A 
ATOM     35  C   UNL A   1      36.174  29.975  28.884  1.00  0.00     0.010 A 
ATOM     36  C   UNL A   1      37.275  32.121  28.732  1.00  0.00     0.010 A 
ATOM     37  C   UNL A   1      37.326  30.753  29.062  1.00  0.00    -0.014 A 
BRANCH  37  38
ATOM     38  C   UNL A   1      38.534  30.183  29.726  1.00  0.00     0.031 A 
ATOM     39  C   UNL A   1      38.901  30.675  31.104  1.00  0.00     0.074 A 
ATOM     40  C   UNL A   1      39.316  29.258  29.133  1.00  0.00     0.049 A 
ATOM     41  N   UNL A   1      39.894  30.309  31.874  1.00  0.00    -0.248 NA
ATOM     42  C   UNL A   1      38.041  31.716  31.690  1.00  0.00     0.031 C 
ATOM     43  C   UNL A   1      39.097  28.685  27.809  1.00  0.00     0.029 A 
ATOM     44  N   UNL A   1      40.473  28.652  29.562  1.00  0.00    -0.354 N 
ATOM     45  C   UNL A   1      39.787  31.086  33.020  1.00  0.00     0.074 A 
ATOM     46  C   UNL A   1      38.669  31.981  32.825  1.00  0.00     0.031 C 
ATOM     47  C   UNL A   1      40.112  27.858  27.506  1.00  0.00     0.029 A 
ATOM     48  C   UNL A   1      41.041  27.812  28.631  1.00  0.00     0.049 A 
ATOM     49  H   UNL A   1      40.861  28.805  30.454  1.00  0.00     0.167 HD
ATOM     50  C   UNL A   1      40.517  31.033  34.158  1.00  0.00     0.034 A 
ATOM     51  C   UNL A   1      42.168  27.073  28.682  1.00  0.00     0.034 A 
ATOM     52  C   UNL A   1      41.591  30.109  34.389  1.00  0.00     0.049 A 
ATOM     53  C   UNL A   1      42.968  27.032  29.958  1.00  0.00     0.074 A 
ATOM     54  C   UNL A   1      42.324  29.916  35.547  1.00  0.00     0.029 A 
ATOM     55  N   UNL A   1      42.091  29.227  33.446  1.00  0.00    -0.354 N 
ATOM     56  N   UNL A   1      42.735  27.637  31.097  1.00  0.00    -0.248 NA
ATOM     57  C   UNL A   1      44.151  26.157  29.977  1.00  0.00     0.031 C 
ATOM     58  C   UNL A   1      43.282  28.928  35.298  1.00  0.00     0.029 A 
ATOM     59  C   UNL A   1      43.133  28.496  33.990  1.00  0.00     0.049 A 
ATOM     60  H   UNL A   1      41.756  29.134  32.525  1.00  0.00     0.167 HD
ATOM     61  C   UNL A   1      43.705  27.173  31.980  1.00  0.00     0.074 A 
ATOM     62  C   UNL A   1      44.524  26.232  31.247  1.00  0.00     0.031 C 
ATOM     63  C   UNL A   1      43.900  27.506  33.280  1.00  0.00     0.034 A 
BRANCH  50  64
ATOM     64  C   UNL A   1      40.126  31.965  35.270  1.00  0.00     0.023 A 
ATOM     65  C   UNL A   1      40.761  33.220  35.375  1.00  0.00     0.012 A 
ATOM     66  C   UNL A   1      39.116  31.619  36.186  1.00  0.00     0.148 A 
ATOM     67  C   UNL A   1      40.423  34.102  36.398  1.00  0.00     0.002 A 
ATOM     68  C   UNL A   1      38.754  32.522  37.178  1.00  0.00     0.091 A 
ATOM     69  F   UNL A   1      38.545  30.410  36.084  1.00  0.00    -0.205 F 
ATOM     70  C   UNL A   1      39.414  33.758  37.293  1.00  0.00     0.022 A 
BRANCH  68  71
ATOM     71  S   UNL A   1      37.417  32.200  38.333  1.00  0.00     0.127 S 
ATOM     72  O   UNL A   1      37.950  32.776  39.568  1.00  0.00    -0.237 OA
ATOM     73  O   UNL A   1      36.310  32.949  37.738  1.00  0.00    -0.237 OA
ATOM     74  O   UNL A   1      37.236  30.756  38.342  1.00  0.00    -0.744 OA
ENDBRANCH  68  71
ENDBRANCH  50  64
BRANCH  51  75
ATOM     75  C   UNL A   1      42.566  26.224  27.522  1.00  0.00     0.023 A 
ATOM     76  C   UNL A   1      43.313  26.798  26.473  1.00  0.00     0.012 A 
ATOM     77  C   UNL A   1      42.194  24.869  27.439  1.00  0.00     0.148 A 
ATOM     78  C   UNL A   1      43.648  26.050  25.344  1.00  0.00     0.002 A 
ATOM     79  C   UNL A   1      42.568  24.116  26.330  1.00  0.00     0.091 A 
ATOM     80  F   UNL A   1      41.474  24.345  28.440  1.00  0.00    -0.205 F 
ATOM     81  C   UNL A   1      43.280  24.709  25.275  1.00  0.00     0.022 A 
BRANCH  79  82
ATOM     82  S   UNL A   1      42.222  22.358  26.193  1.00  0.00     0.127 S 
ATOM     83  O   UNL A   1      40.762  22.343  26.145  1.00  0.00    -0.237 OA
ATOM     84  O   UNL A   1      42.883  22.017  24.933  1.00  0.00    -0.237 OA
ATOM     85  O   UNL A   1      42.824  21.747  27.371  1.00  0.00    -0.744 OA
ENDBRANCH  79  82
ENDBRANCH  51  75
BRANCH  63  86
ATOM     86  C   UNL A   1      45.015  26.823  34.028  1.00  0.00     0.023 A 
ATOM     87  C   UNL A   1      46.302  27.393  34.041  1.00  0.00     0.012 A 
ATOM     88  C   UNL A   1      44.760  25.671  34.802  1.00  0.00     0.148 A 
ATOM     89  C   UNL A   1      47.326  26.815  34.791  1.00  0.00     0.002 A 
ATOM     90  C   UNL A   1      45.773  25.129  35.584  1.00  0.00     0.091 A 
ATOM     91  F   UNL A   1      43.534  25.130  34.762  1.00  0.00    -0.205 F 
ATOM     92  C   UNL A   1      47.058  25.693  35.571  1.00  0.00     0.022 A 
BRANCH  90  93
ATOM     93  S   UNL A   1      45.490  23.748  36.699  1.00  0.00     0.127 S 
ATOM     94  O   UNL A   1      44.646  24.359  37.724  1.00  0.00    -0.237 OA
ATOM     95  O   UNL A   1      44.802  22.787  35.836  1.00  0.00    -0.237 OA
ATOM     96  O   UNL A   1      46.808  23.319  37.146  1.00  0.00    -0.744 OA
ENDBRANCH  90  93
ENDBRANCH  63  86
ENDBRANCH  37  38
ENDBRANCH  30  32
ENDBRANCH  29  30
ENDBRANCH  28  29
ENDBRANCH  27  28
ENDBRANCH  26  27
ENDBRANCH   1  26
TORSDOF 22
ENDMDL
MODEL 2
REMARK VINA RESULT:     -10.8      5.041     10.034
REMARK SMILES [NH3+][C@H](C(=O)OCCOCCOC(=O)c1ccc(-c2c3nc(c(-c4cccc(S(=O)(=O)[O-])c4F)c4ccc([nH]4)c(-c4cccc(S(=O)(=O)[O-])c4F)c4nc(c(-c5cccc(S(=O)(=O)[O-])c5F)c5ccc2[nH]5)C=C4)C=C3)cc1)c1cccc(OCc2ccc(F)cc2)c1
REMARK SMILES IDX 7 1 6 2 5 3 3 4 4 5 2 6 1 7 77 11 78 12 91 13 79 14 81 15
REMARK SMILES IDX 80 16 82 17 83 18 84 19 85 20 90 21 86 22 89 23 87 24 88 25
REMARK SMILES IDX 8 26 9 27 10 28 11 29 12 30 13 31 14 32 15 33 76 34 16 35
REMARK SMILES IDX 75 36 17 37 18 38 19 39 69 40 20 41 74 42 68 43 70 44 21 45
REMARK SMILES IDX 73 46 67 47 66 48 22 50 54 51 34 52 53 53 35 54 38 55 52 56
REMARK SMILES IDX 71 57 36 58 37 59 51 61 72 62 39 63 23 64 24 65 32 66 25 67
REMARK SMILES IDX 27 68 33 69 26 70 28 71 29 72 30 73 31 74 55 75 56 76 64 77
REMARK SMILES IDX 57 78 59 79 65 80 58 81 60 82 61 83 62 84 63 85 40 86 41 87
REMARK SMILES IDX 49 88 42 89 44 90 50 91 43 92 45 93 46 94 47 95 48 96
REMARK H PARENT 1 8 1 9 1 10 70 49 38 60
REMARK Flexibility Score: inf
ROOT
ATOM      1  C   UNL A   1      35.213  23.175  24.975  1.00  0.00     0.202 C 
ENDROOT
BRANCH   1   2
ATOM      2  C   UNL A   1      35.038  23.949  23.661  1.00  0.00     0.261 C 
BRANCH   2   3
ATOM      3  O   UNL A   1      34.525  23.141  22.582  1.00  0.00    -0.459 OA
BRANCH   3   4
ATOM      4  C   UNL A   1      33.282  23.471  22.130  1.00  0.00     0.369 C 
ATOM      5  O   UNL A   1      33.036  24.398  21.362  1.00  0.00    -0.245 OA
BRANCH   4   6
ATOM      6  C   UNL A   1      32.177  22.575  22.750  1.00  0.00     0.323 C 
BRANCH   6   7
ATOM      7  N   UNL A   1      32.741  21.214  22.980  1.00  0.00    -0.342 N 
ATOM      8  H   UNL A   1      32.003  20.517  22.870  1.00  0.00     0.345 HD
ATOM      9  H   UNL A   1      33.122  21.159  23.924  1.00  0.00     0.345 HD
ATOM     10  H   UNL A   1      33.481  21.034  22.303  1.00  0.00     0.345 HD
ENDBRANCH   6   7
BRANCH   6  11
ATOM     11  C   UNL A   1      31.587  23.135  24.039  1.00  0.00     0.024 A 
ATOM     12  C   UNL A   1      31.287  22.300  25.129  1.00  0.00     0.011 A 
ATOM     13  C   UNL A   1      31.364  24.523  24.175  1.00  0.00     0.057 A 
ATOM     14  C   UNL A   1      30.785  22.832  26.317  1.00  0.00     0.004 A 
ATOM     15  C   UNL A   1      30.948  25.067  25.397  1.00  0.00     0.120 A 
ATOM     16  C   UNL A   1      30.628  24.209  26.451  1.00  0.00     0.046 A 
BRANCH  15  17
ATOM     17  O   UNL A   1      30.927  26.391  25.746  1.00  0.00    -0.489 OA
BRANCH  17  18
ATOM     18  C   UNL A   1      31.393  27.408  24.848  1.00  0.00     0.265 C 
BRANCH  18  19
ATOM     19  C   UNL A   1      30.367  28.108  23.976  1.00  0.00    -0.011 A 
ATOM     20  C   UNL A   1      30.468  29.500  23.783  1.00  0.00     0.010 A 
ATOM     21  C   UNL A   1      29.241  27.451  23.474  1.00  0.00     0.010 A 
ATOM     22  C   UNL A   1      29.400  30.225  23.250  1.00  0.00     0.039 A 
ATOM     23  C   UNL A   1      28.154  28.184  23.024  1.00  0.00     0.039 A 
ATOM     24  C   UNL A   1      28.226  29.561  22.943  1.00  0.00     0.123 A 
ATOM     25  F   UNL A   1      27.132  30.235  22.581  1.00  0.00    -0.207 F 
ENDBRANCH  18  19
ENDBRANCH  17  18
ENDBRANCH  15  17
ENDBRANCH   6  11
ENDBRANCH   4   6
ENDBRANCH   3   4
ENDBRANCH   2   3
ENDBRANCH   1   2
BRANCH   1  26
ATOM     26  O   UNL A   1      35.140  21.758  24.837  1.00  0.00    -0.374 OA
BRANCH  26  27
ATOM     27  C   UNL A   1      36.042  21.020  25.666  1.00  0.00     0.202 C 
BRANCH  27  28
ATOM     28  C   UNL A   1      37.362  20.661  24.978  1.00  0.00     0.261 C 
BRANCH  28  29
ATOM     29  O   UNL A   1      38.331  21.709  25.172  1.00  0.00    -0.460 OA
BRANCH  29  30
ATOM     30  C   UNL A   1      39.306  21.472  26.083  1.00  0.00     0.338 C 
ATOM     31  O   UNL A   1      39.833  20.399  26.326  1.00  0.00    -0.246 OA
BRANCH  30  32
ATOM     32  C   UNL A   1      39.779  22.762  26.640  1.00  0.00     0.060 A 
ATOM     33  C   UNL A   1      39.109  23.930  26.256  1.00  0.00     0.016 A 
ATOM     34  C   UNL A   1      40.835  22.834  27.553  1.00  0.00     0.016 A 
ATOM     35  C   UNL A   1      39.509  25.172  26.762  1.00  0.00     0.010 A 
ATOM     36  C   UNL A   1      41.205  24.074  28.088  1.00  0.00     0.010 A 
ATOM     37  C   UNL A   1      40.573  25.261  27.669  1.00  0.00    -0.014 A 
BRANCH  37  38
ATOM     38  C   UNL A   1      41.125  26.588  28.068  1.00  0.00     0.031 A 
ATOM     39  C   UNL A   1      42.577  26.882  27.782  1.00  0.00     0.074 A 
ATOM     40  C   UNL A   1      40.377  27.525  28.686  1.00  0.00     0.049 A 
ATOM     41  N   UNL A   1      43.262  27.971  28.024  1.00  0.00    -0.248 NA
ATOM     42  C   UNL A   1      43.361  25.812  27.145  1.00  0.00     0.031 C 
ATOM     43  C   UNL A   1      38.967  27.392  29.031  1.00  0.00     0.029 A 
ATOM     44  N   UNL A   1      40.712  28.772  29.159  1.00  0.00    -0.354 N 
ATOM     45  C   UNL A   1      44.553  27.708  27.589  1.00  0.00     0.074 A 
ATOM     46  C   UNL A   1      44.573  26.342  27.117  1.00  0.00     0.031 C 
ATOM     47  C   UNL A   1      38.568  28.481  29.710  1.00  0.00     0.029 A 
ATOM     48  C   UNL A   1      39.688  29.411  29.820  1.00  0.00     0.049 A 
ATOM     49  H   UNL A   1      41.604  29.172  29.036  1.00  0.00     0.167 HD
ATOM     50  C   UNL A   1      45.621  28.537  27.533  1.00  0.00     0.034 A 
ATOM     51  C   UNL A   1      39.645  30.615  30.426  1.00  0.00     0.034 A 
ATOM     52  C   UNL A   1      45.600  29.913  27.941  1.00  0.00     0.049 A 
ATOM     53  C   UNL A   1      40.847  31.520  30.355  1.00  0.00     0.074 A 
ATOM     54  C   UNL A   1      46.606  30.857  27.831  1.00  0.00     0.029 A 
ATOM     55  N   UNL A   1      44.522  30.543  28.540  1.00  0.00    -0.354 N 
ATOM     56  N   UNL A   1      42.001  31.316  29.767  1.00  0.00    -0.248 NA
ATOM     57  C   UNL A   1      40.721  32.848  30.977  1.00  0.00     0.031 C 
ATOM     58  C   UNL A   1      46.142  32.055  28.383  1.00  0.00     0.029 A 
ATOM     59  C   UNL A   1      44.842  31.860  28.821  1.00  0.00     0.049 A 
ATOM     60  H   UNL A   1      43.657  30.117  28.739  1.00  0.00     0.167 HD
ATOM     61  C   UNL A   1      42.712  32.504  29.899  1.00  0.00     0.074 A 
ATOM     62  C   UNL A   1      41.858  33.427  30.616  1.00  0.00     0.031 C 
ATOM     63  C   UNL A   1      43.964  32.799  29.469  1.00  0.00     0.034 A 
BRANCH  50  64
ATOM     64  C   UNL A   1      46.890  27.987  26.945  1.00  0.00     0.023 A 
ATOM     65  C   UNL A   1      47.900  27.510  27.805  1.00  0.00     0.012 A 
ATOM     66  C   UNL A   1      47.070  27.910  25.552  1.00  0.00     0.148 A 
ATOM     67  C   UNL A   1      49.089  26.999  27.289  1.00  0.00     0.002 A 
ATOM     68  C   UNL A   1      48.240  27.360  25.043  1.00  0.00     0.091 A 
ATOM     69  F   UNL A   1      46.108  28.394  24.753  1.00  0.00    -0.205 F 
ATOM     70  C   UNL A   1      49.255  26.915  25.908  1.00  0.00     0.022 A 
BRANCH  68  71
ATOM     71  S   UNL A   1      48.517  27.142  23.282  1.00  0.00     0.127 S 
ATOM     72  O   UNL A   1      48.157  25.736  23.099  1.00  0.00    -0.237 OA
ATOM     73  O   UNL A   1      47.570  28.094  22.702  1.00  0.00    -0.237 OA
ATOM     74  O   UNL A   1      49.918  27.465  23.055  1.00  0.00    -0.744 OA
ENDBRANCH  68  71
ENDBRANCH  50  64
BRANCH  51  75
ATOM     75  C   UNL A   1      38.388  31.090  31.073  1.00  0.00     0.023 A 
ATOM     76  C   UNL A   1      38.189  30.851  32.447  1.00  0.00     0.012 A 
ATOM     77  C   UNL A   1      37.385  31.751  30.338  1.00  0.00     0.148 A 
ATOM     78  C   UNL A   1      36.998  31.225  33.070  1.00  0.00     0.002 A 
ATOM     79  C   UNL A   1      36.217  32.160  30.975  1.00  0.00     0.091 A 
ATOM     80  F   UNL A   1      37.588  31.958  29.029  1.00  0.00    -0.205 F 
ATOM     81  C   UNL A   1      36.015  31.883  32.336  1.00  0.00     0.022 A 
BRANCH  79  82
ATOM     82  S   UNL A   1      34.935  33.097  30.134  1.00  0.00     0.127 S 
ATOM     83  O   UNL A   1      34.428  32.118  29.176  1.00  0.00    -0.237 OA
ATOM     84  O   UNL A   1      34.023  33.414  31.234  1.00  0.00    -0.237 OA
ATOM     85  O   UNL A   1      35.609  34.255  29.560  1.00  0.00    -0.744 OA
ENDBRANCH  79  82
ENDBRANCH  51  75
BRANCH  63  86
ATOM     86  C   UNL A   1      44.490  34.189  29.712  1.00  0.00     0.023 A 
ATOM     87  C   UNL A   1      45.176  34.478  30.908  1.00  0.00     0.012 A 
ATOM     88  C   UNL A   1      44.393  35.179  28.713  1.00  0.00     0.148 A 
ATOM     89  C   UNL A   1      45.737  35.738  31.116  1.00  0.00     0.002 A 
ATOM     90  C   UNL A   1      44.995  36.416  28.908  1.00  0.00     0.091 A 
ATOM     91  F   UNL A   1      43.718  34.892  27.590  1.00  0.00    -0.205 F 
ATOM     92  C   UNL A   1      45.657  36.701  30.112  1.00  0.00     0.022 A 
BRANCH  90  93
ATOM     93  S   UNL A   1      45.032  37.679  27.629  1.00  0.00     0.127 S 
ATOM     94  O   UNL A   1      45.756  36.997  26.558  1.00  0.00    -0.237 OA
ATOM     95  O   UNL A   1      43.609  37.893  27.362  1.00  0.00    -0.237 OA
ATOM     96  O   UNL A   1      45.713  38.823  28.217  1.00  0.00    -0.744 OA
ENDBRANCH  90  93
ENDBRANCH  63  86
ENDBRANCH  37  38
ENDBRANCH  30  32
ENDBRANCH  29  30
ENDBRANCH  28  29
ENDBRANCH  27  28
ENDBRANCH  26  27
ENDBRANCH   1  26
TORSDOF 22
ENDMDL
MODEL 3
REMARK VINA RESULT:     -10.7      5.136     10.082
REMARK SMILES [NH3+][C@H](C(=O)OCCOCCOC(=O)c1ccc(-c2c3nc(c(-c4cccc(S(=O)(=O)[O-])c4F)c4ccc([nH]4)c(-c4cccc(S(=O)(=O)[O-])c4F)c4nc(c(-c5cccc(S(=O)(=O)[O-])c5F)c5ccc2[nH]5)C=C4)C=C3)cc1)c1cccc(OCc2ccc(F)cc2)c1
REMARK SMILES IDX 7 1 6 2 5 3 3 4 4 5 2 6 1 7 77 11 78 12 91 13 79 14 81 15
REMARK SMILES IDX 80 16 82 17 83 18 84 19 85 20 90 21 86 22 89 23 87 24 88 25
REMARK SMILES IDX 8 26 9 27 10 28 11 29 12 30 13 31 14 32 15 33 76 34 16 35
REMARK SMILES IDX 75 36 17 37 18 38 19 39 69 40 20 41 74 42 68 43 70 44 21 45
REMARK SMILES IDX 73 46 67 47 66 48 22 50 54 51 34 52 53 53 35 54 38 55 52 56
REMARK SMILES IDX 71 57 36 58 37 59 51 61 72 62 39 63 23 64 24 65 32 66 25 67
REMARK SMILES IDX 27 68 33 69 26 70 28 71 29 72 30 73 31 74 55 75 56 76 64 77
REMARK SMILES IDX 57 78 59 79 65 80 58 81 60 82 61 83 62 84 63 85 40 86 41 87
REMARK SMILES IDX 49 88 42 89 44 90 50 91 43 92 45 93 46 94 47 95 48 96
REMARK H PARENT 1 8 1 9 1 10 70 49 38 60
REMARK Flexibility Score: inf
ROOT
ATOM      1  C   UNL A   1      35.175  22.907  24.740  1.00  0.00     0.202 C 
ENDROOT
BRANCH   1   2
ATOM      2  C   UNL A   1      35.148  23.763  23.466  1.00  0.00     0.261 C 
BRANCH   2   3
ATOM      3  O   UNL A   1      34.410  23.161  22.384  1.00  0.00    -0.459 OA
BRANCH   3   4
ATOM      4  C   UNL A   1      33.250  23.785  22.034  1.00  0.00     0.369 C 
ATOM      5  O   UNL A   1      33.178  24.899  21.520  1.00  0.00    -0.245 OA
BRANCH   4   6
ATOM      6  C   UNL A   1      31.997  22.953  22.419  1.00  0.00     0.323 C 
BRANCH   6   7
ATOM      7  N   UNL A   1      32.172  21.565  21.902  1.00  0.00    -0.342 N 
ATOM      8  H   UNL A   1      33.098  21.472  21.483  1.00  0.00     0.345 HD
ATOM      9  H   UNL A   1      31.459  21.372  21.200  1.00  0.00     0.345 HD
ATOM     10  H   UNL A   1      32.080  20.902  22.672  1.00  0.00     0.345 HD
ENDBRANCH   6   7
BRANCH   6  11
ATOM     11  C   UNL A   1      31.711  22.935  23.915  1.00  0.00     0.024 A 
ATOM     12  C   UNL A   1      31.777  21.744  24.659  1.00  0.00     0.011 A 
ATOM     13  C   UNL A   1      31.408  24.135  24.596  1.00  0.00     0.057 A 
ATOM     14  C   UNL A   1      31.553  21.750  26.035  1.00  0.00     0.004 A 
ATOM     15  C   UNL A   1      31.273  24.155  25.990  1.00  0.00     0.120 A 
ATOM     16  C   UNL A   1      31.313  22.951  26.696  1.00  0.00     0.046 A 
BRANCH  15  17
ATOM     17  O   UNL A   1      31.224  25.260  26.798  1.00  0.00    -0.489 OA
BRANCH  17  18
ATOM     18  C   UNL A   1      30.590  26.473  26.368  1.00  0.00     0.265 C 
BRANCH  18  19
ATOM     19  C   UNL A   1      31.435  27.732  26.310  1.00  0.00    -0.011 A 
ATOM     20  C   UNL A   1      32.150  28.130  27.456  1.00  0.00     0.010 A 
ATOM     21  C   UNL A   1      31.420  28.592  25.209  1.00  0.00     0.010 A 
ATOM     22  C   UNL A   1      32.690  29.415  27.550  1.00  0.00     0.039 A 
ATOM     23  C   UNL A   1      31.883  29.892  25.337  1.00  0.00     0.039 A 
ATOM     24  C   UNL A   1      32.486  30.305  26.510  1.00  0.00     0.123 A 
ATOM     25  F   UNL A   1      32.846  31.585  26.623  1.00  0.00    -0.207 F 
ENDBRANCH  18  19
ENDBRANCH  17  18
ENDBRANCH  15  17
ENDBRANCH   6  11
ENDBRANCH   4   6
ENDBRANCH   3   4
ENDBRANCH   2   3
ENDBRANCH   1   2
BRANCH   1  26
ATOM     26  O   UNL A   1      35.186  21.501  24.503  1.00  0.00    -0.374 OA
BRANCH  26  27
ATOM     27  C   UNL A   1      35.899  20.728  25.472  1.00  0.00     0.202 C 
BRANCH  27  28
ATOM     28  C   UNL A   1      37.214  20.140  24.950  1.00  0.00     0.261 C 
BRANCH  28  29
ATOM     29  O   UNL A   1      38.272  21.113  25.044  1.00  0.00    -0.460 OA
BRANCH  29  30
ATOM     30  C   UNL A   1      39.246  20.863  25.952  1.00  0.00     0.338 C 
ATOM     31  O   UNL A   1      39.743  19.779  26.209  1.00  0.00    -0.246 OA
BRANCH  30  32
ATOM     32  C   UNL A   1      39.761  22.147  26.484  1.00  0.00     0.060 A 
ATOM     33  C   UNL A   1      39.159  23.332  26.042  1.00  0.00     0.016 A 
ATOM     34  C   UNL A   1      40.790  22.201  27.429  1.00  0.00     0.016 A 
ATOM     35  C   UNL A   1      39.601  24.570  26.522  1.00  0.00     0.010 A 
ATOM     36  C   UNL A   1      41.200  23.439  27.937  1.00  0.00     0.010 A 
ATOM     37  C   UNL A   1      40.638  24.639  27.461  1.00  0.00    -0.014 A 
BRANCH  37  38
ATOM     38  C   UNL A   1      41.239  25.952  27.837  1.00  0.00     0.031 A 
ATOM     39  C   UNL A   1      42.675  26.223  27.465  1.00  0.00     0.074 A 
ATOM     40  C   UNL A   1      40.549  26.896  28.508  1.00  0.00     0.049 A 
ATOM     41  N   UNL A   1      43.395  27.296  27.674  1.00  0.00    -0.248 NA
ATOM     42  C   UNL A   1      43.398  25.144  26.771  1.00  0.00     0.031 C 
ATOM     43  C   UNL A   1      39.159  26.786  28.939  1.00  0.00     0.029 A 
ATOM     44  N   UNL A   1      40.935  28.132  28.970  1.00  0.00    -0.354 N 
ATOM     45  C   UNL A   1      44.652  27.013  27.157  1.00  0.00     0.074 A 
ATOM     46  C   UNL A   1      44.617  25.652  26.673  1.00  0.00     0.031 C 
ATOM     47  C   UNL A   1      38.824  27.876  29.651  1.00  0.00     0.029 A 
ATOM     48  C   UNL A   1      39.966  28.783  29.699  1.00  0.00     0.049 A 
ATOM     49  H   UNL A   1      41.826  28.517  28.797  1.00  0.00     0.167 HD
ATOM     50  C   UNL A   1      45.729  27.823  27.043  1.00  0.00     0.034 A 
ATOM     51  C   UNL A   1      39.984  29.982  30.317  1.00  0.00     0.034 A 
ATOM     52  C   UNL A   1      45.760  29.196  27.463  1.00  0.00     0.049 A 
ATOM     53  C   UNL A   1      41.196  30.866  30.180  1.00  0.00     0.074 A 
ATOM     54  C   UNL A   1      46.775  30.122  27.300  1.00  0.00     0.029 A 
ATOM     55  N   UNL A   1      44.733  29.839  28.134  1.00  0.00    -0.354 N 
ATOM     56  N   UNL A   1      42.307  30.646  29.521  1.00  0.00    -0.248 NA
ATOM     57  C   UNL A   1      41.133  32.190  30.820  1.00  0.00     0.031 C 
ATOM     58  C   UNL A   1      46.369  31.323  27.890  1.00  0.00     0.029 A 
ATOM     59  C   UNL A   1      45.095  31.147  28.405  1.00  0.00     0.049 A 
ATOM     60  H   UNL A   1      43.874  29.427  28.382  1.00  0.00     0.167 HD
ATOM     61  C   UNL A   1      43.047  31.820  29.619  1.00  0.00     0.074 A 
ATOM     62  C   UNL A   1      42.257  32.751  30.395  1.00  0.00     0.031 C 
ATOM     63  C   UNL A   1      44.276  32.095  29.115  1.00  0.00     0.034 A 
BRANCH  50  64
ATOM     64  C   UNL A   1      46.949  27.256  26.373  1.00  0.00     0.023 A 
ATOM     65  C   UNL A   1      47.109  27.413  24.980  1.00  0.00     0.012 A 
ATOM     66  C   UNL A   1      47.947  26.600  27.117  1.00  0.00     0.148 A 
ATOM     67  C   UNL A   1      48.226  26.892  24.332  1.00  0.00     0.002 A 
ATOM     68  C   UNL A   1      49.079  26.122  26.470  1.00  0.00     0.091 A 
ATOM     69  F   UNL A   1      47.761  26.439  28.435  1.00  0.00    -0.205 F 
ATOM     70  C   UNL A   1      49.216  26.256  25.077  1.00  0.00     0.022 A 
BRANCH  68  71
ATOM     71  S   UNL A   1      50.441  25.353  27.352  1.00  0.00     0.127 S 
ATOM     72  O   UNL A   1      49.785  24.192  27.953  1.00  0.00    -0.237 OA
ATOM     73  O   UNL A   1      51.371  25.036  26.268  1.00  0.00    -0.237 OA
ATOM     74  O   UNL A   1      50.926  26.355  28.291  1.00  0.00    -0.744 OA
ENDBRANCH  68  71
ENDBRANCH  50  64
BRANCH  51  75
ATOM     75  C   UNL A   1      38.778  30.473  31.045  1.00  0.00     0.023 A 
ATOM     76  C   UNL A   1      38.650  30.210  32.423  1.00  0.00     0.012 A 
ATOM     77  C   UNL A   1      37.753  31.175  30.382  1.00  0.00     0.148 A 
ATOM     78  C   UNL A   1      37.507  30.599  33.121  1.00  0.00     0.002 A 
ATOM     79  C   UNL A   1      36.634  31.599  31.093  1.00  0.00     0.091 A 
ATOM     80  F   UNL A   1      37.887  31.406  29.068  1.00  0.00    -0.205 F 
ATOM     81  C   UNL A   1      36.502  31.297  32.457  1.00  0.00     0.022 A 
BRANCH  79  82
ATOM     82  S   UNL A   1      35.331  32.586  30.347  1.00  0.00     0.127 S 
ATOM     83  O   UNL A   1      36.048  33.807  29.988  1.00  0.00    -0.237 OA
ATOM     84  O   UNL A   1      34.931  31.751  29.214  1.00  0.00    -0.237 OA
ATOM     85  O   UNL A   1      34.310  32.732  31.377  1.00  0.00    -0.744 OA
ENDBRANCH  79  82
ENDBRANCH  51  75
BRANCH  63  86
ATOM     86  C   UNL A   1      44.842  33.473  29.337  1.00  0.00     0.023 A 
ATOM     87  C   UNL A   1      45.646  33.725  30.466  1.00  0.00     0.012 A 
ATOM     88  C   UNL A   1      44.662  34.488  28.375  1.00  0.00     0.148 A 
ATOM     89  C   UNL A   1      46.241  34.973  30.647  1.00  0.00     0.002 A 
ATOM     90  C   UNL A   1      45.297  35.713  28.539  1.00  0.00     0.091 A 
ATOM     91  F   UNL A   1      43.877  34.236  27.317  1.00  0.00    -0.205 F 
ATOM     92  C   UNL A   1      46.077  35.961  29.679  1.00  0.00     0.022 A 
BRANCH  90  93
ATOM     93  S   UNL A   1      45.226  37.006  27.292  1.00  0.00     0.127 S 
ATOM     94  O   UNL A   1      45.937  38.098  27.954  1.00  0.00    -0.237 OA
ATOM     95  O   UNL A   1      45.947  36.399  26.172  1.00  0.00    -0.237 OA
ATOM     96  O   UNL A   1      43.811  37.240  27.039  1.00  0.00    -0.744 OA
ENDBRANCH  90  93
ENDBRANCH  63  86
ENDBRANCH  37  38
ENDBRANCH  30  32
ENDBRANCH  29  30
ENDBRANCH  28  29
ENDBRANCH  27  28
ENDBRANCH  26  27
ENDBRANCH   1  26
TORSDOF 22
ENDMDL
