MODEL 1
REMARK VINA RESULT:     -11.5      0.000      0.000
REMARK SMILES O=C(NCC(=O)OCCOCCOC(=O)c1ccc(-c2c3nc(c(-c4cccc(S(=O)(=O)[O-])c4F)c4ccc([nH]4)c(-c4cccc(S(=O)(=O)[O-])c4F)c4nc(c(-c5cccc(S(=O)(=O)[O-])c5F)c5ccc2[nH]5)C=C4)C=C3)cc1)Nc1cccc2c1CCCC2
REMARK SMILES IDX 11 1 10 2 9 3 8 4 7 5 5 6 6 7 4 8 3 9 1 10 2 11 79 12 80 15
REMARK SMILES IDX 81 16 85 17 82 18 84 19 86 20 83 21 89 22 87 23 88 24 12 25
REMARK SMILES IDX 13 26 14 27 15 28 16 29 17 30 78 31 18 32 77 33 19 34 20 35
REMARK SMILES IDX 21 36 71 37 22 38 76 39 70 40 72 41 23 42 75 43 69 44 68 45
REMARK SMILES IDX 24 47 56 48 36 49 55 50 37 51 40 52 54 53 73 54 38 55 39 56
REMARK SMILES IDX 53 58 74 59 41 60 25 61 26 62 34 63 27 64 29 65 35 66 28 67
REMARK SMILES IDX 30 68 31 69 32 70 33 71 57 72 58 73 66 74 59 75 61 76 67 77
REMARK SMILES IDX 60 78 62 79 63 80 64 81 65 82 42 83 43 84 51 85 44 86 46 87
REMARK SMILES IDX 52 88 45 89 47 90 48 91 49 92 50 93
REMARK H PARENT 3 13 79 14 72 46 40 57
REMARK Flexibility Score: inf
ROOT
ATOM      1  C   UNL A   1      36.073  20.940  25.368  1.00  0.00     0.202 C 
ENDROOT
BRANCH   1   2
ATOM      2  O   UNL A   1      34.951  20.486  24.618  1.00  0.00    -0.374 OA
BRANCH   2   3
ATOM      3  C   UNL A   1      33.744  20.198  25.319  1.00  0.00     0.202 C 
BRANCH   3   4
ATOM      4  C   UNL A   1      32.494  20.997  24.934  1.00  0.00     0.261 C 
BRANCH   4   5
ATOM      5  O   UNL A   1      32.259  21.042  23.510  1.00  0.00    -0.462 OA
BRANCH   5   6
ATOM      6  C   UNL A   1      31.892  22.259  23.025  1.00  0.00     0.325 C 
ATOM      7  O   UNL A   1      31.154  23.051  23.606  1.00  0.00    -0.250 OA
BRANCH   6   8
ATOM      8  C   UNL A   1      32.567  22.640  21.705  1.00  0.00     0.240 C 
BRANCH   8   9
ATOM      9  N   UNL A   1      32.903  24.031  21.418  1.00  0.00    -0.327 N 
ATOM     10  O   UNL A   1      33.760  26.071  21.744  1.00  0.00    -0.248 OA
ATOM     11  C   UNL A   1      33.641  24.923  22.159  1.00  0.00     0.319 C 
ATOM     12  N   UNL A   1      34.171  24.434  23.326  1.00  0.00    -0.308 N 
ATOM     13  H   UNL A   1      32.549  24.380  20.568  1.00  0.00     0.166 HD
ATOM     14  H   UNL A   1      34.446  23.490  23.329  1.00  0.00     0.171 HD
BRANCH  12  15
ATOM     15  C   UNL A   1      34.364  25.168  24.541  1.00  0.00     0.046 A 
ATOM     16  C   UNL A   1      34.926  24.359  25.525  1.00  0.00     0.026 A 
ATOM     17  C   UNL A   1      33.375  26.033  24.988  1.00  0.00    -0.021 A 
ATOM     18  C   UNL A   1      34.088  23.961  26.570  1.00  0.00     0.002 A 
ATOM     19  C   UNL A   1      32.374  25.462  25.771  1.00  0.00    -0.043 A 
ATOM     20  C   UNL A   1      33.718  27.463  25.458  1.00  0.00     0.038 C 
ATOM     21  C   UNL A   1      32.763  24.425  26.619  1.00  0.00     0.004 A 
ATOM     22  C   UNL A   1      31.154  26.306  25.989  1.00  0.00     0.036 C 
ATOM     23  C   UNL A   1      33.040  27.823  26.811  1.00  0.00     0.005 C 
ATOM     24  C   UNL A   1      31.538  27.483  26.882  1.00  0.00     0.005 C 
ENDBRANCH  12  15
ENDBRANCH   8   9
ENDBRANCH   6   8
ENDBRANCH   5   6
ENDBRANCH   4   5
ENDBRANCH   3   4
ENDBRANCH   2   3
ENDBRANCH   1   2
BRANCH   1  25
ATOM     25  C   UNL A   1      37.442  20.305  25.082  1.00  0.00     0.261 C 
BRANCH  25  26
ATOM     26  O   UNL A   1      38.536  21.240  25.103  1.00  0.00    -0.460 OA
BRANCH  26  27
ATOM     27  C   UNL A   1      39.439  21.020  26.095  1.00  0.00     0.338 C 
ATOM     28  O   UNL A   1      40.006  19.972  26.350  1.00  0.00    -0.246 OA
BRANCH  27  29
ATOM     29  C   UNL A   1      39.811  22.285  26.758  1.00  0.00     0.060 A 
ATOM     30  C   UNL A   1      39.157  23.452  26.338  1.00  0.00     0.016 A 
ATOM     31  C   UNL A   1      40.860  22.354  27.675  1.00  0.00     0.016 A 
ATOM     32  C   UNL A   1      39.587  24.697  26.791  1.00  0.00     0.010 A 
ATOM     33  C   UNL A   1      41.294  23.608  28.125  1.00  0.00     0.010 A 
ATOM     34  C   UNL A   1      40.688  24.787  27.653  1.00  0.00    -0.014 A 
BRANCH  34  35
ATOM     35  C   UNL A   1      41.269  26.121  27.954  1.00  0.00     0.031 A 
ATOM     36  C   UNL A   1      42.666  26.442  27.489  1.00  0.00     0.074 A 
ATOM     37  C   UNL A   1      40.553  27.046  28.617  1.00  0.00     0.049 A 
ATOM     38  N   UNL A   1      43.354  27.543  27.637  1.00  0.00    -0.248 NA
ATOM     39  C   UNL A   1      43.383  25.380  26.762  1.00  0.00     0.031 C 
ATOM     40  C   UNL A   1      39.195  26.858  29.125  1.00  0.00     0.029 A 
ATOM     41  N   UNL A   1      40.881  28.325  28.997  1.00  0.00    -0.354 N 
ATOM     42  C   UNL A   1      44.593  27.300  27.056  1.00  0.00     0.074 A 
ATOM     43  C   UNL A   1      44.565  25.943  26.557  1.00  0.00     0.031 C 
ATOM     44  C   UNL A   1      38.815  27.970  29.776  1.00  0.00     0.029 A 
ATOM     45  C   UNL A   1      39.908  28.940  29.749  1.00  0.00     0.049 A 
ATOM     46  H   UNL A   1      41.729  28.759  28.753  1.00  0.00     0.167 HD
ATOM     47  C   UNL A   1      45.655  28.134  26.938  1.00  0.00     0.034 A 
ATOM     48  C   UNL A   1      39.908  30.140  30.364  1.00  0.00     0.034 A 
ATOM     49  C   UNL A   1      45.675  29.492  27.411  1.00  0.00     0.049 A 
ATOM     50  C   UNL A   1      41.100  31.048  30.212  1.00  0.00     0.074 A 
ATOM     51  C   UNL A   1      46.681  30.433  27.282  1.00  0.00     0.029 A 
ATOM     52  N   UNL A   1      44.649  30.101  28.118  1.00  0.00    -0.354 N 
ATOM     53  N   UNL A   1      42.211  30.850  29.546  1.00  0.00    -0.248 NA
ATOM     54  C   UNL A   1      41.019  32.366  30.862  1.00  0.00     0.031 C 
ATOM     55  C   UNL A   1      46.279  31.600  27.940  1.00  0.00     0.029 A 
ATOM     56  C   UNL A   1      45.004  31.400  28.443  1.00  0.00     0.049 A 
ATOM     57  H   UNL A   1      43.795  29.672  28.355  1.00  0.00     0.167 HD
ATOM     58  C   UNL A   1      42.943  32.028  29.662  1.00  0.00     0.074 A 
ATOM     59  C   UNL A   1      42.138  32.943  30.444  1.00  0.00     0.031 C 
ATOM     60  C   UNL A   1      44.174  32.321  29.176  1.00  0.00     0.034 A 
BRANCH  47  61
ATOM     61  C   UNL A   1      46.889  27.610  26.250  1.00  0.00     0.023 A 
ATOM     62  C   UNL A   1      47.776  26.764  26.947  1.00  0.00     0.012 A 
ATOM     63  C   UNL A   1      47.131  27.896  24.892  1.00  0.00     0.148 A 
ATOM     64  C   UNL A   1      48.898  26.233  26.310  1.00  0.00     0.002 A 
ATOM     65  C   UNL A   1      48.224  27.326  24.251  1.00  0.00     0.091 A 
ATOM     66  F   UNL A   1      46.287  28.718  24.252  1.00  0.00    -0.205 F 
ATOM     67  C   UNL A   1      49.115  26.504  24.962  1.00  0.00     0.022 A 
BRANCH  65  68
ATOM     68  S   UNL A   1      48.544  27.545  22.497  1.00  0.00     0.127 S 
ATOM     69  O   UNL A   1      49.791  28.307  22.518  1.00  0.00    -0.237 OA
ATOM     70  O   UNL A   1      48.682  26.163  22.036  1.00  0.00    -0.237 OA
ATOM     71  O   UNL A   1      47.389  28.252  21.961  1.00  0.00    -0.744 OA
ENDBRANCH  65  68
ENDBRANCH  47  61
BRANCH  48  72
ATOM     72  C   UNL A   1      38.724  30.566  31.164  1.00  0.00     0.023 A 
ATOM     73  C   UNL A   1      38.691  30.323  32.551  1.00  0.00     0.012 A 
ATOM     74  C   UNL A   1      37.633  31.214  30.554  1.00  0.00     0.148 A 
ATOM     75  C   UNL A   1      37.576  30.684  33.309  1.00  0.00     0.002 A 
ATOM     76  C   UNL A   1      36.552  31.625  31.326  1.00  0.00     0.091 A 
ATOM     77  F   UNL A   1      37.675  31.422  29.231  1.00  0.00    -0.205 F 
ATOM     78  C   UNL A   1      36.512  31.343  32.699  1.00  0.00     0.022 A 
BRANCH  76  79
ATOM     79  S   UNL A   1      35.203  32.599  30.647  1.00  0.00     0.127 S 
ATOM     80  O   UNL A   1      34.854  31.835  29.453  1.00  0.00    -0.237 OA
ATOM     81  O   UNL A   1      34.217  32.541  31.727  1.00  0.00    -0.237 OA
ATOM     82  O   UNL A   1      35.755  33.926  30.413  1.00  0.00    -0.744 OA
ENDBRANCH  76  79
ENDBRANCH  48  72
BRANCH  60  83
ATOM     83  C   UNL A   1      44.715  33.708  29.425  1.00  0.00     0.023 A 
ATOM     84  C   UNL A   1      45.465  33.976  30.587  1.00  0.00     0.012 A 
ATOM     85  C   UNL A   1      44.524  34.733  28.476  1.00  0.00     0.148 A 
ATOM     86  C   UNL A   1      45.978  35.252  30.822  1.00  0.00     0.002 A 
ATOM     87  C   UNL A   1      45.083  35.986  28.691  1.00  0.00     0.091 A 
ATOM     88  F   UNL A   1      43.792  34.466  27.385  1.00  0.00    -0.205 F 
ATOM     89  C   UNL A   1      45.797  36.253  29.870  1.00  0.00     0.022 A 
BRANCH  87  90
ATOM     90  S   UNL A   1      44.982  37.304  27.473  1.00  0.00     0.127 S 
ATOM     91  O   UNL A   1      45.952  36.859  26.473  1.00  0.00    -0.237 OA
ATOM     92  O   UNL A   1      43.585  37.226  27.044  1.00  0.00    -0.237 OA
ATOM     93  O   UNL A   1      45.327  38.529  28.181  1.00  0.00    -0.744 OA
ENDBRANCH  87  90
ENDBRANCH  60  83
ENDBRANCH  34  35
ENDBRANCH  27  29
ENDBRANCH  26  27
ENDBRANCH  25  26
ENDBRANCH   1  25
TORSDOF 19
ENDMDL
MODEL 2
REMARK VINA RESULT:     -11.4      4.974     10.254
REMARK SMILES O=C(NCC(=O)OCCOCCOC(=O)c1ccc(-c2c3nc(c(-c4cccc(S(=O)(=O)[O-])c4F)c4ccc([nH]4)c(-c4cccc(S(=O)(=O)[O-])c4F)c4nc(c(-c5cccc(S(=O)(=O)[O-])c5F)c5ccc2[nH]5)C=C4)C=C3)cc1)Nc1cccc2c1CCCC2
REMARK SMILES IDX 11 1 10 2 9 3 8 4 7 5 5 6 6 7 4 8 3 9 1 10 2 11 79 12 80 15
REMARK SMILES IDX 81 16 85 17 82 18 84 19 86 20 83 21 89 22 87 23 88 24 12 25
REMARK SMILES IDX 13 26 14 27 15 28 16 29 17 30 78 31 18 32 77 33 19 34 20 35
REMARK SMILES IDX 21 36 71 37 22 38 76 39 70 40 72 41 23 42 75 43 69 44 68 45
REMARK SMILES IDX 24 47 56 48 36 49 55 50 37 51 40 52 54 53 73 54 38 55 39 56
REMARK SMILES IDX 53 58 74 59 41 60 25 61 26 62 34 63 27 64 29 65 35 66 28 67
REMARK SMILES IDX 30 68 31 69 32 70 33 71 57 72 58 73 66 74 59 75 61 76 67 77
REMARK SMILES IDX 60 78 62 79 63 80 64 81 65 82 42 83 43 84 51 85 44 86 46 87
REMARK SMILES IDX 52 88 45 89 47 90 48 91 49 92 50 93
REMARK H PARENT 3 13 79 14 72 46 40 57
REMARK Flexibility Score: inf
ROOT
ATOM      1  C   UNL A   1      32.121  30.923  26.205  1.00  0.00     0.202 C 
ENDROOT
BRANCH   1   2
ATOM      2  O   UNL A   1      31.395  29.757  26.581  1.00  0.00    -0.374 OA
BRANCH   2   3
ATOM      3  C   UNL A   1      32.113  28.686  27.189  1.00  0.00     0.202 C 
BRANCH   3   4
ATOM      4  C   UNL A   1      32.008  27.303  26.535  1.00  0.00     0.261 C 
BRANCH   4   5
ATOM      5  O   UNL A   1      30.955  27.211  25.553  1.00  0.00    -0.462 OA
BRANCH   5   6
ATOM      6  C   UNL A   1      30.998  26.104  24.763  1.00  0.00     0.325 C 
ATOM      7  O   UNL A   1      31.221  24.965  25.166  1.00  0.00    -0.250 OA
BRANCH   6   8
ATOM      8  C   UNL A   1      30.630  26.360  23.300  1.00  0.00     0.240 C 
BRANCH   8   9
ATOM      9  N   UNL A   1      31.667  26.428  22.275  1.00  0.00    -0.327 N 
ATOM     10  O   UNL A   1      33.333  25.731  20.957  1.00  0.00    -0.248 OA
ATOM     11  C   UNL A   1      32.491  25.437  21.798  1.00  0.00     0.319 C 
ATOM     12  N   UNL A   1      32.296  24.189  22.334  1.00  0.00    -0.308 N 
ATOM     13  H   UNL A   1      31.794  27.314  21.865  1.00  0.00     0.166 HD
ATOM     14  H   UNL A   1      31.373  23.949  22.579  1.00  0.00     0.171 HD
BRANCH  12  15
ATOM     15  C   UNL A   1      33.306  23.202  22.573  1.00  0.00     0.046 A 
ATOM     16  C   UNL A   1      32.739  21.943  22.745  1.00  0.00     0.026 A 
ATOM     17  C   UNL A   1      34.363  23.491  23.424  1.00  0.00    -0.021 A 
ATOM     18  C   UNL A   1      32.734  21.425  24.043  1.00  0.00     0.002 A 
ATOM     19  C   UNL A   1      34.140  23.245  24.778  1.00  0.00    -0.043 A 
ATOM     20  C   UNL A   1      35.821  23.177  23.022  1.00  0.00     0.038 C 
ATOM     21  C   UNL A   1      33.337  22.147  25.086  1.00  0.00     0.004 A 
ATOM     22  C   UNL A   1      35.140  23.841  25.723  1.00  0.00     0.036 C 
ATOM     23  C   UNL A   1      36.607  22.455  24.154  1.00  0.00     0.005 C 
ATOM     24  C   UNL A   1      36.466  23.106  25.544  1.00  0.00     0.005 C 
ENDBRANCH  12  15
ENDBRANCH   8   9
ENDBRANCH   6   8
ENDBRANCH   5   6
ENDBRANCH   4   5
ENDBRANCH   3   4
ENDBRANCH   2   3
ENDBRANCH   1   2
BRANCH   1  25
ATOM     25  C   UNL A   1      31.750  32.255  26.876  1.00  0.00     0.261 C 
BRANCH  25  26
ATOM     26  O   UNL A   1      32.754  33.276  26.741  1.00  0.00    -0.460 OA
BRANCH  26  27
ATOM     27  C   UNL A   1      33.295  33.687  27.918  1.00  0.00     0.338 C 
ATOM     28  O   UNL A   1      32.799  34.458  28.722  1.00  0.00    -0.246 OA
BRANCH  27  29
ATOM     29  C   UNL A   1      34.528  32.936  28.223  1.00  0.00     0.060 A 
ATOM     30  C   UNL A   1      34.386  31.684  28.838  1.00  0.00     0.016 A 
ATOM     31  C   UNL A   1      35.794  33.491  28.032  1.00  0.00     0.016 A 
ATOM     32  C   UNL A   1      35.507  31.008  29.314  1.00  0.00     0.010 A 
ATOM     33  C   UNL A   1      36.918  32.811  28.518  1.00  0.00     0.010 A 
ATOM     34  C   UNL A   1      36.777  31.587  29.197  1.00  0.00    -0.014 A 
BRANCH  34  35
ATOM     35  C   UNL A   1      37.929  30.963  29.898  1.00  0.00     0.031 A 
ATOM     36  C   UNL A   1      38.235  31.360  31.319  1.00  0.00     0.074 A 
ATOM     37  C   UNL A   1      38.684  30.035  29.284  1.00  0.00     0.049 A 
ATOM     38  N   UNL A   1      39.183  30.932  32.112  1.00  0.00    -0.248 NA
ATOM     39  C   UNL A   1      37.359  32.375  31.927  1.00  0.00     0.031 C 
ATOM     40  C   UNL A   1      38.495  29.568  27.910  1.00  0.00     0.029 A 
ATOM     41  N   UNL A   1      39.778  29.334  29.731  1.00  0.00    -0.354 N 
ATOM     42  C   UNL A   1      39.041  31.646  33.296  1.00  0.00     0.074 A 
ATOM     43  C   UNL A   1      37.919  32.540  33.117  1.00  0.00     0.031 C 
ATOM     44  C   UNL A   1      39.459  28.679  27.616  1.00  0.00     0.029 A 
ATOM     45  C   UNL A   1      40.343  28.529  28.770  1.00  0.00     0.049 A 
ATOM     46  H   UNL A   1      40.122  29.401  30.650  1.00  0.00     0.167 HD
ATOM     47  C   UNL A   1      39.771  31.557  34.434  1.00  0.00     0.034 A 
ATOM     48  C   UNL A   1      41.460  27.775  28.810  1.00  0.00     0.034 A 
ATOM     49  C   UNL A   1      40.871  30.650  34.623  1.00  0.00     0.049 A 
ATOM     50  C   UNL A   1      42.250  27.691  30.090  1.00  0.00     0.074 A 
ATOM     51  C   UNL A   1      41.631  30.444  35.761  1.00  0.00     0.029 A 
ATOM     52  N   UNL A   1      41.381  29.808  33.647  1.00  0.00    -0.354 N 
ATOM     53  N   UNL A   1      42.023  28.274  31.242  1.00  0.00    -0.248 NA
ATOM     54  C   UNL A   1      43.428  26.810  30.089  1.00  0.00     0.031 C 
ATOM     55  C   UNL A   1      42.621  29.503  35.463  1.00  0.00     0.029 A 
ATOM     56  C   UNL A   1      42.452  29.091  34.152  1.00  0.00     0.049 A 
ATOM     57  H   UNL A   1      41.032  29.731  32.729  1.00  0.00     0.167 HD
ATOM     58  C   UNL A   1      43.001  27.802  32.111  1.00  0.00     0.074 A 
ATOM     59  C   UNL A   1      43.811  26.867  31.357  1.00  0.00     0.031 C 
ATOM     60  C   UNL A   1      43.218  28.122  33.411  1.00  0.00     0.034 A 
BRANCH  47  61
ATOM     61  C   UNL A   1      39.395  32.456  35.584  1.00  0.00     0.023 A 
ATOM     62  C   UNL A   1      38.624  31.948  36.650  1.00  0.00     0.012 A 
ATOM     63  C   UNL A   1      39.871  33.781  35.645  1.00  0.00     0.148 A 
ATOM     64  C   UNL A   1      38.308  32.755  37.743  1.00  0.00     0.002 A 
ATOM     65  C   UNL A   1      39.593  34.563  36.761  1.00  0.00     0.091 A 
ATOM     66  F   UNL A   1      40.587  34.250  34.614  1.00  0.00    -0.205 F 
ATOM     67  C   UNL A   1      38.802  34.055  37.804  1.00  0.00     0.022 A 
BRANCH  65  68
ATOM     68  S   UNL A   1      40.252  36.220  36.972  1.00  0.00     0.127 S 
ATOM     69  O   UNL A   1      39.488  36.696  38.125  1.00  0.00    -0.237 OA
ATOM     70  O   UNL A   1      41.665  35.956  37.245  1.00  0.00    -0.237 OA
ATOM     71  O   UNL A   1      39.994  36.920  35.721  1.00  0.00    -0.744 OA
ENDBRANCH  65  68
ENDBRANCH  47  61
BRANCH  48  72
ATOM     72  C   UNL A   1      41.887  27.013  27.602  1.00  0.00     0.023 A 
ATOM     73  C   UNL A   1      42.490  27.689  26.524  1.00  0.00     0.012 A 
ATOM     74  C   UNL A   1      41.700  25.619  27.521  1.00  0.00     0.148 A 
ATOM     75  C   UNL A   1      42.864  26.997  25.371  1.00  0.00     0.002 A 
ATOM     76  C   UNL A   1      42.131  24.927  26.395  1.00  0.00     0.091 A 
ATOM     77  F   UNL A   1      41.110  24.996  28.549  1.00  0.00    -0.205 F 
ATOM     78  C   UNL A   1      42.694  25.617  25.310  1.00  0.00     0.022 A 
BRANCH  76  79
ATOM     79  S   UNL A   1      42.074  23.135  26.289  1.00  0.00     0.127 S 
ATOM     80  O   UNL A   1      42.881  22.742  27.441  1.00  0.00    -0.237 OA
ATOM     81  O   UNL A   1      40.641  22.871  26.421  1.00  0.00    -0.237 OA
ATOM     82  O   UNL A   1      42.626  22.800  24.983  1.00  0.00    -0.744 OA
ENDBRANCH  76  79
ENDBRANCH  48  72
BRANCH  60  83
ATOM     83  C   UNL A   1      44.344  27.419  34.127  1.00  0.00     0.023 A 
ATOM     84  C   UNL A   1      45.633  27.990  34.153  1.00  0.00     0.012 A 
ATOM     85  C   UNL A   1      44.110  26.216  34.824  1.00  0.00     0.148 A 
ATOM     86  C   UNL A   1      46.678  27.353  34.821  1.00  0.00     0.002 A 
ATOM     87  C   UNL A   1      45.144  25.616  35.532  1.00  0.00     0.091 A 
ATOM     88  F   UNL A   1      42.884  25.677  34.775  1.00  0.00    -0.205 F 
ATOM     89  C   UNL A   1      46.431  26.173  35.520  1.00  0.00     0.022 A 
BRANCH  87  90
ATOM     90  S   UNL A   1      44.891  24.149  36.540  1.00  0.00     0.127 S 
ATOM     91  O   UNL A   1      46.265  23.726  36.801  1.00  0.00    -0.237 OA
ATOM     92  O   UNL A   1      44.186  24.688  37.704  1.00  0.00    -0.237 OA
ATOM     93  O   UNL A   1      44.097  23.238  35.726  1.00  0.00    -0.744 OA
ENDBRANCH  87  90
ENDBRANCH  60  83
ENDBRANCH  34  35
ENDBRANCH  27  29
ENDBRANCH  26  27
ENDBRANCH  25  26
ENDBRANCH   1  25
TORSDOF 19
ENDMDL
MODEL 3
REMARK VINA RESULT:     -11.4      1.443      7.779
REMARK SMILES O=C(NCC(=O)OCCOCCOC(=O)c1ccc(-c2c3nc(c(-c4cccc(S(=O)(=O)[O-])c4F)c4ccc([nH]4)c(-c4cccc(S(=O)(=O)[O-])c4F)c4nc(c(-c5cccc(S(=O)(=O)[O-])c5F)c5ccc2[nH]5)C=C4)C=C3)cc1)Nc1cccc2c1CCCC2
REMARK SMILES IDX 11 1 10 2 9 3 8 4 7 5 5 6 6 7 4 8 3 9 1 10 2 11 79 12 80 15
REMARK SMILES IDX 81 16 85 17 82 18 84 19 86 20 83 21 89 22 87 23 88 24 12 25
REMARK SMILES IDX 13 26 14 27 15 28 16 29 17 30 78 31 18 32 77 33 19 34 20 35
REMARK SMILES IDX 21 36 71 37 22 38 76 39 70 40 72 41 23 42 75 43 69 44 68 45
REMARK SMILES IDX 24 47 56 48 36 49 55 50 37 51 40 52 54 53 73 54 38 55 39 56
REMARK SMILES IDX 53 58 74 59 41 60 25 61 26 62 34 63 27 64 29 65 35 66 28 67
REMARK SMILES IDX 30 68 31 69 32 70 33 71 57 72 58 73 66 74 59 75 61 76 67 77
REMARK SMILES IDX 60 78 62 79 63 80 64 81 65 82 42 83 43 84 51 85 44 86 46 87
REMARK SMILES IDX 52 88 45 89 47 90 48 91 49 92 50 93
REMARK H PARENT 3 13 79 14 72 46 40 57
REMARK Flexibility Score: inf
ROOT
ATOM      1  C   UNL A   1      37.543  19.979  24.685  1.00  0.00     0.202 C 
ENDROOT
BRANCH   1   2
ATOM      2  O   UNL A   1      37.255  21.253  25.252  1.00  0.00    -0.374 OA
BRANCH   2   3
ATOM      3  C   UNL A   1      36.699  22.256  24.406  1.00  0.00     0.202 C 
BRANCH   3   4
ATOM      4  C   UNL A   1      35.395  22.922  24.861  1.00  0.00     0.261 C 
BRANCH   4   5
ATOM      5  O   UNL A   1      34.256  22.036  24.826  1.00  0.00    -0.462 OA
BRANCH   5   6
ATOM      6  C   UNL A   1      33.066  22.638  24.556  1.00  0.00     0.325 C 
ATOM      7  O   UNL A   1      32.939  23.709  23.967  1.00  0.00    -0.250 OA
BRANCH   6   8
ATOM      8  C   UNL A   1      31.839  21.812  24.952  1.00  0.00     0.240 C 
BRANCH   8   9
ATOM      9  N   UNL A   1      31.076  22.146  26.151  1.00  0.00    -0.327 N 
ATOM     10  O   UNL A   1      29.829  23.371  27.546  1.00  0.00    -0.248 OA
ATOM     11  C   UNL A   1      30.363  23.283  26.445  1.00  0.00     0.319 C 
ATOM     12  N   UNL A   1      30.330  24.238  25.460  1.00  0.00    -0.308 N 
ATOM     13  H   UNL A   1      31.072  21.453  26.851  1.00  0.00     0.166 HD
ATOM     14  H   UNL A   1      30.331  23.918  24.530  1.00  0.00     0.171 HD
BRANCH  12  15
ATOM     15  C   UNL A   1      30.294  25.656  25.657  1.00  0.00     0.046 A 
ATOM     16  C   UNL A   1      29.659  26.288  24.591  1.00  0.00     0.026 A 
ATOM     17  C   UNL A   1      31.414  26.313  26.146  1.00  0.00    -0.021 A 
ATOM     18  C   UNL A   1      30.472  27.007  23.709  1.00  0.00     0.002 A 
ATOM     19  C   UNL A   1      32.352  26.708  25.194  1.00  0.00    -0.043 A 
ATOM     20  C   UNL A   1      31.300  27.340  27.293  1.00  0.00     0.038 C 
ATOM     21  C   UNL A   1      31.850  27.110  23.956  1.00  0.00     0.004 A 
ATOM     22  C   UNL A   1      33.689  27.125  25.730  1.00  0.00     0.036 C 
ATOM     23  C   UNL A   1      32.076  28.654  26.994  1.00  0.00     0.005 C 
ATOM     24  C   UNL A   1      33.514  28.443  26.481  1.00  0.00     0.005 C 
ENDBRANCH  12  15
ENDBRANCH   8   9
ENDBRANCH   6   8
ENDBRANCH   5   6
ENDBRANCH   4   5
ENDBRANCH   3   4
ENDBRANCH   2   3
ENDBRANCH   1   2
BRANCH   1  25
ATOM     25  C   UNL A   1      38.692  19.159  25.291  1.00  0.00     0.261 C 
BRANCH  25  26
ATOM     26  O   UNL A   1      39.248  19.729  26.490  1.00  0.00    -0.460 OA
BRANCH  26  27
ATOM     27  C   UNL A   1      40.566  20.048  26.396  1.00  0.00     0.338 C 
ATOM     28  O   UNL A   1      41.439  19.398  25.848  1.00  0.00    -0.246 OA
BRANCH  27  29
ATOM     29  C   UNL A   1      40.815  21.413  26.900  1.00  0.00     0.060 A 
ATOM     30  C   UNL A   1      40.324  22.482  26.138  1.00  0.00     0.016 A 
ATOM     31  C   UNL A   1      41.617  21.649  28.017  1.00  0.00     0.016 A 
ATOM     32  C   UNL A   1      40.678  23.791  26.459  1.00  0.00     0.010 A 
ATOM     33  C   UNL A   1      41.976  22.966  28.333  1.00  0.00     0.010 A 
ATOM     34  C   UNL A   1      41.544  24.039  27.533  1.00  0.00    -0.014 A 
BRANCH  34  35
ATOM     35  C   UNL A   1      42.085  25.409  27.729  1.00  0.00     0.031 A 
ATOM     36  C   UNL A   1      41.240  26.447  28.420  1.00  0.00     0.074 A 
ATOM     37  C   UNL A   1      43.326  25.721  27.315  1.00  0.00     0.049 A 
ATOM     38  N   UNL A   1      41.524  27.692  28.700  1.00  0.00    -0.248 NA
ATOM     39  C   UNL A   1      39.896  26.027  28.852  1.00  0.00     0.031 C 
ATOM     40  C   UNL A   1      44.241  24.809  26.629  1.00  0.00     0.029 A 
ATOM     41  N   UNL A   1      44.023  26.902  27.392  1.00  0.00    -0.354 N 
ATOM     42  C   UNL A   1      40.388  28.216  29.307  1.00  0.00     0.074 A 
ATOM     43  C   UNL A   1      39.407  27.154  29.350  1.00  0.00     0.031 C 
ATOM     44  C   UNL A   1      45.368  25.473  26.322  1.00  0.00     0.029 A 
ATOM     45  C   UNL A   1      45.247  26.858  26.769  1.00  0.00     0.049 A 
ATOM     46  H   UNL A   1      43.678  27.702  27.850  1.00  0.00     0.167 HD
ATOM     47  C   UNL A   1      40.183  29.463  29.795  1.00  0.00     0.034 A 
ATOM     48  C   UNL A   1      46.158  27.831  26.564  1.00  0.00     0.034 A 
ATOM     49  C   UNL A   1      41.168  30.512  29.775  1.00  0.00     0.049 A 
ATOM     50  C   UNL A   1      45.906  29.208  27.121  1.00  0.00     0.074 A 
ATOM     51  C   UNL A   1      41.074  31.789  30.301  1.00  0.00     0.029 A 
ATOM     52  N   UNL A   1      42.419  30.414  29.187  1.00  0.00    -0.354 N 
ATOM     53  N   UNL A   1      44.881  29.648  27.809  1.00  0.00    -0.248 NA
ATOM     54  C   UNL A   1      46.960  30.214  26.911  1.00  0.00     0.031 C 
ATOM     55  C   UNL A   1      42.256  32.475  30.001  1.00  0.00     0.029 A 
ATOM     56  C   UNL A   1      43.102  31.612  29.325  1.00  0.00     0.049 A 
ATOM     57  H   UNL A   1      42.770  29.612  28.737  1.00  0.00     0.167 HD
ATOM     58  C   UNL A   1      45.181  30.963  28.147  1.00  0.00     0.074 A 
ATOM     59  C   UNL A   1      46.495  31.242  27.607  1.00  0.00     0.031 C 
ATOM     60  C   UNL A   1      44.432  31.863  28.832  1.00  0.00     0.034 A 
BRANCH  47  61
ATOM     61  C   UNL A   1      38.844  29.767  30.414  1.00  0.00     0.023 A 
ATOM     62  C   UNL A   1      38.567  29.346  31.731  1.00  0.00     0.012 A 
ATOM     63  C   UNL A   1      37.888  30.535  29.718  1.00  0.00     0.148 A 
ATOM     64  C   UNL A   1      37.349  29.661  32.334  1.00  0.00     0.002 A 
ATOM     65  C   UNL A   1      36.698  30.885  30.344  1.00  0.00     0.091 A 
ATOM     66  F   UNL A   1      38.163  30.909  28.461  1.00  0.00    -0.205 F 
ATOM     67  C   UNL A   1      36.421  30.439  31.646  1.00  0.00     0.022 A 
BRANCH  65  68
ATOM     68  S   UNL A   1      35.475  31.953  29.574  1.00  0.00     0.127 S 
ATOM     69  O   UNL A   1      36.302  33.072  29.125  1.00  0.00    -0.237 OA
ATOM     70  O   UNL A   1      34.962  31.105  28.498  1.00  0.00    -0.237 OA
ATOM     71  O   UNL A   1      34.505  32.271  30.613  1.00  0.00    -0.744 OA
ENDBRANCH  65  68
ENDBRANCH  47  61
BRANCH  48  72
ATOM     72  C   UNL A   1      47.411  27.532  25.814  1.00  0.00     0.023 A 
ATOM     73  C   UNL A   1      48.557  27.101  26.509  1.00  0.00     0.012 A 
ATOM     74  C   UNL A   1      47.467  27.669  24.413  1.00  0.00     0.148 A 
ATOM     75  C   UNL A   1      49.748  26.849  25.827  1.00  0.00     0.002 A 
ATOM     76  C   UNL A   1      48.640  27.359  23.734  1.00  0.00     0.091 A 
ATOM     77  F   UNL A   1      46.372  28.097  23.772  1.00  0.00    -0.205 F 
ATOM     78  C   UNL A   1      49.787  26.968  24.440  1.00  0.00     0.022 A 
BRANCH  76  79
ATOM     79  S   UNL A   1      48.737  27.354  21.940  1.00  0.00     0.127 S 
ATOM     80  O   UNL A   1      50.035  27.983  21.710  1.00  0.00    -0.237 OA
ATOM     81  O   UNL A   1      48.683  25.923  21.640  1.00  0.00    -0.237 OA
ATOM     82  O   UNL A   1      47.577  28.105  21.481  1.00  0.00    -0.744 OA
ENDBRANCH  76  79
ENDBRANCH  48  72
BRANCH  60  83
ATOM     83  C   UNL A   1      45.031  33.223  29.089  1.00  0.00     0.023 A 
ATOM     84  C   UNL A   1      45.667  33.496  30.317  1.00  0.00     0.012 A 
ATOM     85  C   UNL A   1      45.010  34.216  28.089  1.00  0.00     0.148 A 
ATOM     86  C   UNL A   1      46.233  34.747  30.560  1.00  0.00     0.002 A 
ATOM     87  C   UNL A   1      45.623  35.442  28.318  1.00  0.00     0.091 A 
ATOM     88  F   UNL A   1      44.386  33.947  26.933  1.00  0.00    -0.205 F 
ATOM     89  C   UNL A   1      46.221  35.715  29.558  1.00  0.00     0.022 A 
BRANCH  87  90
ATOM     90  S   UNL A   1      45.741  36.709  27.050  1.00  0.00     0.127 S 
ATOM     91  O   UNL A   1      44.367  37.205  26.994  1.00  0.00    -0.237 OA
ATOM     92  O   UNL A   1      46.705  37.644  27.632  1.00  0.00    -0.237 OA
ATOM     93  O   UNL A   1      46.213  36.029  25.850  1.00  0.00    -0.744 OA
ENDBRANCH  87  90
ENDBRANCH  60  83
ENDBRANCH  34  35
ENDBRANCH  27  29
ENDBRANCH  26  27
ENDBRANCH  25  26
ENDBRANCH   1  25
TORSDOF 19
ENDMDL
