MODEL 1
REMARK VINA RESULT:     -11.8      0.000      0.000
REMARK SMILES C[C@@H]1[C@@H](C(=O)OCCOCCOC(=O)c2ccc(-c3c4nc(c(-c5cccc(S(=O)(=O)[O-])c5F)c5ccc([nH]5)c(-c5cccc(S(=O)(=O)[O-])c5F)c5nc(c(-c6cccc(S(=O)(=O)[O-])c6F)c6ccc3[nH]6)C=C5)C=C4)cc2)CC[N@@H+]1Cc1c(F)cccc1Cl
REMARK SMILES IDX 10 1 9 2 8 3 7 4 6 5 4 6 5 7 3 8 1 9 2 10 80 11 78 12 79 13
REMARK SMILES IDX 81 15 82 16 83 17 88 18 84 19 85 20 87 21 89 22 86 23 11 24
REMARK SMILES IDX 12 25 13 26 14 27 15 28 16 29 77 30 17 31 76 32 18 33 19 34
REMARK SMILES IDX 20 35 70 36 21 37 75 38 69 39 71 40 22 41 74 42 68 43 67 44
REMARK SMILES IDX 23 46 55 47 35 48 54 49 36 50 39 51 53 52 72 53 37 54 38 55
REMARK SMILES IDX 52 57 73 58 40 59 24 60 25 61 33 62 26 63 28 64 34 65 27 66
REMARK SMILES IDX 29 67 30 68 31 69 32 70 56 71 57 72 65 73 58 74 60 75 66 76
REMARK SMILES IDX 59 77 61 78 62 79 63 80 64 81 41 82 42 83 50 84 43 85 45 86
REMARK SMILES IDX 51 87 44 88 46 89 47 90 48 91 49 92
REMARK H PARENT 80 14 71 45 39 56
REMARK Flexibility Score: inf
ROOT
ATOM      1  C   UNL A   1      31.809  29.828  25.365  1.00  0.00     0.202 C 
ENDROOT
BRANCH   1   2
ATOM      2  O   UNL A   1      30.744  29.585  24.445  1.00  0.00    -0.374 OA
BRANCH   2   3
ATOM      3  C   UNL A   1      31.075  29.011  23.181  1.00  0.00     0.202 C 
BRANCH   3   4
ATOM      4  C   UNL A   1      30.136  27.936  22.632  1.00  0.00     0.261 C 
BRANCH   4   5
ATOM      5  O   UNL A   1      30.824  27.022  21.771  1.00  0.00    -0.463 OA
BRANCH   5   6
ATOM      6  C   UNL A   1      31.790  26.271  22.374  1.00  0.00     0.315 C 
ATOM      7  O   UNL A   1      32.953  26.202  22.002  1.00  0.00    -0.252 OA
BRANCH   6   8
ATOM      8  C   UNL A   1      31.229  25.636  23.635  1.00  0.00     0.162 C 
ATOM      9  C   UNL A   1      31.831  26.007  26.046  1.00  0.00     0.076 C 
ATOM     10  C   UNL A   1      32.328  25.466  24.707  1.00  0.00     0.195 C 
ATOM     11  N   UNL A   1      32.632  24.043  24.635  1.00  0.00    -0.328 N 
ATOM     12  C   UNL A   1      30.758  24.213  23.354  1.00  0.00     0.083 C 
ATOM     13  C   UNL A   1      32.055  23.440  23.453  1.00  0.00     0.263 C 
ATOM     14  H   UNL A   1      33.610  24.038  24.921  1.00  0.00     0.348 HD
BRANCH  11  15
ATOM     15  C   UNL A   1      33.242  23.235  25.664  1.00  0.00     0.303 C 
BRANCH  15  16
ATOM     16  C   UNL A   1      34.649  22.771  25.359  1.00  0.00     0.061 A 
ATOM     17  C   UNL A   1      35.697  23.698  25.456  1.00  0.00     0.133 A 
ATOM     18  C   UNL A   1      34.998  21.459  25.005  1.00  0.00     0.052 A 
ATOM     19  F   UNL A   1      35.430  24.990  25.701  1.00  0.00    -0.206 F 
ATOM     20  C   UNL A   1      37.035  23.330  25.322  1.00  0.00     0.040 A 
ATOM     21  C   UNL A   1      36.342  21.076  24.890  1.00  0.00     0.021 A 
ATOM     22  Cl  UNL A   1      33.843  20.249  24.586  1.00  0.00    -0.084 Cl
ATOM     23  C   UNL A   1      37.361  22.006  25.064  1.00  0.00     0.005 A 
ENDBRANCH  15  16
ENDBRANCH  11  15
ENDBRANCH   6   8
ENDBRANCH   5   6
ENDBRANCH   4   5
ENDBRANCH   3   4
ENDBRANCH   2   3
ENDBRANCH   1   2
BRANCH   1  24
ATOM     24  C   UNL A   1      31.739  31.110  26.203  1.00  0.00     0.261 C 
BRANCH  24  25
ATOM     25  O   UNL A   1      32.549  31.030  27.388  1.00  0.00    -0.460 OA
BRANCH  25  26
ATOM     26  C   UNL A   1      33.414  32.057  27.551  1.00  0.00     0.338 C 
ATOM     27  O   UNL A   1      33.142  33.253  27.569  1.00  0.00    -0.246 OA
BRANCH  26  28
ATOM     28  C   UNL A   1      34.750  31.549  27.905  1.00  0.00     0.060 A 
ATOM     29  C   UNL A   1      34.879  30.171  28.125  1.00  0.00     0.016 A 
ATOM     30  C   UNL A   1      35.833  32.406  28.106  1.00  0.00     0.016 A 
ATOM     31  C   UNL A   1      36.076  29.650  28.604  1.00  0.00     0.010 A 
ATOM     32  C   UNL A   1      37.032  31.882  28.598  1.00  0.00     0.010 A 
ATOM     33  C   UNL A   1      37.143  30.510  28.890  1.00  0.00    -0.014 A 
BRANCH  33  34
ATOM     34  C   UNL A   1      38.307  29.993  29.647  1.00  0.00     0.031 A 
ATOM     35  C   UNL A   1      38.519  30.463  31.060  1.00  0.00     0.074 A 
ATOM     36  C   UNL A   1      39.150  29.107  29.090  1.00  0.00     0.049 A 
ATOM     37  N   UNL A   1      39.470  30.150  31.902  1.00  0.00    -0.248 NA
ATOM     38  C   UNL A   1      37.530  31.413  31.597  1.00  0.00     0.031 C 
ATOM     39  C   UNL A   1      39.040  28.575  27.733  1.00  0.00     0.029 A 
ATOM     40  N   UNL A   1      40.279  28.514  29.596  1.00  0.00    -0.354 N 
ATOM     41  C   UNL A   1      39.210  30.881  33.054  1.00  0.00     0.074 A 
ATOM     42  C   UNL A   1      38.020  31.665  32.802  1.00  0.00     0.031 C 
ATOM     43  C   UNL A   1      40.080  27.755  27.502  1.00  0.00     0.029 A 
ATOM     44  C   UNL A   1      40.936  27.719  28.686  1.00  0.00     0.049 A 
ATOM     45  H   UNL A   1      40.590  28.645  30.520  1.00  0.00     0.167 HD
ATOM     46  C   UNL A   1      39.890  30.888  34.225  1.00  0.00     0.034 A 
ATOM     47  C   UNL A   1      42.105  27.058  28.794  1.00  0.00     0.034 A 
ATOM     48  C   UNL A   1      41.059  30.092  34.481  1.00  0.00     0.049 A 
ATOM     49  C   UNL A   1      42.854  27.097  30.101  1.00  0.00     0.074 A 
ATOM     50  C   UNL A   1      41.793  29.992  35.649  1.00  0.00     0.029 A 
ATOM     51  N   UNL A   1      41.672  29.267  33.550  1.00  0.00    -0.354 N 
ATOM     52  N   UNL A   1      42.530  27.697  31.221  1.00  0.00    -0.248 NA
ATOM     53  C   UNL A   1      44.112  26.340  30.170  1.00  0.00     0.031 C 
ATOM     54  C   UNL A   1      42.865  29.123  35.418  1.00  0.00     0.029 A 
ATOM     55  C   UNL A   1      42.782  28.662  34.113  1.00  0.00     0.049 A 
ATOM     56  H   UNL A   1      41.362  29.130  32.625  1.00  0.00     0.167 HD
ATOM     57  C   UNL A   1      43.522  27.363  32.136  1.00  0.00     0.074 A 
ATOM     58  C   UNL A   1      44.449  26.489  31.444  1.00  0.00     0.031 C 
ATOM     59  C   UNL A   1      43.663  27.751  33.428  1.00  0.00     0.034 A 
BRANCH  46  60
ATOM     60  C   UNL A   1      39.369  31.768  35.331  1.00  0.00     0.023 A 
ATOM     61  C   UNL A   1      38.458  31.241  36.268  1.00  0.00     0.012 A 
ATOM     62  C   UNL A   1      39.822  33.093  35.476  1.00  0.00     0.148 A 
ATOM     63  C   UNL A   1      37.982  32.030  37.315  1.00  0.00     0.002 A 
ATOM     64  C   UNL A   1      39.376  33.859  36.546  1.00  0.00     0.091 A 
ATOM     65  F   UNL A   1      40.670  33.583  34.559  1.00  0.00    -0.205 F 
ATOM     66  C   UNL A   1      38.448  33.333  37.460  1.00  0.00     0.022 A 
BRANCH  64  67
ATOM     67  S   UNL A   1      39.974  35.524  36.859  1.00  0.00     0.127 S 
ATOM     68  O   UNL A   1      39.309  35.843  38.121  1.00  0.00    -0.237 OA
ATOM     69  O   UNL A   1      41.419  35.317  36.966  1.00  0.00    -0.237 OA
ATOM     70  O   UNL A   1      39.558  36.322  35.713  1.00  0.00    -0.744 OA
ENDBRANCH  64  67
ENDBRANCH  46  60
BRANCH  47  71
ATOM     71  C   UNL A   1      42.621  26.268  27.641  1.00  0.00     0.023 A 
ATOM     72  C   UNL A   1      43.537  26.856  26.748  1.00  0.00     0.012 A 
ATOM     73  C   UNL A   1      42.222  24.933  27.436  1.00  0.00     0.148 A 
ATOM     74  C   UNL A   1      44.025  26.138  25.655  1.00  0.00     0.002 A 
ATOM     75  C   UNL A   1      42.754  24.205  26.378  1.00  0.00     0.091 A 
ATOM     76  F   UNL A   1      41.333  24.397  28.286  1.00  0.00    -0.205 F 
ATOM     77  C   UNL A   1      43.642  24.811  25.476  1.00  0.00     0.022 A 
BRANCH  75  78
ATOM     78  S   UNL A   1      42.416  22.456  26.148  1.00  0.00     0.127 S 
ATOM     79  O   UNL A   1      42.976  21.880  27.368  1.00  0.00    -0.237 OA
ATOM     80  O   UNL A   1      40.954  22.438  26.073  1.00  0.00    -0.237 OA
ATOM     81  O   UNL A   1      43.083  22.087  24.908  1.00  0.00    -0.744 OA
ENDBRANCH  75  78
ENDBRANCH  47  71
BRANCH  59  82
ATOM     82  C   UNL A   1      44.841  27.213  34.198  1.00  0.00     0.023 A 
ATOM     83  C   UNL A   1      46.060  27.920  34.197  1.00  0.00     0.012 A 
ATOM     84  C   UNL A   1      44.716  26.051  34.984  1.00  0.00     0.148 A 
ATOM     85  C   UNL A   1      47.145  27.462  34.943  1.00  0.00     0.002 A 
ATOM     86  C   UNL A   1      45.786  25.627  35.764  1.00  0.00     0.091 A 
ATOM     87  F   UNL A   1      43.554  25.382  34.958  1.00  0.00    -0.205 F 
ATOM     88  C   UNL A   1      47.005  26.324  35.734  1.00  0.00     0.022 A 
BRANCH  86  89
ATOM     89  S   UNL A   1      45.665  24.229  36.885  1.00  0.00     0.127 S 
ATOM     90  O   UNL A   1      47.072  23.925  37.137  1.00  0.00    -0.237 OA
ATOM     91  O   UNL A   1      44.952  24.806  38.026  1.00  0.00    -0.237 OA
ATOM     92  O   UNL A   1      44.920  23.204  36.166  1.00  0.00    -0.744 OA
ENDBRANCH  86  89
ENDBRANCH  59  82
ENDBRANCH  33  34
ENDBRANCH  26  28
ENDBRANCH  25  26
ENDBRANCH  24  25
ENDBRANCH   1  24
TORSDOF 19
ENDMDL
MODEL 2
REMARK VINA RESULT:     -11.6      1.882      2.492
REMARK SMILES C[C@@H]1[C@@H](C(=O)OCCOCCOC(=O)c2ccc(-c3c4nc(c(-c5cccc(S(=O)(=O)[O-])c5F)c5ccc([nH]5)c(-c5cccc(S(=O)(=O)[O-])c5F)c5nc(c(-c6cccc(S(=O)(=O)[O-])c6F)c6ccc3[nH]6)C=C5)C=C4)cc2)CC[N@@H+]1Cc1c(F)cccc1Cl
REMARK SMILES IDX 10 1 9 2 8 3 7 4 6 5 4 6 5 7 3 8 1 9 2 10 80 11 78 12 79 13
REMARK SMILES IDX 81 15 82 16 83 17 88 18 84 19 85 20 87 21 89 22 86 23 11 24
REMARK SMILES IDX 12 25 13 26 14 27 15 28 16 29 77 30 17 31 76 32 18 33 19 34
REMARK SMILES IDX 20 35 70 36 21 37 75 38 69 39 71 40 22 41 74 42 68 43 67 44
REMARK SMILES IDX 23 46 55 47 35 48 54 49 36 50 39 51 53 52 72 53 37 54 38 55
REMARK SMILES IDX 52 57 73 58 40 59 24 60 25 61 33 62 26 63 28 64 34 65 27 66
REMARK SMILES IDX 29 67 30 68 31 69 32 70 56 71 57 72 65 73 58 74 60 75 66 76
REMARK SMILES IDX 59 77 61 78 62 79 63 80 64 81 41 82 42 83 50 84 43 85 45 86
REMARK SMILES IDX 51 87 44 88 46 89 47 90 48 91 49 92
REMARK H PARENT 80 14 71 45 39 56
REMARK Flexibility Score: inf
ROOT
ATOM      1  C   UNL A   1      31.712  30.969  26.532  1.00  0.00     0.202 C 
ENDROOT
BRANCH   1   2
ATOM      2  O   UNL A   1      31.396  30.633  25.180  1.00  0.00    -0.374 OA
BRANCH   2   3
ATOM      3  C   UNL A   1      31.140  29.263  24.877  1.00  0.00     0.202 C 
BRANCH   3   4
ATOM      4  C   UNL A   1      31.735  28.214  25.819  1.00  0.00     0.261 C 
BRANCH   4   5
ATOM      5  O   UNL A   1      31.647  26.896  25.266  1.00  0.00    -0.463 OA
BRANCH   5   6
ATOM      6  C   UNL A   1      31.189  25.937  26.121  1.00  0.00     0.315 C 
ATOM      7  O   UNL A   1      30.060  25.903  26.590  1.00  0.00    -0.252 OA
BRANCH   6   8
ATOM      8  C   UNL A   1      32.251  24.867  26.303  1.00  0.00     0.162 C 
ATOM      9  C   UNL A   1      34.594  24.736  25.403  1.00  0.00     0.076 C 
ATOM     10  C   UNL A   1      33.113  24.719  25.029  1.00  0.00     0.195 C 
ATOM     11  N   UNL A   1      32.592  23.499  24.427  1.00  0.00    -0.328 N 
ATOM     12  C   UNL A   1      31.606  23.496  26.478  1.00  0.00     0.083 C 
ATOM     13  C   UNL A   1      31.346  23.098  25.042  1.00  0.00     0.263 C 
ATOM     14  H   UNL A   1      32.768  23.679  23.439  1.00  0.00     0.348 HD
BRANCH  11  15
ATOM     15  C   UNL A   1      33.270  22.641  23.485  1.00  0.00     0.303 C 
BRANCH  15  16
ATOM     16  C   UNL A   1      33.128  21.159  23.755  1.00  0.00     0.061 A 
ATOM     17  C   UNL A   1      32.299  20.400  22.917  1.00  0.00     0.133 A 
ATOM     18  C   UNL A   1      33.790  20.468  24.781  1.00  0.00     0.052 A 
ATOM     19  F   UNL A   1      31.563  21.007  21.972  1.00  0.00    -0.206 F 
ATOM     20  C   UNL A   1      32.211  19.013  23.010  1.00  0.00     0.040 A 
ATOM     21  C   UNL A   1      33.725  19.070  24.868  1.00  0.00     0.021 A 
ATOM     22  Cl  UNL A   1      34.641  21.252  26.060  1.00  0.00    -0.084 Cl
ATOM     23  C   UNL A   1      32.949  18.340  23.974  1.00  0.00     0.005 A 
ENDBRANCH  15  16
ENDBRANCH  11  15
ENDBRANCH   6   8
ENDBRANCH   5   6
ENDBRANCH   4   5
ENDBRANCH   3   4
ENDBRANCH   2   3
ENDBRANCH   1   2
BRANCH   1  24
ATOM     24  C   UNL A   1      31.629  32.446  26.931  1.00  0.00     0.261 C 
BRANCH  24  25
ATOM     25  O   UNL A   1      32.888  33.124  26.777  1.00  0.00    -0.460 OA
BRANCH  25  26
ATOM     26  C   UNL A   1      33.437  33.564  27.931  1.00  0.00     0.338 C 
ATOM     27  O   UNL A   1      32.933  34.339  28.738  1.00  0.00    -0.246 OA
BRANCH  26  28
ATOM     28  C   UNL A   1      34.684  32.834  28.217  1.00  0.00     0.060 A 
ATOM     29  C   UNL A   1      34.568  31.500  28.632  1.00  0.00     0.016 A 
ATOM     30  C   UNL A   1      35.931  33.458  28.166  1.00  0.00     0.016 A 
ATOM     31  C   UNL A   1      35.694  30.802  29.057  1.00  0.00     0.010 A 
ATOM     32  C   UNL A   1      37.059  32.759  28.604  1.00  0.00     0.010 A 
ATOM     33  C   UNL A   1      36.937  31.445  29.091  1.00  0.00    -0.014 A 
BRANCH  33  34
ATOM     34  C   UNL A   1      38.069  30.793  29.792  1.00  0.00     0.031 A 
ATOM     35  C   UNL A   1      38.357  31.178  31.218  1.00  0.00     0.074 A 
ATOM     36  C   UNL A   1      38.816  29.863  29.173  1.00  0.00     0.049 A 
ATOM     37  N   UNL A   1      39.296  30.746  32.018  1.00  0.00    -0.248 NA
ATOM     38  C   UNL A   1      37.469  32.186  31.823  1.00  0.00     0.031 C 
ATOM     39  C   UNL A   1      38.626  29.405  27.799  1.00  0.00     0.029 A 
ATOM     40  N   UNL A   1      39.901  29.152  29.621  1.00  0.00    -0.354 N 
ATOM     41  C   UNL A   1      39.131  31.444  33.208  1.00  0.00     0.074 A 
ATOM     42  C   UNL A   1      38.009  32.339  33.023  1.00  0.00     0.031 C 
ATOM     43  C   UNL A   1      39.584  28.509  27.504  1.00  0.00     0.029 A 
ATOM     44  C   UNL A   1      40.462  28.345  28.660  1.00  0.00     0.049 A 
ATOM     45  H   UNL A   1      40.244  29.213  30.542  1.00  0.00     0.167 HD
ATOM     46  C   UNL A   1      39.838  31.338  34.358  1.00  0.00     0.034 A 
ATOM     47  C   UNL A   1      41.569  27.579  28.706  1.00  0.00     0.034 A 
ATOM     48  C   UNL A   1      40.937  30.432  34.546  1.00  0.00     0.049 A 
ATOM     49  C   UNL A   1      42.351  27.493  29.991  1.00  0.00     0.074 A 
ATOM     50  C   UNL A   1      41.688  30.215  35.687  1.00  0.00     0.029 A 
ATOM     51  N   UNL A   1      41.451  29.599  33.564  1.00  0.00    -0.354 N 
ATOM     52  N   UNL A   1      42.109  28.068  31.145  1.00  0.00    -0.248 NA
ATOM     53  C   UNL A   1      43.538  26.627  29.993  1.00  0.00     0.031 C 
ATOM     54  C   UNL A   1      42.672  29.267  35.388  1.00  0.00     0.029 A 
ATOM     55  C   UNL A   1      42.517  28.875  34.068  1.00  0.00     0.049 A 
ATOM     56  H   UNL A   1      41.108  29.532  32.643  1.00  0.00     0.167 HD
ATOM     57  C   UNL A   1      43.090  27.606  32.017  1.00  0.00     0.074 A 
ATOM     58  C   UNL A   1      43.918  26.688  31.262  1.00  0.00     0.031 C 
ATOM     59  C   UNL A   1      43.296  27.922  33.319  1.00  0.00     0.034 A 
BRANCH  46  60
ATOM     60  C   UNL A   1      39.424  32.209  35.515  1.00  0.00     0.023 A 
ATOM     61  C   UNL A   1      39.843  33.555  35.558  1.00  0.00     0.012 A 
ATOM     62  C   UNL A   1      38.579  31.715  36.526  1.00  0.00     0.148 A 
ATOM     63  C   UNL A   1      39.451  34.386  36.606  1.00  0.00     0.002 A 
ATOM     64  C   UNL A   1      38.159  32.561  37.546  1.00  0.00     0.091 A 
ATOM     65  F   UNL A   1      38.213  30.425  36.481  1.00  0.00    -0.205 F 
ATOM     66  C   UNL A   1      38.602  33.893  37.593  1.00  0.00     0.022 A 
BRANCH  64  67
ATOM     67  S   UNL A   1      37.007  32.040  38.822  1.00  0.00     0.127 S 
ATOM     68  O   UNL A   1      37.674  32.515  40.033  1.00  0.00    -0.237 OA
ATOM     69  O   UNL A   1      35.795  32.778  38.463  1.00  0.00    -0.237 OA
ATOM     70  O   UNL A   1      36.896  30.593  38.695  1.00  0.00    -0.744 OA
ENDBRANCH  64  67
ENDBRANCH  46  60
BRANCH  47  71
ATOM     71  C   UNL A   1      41.985  26.800  27.505  1.00  0.00     0.023 A 
ATOM     72  C   UNL A   1      42.629  27.455  26.439  1.00  0.00     0.012 A 
ATOM     73  C   UNL A   1      41.760  25.412  27.425  1.00  0.00     0.148 A 
ATOM     74  C   UNL A   1      43.017  26.747  25.301  1.00  0.00     0.002 A 
ATOM     75  C   UNL A   1      42.199  24.703  26.313  1.00  0.00     0.091 A 
ATOM     76  F   UNL A   1      41.128  24.810  28.442  1.00  0.00    -0.205 F 
ATOM     77  C   UNL A   1      42.812  25.371  25.242  1.00  0.00     0.022 A 
BRANCH  75  78
ATOM     78  S   UNL A   1      42.092  22.913  26.211  1.00  0.00     0.127 S 
ATOM     79  O   UNL A   1      42.757  22.644  24.939  1.00  0.00    -0.237 OA
ATOM     80  O   UNL A   1      42.840  22.497  27.398  1.00  0.00    -0.237 OA
ATOM     81  O   UNL A   1      40.670  22.602  26.261  1.00  0.00    -0.744 OA
ENDBRANCH  75  78
ENDBRANCH  47  71
BRANCH  59  82
ATOM     82  C   UNL A   1      44.440  27.249  34.031  1.00  0.00     0.023 A 
ATOM     83  C   UNL A   1      45.709  27.861  34.053  1.00  0.00     0.012 A 
ATOM     84  C   UNL A   1      44.238  26.051  34.744  1.00  0.00     0.148 A 
ATOM     85  C   UNL A   1      46.766  27.276  34.749  1.00  0.00     0.002 A 
ATOM     86  C   UNL A   1      45.284  25.498  35.475  1.00  0.00     0.091 A 
ATOM     87  F   UNL A   1      43.029  25.473  34.697  1.00  0.00    -0.205 F 
ATOM     88  C   UNL A   1      46.552  26.102  35.468  1.00  0.00     0.022 A 
BRANCH  86  89
ATOM     89  S   UNL A   1      45.072  24.042  36.507  1.00  0.00     0.127 S 
ATOM     90  O   UNL A   1      44.193  23.217  35.682  1.00  0.00    -0.237 OA
ATOM     91  O   UNL A   1      46.443  23.544  36.626  1.00  0.00    -0.237 OA
ATOM     92  O   UNL A   1      44.495  24.520  37.757  1.00  0.00    -0.744 OA
ENDBRANCH  86  89
ENDBRANCH  59  82
ENDBRANCH  33  34
ENDBRANCH  26  28
ENDBRANCH  25  26
ENDBRANCH  24  25
ENDBRANCH   1  24
TORSDOF 19
ENDMDL
MODEL 3
REMARK VINA RESULT:     -11.6      4.824     10.193
REMARK SMILES C[C@@H]1[C@@H](C(=O)OCCOCCOC(=O)c2ccc(-c3c4nc(c(-c5cccc(S(=O)(=O)[O-])c5F)c5ccc([nH]5)c(-c5cccc(S(=O)(=O)[O-])c5F)c5nc(c(-c6cccc(S(=O)(=O)[O-])c6F)c6ccc3[nH]6)C=C5)C=C4)cc2)CC[N@@H+]1Cc1c(F)cccc1Cl
REMARK SMILES IDX 10 1 9 2 8 3 7 4 6 5 4 6 5 7 3 8 1 9 2 10 80 11 78 12 79 13
REMARK SMILES IDX 81 15 82 16 83 17 88 18 84 19 85 20 87 21 89 22 86 23 11 24
REMARK SMILES IDX 12 25 13 26 14 27 15 28 16 29 77 30 17 31 76 32 18 33 19 34
REMARK SMILES IDX 20 35 70 36 21 37 75 38 69 39 71 40 22 41 74 42 68 43 67 44
REMARK SMILES IDX 23 46 55 47 35 48 54 49 36 50 39 51 53 52 72 53 37 54 38 55
REMARK SMILES IDX 52 57 73 58 40 59 24 60 25 61 33 62 26 63 28 64 34 65 27 66
REMARK SMILES IDX 29 67 30 68 31 69 32 70 56 71 57 72 65 73 58 74 60 75 66 76
REMARK SMILES IDX 59 77 61 78 62 79 63 80 64 81 41 82 42 83 50 84 43 85 45 86
REMARK SMILES IDX 51 87 44 88 46 89 47 90 48 91 49 92
REMARK H PARENT 80 14 71 45 39 56
REMARK Flexibility Score: inf
ROOT
ATOM      1  C   UNL A   1      35.915  20.384  24.994  1.00  0.00     0.202 C 
ENDROOT
BRANCH   1   2
ATOM      2  O   UNL A   1      35.405  21.225  26.029  1.00  0.00    -0.374 OA
BRANCH   2   3
ATOM      3  C   UNL A   1      34.100  20.944  26.533  1.00  0.00     0.202 C 
BRANCH   3   4
ATOM      4  C   UNL A   1      33.116  20.258  25.584  1.00  0.00     0.261 C 
BRANCH   4   5
ATOM      5  O   UNL A   1      32.115  21.167  25.112  1.00  0.00    -0.463 OA
BRANCH   5   6
ATOM      6  C   UNL A   1      32.305  21.632  23.844  1.00  0.00     0.315 C 
ATOM      7  O   UNL A   1      32.086  20.991  22.826  1.00  0.00    -0.252 OA
BRANCH   6   8
ATOM      8  C   UNL A   1      32.713  23.095  23.893  1.00  0.00     0.162 C 
ATOM      9  C   UNL A   1      33.340  24.540  25.851  1.00  0.00     0.076 C 
ATOM     10  C   UNL A   1      32.201  23.770  25.185  1.00  0.00     0.195 C 
ATOM     11  N   UNL A   1      31.060  24.544  24.715  1.00  0.00    -0.328 N 
ATOM     12  C   UNL A   1      32.038  23.878  22.771  1.00  0.00     0.083 C 
ATOM     13  C   UNL A   1      30.680  24.160  23.373  1.00  0.00     0.263 C 
ATOM     14  H   UNL A   1      30.474  24.553  25.549  1.00  0.00     0.348 HD
BRANCH  11  15
ATOM     15  C   UNL A   1      30.467  25.691  25.359  1.00  0.00     0.303 C 
BRANCH  15  16
ATOM     16  C   UNL A   1      30.415  26.943  24.511  1.00  0.00     0.061 A 
ATOM     17  C   UNL A   1      31.551  27.763  24.453  1.00  0.00     0.133 A 
ATOM     18  C   UNL A   1      29.309  27.343  23.746  1.00  0.00     0.052 A 
ATOM     19  F   UNL A   1      32.614  27.493  25.228  1.00  0.00    -0.206 F 
ATOM     20  C   UNL A   1      31.638  28.860  23.600  1.00  0.00     0.040 A 
ATOM     21  C   UNL A   1      29.396  28.433  22.868  1.00  0.00     0.021 A 
ATOM     22  Cl  UNL A   1      27.748  26.622  23.882  1.00  0.00    -0.084 Cl
ATOM     23  C   UNL A   1      30.564  29.182  22.782  1.00  0.00     0.005 A 
ENDBRANCH  15  16
ENDBRANCH  11  15
ENDBRANCH   6   8
ENDBRANCH   5   6
ENDBRANCH   4   5
ENDBRANCH   3   4
ENDBRANCH   2   3
ENDBRANCH   1   2
BRANCH   1  24
ATOM     24  C   UNL A   1      37.425  20.120  24.979  1.00  0.00     0.261 C 
BRANCH  24  25
ATOM     25  O   UNL A   1      38.188  21.307  25.257  1.00  0.00    -0.460 OA
BRANCH  25  26
ATOM     26  C   UNL A   1      39.276  21.109  26.034  1.00  0.00     0.338 C 
ATOM     27  O   UNL A   1      39.967  20.097  26.091  1.00  0.00    -0.246 OA
BRANCH  26  28
ATOM     28  C   UNL A   1      39.667  22.365  26.697  1.00  0.00     0.060 A 
ATOM     29  C   UNL A   1      38.979  23.529  26.328  1.00  0.00     0.016 A 
ATOM     30  C   UNL A   1      40.736  22.423  27.592  1.00  0.00     0.016 A 
ATOM     31  C   UNL A   1      39.398  24.767  26.806  1.00  0.00     0.010 A 
ATOM     32  C   UNL A   1      41.162  23.668  28.062  1.00  0.00     0.010 A 
ATOM     33  C   UNL A   1      40.521  24.846  27.637  1.00  0.00    -0.014 A 
BRANCH  33  34
ATOM     34  C   UNL A   1      41.119  26.173  27.920  1.00  0.00     0.031 A 
ATOM     35  C   UNL A   1      42.514  26.458  27.434  1.00  0.00     0.074 A 
ATOM     36  C   UNL A   1      40.424  27.112  28.583  1.00  0.00     0.049 A 
ATOM     37  N   UNL A   1      43.234  27.540  27.574  1.00  0.00    -0.248 NA
ATOM     38  C   UNL A   1      43.189  25.379  26.692  1.00  0.00     0.031 C 
ATOM     39  C   UNL A   1      39.064  26.953  29.094  1.00  0.00     0.029 A 
ATOM     40  N   UNL A   1      40.779  28.383  28.958  1.00  0.00    -0.354 N 
ATOM     41  C   UNL A   1      44.452  27.266  26.965  1.00  0.00     0.074 A 
ATOM     42  C   UNL A   1      44.381  25.910  26.464  1.00  0.00     0.031 C 
ATOM     43  C   UNL A   1      38.709  28.075  29.744  1.00  0.00     0.029 A 
ATOM     44  C   UNL A   1      39.822  29.022  29.710  1.00  0.00     0.049 A 
ATOM     45  H   UNL A   1      41.638  28.799  28.712  1.00  0.00     0.167 HD
ATOM     46  C   UNL A   1      45.528  28.075  26.820  1.00  0.00     0.034 A 
ATOM     47  C   UNL A   1      39.852  30.224  30.317  1.00  0.00     0.034 A 
ATOM     48  C   UNL A   1      45.588  29.429  27.298  1.00  0.00     0.049 A 
ATOM     49  C   UNL A   1      41.069  31.098  30.156  1.00  0.00     0.074 A 
ATOM     50  C   UNL A   1      46.614  30.346  27.160  1.00  0.00     0.029 A 
ATOM     51  N   UNL A   1      44.583  30.056  28.019  1.00  0.00    -0.354 N 
ATOM     52  N   UNL A   1      42.165  30.871  29.474  1.00  0.00    -0.248 NA
ATOM     53  C   UNL A   1      41.040  32.409  30.822  1.00  0.00     0.031 C 
ATOM     54  C   UNL A   1      46.239  31.522  27.818  1.00  0.00     0.029 A 
ATOM     55  C   UNL A   1      44.968  31.345  28.343  1.00  0.00     0.049 A 
ATOM     56  H   UNL A   1      43.722  29.645  28.264  1.00  0.00     0.167 HD
ATOM     57  C   UNL A   1      42.939  32.020  29.597  1.00  0.00     0.074 A 
ATOM     58  C   UNL A   1      42.176  32.950  30.404  1.00  0.00     0.031 C 
ATOM     59  C   UNL A   1      44.174  32.279  29.100  1.00  0.00     0.034 A 
BRANCH  46  60
ATOM     60  C   UNL A   1      46.723  27.523  26.087  1.00  0.00     0.023 A 
ATOM     61  C   UNL A   1      46.841  27.724  24.696  1.00  0.00     0.012 A 
ATOM     62  C   UNL A   1      47.753  26.858  26.779  1.00  0.00     0.148 A 
ATOM     63  C   UNL A   1      47.950  27.244  24.002  1.00  0.00     0.002 A 
ATOM     64  C   UNL A   1      48.876  26.420  26.087  1.00  0.00     0.091 A 
ATOM     65  F   UNL A   1      47.610  26.656  28.098  1.00  0.00    -0.205 F 
ATOM     66  C   UNL A   1      48.971  26.603  24.698  1.00  0.00     0.022 A 
BRANCH  64  67
ATOM     67  S   UNL A   1      50.276  25.649  26.906  1.00  0.00     0.127 S 
ATOM     68  O   UNL A   1      51.216  25.493  25.797  1.00  0.00    -0.237 OA
ATOM     69  O   UNL A   1      50.655  26.664  27.890  1.00  0.00    -0.237 OA
ATOM     70  O   UNL A   1      49.772  24.407  27.478  1.00  0.00    -0.744 OA
ENDBRANCH  64  67
ENDBRANCH  46  60
BRANCH  47  71
ATOM     71  C   UNL A   1      38.674  30.691  31.102  1.00  0.00     0.023 A 
ATOM     72  C   UNL A   1      38.656  30.518  32.499  1.00  0.00     0.012 A 
ATOM     73  C   UNL A   1      37.582  31.318  30.473  1.00  0.00     0.148 A 
ATOM     74  C   UNL A   1      37.559  30.938  33.252  1.00  0.00     0.002 A 
ATOM     75  C   UNL A   1      36.517  31.784  31.235  1.00  0.00     0.091 A 
ATOM     76  F   UNL A   1      37.609  31.455  29.139  1.00  0.00    -0.205 F 
ATOM     77  C   UNL A   1      36.495  31.579  32.623  1.00  0.00     0.022 A 
BRANCH  75  78
ATOM     78  S   UNL A   1      35.169  32.733  30.523  1.00  0.00     0.127 S 
ATOM     79  O   UNL A   1      34.218  32.780  31.631  1.00  0.00    -0.237 OA
ATOM     80  O   UNL A   1      35.823  34.007  30.218  1.00  0.00    -0.237 OA
ATOM     81  O   UNL A   1      34.739  31.985  29.350  1.00  0.00    -0.744 OA
ENDBRANCH  75  78
ENDBRANCH  47  71
BRANCH  59  82
ATOM     82  C   UNL A   1      44.773  33.633  29.379  1.00  0.00     0.023 A 
ATOM     83  C   UNL A   1      45.484  33.850  30.576  1.00  0.00     0.012 A 
ATOM     84  C   UNL A   1      44.699  34.663  28.422  1.00  0.00     0.148 A 
ATOM     85  C   UNL A   1      46.086  35.082  30.829  1.00  0.00     0.002 A 
ATOM     86  C   UNL A   1      45.343  35.873  28.659  1.00  0.00     0.091 A 
ATOM     87  F   UNL A   1      44.003  34.444  27.297  1.00  0.00    -0.205 F 
ATOM     88  C   UNL A   1      46.026  36.088  29.867  1.00  0.00     0.022 A 
BRANCH  86  89
ATOM     89  S   UNL A   1      45.398  37.189  27.437  1.00  0.00     0.127 S 
ATOM     90  O   UNL A   1      46.122  36.548  26.342  1.00  0.00    -0.237 OA
ATOM     91  O   UNL A   1      43.978  37.427  27.172  1.00  0.00    -0.237 OA
ATOM     92  O   UNL A   1      46.086  38.301  28.079  1.00  0.00    -0.744 OA
ENDBRANCH  86  89
ENDBRANCH  59  82
ENDBRANCH  33  34
ENDBRANCH  26  28
ENDBRANCH  25  26
ENDBRANCH  24  25
ENDBRANCH   1  24
TORSDOF 19
ENDMDL
