MODEL 1
REMARK VINA RESULT:     -11.7      0.000      0.000
REMARK SMILES O=C(COc1ccccc1/C=C1/SC(=O)N(c2ccc(F)cc2)C1=O)OCCOCCOC(=O)c1ccc(-c2c3nc(c(-c4cccc(S(=O)(=O)[O-])c4F)c4ccc([nH]4)c(-c4cccc(S(=O)(=O)[O-])c4F)c4nc(c(-c5cccc(S(=O)(=O)[O-])c5F)c5ccc2[nH]5)C=C4)C=C3)cc1
REMARK SMILES IDX 28 1 27 2 26 3 2 4 1 5 3 6 4 7 5 8 6 9 10 10 7 11 9 12 8 13
REMARK SMILES IDX 11 14 12 15 13 16 24 17 14 18 16 19 25 20 15 21 17 22 18 23
REMARK SMILES IDX 23 24 19 25 22 26 20 27 21 28 29 29 30 30 31 31 32 32 33 33
REMARK SMILES IDX 34 34 35 35 36 36 97 37 37 38 96 39 38 40 39 41 40 42 90 43
REMARK SMILES IDX 41 44 95 45 89 46 91 47 42 48 94 49 88 50 87 51 43 53 75 54
REMARK SMILES IDX 55 55 74 56 56 57 59 58 73 59 92 60 57 61 58 62 72 64 93 65
REMARK SMILES IDX 60 66 44 67 45 68 53 69 46 70 48 71 54 72 47 73 49 74 50 75
REMARK SMILES IDX 51 76 52 77 76 78 77 79 85 80 78 81 80 82 86 83 79 84 81 85
REMARK SMILES IDX 82 86 83 87 84 88 61 89 62 90 70 91 63 92 65 93 71 94 64 95
REMARK SMILES IDX 66 96 67 97 68 98 69 99
REMARK H PARENT 91 52 59 63
REMARK Flexibility Score: inf
ROOT
ATOM      1  C   UNL A   1      33.245  22.630  24.042  1.00  0.00     0.202 C 
ENDROOT
BRANCH   1   2
ATOM      2  C   UNL A   1      33.336  22.938  22.547  1.00  0.00     0.261 C 
BRANCH   2   3
ATOM      3  O   UNL A   1      33.879  24.247  22.291  1.00  0.00    -0.461 OA
BRANCH   3   4
ATOM      4  C   UNL A   1      33.150  25.388  22.415  1.00  0.00     0.344 C 
ATOM      5  O   UNL A   1      32.105  25.535  21.783  1.00  0.00    -0.248 OA
BRANCH   4   6
ATOM      6  C   UNL A   1      33.669  26.471  23.337  1.00  0.00     0.351 C 
BRANCH   6   7
ATOM      7  O   UNL A   1      33.620  26.063  24.702  1.00  0.00    -0.481 OA
BRANCH   7   8
ATOM      8  C   UNL A   1      33.329  27.099  25.545  1.00  0.00     0.127 A 
ATOM      9  C   UNL A   1      34.421  27.763  26.105  1.00  0.00     0.047 A 
ATOM     10  C   UNL A   1      32.013  27.430  25.914  1.00  0.00     0.018 A 
ATOM     11  C   UNL A   1      34.209  28.796  27.013  1.00  0.00     0.004 A 
ATOM     12  C   UNL A   1      31.816  28.477  26.818  1.00  0.00     0.012 A 
ATOM     13  C   UNL A   1      32.908  29.155  27.366  1.00  0.00     0.001 A 
BRANCH  10  14
ATOM     14  C   UNL A   1      30.834  26.731  25.392  1.00  0.00     0.033 C 
ATOM     15  C   UNL A   1      29.986  27.205  24.467  1.00  0.00     0.084 C 
ATOM     16  S   UNL A   1      28.489  26.429  24.113  1.00  0.00    -0.022 SA
ATOM     17  C   UNL A   1      30.068  28.501  23.730  1.00  0.00     0.272 C 
ATOM     18  C   UNL A   1      27.821  27.906  23.445  1.00  0.00     0.298 C 
ATOM     19  N   UNL A   1      28.821  28.815  23.210  1.00  0.00    -0.236 N 
ATOM     20  O   UNL A   1      31.077  29.190  23.690  1.00  0.00    -0.268 OA
ATOM     21  O   UNL A   1      26.610  28.038  23.277  1.00  0.00    -0.260 OA
BRANCH  19  22
ATOM     22  C   UNL A   1      28.581  30.079  22.606  1.00  0.00     0.053 A 
ATOM     23  C   UNL A   1      28.502  31.238  23.391  1.00  0.00     0.030 A 
ATOM     24  C   UNL A   1      28.377  30.184  21.223  1.00  0.00     0.030 A 
ATOM     25  C   UNL A   1      28.225  32.475  22.803  1.00  0.00     0.041 A 
ATOM     26  C   UNL A   1      28.059  31.413  20.641  1.00  0.00     0.041 A 
ATOM     27  C   UNL A   1      27.989  32.548  21.436  1.00  0.00     0.123 A 
ATOM     28  F   UNL A   1      27.673  33.725  20.880  1.00  0.00    -0.207 F 
ENDBRANCH  19  22
ENDBRANCH  10  14
ENDBRANCH   7   8
ENDBRANCH   6   7
ENDBRANCH   4   6
ENDBRANCH   3   4
ENDBRANCH   2   3
ENDBRANCH   1   2
BRANCH   1  29
ATOM     29  O   UNL A   1      34.477  22.600  24.757  1.00  0.00    -0.374 OA
BRANCH  29  30
ATOM     30  C   UNL A   1      35.446  21.620  24.389  1.00  0.00     0.202 C 
BRANCH  30  31
ATOM     31  C   UNL A   1      36.616  21.323  25.339  1.00  0.00     0.261 C 
BRANCH  31  32
ATOM     32  O   UNL A   1      37.900  21.808  24.914  1.00  0.00    -0.460 OA
BRANCH  32  33
ATOM     33  C   UNL A   1      38.914  21.546  25.778  1.00  0.00     0.338 C 
ATOM     34  O   UNL A   1      39.509  20.487  25.906  1.00  0.00    -0.246 OA
BRANCH  33  35
ATOM     35  C   UNL A   1      39.335  22.765  26.492  1.00  0.00     0.060 A 
ATOM     36  C   UNL A   1      38.959  24.004  25.956  1.00  0.00     0.016 A 
ATOM     37  C   UNL A   1      40.211  22.696  27.575  1.00  0.00     0.016 A 
ATOM     38  C   UNL A   1      39.481  25.183  26.491  1.00  0.00     0.010 A 
ATOM     39  C   UNL A   1      40.746  23.879  28.099  1.00  0.00     0.010 A 
ATOM     40  C   UNL A   1      40.405  25.125  27.542  1.00  0.00    -0.014 A 
BRANCH  40  41
ATOM     41  C   UNL A   1      41.153  26.345  27.929  1.00  0.00     0.031 A 
ATOM     42  C   UNL A   1      40.415  27.439  28.651  1.00  0.00     0.074 A 
ATOM     43  C   UNL A   1      42.459  26.491  27.642  1.00  0.00     0.049 A 
ATOM     44  N   UNL A   1      40.851  28.600  29.064  1.00  0.00    -0.248 NA
ATOM     45  C   UNL A   1      38.995  27.185  28.949  1.00  0.00     0.031 C 
ATOM     46  C   UNL A   1      43.289  25.501  26.961  1.00  0.00     0.029 A 
ATOM     47  N   UNL A   1      43.310  27.546  27.867  1.00  0.00    -0.354 N 
ATOM     48  C   UNL A   1      39.757  29.225  29.649  1.00  0.00     0.074 A 
ATOM     49  C   UNL A   1      38.636  28.316  29.536  1.00  0.00     0.031 C 
ATOM     50  C   UNL A   1      44.522  26.008  26.787  1.00  0.00     0.029 A 
ATOM     51  C   UNL A   1      44.563  27.365  27.329  1.00  0.00     0.049 A 
ATOM     52  H   UNL A   1      43.048  28.353  28.364  1.00  0.00     0.167 HD
ATOM     53  C   UNL A   1      39.691  30.440  30.240  1.00  0.00     0.034 A 
ATOM     54  C   UNL A   1      45.613  28.210  27.263  1.00  0.00     0.034 A 
ATOM     55  C   UNL A   1      40.802  31.343  30.358  1.00  0.00     0.049 A 
ATOM     56  C   UNL A   1      45.504  29.574  27.898  1.00  0.00     0.074 A 
ATOM     57  C   UNL A   1      40.841  32.584  30.969  1.00  0.00     0.029 A 
ATOM     58  N   UNL A   1      42.066  31.109  29.841  1.00  0.00    -0.354 N 
ATOM     59  N   UNL A   1      44.503  30.099  28.562  1.00  0.00    -0.248 NA
ATOM     60  C   UNL A   1      46.681  30.451  27.802  1.00  0.00     0.031 C 
ATOM     61  C   UNL A   1      42.126  33.110  30.803  1.00  0.00     0.029 A 
ATOM     62  C   UNL A   1      42.892  32.188  30.106  1.00  0.00     0.049 A 
ATOM     63  H   UNL A   1      42.338  30.296  29.356  1.00  0.00     0.167 HD
ATOM     64  C   UNL A   1      44.940  31.348  28.992  1.00  0.00     0.074 A 
ATOM     65  C   UNL A   1      46.304  31.495  28.529  1.00  0.00     0.031 C 
ATOM     66  C   UNL A   1      44.268  32.295  29.692  1.00  0.00     0.034 A 
BRANCH  53  67
ATOM     67  C   UNL A   1      38.368  30.853  30.823  1.00  0.00     0.023 A 
ATOM     68  C   UNL A   1      38.052  30.495  32.149  1.00  0.00     0.012 A 
ATOM     69  C   UNL A   1      37.455  31.619  30.074  1.00  0.00     0.148 A 
ATOM     70  C   UNL A   1      36.834  30.870  32.712  1.00  0.00     0.002 A 
ATOM     71  C   UNL A   1      36.258  32.020  30.655  1.00  0.00     0.091 A 
ATOM     72  F   UNL A   1      37.763  31.925  28.806  1.00  0.00    -0.205 F 
ATOM     73  C   UNL A   1      35.941  31.639  31.970  1.00  0.00     0.022 A 
BRANCH  71  74
ATOM     74  S   UNL A   1      35.072  33.064  29.800  1.00  0.00     0.127 S 
ATOM     75  O   UNL A   1      34.499  32.129  28.833  1.00  0.00    -0.237 OA
ATOM     76  O   UNL A   1      34.166  33.453  30.882  1.00  0.00    -0.237 OA
ATOM     77  O   UNL A   1      35.842  34.161  29.231  1.00  0.00    -0.744 OA
ENDBRANCH  71  74
ENDBRANCH  53  67
BRANCH  54  78
ATOM     78  C   UNL A   1      46.878  27.778  26.601  1.00  0.00     0.023 A 
ATOM     79  C   UNL A   1      47.912  27.221  27.378  1.00  0.00     0.012 A 
ATOM     80  C   UNL A   1      47.060  27.910  25.210  1.00  0.00     0.148 A 
ATOM     81  C   UNL A   1      49.116  26.831  26.788  1.00  0.00     0.002 A 
ATOM     82  C   UNL A   1      48.239  27.468  24.621  1.00  0.00     0.091 A 
ATOM     83  F   UNL A   1      46.073  28.461  24.490  1.00  0.00    -0.205 F 
ATOM     84  C   UNL A   1      49.275  26.945  25.410  1.00  0.00     0.022 A 
BRANCH  82  85
ATOM     85  S   UNL A   1      48.482  27.457  22.841  1.00  0.00     0.127 S 
ATOM     86  O   UNL A   1      49.825  28.018  22.718  1.00  0.00    -0.237 OA
ATOM     87  O   UNL A   1      48.379  26.030  22.531  1.00  0.00    -0.237 OA
ATOM     88  O   UNL A   1      47.403  28.266  22.291  1.00  0.00    -0.744 OA
ENDBRANCH  82  85
ENDBRANCH  54  78
BRANCH  66  89
ATOM     89  C   UNL A   1      44.996  33.568  30.037  1.00  0.00     0.023 A 
ATOM     90  C   UNL A   1      45.742  33.644  31.228  1.00  0.00     0.012 A 
ATOM     91  C   UNL A   1      45.022  34.651  29.135  1.00  0.00     0.148 A 
ATOM     92  C   UNL A   1      46.484  34.786  31.530  1.00  0.00     0.002 A 
ATOM     93  C   UNL A   1      45.800  35.768  29.420  1.00  0.00     0.091 A 
ATOM     94  F   UNL A   1      44.290  34.569  28.015  1.00  0.00    -0.205 F 
ATOM     95  C   UNL A   1      46.523  35.841  30.621  1.00  0.00     0.022 A 
BRANCH  93  96
ATOM     96  S   UNL A   1      45.984  37.130  28.261  1.00  0.00     0.127 S 
ATOM     97  O   UNL A   1      44.693  37.117  27.577  1.00  0.00    -0.237 OA
ATOM     98  O   UNL A   1      46.191  38.272  29.152  1.00  0.00    -0.237 OA
ATOM     99  O   UNL A   1      47.137  36.796  27.435  1.00  0.00    -0.744 OA
ENDBRANCH  93  96
ENDBRANCH  66  89
ENDBRANCH  40  41
ENDBRANCH  33  35
ENDBRANCH  32  33
ENDBRANCH  31  32
ENDBRANCH  30  31
ENDBRANCH  29  30
ENDBRANCH   1  29
TORSDOF 21
ENDMDL
MODEL 2
REMARK VINA RESULT:     -10.8      2.440      7.517
REMARK SMILES O=C(COc1ccccc1/C=C1/SC(=O)N(c2ccc(F)cc2)C1=O)OCCOCCOC(=O)c1ccc(-c2c3nc(c(-c4cccc(S(=O)(=O)[O-])c4F)c4ccc([nH]4)c(-c4cccc(S(=O)(=O)[O-])c4F)c4nc(c(-c5cccc(S(=O)(=O)[O-])c5F)c5ccc2[nH]5)C=C4)C=C3)cc1
REMARK SMILES IDX 28 1 27 2 26 3 2 4 1 5 3 6 4 7 5 8 6 9 10 10 7 11 9 12 8 13
REMARK SMILES IDX 11 14 12 15 13 16 24 17 14 18 16 19 25 20 15 21 17 22 18 23
REMARK SMILES IDX 23 24 19 25 22 26 20 27 21 28 29 29 30 30 31 31 32 32 33 33
REMARK SMILES IDX 34 34 35 35 36 36 97 37 37 38 96 39 38 40 39 41 40 42 90 43
REMARK SMILES IDX 41 44 95 45 89 46 91 47 42 48 94 49 88 50 87 51 43 53 75 54
REMARK SMILES IDX 55 55 74 56 56 57 59 58 73 59 92 60 57 61 58 62 72 64 93 65
REMARK SMILES IDX 60 66 44 67 45 68 53 69 46 70 48 71 54 72 47 73 49 74 50 75
REMARK SMILES IDX 51 76 52 77 76 78 77 79 85 80 78 81 80 82 86 83 79 84 81 85
REMARK SMILES IDX 82 86 83 87 84 88 61 89 62 90 70 91 63 92 65 93 71 94 64 95
REMARK SMILES IDX 66 96 67 97 68 98 69 99
REMARK H PARENT 91 52 59 63
REMARK Flexibility Score: inf
ROOT
ATOM      1  C   UNL A   1      33.091  23.487  24.306  1.00  0.00     0.202 C 
ENDROOT
BRANCH   1   2
ATOM      2  C   UNL A   1      33.330  23.672  22.808  1.00  0.00     0.261 C 
BRANCH   2   3
ATOM      3  O   UNL A   1      34.182  24.798  22.526  1.00  0.00    -0.461 OA
BRANCH   3   4
ATOM      4  C   UNL A   1      33.701  26.027  22.200  1.00  0.00     0.344 C 
ATOM      5  O   UNL A   1      33.217  26.236  21.089  1.00  0.00    -0.248 OA
BRANCH   4   6
ATOM      6  C   UNL A   1      33.791  27.127  23.237  1.00  0.00     0.351 C 
BRANCH   6   7
ATOM      7  O   UNL A   1      34.023  26.600  24.540  1.00  0.00    -0.481 OA
BRANCH   7   8
ATOM      8  C   UNL A   1      33.663  27.473  25.528  1.00  0.00     0.127 A 
ATOM      9  C   UNL A   1      34.699  28.200  26.116  1.00  0.00     0.047 A 
ATOM     10  C   UNL A   1      32.344  27.579  26.004  1.00  0.00     0.018 A 
ATOM     11  C   UNL A   1      34.423  29.072  27.164  1.00  0.00     0.004 A 
ATOM     12  C   UNL A   1      32.080  28.468  27.049  1.00  0.00     0.012 A 
ATOM     13  C   UNL A   1      33.114  29.210  27.626  1.00  0.00     0.001 A 
BRANCH  10  14
ATOM     14  C   UNL A   1      31.228  26.802  25.453  1.00  0.00     0.033 C 
ATOM     15  C   UNL A   1      30.355  27.231  24.530  1.00  0.00     0.084 C 
ATOM     16  S   UNL A   1      28.926  26.349  24.141  1.00  0.00    -0.022 SA
ATOM     17  C   UNL A   1      30.342  28.546  23.823  1.00  0.00     0.272 C 
ATOM     18  C   UNL A   1      28.151  27.784  23.500  1.00  0.00     0.298 C 
ATOM     19  N   UNL A   1      29.079  28.774  23.297  1.00  0.00    -0.236 N 
ATOM     20  O   UNL A   1      31.295  29.313  23.810  1.00  0.00    -0.268 OA
ATOM     21  O   UNL A   1      26.936  27.826  23.321  1.00  0.00    -0.260 OA
BRANCH  19  22
ATOM     22  C   UNL A   1      28.746  30.029  22.719  1.00  0.00     0.053 A 
ATOM     23  C   UNL A   1      28.042  30.989  23.461  1.00  0.00     0.030 A 
ATOM     24  C   UNL A   1      29.078  30.314  21.386  1.00  0.00     0.030 A 
ATOM     25  C   UNL A   1      27.679  32.207  22.880  1.00  0.00     0.041 A 
ATOM     26  C   UNL A   1      28.679  31.514  20.794  1.00  0.00     0.041 A 
ATOM     27  C   UNL A   1      27.985  32.451  21.547  1.00  0.00     0.123 A 
ATOM     28  F   UNL A   1      27.592  33.597  20.976  1.00  0.00    -0.207 F 
ENDBRANCH  19  22
ENDBRANCH  10  14
ENDBRANCH   7   8
ENDBRANCH   6   7
ENDBRANCH   4   6
ENDBRANCH   3   4
ENDBRANCH   2   3
ENDBRANCH   1   2
BRANCH   1  29
ATOM     29  O   UNL A   1      34.249  23.487  25.136  1.00  0.00    -0.374 OA
BRANCH  29  30
ATOM     30  C   UNL A   1      35.433  22.864  24.640  1.00  0.00     0.202 C 
BRANCH  30  31
ATOM     31  C   UNL A   1      36.576  22.539  25.613  1.00  0.00     0.261 C 
BRANCH  31  32
ATOM     32  O   UNL A   1      37.762  23.337  25.468  1.00  0.00    -0.460 OA
BRANCH  32  33
ATOM     33  C   UNL A   1      38.805  22.941  26.242  1.00  0.00     0.338 C 
ATOM     34  O   UNL A   1      39.171  21.793  26.442  1.00  0.00    -0.246 OA
BRANCH  33  35
ATOM     35  C   UNL A   1      39.571  24.099  26.736  1.00  0.00     0.060 A 
ATOM     36  C   UNL A   1      39.771  24.214  28.119  1.00  0.00     0.016 A 
ATOM     37  C   UNL A   1      39.949  25.130  25.876  1.00  0.00     0.016 A 
ATOM     38  C   UNL A   1      40.332  25.377  28.649  1.00  0.00     0.010 A 
ATOM     39  C   UNL A   1      40.495  26.302  26.412  1.00  0.00     0.010 A 
ATOM     40  C   UNL A   1      40.664  26.442  27.802  1.00  0.00    -0.014 A 
BRANCH  40  41
ATOM     41  C   UNL A   1      41.005  27.763  28.383  1.00  0.00     0.031 A 
ATOM     42  C   UNL A   1      42.456  28.089  28.616  1.00  0.00     0.074 A 
ATOM     43  C   UNL A   1      40.054  28.656  28.709  1.00  0.00     0.049 A 
ATOM     44  N   UNL A   1      42.991  29.163  29.131  1.00  0.00    -0.248 NA
ATOM     45  C   UNL A   1      43.431  27.064  28.205  1.00  0.00     0.031 C 
ATOM     46  C   UNL A   1      38.619  28.467  28.520  1.00  0.00     0.029 A 
ATOM     47  N   UNL A   1      40.157  29.896  29.292  1.00  0.00    -0.354 N 
ATOM     48  C   UNL A   1      44.362  28.937  29.132  1.00  0.00     0.074 A 
ATOM     49  C   UNL A   1      44.577  27.623  28.565  1.00  0.00     0.031 C 
ATOM     50  C   UNL A   1      37.968  29.534  29.014  1.00  0.00     0.029 A 
ATOM     51  C   UNL A   1      38.940  30.474  29.570  1.00  0.00     0.049 A 
ATOM     52  H   UNL A   1      41.018  30.328  29.493  1.00  0.00     0.167 HD
ATOM     53  C   UNL A   1      45.355  29.754  29.552  1.00  0.00     0.034 A 
ATOM     54  C   UNL A   1      38.649  31.620  30.219  1.00  0.00     0.034 A 
ATOM     55  C   UNL A   1      45.146  31.061  30.110  1.00  0.00     0.049 A 
ATOM     56  C   UNL A   1      39.773  32.497  30.711  1.00  0.00     0.074 A 
ATOM     57  C   UNL A   1      46.092  31.976  30.535  1.00  0.00     0.029 A 
ATOM     58  N   UNL A   1      43.904  31.632  30.336  1.00  0.00    -0.354 N 
ATOM     59  N   UNL A   1      41.067  32.330  30.586  1.00  0.00    -0.248 NA
ATOM     60  C   UNL A   1      39.397  33.738  31.406  1.00  0.00     0.031 C 
ATOM     61  C   UNL A   1      45.420  33.095  31.038  1.00  0.00     0.029 A 
ATOM     62  C   UNL A   1      44.056  32.883  30.907  1.00  0.00     0.049 A 
ATOM     63  H   UNL A   1      43.040  31.211  30.122  1.00  0.00     0.167 HD
ATOM     64  C   UNL A   1      41.657  33.456  31.152  1.00  0.00     0.074 A 
ATOM     65  C   UNL A   1      40.578  34.309  31.605  1.00  0.00     0.031 C 
ATOM     66  C   UNL A   1      42.973  33.749  31.298  1.00  0.00     0.034 A 
BRANCH  53  67
ATOM     67  C   UNL A   1      46.766  29.257  29.402  1.00  0.00     0.023 A 
ATOM     68  C   UNL A   1      47.313  28.414  30.391  1.00  0.00     0.012 A 
ATOM     69  C   UNL A   1      47.537  29.596  28.275  1.00  0.00     0.148 A 
ATOM     70  C   UNL A   1      48.618  27.939  30.272  1.00  0.00     0.002 A 
ATOM     71  C   UNL A   1      48.824  29.089  28.146  1.00  0.00     0.091 A 
ATOM     72  F   UNL A   1      47.007  30.422  27.361  1.00  0.00    -0.205 F 
ATOM     73  C   UNL A   1      49.370  28.267  29.147  1.00  0.00     0.022 A 
BRANCH  71  74
ATOM     74  S   UNL A   1      49.847  29.405  26.704  1.00  0.00     0.127 S 
ATOM     75  O   UNL A   1      51.120  28.810  27.109  1.00  0.00    -0.237 OA
ATOM     76  O   UNL A   1      49.139  28.671  25.654  1.00  0.00    -0.237 OA
ATOM     77  O   UNL A   1      49.858  30.850  26.530  1.00  0.00    -0.744 OA
ENDBRANCH  71  74
ENDBRANCH  53  67
BRANCH  54  78
ATOM     78  C   UNL A   1      37.227  32.028  30.412  1.00  0.00     0.023 A 
ATOM     79  C   UNL A   1      36.619  31.850  31.670  1.00  0.00     0.012 A 
ATOM     80  C   UNL A   1      36.477  32.594  29.362  1.00  0.00     0.148 A 
ATOM     81  C   UNL A   1      35.283  32.200  31.872  1.00  0.00     0.002 A 
ATOM     82  C   UNL A   1      35.164  32.992  29.585  1.00  0.00     0.091 A 
ATOM     83  F   UNL A   1      37.065  32.737  28.166  1.00  0.00    -0.205 F 
ATOM     84  C   UNL A   1      34.559  32.779  30.833  1.00  0.00     0.022 A 
BRANCH  82  85
ATOM     85  S   UNL A   1      34.196  33.862  28.346  1.00  0.00     0.127 S 
ATOM     86  O   UNL A   1      35.237  34.407  27.479  1.00  0.00    -0.237 OA
ATOM     87  O   UNL A   1      33.410  32.775  27.760  1.00  0.00    -0.237 OA
ATOM     88  O   UNL A   1      33.405  34.840  29.081  1.00  0.00    -0.744 OA
ENDBRANCH  82  85
ENDBRANCH  54  78
BRANCH  66  89
ATOM     89  C   UNL A   1      43.336  35.060  31.946  1.00  0.00     0.023 A 
ATOM     90  C   UNL A   1      43.624  36.180  31.142  1.00  0.00     0.012 A 
ATOM     91  C   UNL A   1      43.294  35.208  33.348  1.00  0.00     0.148 A 
ATOM     92  C   UNL A   1      43.889  37.420  31.721  1.00  0.00     0.002 A 
ATOM     93  C   UNL A   1      43.515  36.458  33.916  1.00  0.00     0.091 A 
ATOM     94  F   UNL A   1      43.038  34.127  34.098  1.00  0.00    -0.205 F 
ATOM     95  C   UNL A   1      43.821  37.562  33.105  1.00  0.00     0.022 A 
BRANCH  93  96
ATOM     96  S   UNL A   1      43.352  36.750  35.682  1.00  0.00     0.127 S 
ATOM     97  O   UNL A   1      43.713  38.162  35.787  1.00  0.00    -0.237 OA
ATOM     98  O   UNL A   1      41.936  36.463  35.917  1.00  0.00    -0.237 OA
ATOM     99  O   UNL A   1      44.267  35.817  36.326  1.00  0.00    -0.744 OA
ENDBRANCH  93  96
ENDBRANCH  66  89
ENDBRANCH  40  41
ENDBRANCH  33  35
ENDBRANCH  32  33
ENDBRANCH  31  32
ENDBRANCH  30  31
ENDBRANCH  29  30
ENDBRANCH   1  29
TORSDOF 21
ENDMDL
MODEL 3
REMARK VINA RESULT:     -10.8      1.839      7.514
REMARK SMILES O=C(COc1ccccc1/C=C1/SC(=O)N(c2ccc(F)cc2)C1=O)OCCOCCOC(=O)c1ccc(-c2c3nc(c(-c4cccc(S(=O)(=O)[O-])c4F)c4ccc([nH]4)c(-c4cccc(S(=O)(=O)[O-])c4F)c4nc(c(-c5cccc(S(=O)(=O)[O-])c5F)c5ccc2[nH]5)C=C4)C=C3)cc1
REMARK SMILES IDX 28 1 27 2 26 3 2 4 1 5 3 6 4 7 5 8 6 9 10 10 7 11 9 12 8 13
REMARK SMILES IDX 11 14 12 15 13 16 24 17 14 18 16 19 25 20 15 21 17 22 18 23
REMARK SMILES IDX 23 24 19 25 22 26 20 27 21 28 29 29 30 30 31 31 32 32 33 33
REMARK SMILES IDX 34 34 35 35 36 36 97 37 37 38 96 39 38 40 39 41 40 42 90 43
REMARK SMILES IDX 41 44 95 45 89 46 91 47 42 48 94 49 88 50 87 51 43 53 75 54
REMARK SMILES IDX 55 55 74 56 56 57 59 58 73 59 92 60 57 61 58 62 72 64 93 65
REMARK SMILES IDX 60 66 44 67 45 68 53 69 46 70 48 71 54 72 47 73 49 74 50 75
REMARK SMILES IDX 51 76 52 77 76 78 77 79 85 80 78 81 80 82 86 83 79 84 81 85
REMARK SMILES IDX 82 86 83 87 84 88 61 89 62 90 70 91 63 92 65 93 71 94 64 95
REMARK SMILES IDX 66 96 67 97 68 98 69 99
REMARK H PARENT 91 52 59 63
REMARK Flexibility Score: inf
ROOT
ATOM      1  C   UNL A   1      32.961  23.333  24.275  1.00  0.00     0.202 C 
ENDROOT
BRANCH   1   2
ATOM      2  C   UNL A   1      33.397  23.542  22.825  1.00  0.00     0.261 C 
BRANCH   2   3
ATOM      3  O   UNL A   1      34.208  24.721  22.664  1.00  0.00    -0.461 OA
BRANCH   3   4
ATOM      4  C   UNL A   1      33.704  25.918  22.261  1.00  0.00     0.344 C 
ATOM      5  O   UNL A   1      33.289  26.068  21.113  1.00  0.00    -0.248 OA
BRANCH   4   6
ATOM      6  C   UNL A   1      33.682  27.056  23.259  1.00  0.00     0.351 C 
BRANCH   6   7
ATOM      7  O   UNL A   1      33.855  26.586  24.593  1.00  0.00    -0.481 OA
BRANCH   7   8
ATOM      8  C   UNL A   1      33.497  27.519  25.526  1.00  0.00     0.127 A 
ATOM      9  C   UNL A   1      34.541  28.241  26.106  1.00  0.00     0.047 A 
ATOM     10  C   UNL A   1      32.170  27.690  25.958  1.00  0.00     0.018 A 
ATOM     11  C   UNL A   1      34.266  29.174  27.100  1.00  0.00     0.004 A 
ATOM     12  C   UNL A   1      31.908  28.639  26.950  1.00  0.00     0.012 A 
ATOM     13  C   UNL A   1      32.951  29.376  27.518  1.00  0.00     0.001 A 
BRANCH  10  14
ATOM     14  C   UNL A   1      31.045  26.923  25.415  1.00  0.00     0.033 C 
ATOM     15  C   UNL A   1      30.185  27.348  24.477  1.00  0.00     0.084 C 
ATOM     16  S   UNL A   1      28.744  26.484  24.097  1.00  0.00    -0.022 SA
ATOM     17  C   UNL A   1      30.200  28.649  23.744  1.00  0.00     0.272 C 
ATOM     18  C   UNL A   1      27.998  27.919  23.421  1.00  0.00     0.298 C 
ATOM     19  N   UNL A   1      28.945  28.888  23.205  1.00  0.00    -0.236 N 
ATOM     20  O   UNL A   1      31.166  29.398  23.723  1.00  0.00    -0.268 OA
ATOM     21  O   UNL A   1      26.785  27.978  23.234  1.00  0.00    -0.260 OA
BRANCH  19  22
ATOM     22  C   UNL A   1      28.638  30.137  22.600  1.00  0.00     0.053 A 
ATOM     23  C   UNL A   1      28.358  31.260  23.391  1.00  0.00     0.030 A 
ATOM     24  C   UNL A   1      28.570  30.259  21.204  1.00  0.00     0.030 A 
ATOM     25  C   UNL A   1      28.016  32.479  22.797  1.00  0.00     0.041 A 
ATOM     26  C   UNL A   1      28.188  31.464  20.612  1.00  0.00     0.041 A 
ATOM     27  C   UNL A   1      27.917  32.565  21.415  1.00  0.00     0.123 A 
ATOM     28  F   UNL A   1      27.540  33.718  20.847  1.00  0.00    -0.207 F 
ENDBRANCH  19  22
ENDBRANCH  10  14
ENDBRANCH   7   8
ENDBRANCH   6   7
ENDBRANCH   4   6
ENDBRANCH   3   4
ENDBRANCH   2   3
ENDBRANCH   1   2
BRANCH   1  29
ATOM     29  O   UNL A   1      33.994  23.363  25.256  1.00  0.00    -0.374 OA
BRANCH  29  30
ATOM     30  C   UNL A   1      35.255  22.784  24.924  1.00  0.00     0.202 C 
BRANCH  30  31
ATOM     31  C   UNL A   1      36.352  22.701  25.997  1.00  0.00     0.261 C 
BRANCH  31  32
ATOM     32  O   UNL A   1      37.446  23.619  25.838  1.00  0.00    -0.460 OA
BRANCH  32  33
ATOM     33  C   UNL A   1      38.628  23.175  26.337  1.00  0.00     0.338 C 
ATOM     34  O   UNL A   1      39.055  22.032  26.296  1.00  0.00    -0.246 OA
BRANCH  33  35
ATOM     35  C   UNL A   1      39.447  24.292  26.841  1.00  0.00     0.060 A 
ATOM     36  C   UNL A   1      39.416  24.563  28.215  1.00  0.00     0.016 A 
ATOM     37  C   UNL A   1      40.106  25.153  25.962  1.00  0.00     0.016 A 
ATOM     38  C   UNL A   1      40.029  25.714  28.714  1.00  0.00     0.010 A 
ATOM     39  C   UNL A   1      40.704  26.315  26.462  1.00  0.00     0.010 A 
ATOM     40  C   UNL A   1      40.645  26.614  27.836  1.00  0.00    -0.014 A 
BRANCH  40  41
ATOM     41  C   UNL A   1      41.057  27.952  28.327  1.00  0.00     0.031 A 
ATOM     42  C   UNL A   1      42.523  28.220  28.529  1.00  0.00     0.074 A 
ATOM     43  C   UNL A   1      40.154  28.911  28.598  1.00  0.00     0.049 A 
ATOM     44  N   UNL A   1      43.115  29.298  28.969  1.00  0.00    -0.248 NA
ATOM     45  C   UNL A   1      43.444  27.124  28.182  1.00  0.00     0.031 C 
ATOM     46  C   UNL A   1      38.709  28.781  28.431  1.00  0.00     0.029 A 
ATOM     47  N   UNL A   1      40.322  30.180  29.097  1.00  0.00    -0.354 N 
ATOM     48  C   UNL A   1      44.473  29.005  28.976  1.00  0.00     0.074 A 
ATOM     49  C   UNL A   1      44.618  27.648  28.497  1.00  0.00     0.031 C 
ATOM     50  C   UNL A   1      38.116  29.910  28.857  1.00  0.00     0.029 A 
ATOM     51  C   UNL A   1      39.138  30.835  29.343  1.00  0.00     0.049 A 
ATOM     52  H   UNL A   1      41.205  30.581  29.264  1.00  0.00     0.167 HD
ATOM     53  C   UNL A   1      45.509  29.797  29.335  1.00  0.00     0.034 A 
ATOM     54  C   UNL A   1      38.909  32.035  29.916  1.00  0.00     0.034 A 
ATOM     55  C   UNL A   1      45.370  31.147  29.807  1.00  0.00     0.049 A 
ATOM     56  C   UNL A   1      40.080  32.885  30.342  1.00  0.00     0.074 A 
ATOM     57  C   UNL A   1      46.364  32.041  30.164  1.00  0.00     0.029 A 
ATOM     58  N   UNL A   1      44.159  31.793  30.002  1.00  0.00    -0.354 N 
ATOM     59  N   UNL A   1      41.363  32.646  30.221  1.00  0.00    -0.248 NA
ATOM     60  C   UNL A   1      39.772  34.186  30.956  1.00  0.00     0.031 C 
ATOM     61  C   UNL A   1      45.752  33.222  30.596  1.00  0.00     0.029 A 
ATOM     62  C   UNL A   1      44.378  33.070  30.488  1.00  0.00     0.049 A 
ATOM     63  H   UNL A   1      43.274  31.402  29.822  1.00  0.00     0.167 HD
ATOM     64  C   UNL A   1      42.013  33.776  30.708  1.00  0.00     0.074 A 
ATOM     65  C   UNL A   1      40.981  34.709  31.110  1.00  0.00     0.031 C 
ATOM     66  C   UNL A   1      43.343  34.013  30.826  1.00  0.00     0.034 A 
BRANCH  53  67
ATOM     67  C   UNL A   1      46.893  29.223  29.211  1.00  0.00     0.023 A 
ATOM     68  C   UNL A   1      47.440  28.494  30.286  1.00  0.00     0.012 A 
ATOM     69  C   UNL A   1      47.636  29.375  28.025  1.00  0.00     0.148 A 
ATOM     70  C   UNL A   1      48.719  27.949  30.193  1.00  0.00     0.002 A 
ATOM     71  C   UNL A   1      48.896  28.798  27.927  1.00  0.00     0.091 A 
ATOM     72  F   UNL A   1      47.108  30.096  27.026  1.00  0.00    -0.205 F 
ATOM     73  C   UNL A   1      49.444  28.092  29.012  1.00  0.00     0.022 A 
BRANCH  71  74
ATOM     74  S   UNL A   1      49.879  28.875  26.425  1.00  0.00     0.127 S 
ATOM     75  O   UNL A   1      50.135  30.310  26.314  1.00  0.00    -0.237 OA
ATOM     76  O   UNL A   1      51.050  28.073  26.779  1.00  0.00    -0.237 OA
ATOM     77  O   UNL A   1      49.049  28.304  25.374  1.00  0.00    -0.744 OA
ENDBRANCH  71  74
ENDBRANCH  53  67
BRANCH  54  78
ATOM     78  C   UNL A   1      37.511  32.524  30.090  1.00  0.00     0.023 A 
ATOM     79  C   UNL A   1      36.711  32.755  28.954  1.00  0.00     0.012 A 
ATOM     80  C   UNL A   1      36.968  32.755  31.369  1.00  0.00     0.148 A 
ATOM     81  C   UNL A   1      35.407  33.236  29.086  1.00  0.00     0.002 A 
ATOM     82  C   UNL A   1      35.651  33.181  31.497  1.00  0.00     0.091 A 
ATOM     83  F   UNL A   1      37.750  32.549  32.438  1.00  0.00    -0.205 F 
ATOM     84  C   UNL A   1      34.875  33.440  30.356  1.00  0.00     0.022 A 
BRANCH  82  85
ATOM     85  S   UNL A   1      34.840  33.346  33.091  1.00  0.00     0.127 S 
ATOM     86  O   UNL A   1      33.502  32.836  32.802  1.00  0.00    -0.237 OA
ATOM     87  O   UNL A   1      35.661  32.479  33.938  1.00  0.00    -0.237 OA
ATOM     88  O   UNL A   1      34.921  34.760  33.429  1.00  0.00    -0.744 OA
ENDBRANCH  82  85
ENDBRANCH  54  78
BRANCH  66  89
ATOM     89  C   UNL A   1      43.775  35.344  31.384  1.00  0.00     0.023 A 
ATOM     90  C   UNL A   1      44.113  35.452  32.747  1.00  0.00     0.012 A 
ATOM     91  C   UNL A   1      43.942  36.460  30.540  1.00  0.00     0.148 A 
ATOM     92  C   UNL A   1      44.587  36.656  33.267  1.00  0.00     0.002 A 
ATOM     93  C   UNL A   1      44.458  37.644  31.056  1.00  0.00     0.091 A 
ATOM     94  F   UNL A   1      43.597  36.344  29.250  1.00  0.00    -0.205 F 
ATOM     95  C   UNL A   1      44.772  37.746  32.420  1.00  0.00     0.022 A 
BRANCH  93  96
ATOM     96  S   UNL A   1      44.819  39.066  30.017  1.00  0.00     0.127 S 
ATOM     97  O   UNL A   1      43.598  39.857  30.157  1.00  0.00    -0.237 OA
ATOM     98  O   UNL A   1      45.996  39.640  30.669  1.00  0.00    -0.237 OA
ATOM     99  O   UNL A   1      45.072  38.532  28.685  1.00  0.00    -0.744 OA
ENDBRANCH  93  96
ENDBRANCH  66  89
ENDBRANCH  40  41
ENDBRANCH  33  35
ENDBRANCH  32  33
ENDBRANCH  31  32
ENDBRANCH  30  31
ENDBRANCH  29  30
ENDBRANCH   1  29
TORSDOF 21
ENDMDL
