MODEL 1
REMARK VINA RESULT:     -11.2      0.000      0.000
REMARK SMILES CCOc1cccc2c(SCC(=O)OCCOCCOC(=O)c3ccc(-c4c5nc(c(-c6cccc(S(=O)(=O)[O-])c6F)c6ccc([nH]6)c(-c6cccc(S(=O)(=O)[O-])c6F)c6nc(c(-c7cccc(S(=O)(=O)[O-])c7F)c7ccc4[nH]7)C=C6)C=C5)cc3)cc(C)nc12
REMARK SMILES IDX 16 1 15 2 14 3 12 4 13 5 11 6 10 7 9 8 4 9 5 10 90 11 6 12
REMARK SMILES IDX 8 13 89 14 7 15 87 16 86 17 88 18 3 19 2 20 1 21 17 22 18 23
REMARK SMILES IDX 19 24 20 25 21 26 22 27 23 28 24 29 85 30 25 31 84 32 26 33
REMARK SMILES IDX 27 34 28 35 78 36 29 37 83 38 77 39 79 40 30 41 82 42 76 43
REMARK SMILES IDX 75 44 31 46 63 47 43 48 62 49 44 50 47 51 61 52 80 53 45 54
REMARK SMILES IDX 46 55 60 57 81 58 48 59 32 60 33 61 41 62 34 63 36 64 42 65
REMARK SMILES IDX 35 66 37 67 38 68 39 69 40 70 64 71 65 72 73 73 66 74 68 75
REMARK SMILES IDX 74 76 67 77 69 78 70 79 71 80 72 81 49 82 50 83 58 84 51 85
REMARK SMILES IDX 53 86 59 87 52 88 54 89 55 90 56 91 57 92
REMARK H PARENT 79 45 47 56
REMARK Flexibility Score: inf
ROOT
ATOM      1  C   UNL A   1      33.654  28.453  25.220  1.00  0.00     0.202 C 
ENDROOT
BRANCH   1   2
ATOM      2  C   UNL A   1      33.939  26.971  24.945  1.00  0.00     0.261 C 
BRANCH   2   3
ATOM      3  O   UNL A   1      33.797  26.607  23.553  1.00  0.00    -0.463 OA
BRANCH   3   4
ATOM      4  C   UNL A   1      33.548  25.298  23.286  1.00  0.00     0.316 C 
ATOM      5  O   UNL A   1      34.126  24.644  22.420  1.00  0.00    -0.251 OA
BRANCH   4   6
ATOM      6  C   UNL A   1      32.427  24.684  24.099  1.00  0.00     0.197 C 
BRANCH   6   7
ATOM      7  S   UNL A   1      32.888  23.911  25.676  1.00  0.00    -0.114 SA
BRANCH   7   8
ATOM      8  C   UNL A   1      34.172  22.680  25.321  1.00  0.00     0.019 A 
ATOM      9  C   UNL A   1      34.392  19.051  24.581  1.00  0.00     0.145 A 
ATOM     10  C   UNL A   1      33.073  18.688  24.298  1.00  0.00     0.049 A 
ATOM     11  C   UNL A   1      34.774  20.375  24.844  1.00  0.00     0.114 A 
ATOM     12  C   UNL A   1      32.086  19.657  24.330  1.00  0.00     0.005 A 
ATOM     13  C   UNL A   1      33.768  21.362  24.935  1.00  0.00     0.018 A 
ATOM     14  N   UNL A   1      36.074  20.663  25.053  1.00  0.00    -0.249 NA
ATOM     15  C   UNL A   1      32.427  20.969  24.656  1.00  0.00     0.012 A 
ATOM     16  C   UNL A   1      36.445  21.917  25.372  1.00  0.00     0.039 A 
ATOM     17  C   UNL A   1      35.530  22.949  25.508  1.00  0.00     0.039 A 
ATOM     18  C   UNL A   1      37.881  22.084  25.769  1.00  0.00     0.067 C 
BRANCH   9  19
ATOM     19  O   UNL A   1      35.340  18.049  24.550  1.00  0.00    -0.492 OA
BRANCH  19  20
ATOM     20  C   UNL A   1      34.724  16.751  24.562  1.00  0.00     0.226 C 
ATOM     21  C   UNL A   1      35.560  15.754  25.346  1.00  0.00     0.049 C 
ENDBRANCH  19  20
ENDBRANCH   9  19
ENDBRANCH   7   8
ENDBRANCH   6   7
ENDBRANCH   4   6
ENDBRANCH   3   4
ENDBRANCH   2   3
ENDBRANCH   1   2
BRANCH   1  22
ATOM     22  O   UNL A   1      32.417  28.747  25.877  1.00  0.00    -0.374 OA
BRANCH  22  23
ATOM     23  C   UNL A   1      31.748  29.938  25.473  1.00  0.00     0.202 C 
BRANCH  23  24
ATOM     24  C   UNL A   1      31.744  31.082  26.488  1.00  0.00     0.261 C 
BRANCH  24  25
ATOM     25  O   UNL A   1      32.757  30.922  27.481  1.00  0.00    -0.460 OA
BRANCH  25  26
ATOM     26  C   UNL A   1      33.499  32.032  27.675  1.00  0.00     0.338 C 
ATOM     27  O   UNL A   1      33.101  33.185  27.790  1.00  0.00    -0.246 OA
BRANCH  26  28
ATOM     28  C   UNL A   1      34.894  31.656  27.916  1.00  0.00     0.060 A 
ATOM     29  C   UNL A   1      35.143  30.311  28.199  1.00  0.00     0.016 A 
ATOM     30  C   UNL A   1      35.914  32.609  27.969  1.00  0.00     0.016 A 
ATOM     31  C   UNL A   1      36.407  29.925  28.623  1.00  0.00     0.010 A 
ATOM     32  C   UNL A   1      37.187  32.216  28.392  1.00  0.00     0.010 A 
ATOM     33  C   UNL A   1      37.419  30.883  28.770  1.00  0.00    -0.014 A 
BRANCH  33  34
ATOM     34  C   UNL A   1      38.666  30.470  29.451  1.00  0.00     0.031 A 
ATOM     35  C   UNL A   1      38.917  30.922  30.862  1.00  0.00     0.074 A 
ATOM     36  C   UNL A   1      39.507  29.615  28.843  1.00  0.00     0.049 A 
ATOM     37  N   UNL A   1      39.822  30.510  31.710  1.00  0.00    -0.248 NA
ATOM     38  C   UNL A   1      38.029  31.971  31.392  1.00  0.00     0.031 C 
ATOM     39  C   UNL A   1      39.370  29.139  27.467  1.00  0.00     0.029 A 
ATOM     40  N   UNL A   1      40.632  28.988  29.309  1.00  0.00    -0.354 N 
ATOM     41  C   UNL A   1      39.615  31.246  32.871  1.00  0.00     0.074 A 
ATOM     42  C   UNL A   1      38.519  32.152  32.610  1.00  0.00     0.031 C 
ATOM     43  C   UNL A   1      40.372  28.284  27.201  1.00  0.00     0.029 A 
ATOM     44  C   UNL A   1      41.213  28.150  28.389  1.00  0.00     0.049 A 
ATOM     45  H   UNL A   1      40.988  29.123  30.217  1.00  0.00     0.167 HD
ATOM     46  C   UNL A   1      40.263  31.152  34.057  1.00  0.00     0.034 A 
ATOM     47  C   UNL A   1      42.291  27.351  28.501  1.00  0.00     0.034 A 
ATOM     48  C   UNL A   1      41.342  30.235  34.309  1.00  0.00     0.049 A 
ATOM     49  C   UNL A   1      42.976  27.244  29.839  1.00  0.00     0.074 A 
ATOM     50  C   UNL A   1      42.043  30.029  35.483  1.00  0.00     0.029 A 
ATOM     51  N   UNL A   1      41.883  29.378  33.362  1.00  0.00    -0.354 N 
ATOM     52  N   UNL A   1      42.672  27.834  30.971  1.00  0.00    -0.248 NA
ATOM     53  C   UNL A   1      44.118  26.325  29.926  1.00  0.00     0.031 C 
ATOM     54  C   UNL A   1      43.020  29.056  35.241  1.00  0.00     0.029 A 
ATOM     55  C   UNL A   1      42.915  28.645  33.921  1.00  0.00     0.049 A 
ATOM     56  H   UNL A   1      41.578  29.302  32.429  1.00  0.00     0.167 HD
ATOM     57  C   UNL A   1      43.569  27.340  31.911  1.00  0.00     0.074 A 
ATOM     58  C   UNL A   1      44.405  26.377  31.220  1.00  0.00     0.031 C 
ATOM     59  C   UNL A   1      43.707  27.664  33.221  1.00  0.00     0.034 A 
BRANCH  46  60
ATOM     60  C   UNL A   1      39.789  32.035  35.180  1.00  0.00     0.023 A 
ATOM     61  C   UNL A   1      40.158  33.396  35.195  1.00  0.00     0.012 A 
ATOM     62  C   UNL A   1      38.950  31.537  36.195  1.00  0.00     0.148 A 
ATOM     63  C   UNL A   1      39.724  34.241  36.216  1.00  0.00     0.002 A 
ATOM     64  C   UNL A   1      38.490  32.394  37.190  1.00  0.00     0.091 A 
ATOM     65  F   UNL A   1      38.631  30.235  36.181  1.00  0.00    -0.205 F 
ATOM     66  C   UNL A   1      38.883  33.743  37.207  1.00  0.00     0.022 A 
BRANCH  64  67
ATOM     67  S   UNL A   1      37.353  31.861  38.475  1.00  0.00     0.127 S 
ATOM     68  O   UNL A   1      38.156  32.061  39.681  1.00  0.00    -0.237 OA
ATOM     69  O   UNL A   1      36.244  32.803  38.318  1.00  0.00    -0.237 OA
ATOM     70  O   UNL A   1      37.020  30.478  38.166  1.00  0.00    -0.744 OA
ENDBRANCH  64  67
ENDBRANCH  46  60
BRANCH  47  71
ATOM     71  C   UNL A   1      42.727  26.531  27.337  1.00  0.00     0.023 A 
ATOM     72  C   UNL A   1      43.563  27.096  26.356  1.00  0.00     0.012 A 
ATOM     73  C   UNL A   1      42.354  25.178  27.223  1.00  0.00     0.148 A 
ATOM     74  C   UNL A   1      44.000  26.335  25.270  1.00  0.00     0.002 A 
ATOM     75  C   UNL A   1      42.838  24.410  26.170  1.00  0.00     0.091 A 
ATOM     76  F   UNL A   1      41.540  24.661  28.156  1.00  0.00    -0.205 F 
ATOM     77  C   UNL A   1      43.648  24.991  25.184  1.00  0.00     0.022 A 
BRANCH  75  78
ATOM     78  S   UNL A   1      42.547  22.640  26.068  1.00  0.00     0.127 S 
ATOM     79  O   UNL A   1      43.234  22.154  27.261  1.00  0.00    -0.237 OA
ATOM     80  O   UNL A   1      41.086  22.566  26.124  1.00  0.00    -0.237 OA
ATOM     81  O   UNL A   1      43.115  22.228  24.792  1.00  0.00    -0.744 OA
ENDBRANCH  75  78
ENDBRANCH  47  71
BRANCH  59  82
ATOM     82  C   UNL A   1      44.799  26.970  33.991  1.00  0.00     0.023 A 
ATOM     83  C   UNL A   1      46.122  27.445  33.899  1.00  0.00     0.012 A 
ATOM     84  C   UNL A   1      44.512  25.885  34.842  1.00  0.00     0.148 A 
ATOM     85  C   UNL A   1      47.149  26.827  34.610  1.00  0.00     0.002 A 
ATOM     86  C   UNL A   1      45.533  25.303  35.584  1.00  0.00     0.091 A 
ATOM     87  F   UNL A   1      43.251  25.430  34.902  1.00  0.00    -0.205 F 
ATOM     88  C   UNL A   1      46.853  25.764  35.460  1.00  0.00     0.022 A 
BRANCH  86  89
ATOM     89  S   UNL A   1      45.213  23.991  36.768  1.00  0.00     0.127 S 
ATOM     90  O   UNL A   1      44.716  22.922  35.904  1.00  0.00    -0.237 OA
ATOM     91  O   UNL A   1      46.539  23.746  37.337  1.00  0.00    -0.237 OA
ATOM     92  O   UNL A   1      44.250  24.544  37.711  1.00  0.00    -0.744 OA
ENDBRANCH  86  89
ENDBRANCH  59  82
ENDBRANCH  33  34
ENDBRANCH  26  28
ENDBRANCH  25  26
ENDBRANCH  24  25
ENDBRANCH  23  24
ENDBRANCH  22  23
ENDBRANCH   1  22
TORSDOF 21
ENDMDL
MODEL 2
REMARK VINA RESULT:     -10.7      2.513      8.393
REMARK SMILES CCOc1cccc2c(SCC(=O)OCCOCCOC(=O)c3ccc(-c4c5nc(c(-c6cccc(S(=O)(=O)[O-])c6F)c6ccc([nH]6)c(-c6cccc(S(=O)(=O)[O-])c6F)c6nc(c(-c7cccc(S(=O)(=O)[O-])c7F)c7ccc4[nH]7)C=C6)C=C5)cc3)cc(C)nc12
REMARK SMILES IDX 16 1 15 2 14 3 12 4 13 5 11 6 10 7 9 8 4 9 5 10 90 11 6 12
REMARK SMILES IDX 8 13 89 14 7 15 87 16 86 17 88 18 3 19 2 20 1 21 17 22 18 23
REMARK SMILES IDX 19 24 20 25 21 26 22 27 23 28 24 29 85 30 25 31 84 32 26 33
REMARK SMILES IDX 27 34 28 35 78 36 29 37 83 38 77 39 79 40 30 41 82 42 76 43
REMARK SMILES IDX 75 44 31 46 63 47 43 48 62 49 44 50 47 51 61 52 80 53 45 54
REMARK SMILES IDX 46 55 60 57 81 58 48 59 32 60 33 61 41 62 34 63 36 64 42 65
REMARK SMILES IDX 35 66 37 67 38 68 39 69 40 70 64 71 65 72 73 73 66 74 68 75
REMARK SMILES IDX 74 76 67 77 69 78 70 79 71 80 72 81 49 82 50 83 58 84 51 85
REMARK SMILES IDX 53 86 59 87 52 88 54 89 55 90 56 91 57 92
REMARK H PARENT 79 45 47 56
REMARK Flexibility Score: inf
ROOT
ATOM      1  C   UNL A   1      34.823  29.771  27.359  1.00  0.00     0.202 C 
ENDROOT
BRANCH   1   2
ATOM      2  C   UNL A   1      34.057  28.879  26.373  1.00  0.00     0.261 C 
BRANCH   2   3
ATOM      3  O   UNL A   1      33.248  27.871  27.019  1.00  0.00    -0.463 OA
BRANCH   3   4
ATOM      4  C   UNL A   1      31.905  27.946  26.821  1.00  0.00     0.316 C 
ATOM      5  O   UNL A   1      31.062  27.755  27.695  1.00  0.00    -0.251 OA
BRANCH   4   6
ATOM      6  C   UNL A   1      31.487  28.222  25.391  1.00  0.00     0.197 C 
BRANCH   6   7
ATOM      7  S   UNL A   1      30.794  26.827  24.457  1.00  0.00    -0.114 SA
BRANCH   7   8
ATOM      8  C   UNL A   1      31.132  25.318  25.406  1.00  0.00     0.019 A 
ATOM      9  C   UNL A   1      33.827  22.785  25.702  1.00  0.00     0.145 A 
ATOM     10  C   UNL A   1      34.908  23.369  25.037  1.00  0.00     0.049 A 
ATOM     11  C   UNL A   1      32.605  23.449  25.893  1.00  0.00     0.114 A 
ATOM     12  C   UNL A   1      34.761  24.633  24.495  1.00  0.00     0.005 A 
ATOM     13  C   UNL A   1      32.426  24.715  25.296  1.00  0.00     0.018 A 
ATOM     14  N   UNL A   1      31.624  22.848  26.594  1.00  0.00    -0.249 NA
ATOM     15  C   UNL A   1      33.536  25.290  24.611  1.00  0.00     0.012 A 
ATOM     16  C   UNL A   1      30.426  23.446  26.727  1.00  0.00     0.039 A 
ATOM     17  C   UNL A   1      30.144  24.677  26.158  1.00  0.00     0.039 A 
ATOM     18  C   UNL A   1      29.353  22.608  27.356  1.00  0.00     0.067 C 
BRANCH   9  19
ATOM     19  O   UNL A   1      34.015  21.518  26.215  1.00  0.00    -0.492 OA
BRANCH  19  20
ATOM     20  C   UNL A   1      34.370  20.586  25.180  1.00  0.00     0.226 C 
ATOM     21  C   UNL A   1      33.176  20.267  24.297  1.00  0.00     0.049 C 
ENDBRANCH  19  20
ENDBRANCH   9  19
ENDBRANCH   7   8
ENDBRANCH   6   7
ENDBRANCH   4   6
ENDBRANCH   3   4
ENDBRANCH   2   3
ENDBRANCH   1   2
BRANCH   1  22
ATOM     22  O   UNL A   1      34.376  31.127  27.462  1.00  0.00    -0.374 OA
BRANCH  22  23
ATOM     23  C   UNL A   1      32.973  31.347  27.344  1.00  0.00     0.202 C 
BRANCH  23  24
ATOM     24  C   UNL A   1      32.526  32.807  27.270  1.00  0.00     0.261 C 
BRANCH  24  25
ATOM     25  O   UNL A   1      33.625  33.712  27.393  1.00  0.00    -0.460 OA
BRANCH  25  26
ATOM     26  C   UNL A   1      33.510  34.557  28.438  1.00  0.00     0.338 C 
ATOM     27  O   UNL A   1      32.656  35.419  28.609  1.00  0.00    -0.246 OA
BRANCH  26  28
ATOM     28  C   UNL A   1      34.473  34.189  29.478  1.00  0.00     0.060 A 
ATOM     29  C   UNL A   1      35.827  34.295  29.147  1.00  0.00     0.016 A 
ATOM     30  C   UNL A   1      34.067  33.655  30.702  1.00  0.00     0.016 A 
ATOM     31  C   UNL A   1      36.783  33.784  30.013  1.00  0.00     0.010 A 
ATOM     32  C   UNL A   1      35.033  33.145  31.574  1.00  0.00     0.010 A 
ATOM     33  C   UNL A   1      36.388  33.162  31.205  1.00  0.00    -0.014 A 
BRANCH  33  34
ATOM     34  C   UNL A   1      37.416  32.423  31.971  1.00  0.00     0.031 A 
ATOM     35  C   UNL A   1      38.125  31.267  31.323  1.00  0.00     0.074 A 
ATOM     36  C   UNL A   1      37.778  32.855  33.191  1.00  0.00     0.049 A 
ATOM     37  N   UNL A   1      39.191  30.626  31.723  1.00  0.00    -0.248 NA
ATOM     38  C   UNL A   1      37.564  30.770  30.055  1.00  0.00     0.031 C 
ATOM     39  C   UNL A   1      37.135  33.949  33.920  1.00  0.00     0.029 A 
ATOM     40  N   UNL A   1      38.781  32.435  34.025  1.00  0.00    -0.354 N 
ATOM     41  C   UNL A   1      39.430  29.652  30.761  1.00  0.00     0.074 A 
ATOM     42  C   UNL A   1      38.381  29.765  29.772  1.00  0.00     0.031 C 
ATOM     43  C   UNL A   1      37.767  34.119  35.093  1.00  0.00     0.029 A 
ATOM     44  C   UNL A   1      38.859  33.153  35.193  1.00  0.00     0.049 A 
ATOM     45  H   UNL A   1      39.387  31.691  33.807  1.00  0.00     0.167 HD
ATOM     46  C   UNL A   1      40.451  28.764  30.694  1.00  0.00     0.034 A 
ATOM     47  C   UNL A   1      39.728  33.054  36.217  1.00  0.00     0.034 A 
ATOM     48  C   UNL A   1      41.497  28.672  31.675  1.00  0.00     0.049 A 
ATOM     49  C   UNL A   1      40.870  32.078  36.104  1.00  0.00     0.074 A 
ATOM     50  C   UNL A   1      42.599  27.838  31.687  1.00  0.00     0.029 A 
ATOM     51  N   UNL A   1      41.563  29.439  32.830  1.00  0.00    -0.354 N 
ATOM     52  N   UNL A   1      41.170  31.268  35.115  1.00  0.00    -0.248 NA
ATOM     53  C   UNL A   1      41.820  32.037  37.224  1.00  0.00     0.031 C 
ATOM     54  C   UNL A   1      43.325  28.089  32.858  1.00  0.00     0.029 A 
ATOM     55  C   UNL A   1      42.682  29.093  33.567  1.00  0.00     0.049 A 
ATOM     56  H   UNL A   1      40.909  30.128  33.087  1.00  0.00     0.167 HD
ATOM     57  C   UNL A   1      42.355  30.641  35.481  1.00  0.00     0.074 A 
ATOM     58  C   UNL A   1      42.734  31.190  36.769  1.00  0.00     0.031 C 
ATOM     59  C   UNL A   1      43.058  29.683  34.827  1.00  0.00     0.034 A 
BRANCH  46  60
ATOM     60  C   UNL A   1      40.503  27.854  29.495  1.00  0.00     0.023 A 
ATOM     61  C   UNL A   1      39.668  26.719  29.451  1.00  0.00     0.012 A 
ATOM     62  C   UNL A   1      41.342  28.138  28.400  1.00  0.00     0.148 A 
ATOM     63  C   UNL A   1      39.686  25.865  28.348  1.00  0.00     0.002 A 
ATOM     64  C   UNL A   1      41.328  27.302  27.288  1.00  0.00     0.091 A 
ATOM     65  F   UNL A   1      42.149  29.206  28.472  1.00  0.00    -0.205 F 
ATOM     66  C   UNL A   1      40.508  26.161  27.264  1.00  0.00     0.022 A 
BRANCH  64  67
ATOM     67  S   UNL A   1      42.304  27.634  25.817  1.00  0.00     0.127 S 
ATOM     68  O   UNL A   1      43.666  27.557  26.343  1.00  0.00    -0.237 OA
ATOM     69  O   UNL A   1      41.927  26.525  24.938  1.00  0.00    -0.237 OA
ATOM     70  O   UNL A   1      41.885  28.947  25.347  1.00  0.00    -0.744 OA
ENDBRANCH  64  67
ENDBRANCH  46  60
BRANCH  47  71
ATOM     71  C   UNL A   1      39.596  33.963  37.388  1.00  0.00     0.023 A 
ATOM     72  C   UNL A   1      40.083  35.282  37.310  1.00  0.00     0.012 A 
ATOM     73  C   UNL A   1      38.948  33.541  38.565  1.00  0.00     0.148 A 
ATOM     74  C   UNL A   1      39.948  36.155  38.390  1.00  0.00     0.002 A 
ATOM     75  C   UNL A   1      38.765  34.433  39.616  1.00  0.00     0.091 A 
ATOM     76  F   UNL A   1      38.508  32.275  38.630  1.00  0.00    -0.205 F 
ATOM     77  C   UNL A   1      39.279  35.735  39.537  1.00  0.00     0.022 A 
BRANCH  75  78
ATOM     78  S   UNL A   1      37.790  34.011  41.065  1.00  0.00     0.127 S 
ATOM     79  O   UNL A   1      36.593  33.432  40.463  1.00  0.00    -0.237 OA
ATOM     80  O   UNL A   1      38.660  33.055  41.752  1.00  0.00    -0.237 OA
ATOM     81  O   UNL A   1      37.602  35.266  41.781  1.00  0.00    -0.744 OA
ENDBRANCH  75  78
ENDBRANCH  47  71
BRANCH  59  82
ATOM     82  C   UNL A   1      44.308  29.171  35.492  1.00  0.00     0.023 A 
ATOM     83  C   UNL A   1      45.543  29.791  35.217  1.00  0.00     0.012 A 
ATOM     84  C   UNL A   1      44.256  28.116  36.423  1.00  0.00     0.148 A 
ATOM     85  C   UNL A   1      46.713  29.343  35.828  1.00  0.00     0.002 A 
ATOM     86  C   UNL A   1      45.420  27.705  37.063  1.00  0.00     0.091 A 
ATOM     87  F   UNL A   1      43.076  27.522  36.657  1.00  0.00    -0.205 F 
ATOM     88  C   UNL A   1      46.650  28.308  36.758  1.00  0.00     0.022 A 
BRANCH  86  89
ATOM     89  S   UNL A   1      45.401  26.442  38.339  1.00  0.00     0.127 S 
ATOM     90  O   UNL A   1      44.342  26.925  39.224  1.00  0.00    -0.237 OA
ATOM     91  O   UNL A   1      45.061  25.233  37.586  1.00  0.00    -0.237 OA
ATOM     92  O   UNL A   1      46.745  26.436  38.903  1.00  0.00    -0.744 OA
ENDBRANCH  86  89
ENDBRANCH  59  82
ENDBRANCH  33  34
ENDBRANCH  26  28
ENDBRANCH  25  26
ENDBRANCH  24  25
ENDBRANCH  23  24
ENDBRANCH  22  23
ENDBRANCH   1  22
TORSDOF 21
ENDMDL
MODEL 3
REMARK VINA RESULT:     -10.6      1.989      2.309
REMARK SMILES CCOc1cccc2c(SCC(=O)OCCOCCOC(=O)c3ccc(-c4c5nc(c(-c6cccc(S(=O)(=O)[O-])c6F)c6ccc([nH]6)c(-c6cccc(S(=O)(=O)[O-])c6F)c6nc(c(-c7cccc(S(=O)(=O)[O-])c7F)c7ccc4[nH]7)C=C6)C=C5)cc3)cc(C)nc12
REMARK SMILES IDX 16 1 15 2 14 3 12 4 13 5 11 6 10 7 9 8 4 9 5 10 90 11 6 12
REMARK SMILES IDX 8 13 89 14 7 15 87 16 86 17 88 18 3 19 2 20 1 21 17 22 18 23
REMARK SMILES IDX 19 24 20 25 21 26 22 27 23 28 24 29 85 30 25 31 84 32 26 33
REMARK SMILES IDX 27 34 28 35 78 36 29 37 83 38 77 39 79 40 30 41 82 42 76 43
REMARK SMILES IDX 75 44 31 46 63 47 43 48 62 49 44 50 47 51 61 52 80 53 45 54
REMARK SMILES IDX 46 55 60 57 81 58 48 59 32 60 33 61 41 62 34 63 36 64 42 65
REMARK SMILES IDX 35 66 37 67 38 68 39 69 40 70 64 71 65 72 73 73 66 74 68 75
REMARK SMILES IDX 74 76 67 77 69 78 70 79 71 80 72 81 49 82 50 83 58 84 51 85
REMARK SMILES IDX 53 86 59 87 52 88 54 89 55 90 56 91 57 92
REMARK H PARENT 79 45 47 56
REMARK Flexibility Score: inf
ROOT
ATOM      1  C   UNL A   1      33.311  27.969  24.837  1.00  0.00     0.202 C 
ENDROOT
BRANCH   1   2
ATOM      2  C   UNL A   1      33.128  28.282  23.346  1.00  0.00     0.261 C 
BRANCH   2   3
ATOM      3  O   UNL A   1      33.606  27.231  22.475  1.00  0.00    -0.463 OA
BRANCH   3   4
ATOM      4  C   UNL A   1      32.686  26.325  22.050  1.00  0.00     0.316 C 
ATOM      5  O   UNL A   1      31.651  26.615  21.453  1.00  0.00    -0.251 OA
BRANCH   4   6
ATOM      6  C   UNL A   1      32.983  24.889  22.429  1.00  0.00     0.197 C 
BRANCH   6   7
ATOM      7  S   UNL A   1      31.644  23.958  23.227  1.00  0.00    -0.114 SA
BRANCH   7   8
ATOM      8  C   UNL A   1      32.413  22.726  24.313  1.00  0.00     0.019 A 
ATOM      9  C   UNL A   1      32.807  19.040  24.467  1.00  0.00     0.145 A 
ATOM     10  C   UNL A   1      32.429  18.610  23.193  1.00  0.00     0.049 A 
ATOM     11  C   UNL A   1      32.877  20.395  24.821  1.00  0.00     0.114 A 
ATOM     12  C   UNL A   1      32.054  19.550  22.249  1.00  0.00     0.005 A 
ATOM     13  C   UNL A   1      32.443  21.360  23.885  1.00  0.00     0.018 A 
ATOM     14  N   UNL A   1      33.304  20.741  26.051  1.00  0.00    -0.249 NA
ATOM     15  C   UNL A   1      32.049  20.902  22.595  1.00  0.00     0.012 A 
ATOM     16  C   UNL A   1      33.312  22.033  26.425  1.00  0.00     0.039 A 
ATOM     17  C   UNL A   1      32.884  23.051  25.587  1.00  0.00     0.039 A 
ATOM     18  C   UNL A   1      33.622  22.285  27.871  1.00  0.00     0.067 C 
BRANCH   9  19
ATOM     19  O   UNL A   1      33.160  18.066  25.379  1.00  0.00    -0.492 OA
BRANCH  19  20
ATOM     20  C   UNL A   1      34.089  17.131  24.807  1.00  0.00     0.226 C 
ATOM     21  C   UNL A   1      33.724  15.703  25.173  1.00  0.00     0.049 C 
ENDBRANCH  19  20
ENDBRANCH   9  19
ENDBRANCH   7   8
ENDBRANCH   6   7
ENDBRANCH   4   6
ENDBRANCH   3   4
ENDBRANCH   2   3
ENDBRANCH   1   2
BRANCH   1  22
ATOM     22  O   UNL A   1      32.190  28.249  25.682  1.00  0.00    -0.374 OA
BRANCH  22  23
ATOM     23  C   UNL A   1      31.386  29.369  25.325  1.00  0.00     0.202 C 
BRANCH  23  24
ATOM     24  C   UNL A   1      31.829  30.721  25.887  1.00  0.00     0.261 C 
BRANCH  24  25
ATOM     25  O   UNL A   1      32.619  30.578  27.068  1.00  0.00    -0.460 OA
BRANCH  25  26
ATOM     26  C   UNL A   1      33.261  31.709  27.425  1.00  0.00     0.338 C 
ATOM     27  O   UNL A   1      32.771  32.813  27.627  1.00  0.00    -0.246 OA
BRANCH  26  28
ATOM     28  C   UNL A   1      34.663  31.406  27.722  1.00  0.00     0.060 A 
ATOM     29  C   UNL A   1      34.982  30.064  27.948  1.00  0.00     0.016 A 
ATOM     30  C   UNL A   1      35.616  32.415  27.882  1.00  0.00     0.016 A 
ATOM     31  C   UNL A   1      36.244  29.733  28.421  1.00  0.00     0.010 A 
ATOM     32  C   UNL A   1      36.888  32.077  28.354  1.00  0.00     0.010 A 
ATOM     33  C   UNL A   1      37.184  30.742  28.674  1.00  0.00    -0.014 A 
BRANCH  33  34
ATOM     34  C   UNL A   1      38.418  30.369  29.400  1.00  0.00     0.031 A 
ATOM     35  C   UNL A   1      38.613  30.848  30.812  1.00  0.00     0.074 A 
ATOM     36  C   UNL A   1      39.297  29.524  28.833  1.00  0.00     0.049 A 
ATOM     37  N   UNL A   1      39.500  30.470  31.695  1.00  0.00    -0.248 NA
ATOM     38  C   UNL A   1      37.685  31.884  31.296  1.00  0.00     0.031 C 
ATOM     39  C   UNL A   1      39.215  29.024  27.461  1.00  0.00     0.029 A 
ATOM     40  N   UNL A   1      40.420  28.930  29.345  1.00  0.00    -0.354 N 
ATOM     41  C   UNL A   1      39.239  31.219  32.836  1.00  0.00     0.074 A 
ATOM     42  C   UNL A   1      38.132  32.095  32.526  1.00  0.00     0.031 C 
ATOM     43  C   UNL A   1      40.244  28.189  27.242  1.00  0.00     0.029 A 
ATOM     44  C   UNL A   1      41.050  28.093  28.457  1.00  0.00     0.049 A 
ATOM     45  H   UNL A   1      40.744  29.088  30.261  1.00  0.00     0.167 HD
ATOM     46  C   UNL A   1      39.851  31.157  34.043  1.00  0.00     0.034 A 
ATOM     47  C   UNL A   1      42.142  27.320  28.616  1.00  0.00     0.034 A 
ATOM     48  C   UNL A   1      40.941  30.270  34.344  1.00  0.00     0.049 A 
ATOM     49  C   UNL A   1      42.785  27.250  29.976  1.00  0.00     0.074 A 
ATOM     50  C   UNL A   1      41.609  30.098  35.543  1.00  0.00     0.029 A 
ATOM     51  N   UNL A   1      41.532  29.411  33.429  1.00  0.00    -0.354 N 
ATOM     52  N   UNL A   1      42.433  27.850  31.089  1.00  0.00    -0.248 NA
ATOM     53  C   UNL A   1      43.945  26.359  30.115  1.00  0.00     0.031 C 
ATOM     54  C   UNL A   1      42.616  29.144  35.348  1.00  0.00     0.029 A 
ATOM     55  C   UNL A   1      42.562  28.711  34.031  1.00  0.00     0.049 A 
ATOM     56  H   UNL A   1      41.259  29.314  32.488  1.00  0.00     0.167 HD
ATOM     57  C   UNL A   1      43.309  27.391  32.065  1.00  0.00     0.074 A 
ATOM     58  C   UNL A   1      44.189  26.437  31.416  1.00  0.00     0.031 C 
ATOM     59  C   UNL A   1      43.398  27.738  33.373  1.00  0.00     0.034 A 
BRANCH  46  60
ATOM     60  C   UNL A   1      39.321  32.047  35.137  1.00  0.00     0.023 A 
ATOM     61  C   UNL A   1      38.291  31.574  35.976  1.00  0.00     0.012 A 
ATOM     62  C   UNL A   1      39.863  33.327  35.363  1.00  0.00     0.148 A 
ATOM     63  C   UNL A   1      37.789  32.371  37.005  1.00  0.00     0.002 A 
ATOM     64  C   UNL A   1      39.382  34.101  36.414  1.00  0.00     0.091 A 
ATOM     65  F   UNL A   1      40.822  33.770  34.538  1.00  0.00    -0.205 F 
ATOM     66  C   UNL A   1      38.340  33.629  37.230  1.00  0.00     0.022 A 
BRANCH  64  67
ATOM     67  S   UNL A   1      40.071  35.710  36.822  1.00  0.00     0.127 S 
ATOM     68  O   UNL A   1      39.450  35.976  38.119  1.00  0.00    -0.237 OA
ATOM     69  O   UNL A   1      41.506  35.427  36.881  1.00  0.00    -0.237 OA
ATOM     70  O   UNL A   1      39.674  36.601  35.742  1.00  0.00    -0.744 OA
ENDBRANCH  64  67
ENDBRANCH  46  60
BRANCH  47  71
ATOM     71  C   UNL A   1      42.633  26.493  27.480  1.00  0.00     0.023 A 
ATOM     72  C   UNL A   1      43.589  27.020  26.591  1.00  0.00     0.012 A 
ATOM     73  C   UNL A   1      42.191  25.167  27.304  1.00  0.00     0.148 A 
ATOM     74  C   UNL A   1      44.078  26.251  25.534  1.00  0.00     0.002 A 
ATOM     75  C   UNL A   1      42.724  24.388  26.283  1.00  0.00     0.091 A 
ATOM     76  F   UNL A   1      41.265  24.688  28.147  1.00  0.00    -0.205 F 
ATOM     77  C   UNL A   1      43.655  24.932  25.388  1.00  0.00     0.022 A 
BRANCH  75  78
ATOM     78  S   UNL A   1      42.338  22.641  26.119  1.00  0.00     0.127 S 
ATOM     79  O   UNL A   1      42.906  22.091  27.346  1.00  0.00    -0.237 OA
ATOM     80  O   UNL A   1      40.875  22.653  26.068  1.00  0.00    -0.237 OA
ATOM     81  O   UNL A   1      42.972  22.221  24.876  1.00  0.00    -0.744 OA
ENDBRANCH  75  78
ENDBRANCH  47  71
BRANCH  59  82
ATOM     82  C   UNL A   1      44.480  27.081  34.189  1.00  0.00     0.023 A 
ATOM     83  C   UNL A   1      44.200  25.883  34.875  1.00  0.00     0.012 A 
ATOM     84  C   UNL A   1      45.781  27.617  34.235  1.00  0.00     0.148 A 
ATOM     85  C   UNL A   1      45.187  25.250  35.629  1.00  0.00     0.002 A 
ATOM     86  C   UNL A   1      46.772  26.955  34.950  1.00  0.00     0.091 A 
ATOM     87  F   UNL A   1      46.025  28.770  33.594  1.00  0.00    -0.205 F 
ATOM     88  C   UNL A   1      46.475  25.779  35.657  1.00  0.00     0.022 A 
BRANCH  86  89
ATOM     89  S   UNL A   1      48.475  27.527  34.957  1.00  0.00     0.127 S 
ATOM     90  O   UNL A   1      48.366  28.803  34.253  1.00  0.00    -0.237 OA
ATOM     91  O   UNL A   1      48.766  27.643  36.387  1.00  0.00    -0.237 OA
ATOM     92  O   UNL A   1      49.238  26.490  34.275  1.00  0.00    -0.744 OA
ENDBRANCH  86  89
ENDBRANCH  59  82
ENDBRANCH  33  34
ENDBRANCH  26  28
ENDBRANCH  25  26
ENDBRANCH  24  25
ENDBRANCH  23  24
ENDBRANCH  22  23
ENDBRANCH   1  22
TORSDOF 21
ENDMDL
