MODEL 1
REMARK VINA RESULT:     -11.8      0.000      0.000
REMARK SMILES NC(=O)c1cc(NC(=O)/C=C\C(=O)OCCOCCOC(=O)c2ccc(-c3c4nc(c(-c5cccc(S(=O)(=O)[O-])c5F)c5ccc([nH]5)c(-c5cccc(S(=O)(=O)[O-])c5F)c5nc(c(-c6cccc(S(=O)(=O)[O-])c6F)c6ccc3[nH]6)C=C5)C=C4)cc2)ccc1N1CCOCC1
REMARK SMILES IDX 17 1 16 2 15 3 14 4 12 5 13 6 11 7 10 8 8 9 7 10 9 12 6 13
REMARK SMILES IDX 4 14 5 15 88 16 87 17 86 18 2 19 1 20 3 23 89 24 90 25 94 26
REMARK SMILES IDX 91 27 93 28 92 29 18 30 19 31 20 32 21 33 22 34 23 35 24 36
REMARK SMILES IDX 85 37 25 38 84 39 26 40 27 41 28 42 78 43 29 44 83 45 77 46
REMARK SMILES IDX 79 47 30 48 82 49 76 50 75 51 31 53 63 54 43 55 62 56 44 57
REMARK SMILES IDX 47 58 61 59 80 60 45 61 46 62 60 64 81 65 48 66 32 67 33 68
REMARK SMILES IDX 41 69 34 70 36 71 42 72 35 73 37 74 38 75 39 76 40 77 64 78
REMARK SMILES IDX 65 79 73 80 66 81 68 82 74 83 67 84 69 85 70 86 71 87 72 88
REMARK SMILES IDX 49 89 50 90 58 91 51 92 53 93 59 94 52 95 54 96 55 97 56 98
REMARK SMILES IDX 57 99
REMARK H PARENT 7 11 1 21 1 22 79 52 47 63
REMARK Flexibility Score: inf
ROOT
ATOM      1  O   UNL A   1      31.487  30.850  25.332  1.00  0.00    -0.374 OA
ENDROOT
BRANCH   1   2
ATOM      2  C   UNL A   1      31.415  29.449  25.202  1.00  0.00     0.202 C 
BRANCH   2   3
ATOM      3  C   UNL A   1      31.888  28.526  26.326  1.00  0.00     0.261 C 
BRANCH   3   4
ATOM      4  O   UNL A   1      31.628  27.120  26.341  1.00  0.00    -0.460 OA
BRANCH   4   5
ATOM      5  C   UNL A   1      32.036  26.478  25.226  1.00  0.00     0.331 C 
ATOM      6  O   UNL A   1      31.349  26.238  24.246  1.00  0.00    -0.247 OA
BRANCH   5   7
ATOM      7  C   UNL A   1      33.438  26.055  25.274  1.00  0.00     0.099 C 
ATOM      8  C   UNL A   1      34.179  25.627  24.241  1.00  0.00     0.079 C 
BRANCH   8   9
ATOM      9  C   UNL A   1      33.775  25.306  22.854  1.00  0.00     0.248 C 
ATOM     10  N   UNL A   1      33.172  24.145  22.469  1.00  0.00    -0.322 N 
ATOM     11  H   UNL A   1      32.958  24.117  21.508  1.00  0.00     0.170 HD
ATOM     12  O   UNL A   1      34.005  26.168  22.005  1.00  0.00    -0.270 OA
BRANCH  10  13
ATOM     13  C   UNL A   1      32.792  22.980  23.159  1.00  0.00     0.042 A 
ATOM     14  C   UNL A   1      33.340  21.179  24.683  1.00  0.00     0.064 A 
ATOM     15  C   UNL A   1      33.378  22.547  24.339  1.00  0.00     0.042 A 
ATOM     16  C   UNL A   1      32.671  20.238  23.864  1.00  0.00     0.050 A 
ATOM     17  C   UNL A   1      31.866  20.762  22.838  1.00  0.00     0.029 A 
ATOM     18  C   UNL A   1      31.899  22.126  22.503  1.00  0.00     0.028 A 
BRANCH  14  19
ATOM     19  C   UNL A   1      34.234  20.812  25.814  1.00  0.00     0.250 C 
ATOM     20  N   UNL A   1      35.489  20.388  25.490  1.00  0.00    -0.366 N 
ATOM     21  H   UNL A   1      36.122  20.133  26.199  1.00  0.00     0.159 HD
ATOM     22  H   UNL A   1      35.762  20.338  24.545  1.00  0.00     0.159 HD
ATOM     23  O   UNL A   1      33.892  20.965  26.980  1.00  0.00    -0.269 OA
ENDBRANCH  14  19
BRANCH  16  24
ATOM     24  N   UNL A   1      32.857  18.870  23.978  1.00  0.00    -0.366 N 
ATOM     25  C   UNL A   1      32.459  18.165  25.197  1.00  0.00     0.145 C 
ATOM     26  C   UNL A   1      33.012  18.007  22.796  1.00  0.00     0.145 C 
ATOM     27  C   UNL A   1      33.390  16.959  25.426  1.00  0.00     0.181 C 
ATOM     28  C   UNL A   1      33.944  16.831  23.134  1.00  0.00     0.181 C 
ATOM     29  O   UNL A   1      33.462  16.098  24.274  1.00  0.00    -0.378 OA
ENDBRANCH  16  24
ENDBRANCH  10  13
ENDBRANCH   8   9
ENDBRANCH   5   7
ENDBRANCH   4   5
ENDBRANCH   3   4
ENDBRANCH   2   3
ENDBRANCH   1   2
BRANCH   1  30
ATOM     30  C   UNL A   1      31.546  31.431  26.624  1.00  0.00     0.202 C 
BRANCH  30  31
ATOM     31  C   UNL A   1      31.958  32.894  26.906  1.00  0.00     0.261 C 
BRANCH  31  32
ATOM     32  O   UNL A   1      32.389  33.238  28.229  1.00  0.00    -0.460 OA
BRANCH  32  33
ATOM     33  C   UNL A   1      33.503  34.009  28.301  1.00  0.00     0.338 C 
ATOM     34  O   UNL A   1      33.539  35.218  28.440  1.00  0.00    -0.246 OA
BRANCH  33  35
ATOM     35  C   UNL A   1      34.692  33.134  28.441  1.00  0.00     0.060 A 
ATOM     36  C   UNL A   1      34.501  31.798  28.832  1.00  0.00     0.016 A 
ATOM     37  C   UNL A   1      35.979  33.637  28.258  1.00  0.00     0.016 A 
ATOM     38  C   UNL A   1      35.595  30.976  29.096  1.00  0.00     0.010 A 
ATOM     39  C   UNL A   1      37.077  32.825  28.567  1.00  0.00     0.010 A 
ATOM     40  C   UNL A   1      36.884  31.511  29.036  1.00  0.00    -0.014 A 
BRANCH  40  41
ATOM     41  C   UNL A   1      37.985  30.807  29.735  1.00  0.00     0.031 A 
ATOM     42  C   UNL A   1      38.255  31.183  31.168  1.00  0.00     0.074 A 
ATOM     43  C   UNL A   1      38.716  29.853  29.134  1.00  0.00     0.049 A 
ATOM     44  N   UNL A   1      39.194  30.768  31.976  1.00  0.00    -0.248 NA
ATOM     45  C   UNL A   1      37.334  32.164  31.769  1.00  0.00     0.031 C 
ATOM     46  C   UNL A   1      38.518  29.368  27.770  1.00  0.00     0.029 A 
ATOM     47  N   UNL A   1      39.792  29.140  29.597  1.00  0.00    -0.354 N 
ATOM     48  C   UNL A   1      39.001  31.462  33.164  1.00  0.00     0.074 A 
ATOM     49  C   UNL A   1      37.861  32.328  32.973  1.00  0.00     0.031 C 
ATOM     50  C   UNL A   1      39.469  28.457  27.493  1.00  0.00     0.029 A 
ATOM     51  C   UNL A   1      40.357  28.324  28.646  1.00  0.00     0.049 A 
ATOM     52  H   UNL A   1      40.127  29.207  30.520  1.00  0.00     0.167 HD
ATOM     53  C   UNL A   1      39.706  31.383  34.318  1.00  0.00     0.034 A 
ATOM     54  C   UNL A   1      41.482  27.581  28.698  1.00  0.00     0.034 A 
ATOM     55  C   UNL A   1      40.840  30.521  34.504  1.00  0.00     0.049 A 
ATOM     56  C   UNL A   1      42.294  27.559  29.969  1.00  0.00     0.074 A 
ATOM     57  C   UNL A   1      41.613  30.347  35.637  1.00  0.00     0.029 A 
ATOM     58  N   UNL A   1      41.378  29.702  33.522  1.00  0.00    -0.354 N 
ATOM     59  N   UNL A   1      42.057  28.155  31.113  1.00  0.00    -0.248 NA
ATOM     60  C   UNL A   1      43.514  26.740  29.965  1.00  0.00     0.031 C 
ATOM     61  C   UNL A   1      42.641  29.450  35.328  1.00  0.00     0.029 A 
ATOM     62  C   UNL A   1      42.482  29.031  34.017  1.00  0.00     0.049 A 
ATOM     63  H   UNL A   1      41.024  29.610  32.607  1.00  0.00     0.167 HD
ATOM     64  C   UNL A   1      43.071  27.751  31.975  1.00  0.00     0.074 A 
ATOM     65  C   UNL A   1      43.920  26.849  31.223  1.00  0.00     0.031 C 
ATOM     66  C   UNL A   1      43.287  28.098  33.270  1.00  0.00     0.034 A 
BRANCH  53  67
ATOM     67  C   UNL A   1      39.266  32.263  35.459  1.00  0.00     0.023 A 
ATOM     68  C   UNL A   1      39.624  33.627  35.474  1.00  0.00     0.012 A 
ATOM     69  C   UNL A   1      38.490  31.741  36.512  1.00  0.00     0.148 A 
ATOM     70  C   UNL A   1      39.256  34.445  36.542  1.00  0.00     0.002 A 
ATOM     71  C   UNL A   1      38.085  32.575  37.547  1.00  0.00     0.091 A 
ATOM     72  F   UNL A   1      38.181  30.437  36.494  1.00  0.00    -0.205 F 
ATOM     73  C   UNL A   1      38.480  33.922  37.572  1.00  0.00     0.022 A 
BRANCH  71  74
ATOM     74  S   UNL A   1      37.019  32.014  38.879  1.00  0.00     0.127 S 
ATOM     75  O   UNL A   1      37.730  32.510  40.056  1.00  0.00    -0.237 OA
ATOM     76  O   UNL A   1      35.767  32.712  38.585  1.00  0.00    -0.237 OA
ATOM     77  O   UNL A   1      36.948  30.565  38.753  1.00  0.00    -0.744 OA
ENDBRANCH  71  74
ENDBRANCH  53  67
BRANCH  54  78
ATOM     78  C   UNL A   1      41.897  26.775  27.515  1.00  0.00     0.023 A 
ATOM     79  C   UNL A   1      42.535  27.411  26.432  1.00  0.00     0.012 A 
ATOM     80  C   UNL A   1      41.681  25.383  27.463  1.00  0.00     0.148 A 
ATOM     81  C   UNL A   1      42.929  26.681  25.309  1.00  0.00     0.002 A 
ATOM     82  C   UNL A   1      42.125  24.654  26.365  1.00  0.00     0.091 A 
ATOM     83  F   UNL A   1      41.059  24.800  28.496  1.00  0.00    -0.205 F 
ATOM     84  C   UNL A   1      42.734  25.303  25.280  1.00  0.00     0.022 A 
BRANCH  82  85
ATOM     85  S   UNL A   1      42.029  22.863  26.288  1.00  0.00     0.127 S 
ATOM     86  O   UNL A   1      40.585  22.641  26.269  1.00  0.00    -0.237 OA
ATOM     87  O   UNL A   1      42.712  22.584  25.025  1.00  0.00    -0.237 OA
ATOM     88  O   UNL A   1      42.722  22.376  27.472  1.00  0.00    -0.744 OA
ENDBRANCH  82  85
ENDBRANCH  54  78
BRANCH  66  89
ATOM     89  C   UNL A   1      44.454  27.464  33.984  1.00  0.00     0.023 A 
ATOM     90  C   UNL A   1      45.709  28.104  33.999  1.00  0.00     0.012 A 
ATOM     91  C   UNL A   1      44.277  26.272  34.716  1.00  0.00     0.148 A 
ATOM     92  C   UNL A   1      46.777  27.551  34.705  1.00  0.00     0.002 A 
ATOM     93  C   UNL A   1      45.331  25.756  35.460  1.00  0.00     0.091 A 
ATOM     94  F   UNL A   1      43.079  25.670  34.678  1.00  0.00    -0.205 F 
ATOM     95  C   UNL A   1      46.585  26.386  35.444  1.00  0.00     0.022 A 
BRANCH  93  96
ATOM     96  S   UNL A   1      45.149  24.318  36.522  1.00  0.00     0.127 S 
ATOM     97  O   UNL A   1      46.432  24.302  37.223  1.00  0.00    -0.237 OA
ATOM     98  O   UNL A   1      44.005  24.691  37.354  1.00  0.00    -0.237 OA
ATOM     99  O   UNL A   1      44.909  23.189  35.635  1.00  0.00    -0.744 OA
ENDBRANCH  93  96
ENDBRANCH  66  89
ENDBRANCH  40  41
ENDBRANCH  33  35
ENDBRANCH  32  33
ENDBRANCH  31  32
ENDBRANCH  30  31
ENDBRANCH   1  30
TORSDOF 21
ENDMDL
MODEL 2
REMARK VINA RESULT:     -11.4      1.786      7.677
REMARK SMILES NC(=O)c1cc(NC(=O)/C=C\C(=O)OCCOCCOC(=O)c2ccc(-c3c4nc(c(-c5cccc(S(=O)(=O)[O-])c5F)c5ccc([nH]5)c(-c5cccc(S(=O)(=O)[O-])c5F)c5nc(c(-c6cccc(S(=O)(=O)[O-])c6F)c6ccc3[nH]6)C=C5)C=C4)cc2)ccc1N1CCOCC1
REMARK SMILES IDX 17 1 16 2 15 3 14 4 12 5 13 6 11 7 10 8 8 9 7 10 9 12 6 13
REMARK SMILES IDX 4 14 5 15 88 16 87 17 86 18 2 19 1 20 3 23 89 24 90 25 94 26
REMARK SMILES IDX 91 27 93 28 92 29 18 30 19 31 20 32 21 33 22 34 23 35 24 36
REMARK SMILES IDX 85 37 25 38 84 39 26 40 27 41 28 42 78 43 29 44 83 45 77 46
REMARK SMILES IDX 79 47 30 48 82 49 76 50 75 51 31 53 63 54 43 55 62 56 44 57
REMARK SMILES IDX 47 58 61 59 80 60 45 61 46 62 60 64 81 65 48 66 32 67 33 68
REMARK SMILES IDX 41 69 34 70 36 71 42 72 35 73 37 74 38 75 39 76 40 77 64 78
REMARK SMILES IDX 65 79 73 80 66 81 68 82 74 83 67 84 69 85 70 86 71 87 72 88
REMARK SMILES IDX 49 89 50 90 58 91 51 92 53 93 59 94 52 95 54 96 55 97 56 98
REMARK SMILES IDX 57 99
REMARK H PARENT 7 11 1 21 1 22 79 52 47 63
REMARK Flexibility Score: inf
ROOT
ATOM      1  O   UNL A   1      30.305  30.793  24.908  1.00  0.00    -0.374 OA
ENDROOT
BRANCH   1   2
ATOM      2  C   UNL A   1      29.724  30.749  23.626  1.00  0.00     0.202 C 
BRANCH   2   3
ATOM      3  C   UNL A   1      29.208  29.435  23.036  1.00  0.00     0.261 C 
BRANCH   3   4
ATOM      4  O   UNL A   1      29.978  28.626  22.144  1.00  0.00    -0.460 OA
BRANCH   4   5
ATOM      5  C   UNL A   1      30.396  27.462  22.687  1.00  0.00     0.331 C 
ATOM      6  O   UNL A   1      30.021  26.993  23.750  1.00  0.00    -0.247 OA
BRANCH   5   7
ATOM      7  C   UNL A   1      31.393  26.761  21.874  1.00  0.00     0.099 C 
ATOM      8  C   UNL A   1      32.713  26.704  22.104  1.00  0.00     0.079 C 
BRANCH   8   9
ATOM      9  C   UNL A   1      33.535  27.433  23.096  1.00  0.00     0.248 C 
ATOM     10  N   UNL A   1      34.024  26.893  24.248  1.00  0.00    -0.322 N 
ATOM     11  H   UNL A   1      34.567  27.523  24.774  1.00  0.00     0.170 HD
ATOM     12  O   UNL A   1      33.787  28.611  22.836  1.00  0.00    -0.270 OA
BRANCH  10  13
ATOM     13  C   UNL A   1      33.914  25.622  24.840  1.00  0.00     0.042 A 
ATOM     14  C   UNL A   1      34.610  23.305  24.964  1.00  0.00     0.064 A 
ATOM     15  C   UNL A   1      34.927  24.675  24.846  1.00  0.00     0.042 A 
ATOM     16  C   UNL A   1      33.271  22.877  25.124  1.00  0.00     0.050 A 
ATOM     17  C   UNL A   1      32.321  23.878  25.388  1.00  0.00     0.029 A 
ATOM     18  C   UNL A   1      32.642  25.242  25.279  1.00  0.00     0.028 A 
BRANCH  14  19
ATOM     19  C   UNL A   1      35.749  22.391  24.678  1.00  0.00     0.250 C 
ATOM     20  N   UNL A   1      36.377  22.552  23.479  1.00  0.00    -0.366 N 
ATOM     21  H   UNL A   1      37.137  21.974  23.239  1.00  0.00     0.159 HD
ATOM     22  H   UNL A   1      36.071  23.248  22.853  1.00  0.00     0.159 HD
ATOM     23  O   UNL A   1      36.158  21.593  25.513  1.00  0.00    -0.269 OA
ENDBRANCH  14  19
BRANCH  16  24
ATOM     24  N   UNL A   1      32.870  21.564  24.937  1.00  0.00    -0.366 N 
ATOM     25  C   UNL A   1      32.782  20.645  26.073  1.00  0.00     0.145 C 
ATOM     26  C   UNL A   1      32.100  21.149  23.754  1.00  0.00     0.145 C 
ATOM     27  C   UNL A   1      33.087  19.210  25.604  1.00  0.00     0.181 C 
ATOM     28  C   UNL A   1      32.468  19.703  23.379  1.00  0.00     0.181 C 
ATOM     29  O   UNL A   1      32.266  18.812  24.491  1.00  0.00    -0.378 OA
ENDBRANCH  16  24
ENDBRANCH  10  13
ENDBRANCH   8   9
ENDBRANCH   5   7
ENDBRANCH   4   5
ENDBRANCH   3   4
ENDBRANCH   2   3
ENDBRANCH   1   2
BRANCH   1  30
ATOM     30  C   UNL A   1      31.370  29.913  25.225  1.00  0.00     0.202 C 
BRANCH  30  31
ATOM     31  C   UNL A   1      32.711  30.354  25.856  1.00  0.00     0.261 C 
BRANCH  31  32
ATOM     32  O   UNL A   1      32.724  30.727  27.239  1.00  0.00    -0.460 OA
BRANCH  32  33
ATOM     33  C   UNL A   1      33.477  31.812  27.548  1.00  0.00     0.338 C 
ATOM     34  O   UNL A   1      33.072  32.944  27.739  1.00  0.00    -0.246 OA
BRANCH  33  35
ATOM     35  C   UNL A   1      34.856  31.372  27.871  1.00  0.00     0.060 A 
ATOM     36  C   UNL A   1      35.088  30.006  28.103  1.00  0.00     0.016 A 
ATOM     37  C   UNL A   1      35.890  32.296  28.014  1.00  0.00     0.016 A 
ATOM     38  C   UNL A   1      36.338  29.564  28.532  1.00  0.00     0.010 A 
ATOM     39  C   UNL A   1      37.132  31.858  28.487  1.00  0.00     0.010 A 
ATOM     40  C   UNL A   1      37.341  30.501  28.796  1.00  0.00    -0.014 A 
BRANCH  40  41
ATOM     41  C   UNL A   1      38.480  30.106  29.659  1.00  0.00     0.031 A 
ATOM     42  C   UNL A   1      39.486  29.142  29.088  1.00  0.00     0.074 A 
ATOM     43  C   UNL A   1      38.635  30.593  30.901  1.00  0.00     0.049 A 
ATOM     44  N   UNL A   1      40.528  28.592  29.653  1.00  0.00    -0.248 NA
ATOM     45  C   UNL A   1      39.286  28.745  27.683  1.00  0.00     0.031 C 
ATOM     46  C   UNL A   1      37.758  31.568  31.544  1.00  0.00     0.029 A 
ATOM     47  N   UNL A   1      39.582  30.307  31.852  1.00  0.00    -0.354 N 
ATOM     48  C   UNL A   1      41.083  27.759  28.690  1.00  0.00     0.074 A 
ATOM     49  C   UNL A   1      40.263  27.870  27.505  1.00  0.00     0.031 C 
ATOM     50  C   UNL A   1      38.190  31.775  32.801  1.00  0.00     0.029 A 
ATOM     51  C   UNL A   1      39.349  30.922  33.058  1.00  0.00     0.049 A 
ATOM     52  H   UNL A   1      40.354  29.719  31.685  1.00  0.00     0.167 HD
ATOM     53  C   UNL A   1      42.184  26.974  28.778  1.00  0.00     0.034 A 
ATOM     54  C   UNL A   1      39.984  30.784  34.241  1.00  0.00     0.034 A 
ATOM     55  C   UNL A   1      42.995  26.865  29.957  1.00  0.00     0.049 A 
ATOM     56  C   UNL A   1      41.165  29.852  34.338  1.00  0.00     0.074 A 
ATOM     57  C   UNL A   1      44.142  26.117  30.147  1.00  0.00     0.029 A 
ATOM     58  N   UNL A   1      42.734  27.511  31.157  1.00  0.00    -0.354 N 
ATOM     59  N   UNL A   1      41.732  29.131  33.399  1.00  0.00    -0.248 NA
ATOM     60  C   UNL A   1      41.813  29.733  35.652  1.00  0.00     0.031 C 
ATOM     61  C   UNL A   1      44.553  26.281  31.475  1.00  0.00     0.029 A 
ATOM     62  C   UNL A   1      43.687  27.166  32.098  1.00  0.00     0.049 A 
ATOM     63  H   UNL A   1      41.980  28.125  31.315  1.00  0.00     0.167 HD
ATOM     64  C   UNL A   1      42.824  28.510  33.996  1.00  0.00     0.074 A 
ATOM     65  C   UNL A   1      42.846  28.947  35.377  1.00  0.00     0.031 C 
ATOM     66  C   UNL A   1      43.724  27.650  33.455  1.00  0.00     0.034 A 
BRANCH  53  67
ATOM     67  C   UNL A   1      42.557  26.169  27.560  1.00  0.00     0.023 A 
ATOM     68  C   UNL A   1      43.284  26.772  26.513  1.00  0.00     0.012 A 
ATOM     69  C   UNL A   1      42.197  24.811  27.457  1.00  0.00     0.148 A 
ATOM     70  C   UNL A   1      43.604  26.051  25.363  1.00  0.00     0.002 A 
ATOM     71  C   UNL A   1      42.564  24.086  26.330  1.00  0.00     0.091 A 
ATOM     72  F   UNL A   1      41.485  24.261  28.450  1.00  0.00    -0.205 F 
ATOM     73  C   UNL A   1      43.252  24.707  25.276  1.00  0.00     0.022 A 
BRANCH  71  74
ATOM     74  S   UNL A   1      42.226  22.330  26.160  1.00  0.00     0.127 S 
ATOM     75  O   UNL A   1      40.772  22.323  26.005  1.00  0.00    -0.237 OA
ATOM     76  O   UNL A   1      42.969  21.991  24.946  1.00  0.00    -0.237 OA
ATOM     77  O   UNL A   1      42.731  21.704  27.374  1.00  0.00    -0.744 OA
ENDBRANCH  71  74
ENDBRANCH  53  67
BRANCH  54  78
ATOM     78  C   UNL A   1      39.530  31.566  35.425  1.00  0.00     0.023 A 
ATOM     79  C   UNL A   1      38.463  31.082  36.208  1.00  0.00     0.012 A 
ATOM     80  C   UNL A   1      40.159  32.773  35.792  1.00  0.00     0.148 A 
ATOM     81  C   UNL A   1      38.015  31.797  37.320  1.00  0.00     0.002 A 
ATOM     82  C   UNL A   1      39.743  33.452  36.932  1.00  0.00     0.091 A 
ATOM     83  F   UNL A   1      41.162  33.222  35.026  1.00  0.00    -0.205 F 
ATOM     84  C   UNL A   1      38.660  32.975  37.687  1.00  0.00     0.022 A 
BRANCH  82  85
ATOM     85  S   UNL A   1      40.588  34.909  37.555  1.00  0.00     0.127 S 
ATOM     86  O   UNL A   1      39.489  35.866  37.666  1.00  0.00    -0.237 OA
ATOM     87  O   UNL A   1      41.113  34.423  38.831  1.00  0.00    -0.237 OA
ATOM     88  O   UNL A   1      41.604  35.233  36.564  1.00  0.00    -0.744 OA
ENDBRANCH  82  85
ENDBRANCH  54  78
BRANCH  66  89
ATOM     89  C   UNL A   1      44.847  27.160  34.334  1.00  0.00     0.023 A 
ATOM     90  C   UNL A   1      46.097  27.810  34.316  1.00  0.00     0.012 A 
ATOM     91  C   UNL A   1      44.630  26.105  35.244  1.00  0.00     0.148 A 
ATOM     92  C   UNL A   1      47.122  27.397  35.166  1.00  0.00     0.002 A 
ATOM     93  C   UNL A   1      45.638  25.734  36.125  1.00  0.00     0.091 A 
ATOM     94  F   UNL A   1      43.439  25.489  35.236  1.00  0.00    -0.205 F 
ATOM     95  C   UNL A   1      46.890  26.369  36.078  1.00  0.00     0.022 A 
BRANCH  93  96
ATOM     96  S   UNL A   1      45.397  24.492  37.400  1.00  0.00     0.127 S 
ATOM     97  O   UNL A   1      45.172  23.288  36.604  1.00  0.00    -0.237 OA
ATOM     98  O   UNL A   1      46.677  24.525  38.109  1.00  0.00    -0.237 OA
ATOM     99  O   UNL A   1      44.258  24.939  38.189  1.00  0.00    -0.744 OA
ENDBRANCH  93  96
ENDBRANCH  66  89
ENDBRANCH  40  41
ENDBRANCH  33  35
ENDBRANCH  32  33
ENDBRANCH  31  32
ENDBRANCH  30  31
ENDBRANCH   1  30
TORSDOF 21
ENDMDL
MODEL 3
REMARK VINA RESULT:     -11.3      1.655      2.209
REMARK SMILES NC(=O)c1cc(NC(=O)/C=C\C(=O)OCCOCCOC(=O)c2ccc(-c3c4nc(c(-c5cccc(S(=O)(=O)[O-])c5F)c5ccc([nH]5)c(-c5cccc(S(=O)(=O)[O-])c5F)c5nc(c(-c6cccc(S(=O)(=O)[O-])c6F)c6ccc3[nH]6)C=C5)C=C4)cc2)ccc1N1CCOCC1
REMARK SMILES IDX 17 1 16 2 15 3 14 4 12 5 13 6 11 7 10 8 8 9 7 10 9 12 6 13
REMARK SMILES IDX 4 14 5 15 88 16 87 17 86 18 2 19 1 20 3 23 89 24 90 25 94 26
REMARK SMILES IDX 91 27 93 28 92 29 18 30 19 31 20 32 21 33 22 34 23 35 24 36
REMARK SMILES IDX 85 37 25 38 84 39 26 40 27 41 28 42 78 43 29 44 83 45 77 46
REMARK SMILES IDX 79 47 30 48 82 49 76 50 75 51 31 53 63 54 43 55 62 56 44 57
REMARK SMILES IDX 47 58 61 59 80 60 45 61 46 62 60 64 81 65 48 66 32 67 33 68
REMARK SMILES IDX 41 69 34 70 36 71 42 72 35 73 37 74 38 75 39 76 40 77 64 78
REMARK SMILES IDX 65 79 73 80 66 81 68 82 74 83 67 84 69 85 70 86 71 87 72 88
REMARK SMILES IDX 49 89 50 90 58 91 51 92 53 93 59 94 52 95 54 96 55 97 56 98
REMARK SMILES IDX 57 99
REMARK H PARENT 7 11 1 21 1 22 79 52 47 63
REMARK Flexibility Score: inf
ROOT
ATOM      1  O   UNL A   1      31.054  30.855  25.121  1.00  0.00    -0.374 OA
ENDROOT
BRANCH   1   2
ATOM      2  C   UNL A   1      31.045  29.508  24.710  1.00  0.00     0.202 C 
BRANCH   2   3
ATOM      3  C   UNL A   1      32.172  28.936  23.849  1.00  0.00     0.261 C 
BRANCH   3   4
ATOM      4  O   UNL A   1      33.184  28.068  24.365  1.00  0.00    -0.460 OA
BRANCH   4   5
ATOM      5  C   UNL A   1      32.698  26.954  24.952  1.00  0.00     0.331 C 
ATOM      6  O   UNL A   1      32.865  26.627  26.116  1.00  0.00    -0.247 OA
BRANCH   5   7
ATOM      7  C   UNL A   1      31.918  26.106  24.046  1.00  0.00     0.099 C 
ATOM      8  C   UNL A   1      31.038  25.158  24.399  1.00  0.00     0.079 C 
BRANCH   8   9
ATOM      9  C   UNL A   1      30.735  24.596  25.734  1.00  0.00     0.248 C 
ATOM     10  N   UNL A   1      31.249  23.430  26.220  1.00  0.00    -0.322 N 
ATOM     11  H   UNL A   1      30.951  23.225  27.136  1.00  0.00     0.170 HD
ATOM     12  O   UNL A   1      29.966  25.249  26.440  1.00  0.00    -0.270 OA
BRANCH  10  13
ATOM     13  C   UNL A   1      32.117  22.461  25.686  1.00  0.00     0.042 A 
ATOM     14  C   UNL A   1      32.542  20.682  24.098  1.00  0.00     0.064 A 
ATOM     15  C   UNL A   1      32.029  21.962  24.395  1.00  0.00     0.042 A 
ATOM     16  C   UNL A   1      33.192  19.908  25.088  1.00  0.00     0.050 A 
ATOM     17  C   UNL A   1      33.498  20.563  26.293  1.00  0.00     0.029 A 
ATOM     18  C   UNL A   1      32.993  21.842  26.583  1.00  0.00     0.028 A 
BRANCH  14  19
ATOM     19  C   UNL A   1      32.139  20.160  22.764  1.00  0.00     0.250 C 
ATOM     20  N   UNL A   1      31.778  18.847  22.704  1.00  0.00    -0.366 N 
ATOM     21  H   UNL A   1      31.503  18.450  21.846  1.00  0.00     0.159 HD
ATOM     22  H   UNL A   1      31.793  18.295  23.520  1.00  0.00     0.159 HD
ATOM     23  O   UNL A   1      32.051  20.894  21.786  1.00  0.00    -0.269 OA
ENDBRANCH  14  19
BRANCH  16  24
ATOM     24  N   UNL A   1      33.436  18.551  24.947  1.00  0.00    -0.366 N 
ATOM     25  C   UNL A   1      34.673  18.079  24.324  1.00  0.00     0.145 C 
ATOM     26  C   UNL A   1      32.750  17.549  25.779  1.00  0.00     0.145 C 
ATOM     27  C   UNL A   1      34.413  16.745  23.601  1.00  0.00     0.181 C 
ATOM     28  C   UNL A   1      32.552  16.256  24.971  1.00  0.00     0.181 C 
ATOM     29  O   UNL A   1      33.807  15.764  24.464  1.00  0.00    -0.378 OA
ENDBRANCH  16  24
ENDBRANCH  10  13
ENDBRANCH   8   9
ENDBRANCH   5   7
ENDBRANCH   4   5
ENDBRANCH   3   4
ENDBRANCH   2   3
ENDBRANCH   1   2
BRANCH   1  30
ATOM     30  C   UNL A   1      31.559  31.192  26.403  1.00  0.00     0.202 C 
BRANCH  30  31
ATOM     31  C   UNL A   1      31.886  32.632  26.862  1.00  0.00     0.261 C 
BRANCH  31  32
ATOM     32  O   UNL A   1      32.630  32.808  28.073  1.00  0.00    -0.460 OA
BRANCH  32  33
ATOM     33  C   UNL A   1      33.687  33.656  27.995  1.00  0.00     0.338 C 
ATOM     34  O   UNL A   1      33.640  34.872  27.979  1.00  0.00    -0.246 OA
BRANCH  33  35
ATOM     35  C   UNL A   1      34.941  32.889  28.186  1.00  0.00     0.060 A 
ATOM     36  C   UNL A   1      34.862  31.491  28.312  1.00  0.00     0.016 A 
ATOM     37  C   UNL A   1      36.169  33.538  28.309  1.00  0.00     0.016 A 
ATOM     38  C   UNL A   1      35.998  30.744  28.617  1.00  0.00     0.010 A 
ATOM     39  C   UNL A   1      37.300  32.793  28.659  1.00  0.00     0.010 A 
ATOM     40  C   UNL A   1      37.205  31.403  28.864  1.00  0.00    -0.014 A 
BRANCH  40  41
ATOM     41  C   UNL A   1      38.269  30.692  29.612  1.00  0.00     0.031 A 
ATOM     42  C   UNL A   1      38.488  31.078  31.051  1.00  0.00     0.074 A 
ATOM     43  C   UNL A   1      39.010  29.723  29.049  1.00  0.00     0.049 A 
ATOM     44  N   UNL A   1      39.389  30.659  31.899  1.00  0.00    -0.248 NA
ATOM     45  C   UNL A   1      37.557  32.077  31.607  1.00  0.00     0.031 C 
ATOM     46  C   UNL A   1      38.860  29.228  27.683  1.00  0.00     0.029 A 
ATOM     47  N   UNL A   1      40.059  29.001  29.560  1.00  0.00    -0.354 N 
ATOM     48  C   UNL A   1      39.159  31.368  33.073  1.00  0.00     0.074 A 
ATOM     49  C   UNL A   1      38.038  32.246  32.829  1.00  0.00     0.031 C 
ATOM     50  C   UNL A   1      39.808  28.302  27.452  1.00  0.00     0.029 A 
ATOM     51  C   UNL A   1      40.650  28.169  28.640  1.00  0.00     0.049 A 
ATOM     52  H   UNL A   1      40.358  29.073  30.496  1.00  0.00     0.167 HD
ATOM     53  C   UNL A   1      39.818  31.290  34.254  1.00  0.00     0.034 A 
ATOM     54  C   UNL A   1      41.762  27.412  28.742  1.00  0.00     0.034 A 
ATOM     55  C   UNL A   1      40.932  30.417  34.492  1.00  0.00     0.049 A 
ATOM     56  C   UNL A   1      42.523  27.392  30.044  1.00  0.00     0.074 A 
ATOM     57  C   UNL A   1      41.658  30.244  35.656  1.00  0.00     0.029 A 
ATOM     58  N   UNL A   1      41.497  29.581  33.539  1.00  0.00    -0.354 N 
ATOM     59  N   UNL A   1      42.250  28.003  31.173  1.00  0.00    -0.248 NA
ATOM     60  C   UNL A   1      43.732  26.558  30.095  1.00  0.00     0.031 C 
ATOM     61  C   UNL A   1      42.686  29.331  35.395  1.00  0.00     0.029 A 
ATOM     62  C   UNL A   1      42.572  28.901  34.083  1.00  0.00     0.049 A 
ATOM     63  H   UNL A   1      41.178  29.485  32.612  1.00  0.00     0.167 HD
ATOM     64  C   UNL A   1      43.224  27.594  32.078  1.00  0.00     0.074 A 
ATOM     65  C   UNL A   1      44.090  26.675  31.368  1.00  0.00     0.031 C 
ATOM     66  C   UNL A   1      43.394  27.951  33.376  1.00  0.00     0.034 A 
BRANCH  53  67
ATOM     67  C   UNL A   1      39.344  32.187  35.369  1.00  0.00     0.023 A 
ATOM     68  C   UNL A   1      38.377  31.722  36.283  1.00  0.00     0.012 A 
ATOM     69  C   UNL A   1      39.866  33.487  35.516  1.00  0.00     0.148 A 
ATOM     70  C   UNL A   1      37.902  32.553  37.297  1.00  0.00     0.002 A 
ATOM     71  C   UNL A   1      39.423  34.291  36.559  1.00  0.00     0.091 A 
ATOM     72  F   UNL A   1      40.765  33.921  34.622  1.00  0.00    -0.205 F 
ATOM     73  C   UNL A   1      38.431  33.833  37.441  1.00  0.00     0.022 A 
BRANCH  71  74
ATOM     74  S   UNL A   1      40.101  35.924  36.874  1.00  0.00     0.127 S 
ATOM     75  O   UNL A   1      39.841  36.601  35.604  1.00  0.00    -0.237 OA
ATOM     76  O   UNL A   1      39.277  36.388  37.991  1.00  0.00    -0.237 OA
ATOM     77  O   UNL A   1      41.505  35.721  37.201  1.00  0.00    -0.744 OA
ENDBRANCH  71  74
ENDBRANCH  53  67
BRANCH  54  78
ATOM     78  C   UNL A   1      42.212  26.590  27.584  1.00  0.00     0.023 A 
ATOM     79  C   UNL A   1      42.989  27.186  26.571  1.00  0.00     0.012 A 
ATOM     80  C   UNL A   1      41.893  25.221  27.488  1.00  0.00     0.148 A 
ATOM     81  C   UNL A   1      43.420  26.440  25.472  1.00  0.00     0.002 A 
ATOM     82  C   UNL A   1      42.371  24.471  26.418  1.00  0.00     0.091 A 
ATOM     83  F   UNL A   1      41.140  24.677  28.454  1.00  0.00    -0.205 F 
ATOM     84  C   UNL A   1      43.119  25.083  25.401  1.00  0.00     0.022 A 
BRANCH  82  85
ATOM     85  S   UNL A   1      42.141  22.694  26.300  1.00  0.00     0.127 S 
ATOM     86  O   UNL A   1      40.685  22.584  26.246  1.00  0.00    -0.237 OA
ATOM     87  O   UNL A   1      42.829  22.391  25.045  1.00  0.00    -0.237 OA
ATOM     88  O   UNL A   1      42.768  22.133  27.487  1.00  0.00    -0.744 OA
ENDBRANCH  82  85
ENDBRANCH  54  78
BRANCH  66  89
ATOM     89  C   UNL A   1      44.523  27.310  34.142  1.00  0.00     0.023 A 
ATOM     90  C   UNL A   1      45.772  27.955  34.237  1.00  0.00     0.012 A 
ATOM     91  C   UNL A   1      44.314  26.103  34.841  1.00  0.00     0.148 A 
ATOM     92  C   UNL A   1      46.803  27.394  34.990  1.00  0.00     0.002 A 
ATOM     93  C   UNL A   1      45.329  25.578  35.632  1.00  0.00     0.091 A 
ATOM     94  F   UNL A   1      43.124  25.496  34.725  1.00  0.00    -0.205 F 
ATOM     95  C   UNL A   1      46.578  26.214  35.696  1.00  0.00     0.022 A 
BRANCH  93  96
ATOM     96  S   UNL A   1      45.098  24.120  36.655  1.00  0.00     0.127 S 
ATOM     97  O   UNL A   1      44.396  24.675  37.810  1.00  0.00    -0.237 OA
ATOM     98  O   UNL A   1      44.279  23.266  35.795  1.00  0.00    -0.237 OA
ATOM     99  O   UNL A   1      46.432  23.602  36.927  1.00  0.00    -0.744 OA
ENDBRANCH  93  96
ENDBRANCH  66  89
ENDBRANCH  40  41
ENDBRANCH  33  35
ENDBRANCH  32  33
ENDBRANCH  31  32
ENDBRANCH  30  31
ENDBRANCH   1  30
TORSDOF 21
ENDMDL
