MODEL 1
REMARK VINA RESULT:      -9.9      0.000      0.000
REMARK SMILES COc1cc(C(=O)OCCOCCOC(=O)c2ccc(-c3c4nc(c(-c5cccc(S(=O)(=O)[O-])c5F)c5ccc([nH]5)c(-c5cccc(S(=O)(=O)[O-])c5F)c5nc(c(-c6cccc(S(=O)(=O)[O-])c6F)c6ccc3[nH]6)C=C5)C=C4)cc2)cc(OC)c1OCc1csc(C)n1
REMARK SMILES IDX 11 1 10 2 9 3 8 4 6 5 7 6 5 7 3 8 4 9 84 10 81 11 80 12 2 13
REMARK SMILES IDX 1 14 85 15 86 16 87 17 88 18 92 19 89 20 90 21 91 22 82 23
REMARK SMILES IDX 83 24 12 25 13 26 14 27 15 28 16 29 17 30 18 31 79 32 19 33
REMARK SMILES IDX 78 34 20 35 21 36 22 37 72 38 23 39 77 40 71 41 73 42 24 43
REMARK SMILES IDX 76 44 70 45 69 46 25 48 57 49 37 50 56 51 38 52 41 53 55 54
REMARK SMILES IDX 74 55 39 56 40 57 54 59 75 60 42 61 26 62 27 63 35 64 28 65
REMARK SMILES IDX 30 66 36 67 29 68 31 69 32 70 33 71 34 72 58 73 59 74 67 75
REMARK SMILES IDX 60 76 62 77 68 78 61 79 63 80 64 81 65 82 66 83 43 84 44 85
REMARK SMILES IDX 52 86 45 87 47 88 53 89 46 90 48 91 49 92 50 93 51 94
REMARK H PARENT 73 47 41 58
REMARK Flexibility Score: inf
ROOT
ATOM      1  O   UNL A   1      37.464  22.228  24.514  1.00  0.00    -0.374 OA
ENDROOT
BRANCH   1   2
ATOM      2  C   UNL A   1      36.918  23.512  24.821  1.00  0.00     0.202 C 
BRANCH   2   3
ATOM      3  C   UNL A   1      35.426  23.740  24.540  1.00  0.00     0.261 C 
BRANCH   3   4
ATOM      4  O   UNL A   1      35.123  23.661  23.136  1.00  0.00    -0.460 OA
BRANCH   4   5
ATOM      5  C   UNL A   1      33.841  23.354  22.831  1.00  0.00     0.338 C 
ATOM      6  O   UNL A   1      33.344  22.242  22.727  1.00  0.00    -0.246 OA
BRANCH   5   7
ATOM      7  C   UNL A   1      33.020  24.584  22.847  1.00  0.00     0.067 A 
ATOM      8  C   UNL A   1      30.886  25.638  23.287  1.00  0.00     0.165 A 
ATOM      9  C   UNL A   1      31.699  24.506  23.328  1.00  0.00     0.066 A 
ATOM     10  C   UNL A   1      31.352  26.797  22.652  1.00  0.00     0.203 A 
ATOM     11  C   UNL A   1      32.719  26.925  22.354  1.00  0.00     0.165 A 
ATOM     12  C   UNL A   1      33.552  25.806  22.435  1.00  0.00     0.066 A 
BRANCH   8  13
ATOM     13  O   UNL A   1      29.738  25.729  24.025  1.00  0.00    -0.493 OA
ATOM     14  C   UNL A   1      29.901  25.814  25.433  1.00  0.00     0.278 C 
ENDBRANCH   8  13
BRANCH  10  15
ATOM     15  O   UNL A   1      30.534  27.819  22.272  1.00  0.00    -0.480 OA
BRANCH  15  16
ATOM     16  C   UNL A   1      30.084  28.773  23.255  1.00  0.00     0.287 C 
BRANCH  16  17
ATOM     17  C   UNL A   1      29.351  30.043  22.861  1.00  0.00     0.089 A 
ATOM     18  C   UNL A   1      29.123  31.209  23.571  1.00  0.00     0.094 A 
ATOM     19  N   UNL A   1      28.937  30.139  21.525  1.00  0.00    -0.243 NA
ATOM     20  S   UNL A   1      28.443  32.429  22.581  1.00  0.00    -0.127 S 
ATOM     21  C   UNL A   1      28.425  31.325  21.274  1.00  0.00     0.090 A 
ATOM     22  C   UNL A   1      27.883  31.757  19.959  1.00  0.00     0.079 C 
ENDBRANCH  16  17
ENDBRANCH  15  16
ENDBRANCH  10  15
BRANCH  11  23
ATOM     23  O   UNL A   1      33.350  28.066  21.929  1.00  0.00    -0.493 OA
ATOM     24  C   UNL A   1      33.862  28.929  22.944  1.00  0.00     0.278 C 
ENDBRANCH  11  23
ENDBRANCH   5   7
ENDBRANCH   4   5
ENDBRANCH   3   4
ENDBRANCH   2   3
ENDBRANCH   1   2
BRANCH   1  25
ATOM     25  C   UNL A   1      37.849  21.401  25.609  1.00  0.00     0.202 C 
BRANCH  25  26
ATOM     26  C   UNL A   1      38.864  20.280  25.361  1.00  0.00     0.261 C 
BRANCH  26  27
ATOM     27  O   UNL A   1      39.686  20.007  26.504  1.00  0.00    -0.460 OA
BRANCH  27  28
ATOM     28  C   UNL A   1      41.010  19.923  26.237  1.00  0.00     0.338 C 
ATOM     29  O   UNL A   1      41.599  18.998  25.693  1.00  0.00    -0.246 OA
BRANCH  28  30
ATOM     30  C   UNL A   1      41.657  21.211  26.538  1.00  0.00     0.060 A 
ATOM     31  C   UNL A   1      41.896  21.523  27.882  1.00  0.00     0.016 A 
ATOM     32  C   UNL A   1      41.978  22.117  25.527  1.00  0.00     0.016 A 
ATOM     33  C   UNL A   1      42.435  22.761  28.225  1.00  0.00     0.010 A 
ATOM     34  C   UNL A   1      42.509  23.362  25.874  1.00  0.00     0.010 A 
ATOM     35  C   UNL A   1      42.717  23.698  27.225  1.00  0.00    -0.014 A 
BRANCH  35  36
ATOM     36  C   UNL A   1      43.144  25.070  27.588  1.00  0.00     0.031 A 
ATOM     37  C   UNL A   1      42.136  26.029  28.153  1.00  0.00     0.074 A 
ATOM     38  C   UNL A   1      44.414  25.462  27.382  1.00  0.00     0.049 A 
ATOM     39  N   UNL A   1      42.281  27.288  28.473  1.00  0.00    -0.248 NA
ATOM     40  C   UNL A   1      40.782  25.500  28.384  1.00  0.00     0.031 C 
ATOM     41  C   UNL A   1      45.483  24.618  26.851  1.00  0.00     0.029 A 
ATOM     42  N   UNL A   1      45.011  26.683  27.571  1.00  0.00    -0.354 N 
ATOM     43  C   UNL A   1      41.030  27.716  28.902  1.00  0.00     0.074 A 
ATOM     44  C   UNL A   1      40.138  26.581  28.802  1.00  0.00     0.031 C 
ATOM     45  C   UNL A   1      46.601  25.352  26.732  1.00  0.00     0.029 A 
ATOM     46  C   UNL A   1      46.317  26.725  27.144  1.00  0.00     0.049 A 
ATOM     47  H   UNL A   1      44.549  27.454  27.972  1.00  0.00     0.167 HD
ATOM     48  C   UNL A   1      40.661  28.942  29.342  1.00  0.00     0.034 A 
ATOM     49  C   UNL A   1      47.176  27.762  27.067  1.00  0.00     0.034 A 
ATOM     50  C   UNL A   1      41.557  30.062  29.454  1.00  0.00     0.049 A 
ATOM     51  C   UNL A   1      46.725  29.125  27.523  1.00  0.00     0.074 A 
ATOM     52  C   UNL A   1      41.297  31.324  29.957  1.00  0.00     0.029 A 
ATOM     53  N   UNL A   1      42.879  30.063  29.035  1.00  0.00    -0.354 N 
ATOM     54  N   UNL A   1      45.578  29.484  28.048  1.00  0.00    -0.248 NA
ATOM     55  C   UNL A   1      47.697  30.222  27.399  1.00  0.00     0.031 C 
ATOM     56  C   UNL A   1      42.448  32.102  29.797  1.00  0.00     0.029 A 
ATOM     57  C   UNL A   1      43.439  31.313  29.237  1.00  0.00     0.049 A 
ATOM     58  H   UNL A   1      43.350  29.289  28.650  1.00  0.00     0.167 HD
ATOM     59  C   UNL A   1      45.704  30.837  28.352  1.00  0.00     0.074 A 
ATOM     60  C   UNL A   1      47.045  31.227  27.967  1.00  0.00     0.031 C 
ATOM     61  C   UNL A   1      44.790  31.679  28.894  1.00  0.00     0.034 A 
BRANCH  48  62
ATOM     62  C   UNL A   1      39.220  29.141  29.737  1.00  0.00     0.023 A 
ATOM     63  C   UNL A   1      38.793  28.811  31.038  1.00  0.00     0.012 A 
ATOM     64  C   UNL A   1      38.301  29.704  28.830  1.00  0.00     0.148 A 
ATOM     65  C   UNL A   1      37.464  29.002  31.419  1.00  0.00     0.002 A 
ATOM     66  C   UNL A   1      36.991  29.936  29.230  1.00  0.00     0.091 A 
ATOM     67  F   UNL A   1      38.721  29.991  27.589  1.00  0.00    -0.205 F 
ATOM     68  C   UNL A   1      36.568  29.573  30.520  1.00  0.00     0.022 A 
BRANCH  66  69
ATOM     69  S   UNL A   1      35.784  30.740  28.172  1.00  0.00     0.127 S 
ATOM     70  O   UNL A   1      36.473  31.983  27.829  1.00  0.00    -0.237 OA
ATOM     71  O   UNL A   1      35.658  29.787  27.070  1.00  0.00    -0.237 OA
ATOM     72  O   UNL A   1      34.581  30.895  28.980  1.00  0.00    -0.744 OA
ENDBRANCH  66  69
ENDBRANCH  48  62
BRANCH  49  73
ATOM     73  C   UNL A   1      48.563  27.547  26.565  1.00  0.00     0.023 A 
ATOM     74  C   UNL A   1      48.804  27.571  25.178  1.00  0.00     0.012 A 
ATOM     75  C   UNL A   1      49.639  27.335  27.448  1.00  0.00     0.148 A 
ATOM     76  C   UNL A   1      50.089  27.359  24.677  1.00  0.00     0.002 A 
ATOM     77  C   UNL A   1      50.925  27.178  26.944  1.00  0.00     0.091 A 
ATOM     78  F   UNL A   1      49.385  27.302  28.764  1.00  0.00    -0.205 F 
ATOM     79  C   UNL A   1      51.150  27.172  25.559  1.00  0.00     0.022 A 
BRANCH  77  80
ATOM     80  S   UNL A   1      52.371  27.052  28.003  1.00  0.00     0.127 S 
ATOM     81  O   UNL A   1      53.051  28.315  27.732  1.00  0.00    -0.237 OA
ATOM     82  O   UNL A   1      51.761  26.950  29.329  1.00  0.00    -0.237 OA
ATOM     83  O   UNL A   1      53.074  25.852  27.570  1.00  0.00    -0.744 OA
ENDBRANCH  77  80
ENDBRANCH  49  73
BRANCH  61  84
ATOM     84  C   UNL A   1      45.209  33.105  29.145  1.00  0.00     0.023 A 
ATOM     85  C   UNL A   1      45.930  33.436  30.308  1.00  0.00     0.012 A 
ATOM     86  C   UNL A   1      44.959  34.105  28.181  1.00  0.00     0.148 A 
ATOM     87  C   UNL A   1      46.369  34.741  30.524  1.00  0.00     0.002 A 
ATOM     88  C   UNL A   1      45.446  35.391  28.377  1.00  0.00     0.091 A 
ATOM     89  F   UNL A   1      44.258  33.774  27.086  1.00  0.00    -0.205 F 
ATOM     90  C   UNL A   1      46.139  35.715  29.555  1.00  0.00     0.022 A 
BRANCH  88  91
ATOM     91  S   UNL A   1      45.286  36.685  27.142  1.00  0.00     0.127 S 
ATOM     92  O   UNL A   1      45.771  37.855  27.871  1.00  0.00    -0.237 OA
ATOM     93  O   UNL A   1      46.178  36.212  26.083  1.00  0.00    -0.237 OA
ATOM     94  O   UNL A   1      43.876  36.722  26.776  1.00  0.00    -0.744 OA
ENDBRANCH  88  91
ENDBRANCH  61  84
ENDBRANCH  35  36
ENDBRANCH  28  30
ENDBRANCH  27  28
ENDBRANCH  26  27
ENDBRANCH  25  26
ENDBRANCH   1  25
TORSDOF 22
ENDMDL
MODEL 2
REMARK VINA RESULT:      -9.9      1.796      2.281
REMARK SMILES COc1cc(C(=O)OCCOCCOC(=O)c2ccc(-c3c4nc(c(-c5cccc(S(=O)(=O)[O-])c5F)c5ccc([nH]5)c(-c5cccc(S(=O)(=O)[O-])c5F)c5nc(c(-c6cccc(S(=O)(=O)[O-])c6F)c6ccc3[nH]6)C=C5)C=C4)cc2)cc(OC)c1OCc1csc(C)n1
REMARK SMILES IDX 11 1 10 2 9 3 8 4 6 5 7 6 5 7 3 8 4 9 84 10 81 11 80 12 2 13
REMARK SMILES IDX 1 14 85 15 86 16 87 17 88 18 92 19 89 20 90 21 91 22 82 23
REMARK SMILES IDX 83 24 12 25 13 26 14 27 15 28 16 29 17 30 18 31 79 32 19 33
REMARK SMILES IDX 78 34 20 35 21 36 22 37 72 38 23 39 77 40 71 41 73 42 24 43
REMARK SMILES IDX 76 44 70 45 69 46 25 48 57 49 37 50 56 51 38 52 41 53 55 54
REMARK SMILES IDX 74 55 39 56 40 57 54 59 75 60 42 61 26 62 27 63 35 64 28 65
REMARK SMILES IDX 30 66 36 67 29 68 31 69 32 70 33 71 34 72 58 73 59 74 67 75
REMARK SMILES IDX 60 76 62 77 68 78 61 79 63 80 64 81 65 82 66 83 43 84 44 85
REMARK SMILES IDX 52 86 45 87 47 88 53 89 46 90 48 91 49 92 50 93 51 94
REMARK H PARENT 73 47 41 58
REMARK Flexibility Score: inf
ROOT
ATOM      1  O   UNL A   1      38.800  22.620  25.522  1.00  0.00    -0.374 OA
ENDROOT
BRANCH   1   2
ATOM      2  C   UNL A   1      38.131  23.741  26.105  1.00  0.00     0.202 C 
BRANCH   2   3
ATOM      3  C   UNL A   1      36.652  23.954  25.750  1.00  0.00     0.261 C 
BRANCH   3   4
ATOM      4  O   UNL A   1      36.346  23.501  24.420  1.00  0.00    -0.460 OA
BRANCH   4   5
ATOM      5  C   UNL A   1      35.354  22.584  24.329  1.00  0.00     0.338 C 
ATOM      6  O   UNL A   1      35.430  21.381  24.536  1.00  0.00    -0.246 OA
BRANCH   5   7
ATOM      7  C   UNL A   1      34.058  23.272  24.148  1.00  0.00     0.067 A 
ATOM      8  C   UNL A   1      31.773  23.599  24.877  1.00  0.00     0.165 A 
ATOM      9  C   UNL A   1      33.024  23.013  25.069  1.00  0.00     0.066 A 
ATOM     10  C   UNL A   1      31.527  24.328  23.707  1.00  0.00     0.203 A 
ATOM     11  C   UNL A   1      32.604  24.737  22.902  1.00  0.00     0.165 A 
ATOM     12  C   UNL A   1      33.872  24.191  23.115  1.00  0.00     0.066 A 
BRANCH   8  13
ATOM     13  O   UNL A   1      30.847  23.666  25.881  1.00  0.00    -0.493 OA
ATOM     14  C   UNL A   1      30.362  22.426  26.374  1.00  0.00     0.278 C 
ENDBRANCH   8  13
BRANCH  10  15
ATOM     15  O   UNL A   1      30.274  24.647  23.277  1.00  0.00    -0.480 OA
BRANCH  15  16
ATOM     16  C   UNL A   1      29.564  25.737  23.900  1.00  0.00     0.287 C 
BRANCH  16  17
ATOM     17  C   UNL A   1      30.000  27.181  23.723  1.00  0.00     0.089 A 
ATOM     18  C   UNL A   1      29.626  28.125  22.783  1.00  0.00     0.094 A 
ATOM     19  N   UNL A   1      30.812  27.719  24.729  1.00  0.00    -0.243 NA
ATOM     20  S   UNL A   1      30.238  29.677  23.168  1.00  0.00    -0.127 S 
ATOM     21  C   UNL A   1      31.025  29.002  24.529  1.00  0.00     0.090 A 
ATOM     22  C   UNL A   1      31.850  29.875  25.405  1.00  0.00     0.079 C 
ENDBRANCH  16  17
ENDBRANCH  15  16
ENDBRANCH  10  15
BRANCH  11  23
ATOM     23  O   UNL A   1      32.540  25.619  21.854  1.00  0.00    -0.493 OA
ATOM     24  C   UNL A   1      33.403  26.754  21.920  1.00  0.00     0.278 C 
ENDBRANCH  11  23
ENDBRANCH   5   7
ENDBRANCH   4   5
ENDBRANCH   3   4
ENDBRANCH   2   3
ENDBRANCH   1   2
BRANCH   1  25
ATOM     25  C   UNL A   1      38.716  21.376  26.211  1.00  0.00     0.202 C 
BRANCH  25  26
ATOM     26  C   UNL A   1      39.471  20.170  25.643  1.00  0.00     0.261 C 
BRANCH  26  27
ATOM     27  O   UNL A   1      40.450  19.645  26.551  1.00  0.00    -0.460 OA
BRANCH  27  28
ATOM     28  C   UNL A   1      41.722  19.685  26.092  1.00  0.00     0.338 C 
ATOM     29  O   UNL A   1      42.279  18.861  25.378  1.00  0.00    -0.246 OA
BRANCH  28  30
ATOM     30  C   UNL A   1      42.326  20.986  26.426  1.00  0.00     0.060 A 
ATOM     31  C   UNL A   1      42.383  21.350  27.777  1.00  0.00     0.016 A 
ATOM     32  C   UNL A   1      42.783  21.852  25.433  1.00  0.00     0.016 A 
ATOM     33  C   UNL A   1      42.875  22.602  28.141  1.00  0.00     0.010 A 
ATOM     34  C   UNL A   1      43.267  23.111  25.800  1.00  0.00     0.010 A 
ATOM     35  C   UNL A   1      43.292  23.500  27.152  1.00  0.00    -0.014 A 
BRANCH  35  36
ATOM     36  C   UNL A   1      43.671  24.886  27.516  1.00  0.00     0.031 A 
ATOM     37  C   UNL A   1      42.633  25.804  28.096  1.00  0.00     0.074 A 
ATOM     38  C   UNL A   1      44.922  25.327  27.297  1.00  0.00     0.049 A 
ATOM     39  N   UNL A   1      42.733  27.066  28.420  1.00  0.00    -0.248 NA
ATOM     40  C   UNL A   1      41.303  25.222  28.341  1.00  0.00     0.031 C 
ATOM     41  C   UNL A   1      46.016  24.526  26.750  1.00  0.00     0.029 A 
ATOM     42  N   UNL A   1      45.474  26.569  27.484  1.00  0.00    -0.354 N 
ATOM     43  C   UNL A   1      41.472  27.445  28.864  1.00  0.00     0.074 A 
ATOM     44  C   UNL A   1      40.623  26.276  28.770  1.00  0.00     0.031 C 
ATOM     45  C   UNL A   1      47.104  25.303  26.621  1.00  0.00     0.029 A 
ATOM     46  C   UNL A   1      46.773  26.663  27.041  1.00  0.00     0.049 A 
ATOM     47  H   UNL A   1      44.988  27.320  27.893  1.00  0.00     0.167 HD
ATOM     48  C   UNL A   1      41.061  28.654  29.313  1.00  0.00     0.034 A 
ATOM     49  C   UNL A   1      47.590  27.732  26.959  1.00  0.00     0.034 A 
ATOM     50  C   UNL A   1      41.915  29.807  29.420  1.00  0.00     0.049 A 
ATOM     51  C   UNL A   1      47.093  29.075  27.426  1.00  0.00     0.074 A 
ATOM     52  C   UNL A   1      41.613  31.056  29.930  1.00  0.00     0.029 A 
ATOM     53  N   UNL A   1      43.231  29.860  28.986  1.00  0.00    -0.354 N 
ATOM     54  N   UNL A   1      45.939  29.389  27.965  1.00  0.00    -0.248 NA
ATOM     55  C   UNL A   1      48.020  30.209  27.295  1.00  0.00     0.031 C 
ATOM     56  C   UNL A   1      42.731  31.879  29.761  1.00  0.00     0.029 A 
ATOM     57  C   UNL A   1      43.745  31.130  29.186  1.00  0.00     0.049 A 
ATOM     58  H   UNL A   1      43.727  29.106  28.591  1.00  0.00     0.167 HD
ATOM     59  C   UNL A   1      46.016  30.744  28.273  1.00  0.00     0.074 A 
ATOM     60  C   UNL A   1      47.337  31.187  27.874  1.00  0.00     0.031 C 
ATOM     61  C   UNL A   1      45.077  31.549  28.829  1.00  0.00     0.034 A 
BRANCH  48  62
ATOM     62  C   UNL A   1      39.619  28.796  29.726  1.00  0.00     0.023 A 
ATOM     63  C   UNL A   1      39.214  28.416  31.020  1.00  0.00     0.012 A 
ATOM     64  C   UNL A   1      38.675  29.355  28.843  1.00  0.00     0.148 A 
ATOM     65  C   UNL A   1      37.884  28.554  31.418  1.00  0.00     0.002 A 
ATOM     66  C   UNL A   1      37.362  29.534  29.260  1.00  0.00     0.091 A 
ATOM     67  F   UNL A   1      39.073  29.690  27.607  1.00  0.00    -0.205 F 
ATOM     68  C   UNL A   1      36.961  29.122  30.543  1.00  0.00     0.022 A 
BRANCH  66  69
ATOM     69  S   UNL A   1      36.120  30.329  28.235  1.00  0.00     0.127 S 
ATOM     70  O   UNL A   1      35.199  30.856  29.242  1.00  0.00    -0.237 OA
ATOM     71  O   UNL A   1      36.904  31.346  27.535  1.00  0.00    -0.237 OA
ATOM     72  O   UNL A   1      35.578  29.284  27.378  1.00  0.00    -0.744 OA
ENDBRANCH  66  69
ENDBRANCH  48  62
BRANCH  49  73
ATOM     73  C   UNL A   1      48.978  27.572  26.440  1.00  0.00     0.023 A 
ATOM     74  C   UNL A   1      50.014  27.249  27.337  1.00  0.00     0.012 A 
ATOM     75  C   UNL A   1      49.274  27.723  25.072  1.00  0.00     0.148 A 
ATOM     76  C   UNL A   1      51.327  27.107  26.885  1.00  0.00     0.002 A 
ATOM     77  C   UNL A   1      50.574  27.528  24.620  1.00  0.00     0.091 A 
ATOM     78  F   UNL A   1      48.275  28.045  24.238  1.00  0.00    -0.205 F 
ATOM     79  C   UNL A   1      51.605  27.237  25.527  1.00  0.00     0.022 A 
BRANCH  77  80
ATOM     80  S   UNL A   1      51.007  27.554  22.877  1.00  0.00     0.127 S 
ATOM     81  O   UNL A   1      49.935  26.756  22.290  1.00  0.00    -0.237 OA
ATOM     82  O   UNL A   1      50.948  28.985  22.577  1.00  0.00    -0.237 OA
ATOM     83  O   UNL A   1      52.342  26.976  22.793  1.00  0.00    -0.744 OA
ENDBRANCH  77  80
ENDBRANCH  49  73
BRANCH  61  84
ATOM     84  C   UNL A   1      45.444  32.989  29.080  1.00  0.00     0.023 A 
ATOM     85  C   UNL A   1      46.106  33.352  30.269  1.00  0.00     0.012 A 
ATOM     86  C   UNL A   1      45.206  33.971  28.095  1.00  0.00     0.148 A 
ATOM     87  C   UNL A   1      46.498  34.672  30.488  1.00  0.00     0.002 A 
ATOM     88  C   UNL A   1      45.647  35.272  28.297  1.00  0.00     0.091 A 
ATOM     89  F   UNL A   1      44.561  33.608  26.977  1.00  0.00    -0.205 F 
ATOM     90  C   UNL A   1      46.281  35.628  29.498  1.00  0.00     0.022 A 
BRANCH  88  91
ATOM     91  S   UNL A   1      45.501  36.549  27.041  1.00  0.00     0.127 S 
ATOM     92  O   UNL A   1      46.265  35.970  25.937  1.00  0.00    -0.237 OA
ATOM     93  O   UNL A   1      44.055  36.600  26.822  1.00  0.00    -0.237 OA
ATOM     94  O   UNL A   1      46.070  37.756  27.624  1.00  0.00    -0.744 OA
ENDBRANCH  88  91
ENDBRANCH  61  84
ENDBRANCH  35  36
ENDBRANCH  28  30
ENDBRANCH  27  28
ENDBRANCH  26  27
ENDBRANCH  25  26
ENDBRANCH   1  25
TORSDOF 22
ENDMDL
MODEL 3
REMARK VINA RESULT:      -9.8      2.016      7.744
REMARK SMILES COc1cc(C(=O)OCCOCCOC(=O)c2ccc(-c3c4nc(c(-c5cccc(S(=O)(=O)[O-])c5F)c5ccc([nH]5)c(-c5cccc(S(=O)(=O)[O-])c5F)c5nc(c(-c6cccc(S(=O)(=O)[O-])c6F)c6ccc3[nH]6)C=C5)C=C4)cc2)cc(OC)c1OCc1csc(C)n1
REMARK SMILES IDX 11 1 10 2 9 3 8 4 6 5 7 6 5 7 3 8 4 9 84 10 81 11 80 12 2 13
REMARK SMILES IDX 1 14 85 15 86 16 87 17 88 18 92 19 89 20 90 21 91 22 82 23
REMARK SMILES IDX 83 24 12 25 13 26 14 27 15 28 16 29 17 30 18 31 79 32 19 33
REMARK SMILES IDX 78 34 20 35 21 36 22 37 72 38 23 39 77 40 71 41 73 42 24 43
REMARK SMILES IDX 76 44 70 45 69 46 25 48 57 49 37 50 56 51 38 52 41 53 55 54
REMARK SMILES IDX 74 55 39 56 40 57 54 59 75 60 42 61 26 62 27 63 35 64 28 65
REMARK SMILES IDX 30 66 36 67 29 68 31 69 32 70 33 71 34 72 58 73 59 74 67 75
REMARK SMILES IDX 60 76 62 77 68 78 61 79 63 80 64 81 65 82 66 83 43 84 44 85
REMARK SMILES IDX 52 86 45 87 47 88 53 89 46 90 48 91 49 92 50 93 51 94
REMARK H PARENT 73 47 41 58
REMARK Flexibility Score: inf
ROOT
ATOM      1  O   UNL A   1      39.435  21.928  25.599  1.00  0.00    -0.374 OA
ENDROOT
BRANCH   1   2
ATOM      2  C   UNL A   1      38.802  23.092  26.134  1.00  0.00     0.202 C 
BRANCH   2   3
ATOM      3  C   UNL A   1      37.287  23.240  25.927  1.00  0.00     0.261 C 
BRANCH   3   4
ATOM      4  O   UNL A   1      36.896  22.940  24.576  1.00  0.00    -0.460 OA
BRANCH   4   5
ATOM      5  C   UNL A   1      35.889  22.045  24.445  1.00  0.00     0.338 C 
ATOM      6  O   UNL A   1      35.926  20.843  24.665  1.00  0.00    -0.246 OA
BRANCH   5   7
ATOM      7  C   UNL A   1      34.620  22.760  24.194  1.00  0.00     0.067 A 
ATOM      8  C   UNL A   1      32.266  23.028  24.693  1.00  0.00     0.165 A 
ATOM      9  C   UNL A   1      33.489  22.415  24.960  1.00  0.00     0.066 A 
ATOM     10  C   UNL A   1      32.150  23.879  23.586  1.00  0.00     0.203 A 
ATOM     11  C   UNL A   1      33.310  24.361  22.955  1.00  0.00     0.165 A 
ATOM     12  C   UNL A   1      34.547  23.784  23.250  1.00  0.00     0.066 A 
BRANCH   8  13
ATOM     13  O   UNL A   1      31.233  22.998  25.589  1.00  0.00    -0.493 OA
ATOM     14  C   UNL A   1      31.474  23.609  26.848  1.00  0.00     0.278 C 
ENDBRANCH   8  13
BRANCH  10  15
ATOM     15  O   UNL A   1      30.952  24.253  23.056  1.00  0.00    -0.480 OA
BRANCH  15  16
ATOM     16  C   UNL A   1      30.176  25.281  23.704  1.00  0.00     0.287 C 
BRANCH  16  17
ATOM     17  C   UNL A   1      30.512  26.754  23.551  1.00  0.00     0.089 A 
ATOM     18  C   UNL A   1      30.310  27.618  22.489  1.00  0.00     0.094 A 
ATOM     19  N   UNL A   1      30.987  27.411  24.694  1.00  0.00    -0.243 NA
ATOM     20  S   UNL A   1      30.662  29.238  22.917  1.00  0.00    -0.127 S 
ATOM     21  C   UNL A   1      31.129  28.701  24.473  1.00  0.00     0.090 A 
ATOM     22  C   UNL A   1      31.619  29.687  25.471  1.00  0.00     0.079 C 
ENDBRANCH  16  17
ENDBRANCH  15  16
ENDBRANCH  10  15
BRANCH  11  23
ATOM     23  O   UNL A   1      33.361  25.349  22.006  1.00  0.00    -0.493 OA
ATOM     24  C   UNL A   1      33.864  26.616  22.428  1.00  0.00     0.278 C 
ENDBRANCH  11  23
ENDBRANCH   5   7
ENDBRANCH   4   5
ENDBRANCH   3   4
ENDBRANCH   2   3
ENDBRANCH   1   2
BRANCH   1  25
ATOM     25  C   UNL A   1      39.579  20.805  26.463  1.00  0.00     0.202 C 
BRANCH  25  26
ATOM     26  C   UNL A   1      40.416  19.613  25.985  1.00  0.00     0.261 C 
BRANCH  26  27
ATOM     27  O   UNL A   1      41.739  19.601  26.538  1.00  0.00    -0.460 OA
BRANCH  27  28
ATOM     28  C   UNL A   1      42.721  19.897  25.654  1.00  0.00     0.338 C 
ATOM     29  O   UNL A   1      43.093  19.219  24.706  1.00  0.00    -0.246 OA
BRANCH  28  30
ATOM     30  C   UNL A   1      43.187  21.276  25.880  1.00  0.00     0.060 A 
ATOM     31  C   UNL A   1      43.447  21.669  27.198  1.00  0.00     0.016 A 
ATOM     32  C   UNL A   1      43.323  22.179  24.825  1.00  0.00     0.016 A 
ATOM     33  C   UNL A   1      43.817  22.983  27.473  1.00  0.00     0.010 A 
ATOM     34  C   UNL A   1      43.685  23.500  25.105  1.00  0.00     0.010 A 
ATOM     35  C   UNL A   1      43.910  23.913  26.431  1.00  0.00    -0.014 A 
BRANCH  35  36
ATOM     36  C   UNL A   1      44.151  25.345  26.728  1.00  0.00     0.031 A 
ATOM     37  C   UNL A   1      45.525  25.916  26.527  1.00  0.00     0.074 A 
ATOM     38  C   UNL A   1      43.157  26.116  27.204  1.00  0.00     0.049 A 
ATOM     39  N   UNL A   1      45.967  27.118  26.788  1.00  0.00    -0.248 NA
ATOM     40  C   UNL A   1      46.539  25.010  25.963  1.00  0.00     0.031 C 
ATOM     41  C   UNL A   1      41.781  25.676  27.428  1.00  0.00     0.029 A 
ATOM     42  N   UNL A   1      43.163  27.426  27.610  1.00  0.00    -0.354 N 
ATOM     43  C   UNL A   1      47.318  27.105  26.462  1.00  0.00     0.074 A 
ATOM     44  C   UNL A   1      47.623  25.774  25.982  1.00  0.00     0.031 C 
ATOM     45  C   UNL A   1      41.079  26.692  27.956  1.00  0.00     0.029 A 
ATOM     46  C   UNL A   1      41.964  27.840  28.141  1.00  0.00     0.049 A 
ATOM     47  H   UNL A   1      43.949  28.012  27.531  1.00  0.00     0.167 HD
ATOM     48  C   UNL A   1      48.220  28.111  26.549  1.00  0.00     0.034 A 
ATOM     49  C   UNL A   1      41.628  29.003  28.734  1.00  0.00     0.034 A 
ATOM     50  C   UNL A   1      47.906  29.436  27.011  1.00  0.00     0.049 A 
ATOM     51  C   UNL A   1      42.663  30.090  28.857  1.00  0.00     0.074 A 
ATOM     52  C   UNL A   1      48.732  30.544  27.069  1.00  0.00     0.029 A 
ATOM     53  N   UNL A   1      46.676  29.827  27.518  1.00  0.00    -0.354 N 
ATOM     54  N   UNL A   1      43.902  30.107  28.425  1.00  0.00    -0.248 NA
ATOM     55  C   UNL A   1      42.247  31.331  29.529  1.00  0.00     0.031 C 
ATOM     56  C   UNL A   1      48.015  31.592  27.655  1.00  0.00     0.029 A 
ATOM     57  C   UNL A   1      46.729  31.151  27.921  1.00  0.00     0.049 A 
ATOM     58  H   UNL A   1      45.882  29.249  27.583  1.00  0.00     0.167 HD
ATOM     59  C   UNL A   1      44.399  31.369  28.737  1.00  0.00     0.074 A 
ATOM     60  C   UNL A   1      43.322  32.093  29.381  1.00  0.00     0.031 C 
ATOM     61  C   UNL A   1      45.637  31.878  28.518  1.00  0.00     0.034 A 
BRANCH  48  62
ATOM     62  C   UNL A   1      49.639  27.818  26.137  1.00  0.00     0.023 A 
ATOM     63  C   UNL A   1      49.975  27.734  24.772  1.00  0.00     0.012 A 
ATOM     64  C   UNL A   1      50.651  27.676  27.107  1.00  0.00     0.148 A 
ATOM     65  C   UNL A   1      51.288  27.475  24.378  1.00  0.00     0.002 A 
ATOM     66  C   UNL A   1      51.965  27.467  26.708  1.00  0.00     0.091 A 
ATOM     67  F   UNL A   1      50.309  27.737  28.403  1.00  0.00    -0.205 F 
ATOM     68  C   UNL A   1      52.283  27.353  25.344  1.00  0.00     0.022 A 
BRANCH  66  69
ATOM     69  S   UNL A   1      53.328  27.376  27.873  1.00  0.00     0.127 S 
ATOM     70  O   UNL A   1      53.293  28.709  28.473  1.00  0.00    -0.237 OA
ATOM     71  O   UNL A   1      52.901  26.295  28.762  1.00  0.00    -0.237 OA
ATOM     72  O   UNL A   1      54.514  27.077  27.082  1.00  0.00    -0.744 OA
ENDBRANCH  66  69
ENDBRANCH  48  62
BRANCH  49  73
ATOM     73  C   UNL A   1      40.239  29.215  29.230  1.00  0.00     0.023 A 
ATOM     74  C   UNL A   1      39.241  29.627  28.326  1.00  0.00     0.012 A 
ATOM     75  C   UNL A   1      39.899  28.999  30.579  1.00  0.00     0.148 A 
ATOM     76  C   UNL A   1      37.934  29.847  28.762  1.00  0.00     0.002 A 
ATOM     77  C   UNL A   1      38.584  29.168  30.996  1.00  0.00     0.091 A 
ATOM     78  F   UNL A   1      40.867  28.620  31.425  1.00  0.00    -0.205 F 
ATOM     79  C   UNL A   1      37.604  29.609  30.093  1.00  0.00     0.022 A 
BRANCH  77  80
ATOM     80  S   UNL A   1      38.037  28.771  32.660  1.00  0.00     0.127 S 
ATOM     81  O   UNL A   1      38.966  29.549  33.474  1.00  0.00    -0.237 OA
ATOM     82  O   UNL A   1      36.661  29.267  32.649  1.00  0.00    -0.237 OA
ATOM     83  O   UNL A   1      38.155  27.324  32.780  1.00  0.00    -0.744 OA
ENDBRANCH  77  80
ENDBRANCH  49  73
BRANCH  61  84
ATOM     84  C   UNL A   1      45.896  33.302  28.939  1.00  0.00     0.023 A 
ATOM     85  C   UNL A   1      46.490  33.573  30.186  1.00  0.00     0.012 A 
ATOM     86  C   UNL A   1      45.627  34.369  28.056  1.00  0.00     0.148 A 
ATOM     87  C   UNL A   1      46.785  34.882  30.563  1.00  0.00     0.002 A 
ATOM     88  C   UNL A   1      45.972  35.666  28.416  1.00  0.00     0.091 A 
ATOM     89  F   UNL A   1      45.047  34.092  26.879  1.00  0.00    -0.205 F 
ATOM     90  C   UNL A   1      46.538  35.927  29.674  1.00  0.00     0.022 A 
BRANCH  88  91
ATOM     91  S   UNL A   1      45.783  37.061  27.300  1.00  0.00     0.127 S 
ATOM     92  O   UNL A   1      46.330  38.158  28.098  1.00  0.00    -0.237 OA
ATOM     93  O   UNL A   1      46.614  36.661  26.164  1.00  0.00    -0.237 OA
ATOM     94  O   UNL A   1      44.360  37.155  27.007  1.00  0.00    -0.744 OA
ENDBRANCH  88  91
ENDBRANCH  61  84
ENDBRANCH  35  36
ENDBRANCH  28  30
ENDBRANCH  27  28
ENDBRANCH  26  27
ENDBRANCH  25  26
ENDBRANCH   1  25
TORSDOF 22
ENDMDL
