MODEL 1
REMARK VINA RESULT:     -12.1      0.000      0.000
REMARK SMILES CCc1cc(OC(F)(F)F)cc2c1O[C@H](C(F)(F)F)C(C(=O)OCCOCCOC(=O)c1ccc(-c3c4nc(c(-c5cccc(S(=O)(=O)[O-])c5F)c5ccc([nH]5)c(-c5cccc(S(=O)(=O)[O-])c5F)c5nc(c(-c6cccc(S(=O)(=O)[O-])c6F)c6ccc3[nH]6)C=C5)C=C4)cc1)=C2
REMARK SMILES IDX 27 1 26 2 25 3 24 4 23 5 21 6 22 7 20 8 3 9 4 10 13 11 5 12
REMARK SMILES IDX 12 13 14 14 11 15 95 16 15 17 2 18 1 19 6 20 7 21 8 22 9 23
REMARK SMILES IDX 10 24 16 25 17 26 18 27 19 28 28 29 29 30 30 31 31 32 32 33
REMARK SMILES IDX 33 34 94 35 34 36 93 37 35 38 36 39 37 40 87 41 38 42 92 43
REMARK SMILES IDX 86 44 88 45 39 46 91 47 85 48 84 49 40 51 72 52 52 53 71 54
REMARK SMILES IDX 53 55 56 56 70 57 89 58 54 59 55 60 69 62 90 63 57 64 41 65
REMARK SMILES IDX 42 66 50 67 43 68 45 69 51 70 44 71 46 72 47 73 48 74 49 75
REMARK SMILES IDX 73 76 74 77 82 78 75 79 77 80 83 81 76 82 78 83 79 84 80 85
REMARK SMILES IDX 81 86 58 87 59 88 67 89 60 90 62 91 68 92 61 93 63 94 64 95
REMARK SMILES IDX 65 96 66 97
REMARK H PARENT 88 50 56 61
REMARK Flexibility Score: inf
ROOT
ATOM      1  C   UNL A   1      35.061  20.800  24.883  1.00  0.00     0.202 C 
ENDROOT
BRANCH   1   2
ATOM      2  O   UNL A   1      34.115  19.751  24.708  1.00  0.00    -0.374 OA
BRANCH   2   3
ATOM      3  C   UNL A   1      32.765  20.016  25.093  1.00  0.00     0.202 C 
BRANCH   3   4
ATOM      4  C   UNL A   1      32.461  21.390  25.699  1.00  0.00     0.261 C 
BRANCH   4   5
ATOM      5  O   UNL A   1      31.446  22.102  24.964  1.00  0.00    -0.460 OA
BRANCH   5   6
ATOM      6  C   UNL A   1      31.863  22.653  23.800  1.00  0.00     0.338 C 
ATOM      7  O   UNL A   1      32.132  22.047  22.774  1.00  0.00    -0.246 OA
BRANCH   6   8
ATOM      8  C   UNL A   1      31.843  24.131  23.840  1.00  0.00     0.087 C 
ATOM      9  C   UNL A   1      31.580  28.110  25.027  1.00  0.00    -0.002 A 
ATOM     10  C   UNL A   1      30.893  29.025  24.220  1.00  0.00     0.054 A 
ATOM     11  C   UNL A   1      31.603  26.767  24.640  1.00  0.00     0.131 A 
ATOM     12  C   UNL A   1      30.240  28.607  23.054  1.00  0.00     0.130 A 
ATOM     13  C   UNL A   1      30.971  26.326  23.465  1.00  0.00     0.021 A 
ATOM     14  O   UNL A   1      32.235  25.891  25.485  1.00  0.00    -0.475 OA
ATOM     15  C   UNL A   1      30.296  27.257  22.673  1.00  0.00     0.058 A 
ATOM     16  C   UNL A   1      30.974  24.891  23.153  1.00  0.00     0.027 C 
ATOM     17  C   UNL A   1      32.816  24.751  24.815  1.00  0.00     0.316 C 
BRANCH   9  18
ATOM     18  C   UNL A   1      32.265  28.579  26.289  1.00  0.00     0.036 C 
ATOM     19  C   UNL A   1      31.404  28.351  27.521  1.00  0.00     0.009 C 
ENDBRANCH   9  18
BRANCH  12  20
ATOM     20  O   UNL A   1      29.526  29.412  22.211  1.00  0.00    -0.406 OA
BRANCH  20  21
ATOM     21  C   UNL A   1      28.188  29.715  22.577  1.00  0.00     0.573 C 
ATOM     22  F   UNL A   1      27.471  28.592  22.805  1.00  0.00    -0.132 F 
ATOM     23  F   UNL A   1      28.153  30.495  23.681  1.00  0.00    -0.132 F 
ATOM     24  F   UNL A   1      27.596  30.393  21.571  1.00  0.00    -0.132 F 
ENDBRANCH  20  21
ENDBRANCH  12  20
BRANCH  17  25
ATOM     25  C   UNL A   1      34.173  25.128  24.190  1.00  0.00     0.430 C 
ATOM     26  F   UNL A   1      34.402  26.460  24.243  1.00  0.00    -0.167 F 
ATOM     27  F   UNL A   1      35.224  24.525  24.790  1.00  0.00    -0.167 F 
ATOM     28  F   UNL A   1      34.216  24.786  22.877  1.00  0.00    -0.167 F 
ENDBRANCH  17  25
ENDBRANCH   6   8
ENDBRANCH   5   6
ENDBRANCH   4   5
ENDBRANCH   3   4
ENDBRANCH   2   3
ENDBRANCH   1   2
BRANCH   1  29
ATOM     29  C   UNL A   1      36.541  20.427  25.020  1.00  0.00     0.261 C 
BRANCH  29  30
ATOM     30  O   UNL A   1      37.367  21.544  25.373  1.00  0.00    -0.460 OA
BRANCH  30  31
ATOM     31  C   UNL A   1      38.585  21.205  25.858  1.00  0.00     0.338 C 
ATOM     32  O   UNL A   1      39.150  20.123  25.748  1.00  0.00    -0.246 OA
BRANCH  31  33
ATOM     33  C   UNL A   1      39.252  22.398  26.402  1.00  0.00     0.060 A 
ATOM     34  C   UNL A   1      38.724  23.647  26.055  1.00  0.00     0.016 A 
ATOM     35  C   UNL A   1      40.388  22.302  27.207  1.00  0.00     0.016 A 
ATOM     36  C   UNL A   1      39.351  24.812  26.486  1.00  0.00     0.010 A 
ATOM     37  C   UNL A   1      41.022  23.473  27.631  1.00  0.00     0.010 A 
ATOM     38  C   UNL A   1      40.521  24.731  27.252  1.00  0.00    -0.014 A 
BRANCH  38  39
ATOM     39  C   UNL A   1      41.269  25.966  27.581  1.00  0.00     0.031 A 
ATOM     40  C   UNL A   1      40.579  27.069  28.334  1.00  0.00     0.074 A 
ATOM     41  C   UNL A   1      42.553  26.101  27.204  1.00  0.00     0.049 A 
ATOM     42  N   UNL A   1      41.042  28.235  28.697  1.00  0.00    -0.248 NA
ATOM     43  C   UNL A   1      39.181  26.825  28.727  1.00  0.00     0.031 C 
ATOM     44  C   UNL A   1      43.324  25.098  26.470  1.00  0.00     0.029 A 
ATOM     45  N   UNL A   1      43.425  27.147  27.364  1.00  0.00    -0.354 N 
ATOM     46  C   UNL A   1      39.989  28.877  29.338  1.00  0.00     0.074 A 
ATOM     47  C   UNL A   1      38.859  27.974  29.304  1.00  0.00     0.031 C 
ATOM     48  C   UNL A   1      44.548  25.591  26.216  1.00  0.00     0.029 A 
ATOM     49  C   UNL A   1      44.636  26.950  26.745  1.00  0.00     0.049 A 
ATOM     50  H   UNL A   1      43.205  27.960  27.874  1.00  0.00     0.167 HD
ATOM     51  C   UNL A   1      39.971  30.103  29.914  1.00  0.00     0.034 A 
ATOM     52  C   UNL A   1      45.686  27.782  26.600  1.00  0.00     0.034 A 
ATOM     53  C   UNL A   1      41.101  30.991  29.955  1.00  0.00     0.049 A 
ATOM     54  C   UNL A   1      45.628  29.152  27.224  1.00  0.00     0.074 A 
ATOM     55  C   UNL A   1      41.200  32.231  30.564  1.00  0.00     0.029 A 
ATOM     56  N   UNL A   1      42.324  30.747  29.350  1.00  0.00    -0.354 N 
ATOM     57  N   UNL A   1      44.671  29.695  27.938  1.00  0.00    -0.248 NA
ATOM     58  C   UNL A   1      46.806  30.013  27.047  1.00  0.00     0.031 C 
ATOM     59  C   UNL A   1      42.471  32.750  30.296  1.00  0.00     0.029 A 
ATOM     60  C   UNL A   1      43.177  31.819  29.551  1.00  0.00     0.049 A 
ATOM     61  H   UNL A   1      42.553  29.929  28.851  1.00  0.00     0.167 HD
ATOM     62  C   UNL A   1      45.144  30.946  28.321  1.00  0.00     0.074 A 
ATOM     63  C   UNL A   1      46.482  31.070  27.780  1.00  0.00     0.031 C 
ATOM     64  C   UNL A   1      44.522  31.911  29.043  1.00  0.00     0.034 A 
BRANCH  51  65
ATOM     65  C   UNL A   1      38.690  30.551  30.566  1.00  0.00     0.023 A 
ATOM     66  C   UNL A   1      38.508  30.363  31.952  1.00  0.00     0.012 A 
ATOM     67  C   UNL A   1      37.693  31.210  29.822  1.00  0.00     0.148 A 
ATOM     68  C   UNL A   1      37.341  30.798  32.580  1.00  0.00     0.002 A 
ATOM     69  C   UNL A   1      36.552  31.679  30.462  1.00  0.00     0.091 A 
ATOM     70  F   UNL A   1      37.874  31.359  28.502  1.00  0.00    -0.205 F 
ATOM     71  C   UNL A   1      36.370  31.466  31.839  1.00  0.00     0.022 A 
BRANCH  69  72
ATOM     72  S   UNL A   1      35.279  32.617  29.610  1.00  0.00     0.127 S 
ATOM     73  O   UNL A   1      34.809  31.647  28.623  1.00  0.00    -0.237 OA
ATOM     74  O   UNL A   1      34.330  32.898  30.689  1.00  0.00    -0.237 OA
ATOM     75  O   UNL A   1      35.942  33.793  29.064  1.00  0.00    -0.744 OA
ENDBRANCH  69  72
ENDBRANCH  51  65
BRANCH  52  76
ATOM     76  C   UNL A   1      46.892  27.333  25.849  1.00  0.00     0.023 A 
ATOM     77  C   UNL A   1      47.830  26.492  26.478  1.00  0.00     0.012 A 
ATOM     78  C   UNL A   1      47.102  27.717  24.511  1.00  0.00     0.148 A 
ATOM     79  C   UNL A   1      48.972  26.066  25.795  1.00  0.00     0.002 A 
ATOM     80  C   UNL A   1      48.209  27.243  23.819  1.00  0.00     0.091 A 
ATOM     81  F   UNL A   1      46.206  28.533  23.937  1.00  0.00    -0.205 F 
ATOM     82  C   UNL A   1      49.155  26.432  24.464  1.00  0.00     0.022 A 
BRANCH  80  83
ATOM     83  S   UNL A   1      48.453  27.552  22.067  1.00  0.00     0.127 S 
ATOM     84  O   UNL A   1      47.202  28.211  21.701  1.00  0.00    -0.237 OA
ATOM     85  O   UNL A   1      49.629  28.422  22.076  1.00  0.00    -0.237 OA
ATOM     86  O   UNL A   1      48.680  26.246  21.465  1.00  0.00    -0.744 OA
ENDBRANCH  80  83
ENDBRANCH  52  76
BRANCH  64  87
ATOM     87  C   UNL A   1      45.286  33.181  29.316  1.00  0.00     0.023 A 
ATOM     88  C   UNL A   1      46.026  33.312  30.507  1.00  0.00     0.012 A 
ATOM     89  C   UNL A   1      45.327  34.217  28.361  1.00  0.00     0.148 A 
ATOM     90  C   UNL A   1      46.766  34.467  30.760  1.00  0.00     0.002 A 
ATOM     91  C   UNL A   1      46.106  35.343  28.597  1.00  0.00     0.091 A 
ATOM     92  F   UNL A   1      44.603  34.082  27.240  1.00  0.00    -0.205 F 
ATOM     93  C   UNL A   1      46.815  35.476  29.802  1.00  0.00     0.022 A 
BRANCH  91  94
ATOM     94  S   UNL A   1      46.307  36.651  27.380  1.00  0.00     0.127 S 
ATOM     95  O   UNL A   1      47.238  37.549  28.061  1.00  0.00    -0.237 OA
ATOM     96  O   UNL A   1      46.877  35.930  26.242  1.00  0.00    -0.237 OA
ATOM     97  O   UNL A   1      44.975  37.191  27.148  1.00  0.00    -0.744 OA
ENDBRANCH  91  94
ENDBRANCH  64  87
ENDBRANCH  38  39
ENDBRANCH  31  33
ENDBRANCH  30  31
ENDBRANCH  29  30
ENDBRANCH   1  29
TORSDOF 21
ENDMDL
MODEL 2
REMARK VINA RESULT:     -12.0      5.178      8.246
REMARK SMILES CCc1cc(OC(F)(F)F)cc2c1O[C@H](C(F)(F)F)C(C(=O)OCCOCCOC(=O)c1ccc(-c3c4nc(c(-c5cccc(S(=O)(=O)[O-])c5F)c5ccc([nH]5)c(-c5cccc(S(=O)(=O)[O-])c5F)c5nc(c(-c6cccc(S(=O)(=O)[O-])c6F)c6ccc3[nH]6)C=C5)C=C4)cc1)=C2
REMARK SMILES IDX 27 1 26 2 25 3 24 4 23 5 21 6 22 7 20 8 3 9 4 10 13 11 5 12
REMARK SMILES IDX 12 13 14 14 11 15 95 16 15 17 2 18 1 19 6 20 7 21 8 22 9 23
REMARK SMILES IDX 10 24 16 25 17 26 18 27 19 28 28 29 29 30 30 31 31 32 32 33
REMARK SMILES IDX 33 34 94 35 34 36 93 37 35 38 36 39 37 40 87 41 38 42 92 43
REMARK SMILES IDX 86 44 88 45 39 46 91 47 85 48 84 49 40 51 72 52 52 53 71 54
REMARK SMILES IDX 53 55 56 56 70 57 89 58 54 59 55 60 69 62 90 63 57 64 41 65
REMARK SMILES IDX 42 66 50 67 43 68 45 69 51 70 44 71 46 72 47 73 48 74 49 75
REMARK SMILES IDX 73 76 74 77 82 78 75 79 77 80 83 81 76 82 78 83 79 84 80 85
REMARK SMILES IDX 81 86 58 87 59 88 67 89 60 90 62 91 68 92 61 93 63 94 64 95
REMARK SMILES IDX 65 96 66 97
REMARK H PARENT 88 50 56 61
REMARK Flexibility Score: inf
ROOT
ATOM      1  C   UNL A   1      31.615  29.306  25.366  1.00  0.00     0.202 C 
ENDROOT
BRANCH   1   2
ATOM      2  O   UNL A   1      31.503  28.889  24.010  1.00  0.00    -0.374 OA
BRANCH   2   3
ATOM      3  C   UNL A   1      31.033  27.561  23.770  1.00  0.00     0.202 C 
BRANCH   3   4
ATOM      4  C   UNL A   1      31.129  27.026  22.338  1.00  0.00     0.261 C 
BRANCH   4   5
ATOM      5  O   UNL A   1      31.353  25.603  22.296  1.00  0.00    -0.460 OA
BRANCH   5   6
ATOM      6  C   UNL A   1      32.601  25.231  21.926  1.00  0.00     0.338 C 
ATOM      7  O   UNL A   1      33.273  25.746  21.046  1.00  0.00    -0.246 OA
BRANCH   6   8
ATOM      8  C   UNL A   1      33.155  24.178  22.803  1.00  0.00     0.087 C 
ATOM      9  C   UNL A   1      35.606  21.352  24.626  1.00  0.00    -0.002 A 
ATOM     10  C   UNL A   1      35.069  20.113  24.998  1.00  0.00     0.054 A 
ATOM     11  C   UNL A   1      34.780  22.262  23.959  1.00  0.00     0.131 A 
ATOM     12  C   UNL A   1      33.738  19.790  24.709  1.00  0.00     0.130 A 
ATOM     13  C   UNL A   1      33.436  21.967  23.674  1.00  0.00     0.021 A 
ATOM     14  O   UNL A   1      35.356  23.440  23.558  1.00  0.00    -0.475 OA
ATOM     15  C   UNL A   1      32.922  20.728  24.059  1.00  0.00     0.058 A 
ATOM     16  C   UNL A   1      32.644  22.940  22.910  1.00  0.00     0.027 C 
ATOM     17  C   UNL A   1      34.437  24.553  23.510  1.00  0.00     0.316 C 
BRANCH   9  18
ATOM     18  C   UNL A   1      37.049  21.676  24.933  1.00  0.00     0.036 C 
ATOM     19  C   UNL A   1      37.873  20.422  25.178  1.00  0.00     0.009 C 
ENDBRANCH   9  18
BRANCH  12  20
ATOM     20  O   UNL A   1      33.126  18.605  25.008  1.00  0.00    -0.406 OA
BRANCH  20  21
ATOM     21  C   UNL A   1      33.452  17.481  24.205  1.00  0.00     0.573 C 
ATOM     22  F   UNL A   1      34.723  17.074  24.417  1.00  0.00    -0.132 F 
ATOM     23  F   UNL A   1      32.610  16.452  24.450  1.00  0.00    -0.132 F 
ATOM     24  F   UNL A   1      33.330  17.816  22.902  1.00  0.00    -0.132 F 
ENDBRANCH  20  21
ENDBRANCH  12  20
BRANCH  17  25
ATOM     25  C   UNL A   1      34.225  25.136  24.921  1.00  0.00     0.430 C 
ATOM     26  F   UNL A   1      33.136  24.612  25.527  1.00  0.00    -0.167 F 
ATOM     27  F   UNL A   1      35.274  24.925  25.749  1.00  0.00    -0.167 F 
ATOM     28  F   UNL A   1      34.024  26.477  24.869  1.00  0.00    -0.167 F 
ENDBRANCH  17  25
ENDBRANCH   6   8
ENDBRANCH   5   6
ENDBRANCH   4   5
ENDBRANCH   3   4
ENDBRANCH   2   3
ENDBRANCH   1   2
BRANCH   1  29
ATOM     29  C   UNL A   1      32.593  30.439  25.698  1.00  0.00     0.261 C 
BRANCH  29  30
ATOM     30  O   UNL A   1      32.447  30.926  27.038  1.00  0.00    -0.460 OA
BRANCH  30  31
ATOM     31  C   UNL A   1      33.234  31.986  27.334  1.00  0.00     0.338 C 
ATOM     32  O   UNL A   1      32.919  33.171  27.315  1.00  0.00    -0.246 OA
BRANCH  31  33
ATOM     33  C   UNL A   1      34.517  31.514  27.878  1.00  0.00     0.060 A 
ATOM     34  C   UNL A   1      34.638  30.147  28.151  1.00  0.00     0.016 A 
ATOM     35  C   UNL A   1      35.569  32.392  28.146  1.00  0.00     0.016 A 
ATOM     36  C   UNL A   1      35.804  29.652  28.727  1.00  0.00     0.010 A 
ATOM     37  C   UNL A   1      36.736  31.895  28.734  1.00  0.00     0.010 A 
ATOM     38  C   UNL A   1      36.848  30.528  29.049  1.00  0.00    -0.014 A 
BRANCH  38  39
ATOM     39  C   UNL A   1      38.023  30.026  29.798  1.00  0.00     0.031 A 
ATOM     40  C   UNL A   1      38.277  30.524  31.193  1.00  0.00     0.074 A 
ATOM     41  C   UNL A   1      38.858  29.137  29.231  1.00  0.00     0.049 A 
ATOM     42  N   UNL A   1      39.257  30.233  32.007  1.00  0.00    -0.248 NA
ATOM     43  C   UNL A   1      37.299  31.478  31.742  1.00  0.00     0.031 C 
ATOM     44  C   UNL A   1      38.711  28.585  27.885  1.00  0.00     0.029 A 
ATOM     45  N   UNL A   1      40.008  28.564  29.708  1.00  0.00    -0.354 N 
ATOM     46  C   UNL A   1      39.031  30.985  33.154  1.00  0.00     0.074 A 
ATOM     47  C   UNL A   1      37.826  31.753  32.926  1.00  0.00     0.031 C 
ATOM     48  C   UNL A   1      39.752  27.773  27.632  1.00  0.00     0.029 A 
ATOM     49  C   UNL A   1      40.649  27.771  28.785  1.00  0.00     0.049 A 
ATOM     50  H   UNL A   1      40.343  28.705  30.623  1.00  0.00     0.167 HD
ATOM     51  C   UNL A   1      39.755  31.020  34.298  1.00  0.00     0.034 A 
ATOM     52  C   UNL A   1      41.836  27.137  28.855  1.00  0.00     0.034 A 
ATOM     53  C   UNL A   1      40.945  30.244  34.523  1.00  0.00     0.049 A 
ATOM     54  C   UNL A   1      42.637  27.218  30.128  1.00  0.00     0.074 A 
ATOM     55  C   UNL A   1      41.718  30.168  35.669  1.00  0.00     0.029 A 
ATOM     56  N   UNL A   1      41.547  29.424  33.582  1.00  0.00    -0.354 N 
ATOM     57  N   UNL A   1      42.345  27.830  31.251  1.00  0.00    -0.248 NA
ATOM     58  C   UNL A   1      43.918  26.497  30.155  1.00  0.00     0.031 C 
ATOM     59  C   UNL A   1      42.807  29.329  35.407  1.00  0.00     0.029 A 
ATOM     60  C   UNL A   1      42.693  28.855  34.110  1.00  0.00     0.049 A 
ATOM     61  H   UNL A   1      41.208  29.269  32.670  1.00  0.00     0.167 HD
ATOM     62  C   UNL A   1      43.388  27.543  32.125  1.00  0.00     0.074 A 
ATOM     63  C   UNL A   1      44.306  26.680  31.409  1.00  0.00     0.031 C 
ATOM     64  C   UNL A   1      43.576  27.964  33.401  1.00  0.00     0.034 A 
BRANCH  51  65
ATOM     65  C   UNL A   1      39.269  31.916  35.407  1.00  0.00     0.023 A 
ATOM     66  C   UNL A   1      38.314  31.435  36.325  1.00  0.00     0.012 A 
ATOM     67  C   UNL A   1      39.800  33.209  35.575  1.00  0.00     0.148 A 
ATOM     68  C   UNL A   1      37.874  32.238  37.378  1.00  0.00     0.002 A 
ATOM     69  C   UNL A   1      39.388  33.987  36.650  1.00  0.00     0.091 A 
ATOM     70  F   UNL A   1      40.690  33.657  34.678  1.00  0.00    -0.205 F 
ATOM     71  C   UNL A   1      38.418  33.508  37.546  1.00  0.00     0.022 A 
BRANCH  69  72
ATOM     72  S   UNL A   1      40.085  35.606  36.997  1.00  0.00     0.127 S 
ATOM     73  O   UNL A   1      39.646  36.373  35.832  1.00  0.00    -0.237 OA
ATOM     74  O   UNL A   1      39.419  35.966  38.250  1.00  0.00    -0.237 OA
ATOM     75  O   UNL A   1      41.524  35.410  37.109  1.00  0.00    -0.744 OA
ENDBRANCH  69  72
ENDBRANCH  51  65
BRANCH  52  76
ATOM     76  C   UNL A   1      42.329  26.352  27.689  1.00  0.00     0.023 A 
ATOM     77  C   UNL A   1      43.192  26.957  26.756  1.00  0.00     0.012 A 
ATOM     78  C   UNL A   1      41.964  25.003  27.513  1.00  0.00     0.148 A 
ATOM     79  C   UNL A   1      43.659  26.242  25.652  1.00  0.00     0.002 A 
ATOM     80  C   UNL A   1      42.478  24.280  26.445  1.00  0.00     0.091 A 
ATOM     81  F   UNL A   1      41.126  24.451  28.403  1.00  0.00    -0.205 F 
ATOM     82  C   UNL A   1      43.311  24.902  25.502  1.00  0.00     0.022 A 
BRANCH  80  83
ATOM     83  S   UNL A   1      42.192  22.517  26.250  1.00  0.00     0.127 S 
ATOM     84  O   UNL A   1      40.738  22.459  26.138  1.00  0.00    -0.237 OA
ATOM     85  O   UNL A   1      42.919  22.229  25.013  1.00  0.00    -0.237 OA
ATOM     86  O   UNL A   1      42.761  21.893  27.437  1.00  0.00    -0.744 OA
ENDBRANCH  80  83
ENDBRANCH  52  76
BRANCH  64  87
ATOM     87  C   UNL A   1      44.809  27.483  34.121  1.00  0.00     0.023 A 
ATOM     88  C   UNL A   1      45.979  28.268  34.110  1.00  0.00     0.012 A 
ATOM     89  C   UNL A   1      44.788  26.286  34.865  1.00  0.00     0.148 A 
ATOM     90  C   UNL A   1      47.119  27.854  34.799  1.00  0.00     0.002 A 
ATOM     91  C   UNL A   1      45.911  25.905  35.589  1.00  0.00     0.091 A 
ATOM     92  F   UNL A   1      43.672  25.543  34.850  1.00  0.00    -0.205 F 
ATOM     93  C   UNL A   1      47.081  26.680  35.547  1.00  0.00     0.022 A 
BRANCH  91  94
ATOM     94  S   UNL A   1      45.925  24.459  36.658  1.00  0.00     0.127 S 
ATOM     95  O   UNL A   1      44.576  24.492  37.219  1.00  0.00    -0.237 OA
ATOM     96  O   UNL A   1      46.165  23.374  35.707  1.00  0.00    -0.237 OA
ATOM     97  O   UNL A   1      47.003  24.677  37.612  1.00  0.00    -0.744 OA
ENDBRANCH  91  94
ENDBRANCH  64  87
ENDBRANCH  38  39
ENDBRANCH  31  33
ENDBRANCH  30  31
ENDBRANCH  29  30
ENDBRANCH   1  29
TORSDOF 21
ENDMDL
MODEL 3
REMARK VINA RESULT:     -12.0      5.245      8.678
REMARK SMILES CCc1cc(OC(F)(F)F)cc2c1O[C@H](C(F)(F)F)C(C(=O)OCCOCCOC(=O)c1ccc(-c3c4nc(c(-c5cccc(S(=O)(=O)[O-])c5F)c5ccc([nH]5)c(-c5cccc(S(=O)(=O)[O-])c5F)c5nc(c(-c6cccc(S(=O)(=O)[O-])c6F)c6ccc3[nH]6)C=C5)C=C4)cc1)=C2
REMARK SMILES IDX 27 1 26 2 25 3 24 4 23 5 21 6 22 7 20 8 3 9 4 10 13 11 5 12
REMARK SMILES IDX 12 13 14 14 11 15 95 16 15 17 2 18 1 19 6 20 7 21 8 22 9 23
REMARK SMILES IDX 10 24 16 25 17 26 18 27 19 28 28 29 29 30 30 31 31 32 32 33
REMARK SMILES IDX 33 34 94 35 34 36 93 37 35 38 36 39 37 40 87 41 38 42 92 43
REMARK SMILES IDX 86 44 88 45 39 46 91 47 85 48 84 49 40 51 72 52 52 53 71 54
REMARK SMILES IDX 53 55 56 56 70 57 89 58 54 59 55 60 69 62 90 63 57 64 41 65
REMARK SMILES IDX 42 66 50 67 43 68 45 69 51 70 44 71 46 72 47 73 48 74 49 75
REMARK SMILES IDX 73 76 74 77 82 78 75 79 77 80 83 81 76 82 78 83 79 84 80 85
REMARK SMILES IDX 81 86 58 87 59 88 67 89 60 90 62 91 68 92 61 93 63 94 64 95
REMARK SMILES IDX 65 96 66 97
REMARK H PARENT 88 50 56 61
REMARK Flexibility Score: inf
ROOT
ATOM      1  C   UNL A   1      32.166  31.568  26.844  1.00  0.00     0.202 C 
ENDROOT
BRANCH   1   2
ATOM      2  O   UNL A   1      31.410  30.957  25.804  1.00  0.00    -0.374 OA
BRANCH   2   3
ATOM      3  C   UNL A   1      31.547  29.545  25.639  1.00  0.00     0.202 C 
BRANCH   3   4
ATOM      4  C   UNL A   1      31.017  28.931  24.339  1.00  0.00     0.261 C 
BRANCH   4   5
ATOM      5  O   UNL A   1      30.745  27.521  24.467  1.00  0.00    -0.460 OA
BRANCH   5   6
ATOM      6  C   UNL A   1      31.118  26.767  23.407  1.00  0.00     0.338 C 
ATOM      7  O   UNL A   1      30.953  27.051  22.230  1.00  0.00    -0.246 OA
BRANCH   6   8
ATOM      8  C   UNL A   1      31.891  25.574  23.811  1.00  0.00     0.087 C 
ATOM      9  C   UNL A   1      34.584  22.407  23.990  1.00  0.00    -0.002 A 
ATOM     10  C   UNL A   1      34.142  21.151  24.424  1.00  0.00     0.054 A 
ATOM     11  C   UNL A   1      33.649  23.440  23.879  1.00  0.00     0.131 A 
ATOM     12  C   UNL A   1      32.795  20.932  24.738  1.00  0.00     0.130 A 
ATOM     13  C   UNL A   1      32.295  23.249  24.205  1.00  0.00     0.021 A 
ATOM     14  O   UNL A   1      34.106  24.639  23.394  1.00  0.00    -0.475 OA
ATOM     15  C   UNL A   1      31.879  21.990  24.641  1.00  0.00     0.058 A 
ATOM     16  C   UNL A   1      31.353  24.357  24.000  1.00  0.00     0.027 C 
ATOM     17  C   UNL A   1      33.385  25.785  23.896  1.00  0.00     0.316 C 
BRANCH   9  18
ATOM     18  C   UNL A   1      36.038  22.619  23.642  1.00  0.00     0.036 C 
ATOM     19  C   UNL A   1      36.917  22.674  24.881  1.00  0.00     0.009 C 
ENDBRANCH   9  18
BRANCH  12  20
ATOM     20  O   UNL A   1      32.259  19.743  25.148  1.00  0.00    -0.406 OA
BRANCH  20  21
ATOM     21  C   UNL A   1      32.532  18.597  24.357  1.00  0.00     0.573 C 
ATOM     22  F   UNL A   1      32.168  18.785  23.070  1.00  0.00    -0.132 F 
ATOM     23  F   UNL A   1      33.847  18.280  24.404  1.00  0.00    -0.132 F 
ATOM     24  F   UNL A   1      31.835  17.547  24.842  1.00  0.00    -0.132 F 
ENDBRANCH  20  21
ENDBRANCH  12  20
BRANCH  17  25
ATOM     25  C   UNL A   1      33.885  26.161  25.303  1.00  0.00     0.430 C 
ATOM     26  F   UNL A   1      32.988  25.839  26.262  1.00  0.00    -0.167 F 
ATOM     27  F   UNL A   1      35.049  25.558  25.636  1.00  0.00    -0.167 F 
ATOM     28  F   UNL A   1      34.088  27.500  25.406  1.00  0.00    -0.167 F 
ENDBRANCH  17  25
ENDBRANCH   6   8
ENDBRANCH   5   6
ENDBRANCH   4   5
ENDBRANCH   3   4
ENDBRANCH   2   3
ENDBRANCH   1   2
BRANCH   1  29
ATOM     29  C   UNL A   1      32.298  33.095  26.843  1.00  0.00     0.261 C 
BRANCH  29  30
ATOM     30  O   UNL A   1      32.426  33.644  28.162  1.00  0.00    -0.460 OA
BRANCH  30  31
ATOM     31  C   UNL A   1      33.520  34.421  28.337  1.00  0.00     0.338 C 
ATOM     32  O   UNL A   1      33.572  35.645  28.299  1.00  0.00    -0.246 OA
BRANCH  31  33
ATOM     33  C   UNL A   1      34.653  33.592  28.775  1.00  0.00     0.060 A 
ATOM     34  C   UNL A   1      34.384  32.556  29.677  1.00  0.00     0.016 A 
ATOM     35  C   UNL A   1      35.956  33.839  28.340  1.00  0.00     0.016 A 
ATOM     36  C   UNL A   1      35.425  31.779  30.177  1.00  0.00     0.010 A 
ATOM     37  C   UNL A   1      37.002  33.064  28.850  1.00  0.00     0.010 A 
ATOM     38  C   UNL A   1      36.743  32.049  29.789  1.00  0.00    -0.014 A 
BRANCH  38  39
ATOM     39  C   UNL A   1      37.861  31.323  30.436  1.00  0.00     0.031 A 
ATOM     40  C   UNL A   1      38.227  31.645  31.857  1.00  0.00     0.074 A 
ATOM     41  C   UNL A   1      38.546  30.388  29.753  1.00  0.00     0.049 A 
ATOM     42  N   UNL A   1      39.182  31.149  32.597  1.00  0.00    -0.248 NA
ATOM     43  C   UNL A   1      37.408  32.665  32.534  1.00  0.00     0.031 C 
ATOM     44  C   UNL A   1      38.280  29.992  28.370  1.00  0.00     0.029 A 
ATOM     45  N   UNL A   1      39.621  29.621  30.124  1.00  0.00    -0.354 N 
ATOM     46  C   UNL A   1      39.100  31.810  33.815  1.00  0.00     0.074 A 
ATOM     47  C   UNL A   1      38.006  32.752  33.713  1.00  0.00     0.031 C 
ATOM     48  C   UNL A   1      39.191  29.076  27.998  1.00  0.00     0.029 A 
ATOM     49  C   UNL A   1      40.115  28.842  29.105  1.00  0.00     0.049 A 
ATOM     50  H   UNL A   1      40.001  29.628  31.031  1.00  0.00     0.167 HD
ATOM     51  C   UNL A   1      39.859  31.638  34.924  1.00  0.00     0.034 A 
ATOM     52  C   UNL A   1      41.205  28.050  29.063  1.00  0.00     0.034 A 
ATOM     53  C   UNL A   1      40.936  30.690  35.025  1.00  0.00     0.049 A 
ATOM     54  C   UNL A   1      42.050  27.900  30.301  1.00  0.00     0.074 A 
ATOM     55  C   UNL A   1      41.728  30.401  36.122  1.00  0.00     0.029 A 
ATOM     56  N   UNL A   1      41.388  29.891  33.986  1.00  0.00    -0.354 N 
ATOM     57  N   UNL A   1      41.882  28.435  31.487  1.00  0.00    -0.248 NA
ATOM     58  C   UNL A   1      43.218  27.013  30.204  1.00  0.00     0.031 C 
ATOM     59  C   UNL A   1      42.681  29.452  35.737  1.00  0.00     0.029 A 
ATOM     60  C   UNL A   1      42.461  29.124  34.409  1.00  0.00     0.049 A 
ATOM     61  H   UNL A   1      41.002  29.871  33.080  1.00  0.00     0.167 HD
ATOM     62  C   UNL A   1      42.902  27.927  32.284  1.00  0.00     0.074 A 
ATOM     63  C   UNL A   1      43.669  27.021  31.452  1.00  0.00     0.031 C 
ATOM     64  C   UNL A   1      43.188  28.195  33.582  1.00  0.00     0.034 A 
BRANCH  51  65
ATOM     65  C   UNL A   1      39.537  32.480  36.131  1.00  0.00     0.023 A 
ATOM     66  C   UNL A   1      40.155  33.737  36.290  1.00  0.00     0.012 A 
ATOM     67  C   UNL A   1      38.582  32.055  37.074  1.00  0.00     0.148 A 
ATOM     68  C   UNL A   1      39.848  34.546  37.384  1.00  0.00     0.002 A 
ATOM     69  C   UNL A   1      38.250  32.884  38.138  1.00  0.00     0.091 A 
ATOM     70  F   UNL A   1      38.023  30.846  36.918  1.00  0.00    -0.205 F 
ATOM     71  C   UNL A   1      38.889  34.125  38.301  1.00  0.00     0.022 A 
BRANCH  69  72
ATOM     72  S   UNL A   1      36.973  32.466  39.330  1.00  0.00     0.127 S 
ATOM     73  O   UNL A   1      37.365  31.113  39.720  1.00  0.00    -0.237 OA
ATOM     74  O   UNL A   1      37.174  33.481  40.365  1.00  0.00    -0.237 OA
ATOM     75  O   UNL A   1      35.707  32.569  38.617  1.00  0.00    -0.744 OA
ENDBRANCH  69  72
ENDBRANCH  51  65
BRANCH  52  76
ATOM     76  C   UNL A   1      41.546  27.321  27.810  1.00  0.00     0.023 A 
ATOM     77  C   UNL A   1      42.050  28.033  26.705  1.00  0.00     0.012 A 
ATOM     78  C   UNL A   1      41.393  25.924  27.715  1.00  0.00     0.148 A 
ATOM     79  C   UNL A   1      42.368  27.371  25.518  1.00  0.00     0.002 A 
ATOM     80  C   UNL A   1      41.767  25.263  26.553  1.00  0.00     0.091 A 
ATOM     81  F   UNL A   1      40.895  25.267  28.773  1.00  0.00    -0.205 F 
ATOM     82  C   UNL A   1      42.237  25.986  25.445  1.00  0.00     0.022 A 
BRANCH  80  83
ATOM     83  S   UNL A   1      41.759  23.472  26.419  1.00  0.00     0.127 S 
ATOM     84  O   UNL A   1      42.473  23.261  25.164  1.00  0.00    -0.237 OA
ATOM     85  O   UNL A   1      42.496  23.078  27.622  1.00  0.00    -0.237 OA
ATOM     86  O   UNL A   1      40.356  23.083  26.424  1.00  0.00    -0.744 OA
ENDBRANCH  80  83
ENDBRANCH  52  76
BRANCH  64  87
ATOM     87  C   UNL A   1      44.366  27.485  34.199  1.00  0.00     0.023 A 
ATOM     88  C   UNL A   1      45.655  28.041  34.090  1.00  0.00     0.012 A 
ATOM     89  C   UNL A   1      44.184  26.303  34.945  1.00  0.00     0.148 A 
ATOM     90  C   UNL A   1      46.751  27.414  34.684  1.00  0.00     0.002 A 
ATOM     91  C   UNL A   1      45.272  25.711  35.575  1.00  0.00     0.091 A 
ATOM     92  F   UNL A   1      42.952  25.779  35.023  1.00  0.00    -0.205 F 
ATOM     93  C   UNL A   1      46.558  26.258  35.435  1.00  0.00     0.022 A 
BRANCH  91  94
ATOM     94  S   UNL A   1      45.106  24.274  36.642  1.00  0.00     0.127 S 
ATOM     95  O   UNL A   1      44.594  23.270  35.710  1.00  0.00    -0.237 OA
ATOM     96  O   UNL A   1      46.484  24.052  37.080  1.00  0.00    -0.237 OA
ATOM     97  O   UNL A   1      44.189  24.665  37.703  1.00  0.00    -0.744 OA
ENDBRANCH  91  94
ENDBRANCH  64  87
ENDBRANCH  38  39
ENDBRANCH  31  33
ENDBRANCH  30  31
ENDBRANCH  29  30
ENDBRANCH   1  29
TORSDOF 21
ENDMDL
