MODEL 1
REMARK VINA RESULT:     -10.5      0.000      0.000
REMARK SMILES CC[C@@H]1CC[C@H]([C@@H](C)C(=O)OCCOCCOC(=O)c2ccc(-c3c4nc(c(-c5cccc(S(=O)(=O)[O-])c5F)c5ccc([nH]5)c(-c5cccc(S(=O)(=O)[O-])c5F)c5nc(c(-c6cccc(S(=O)(=O)[O-])c6F)c6ccc3[nH]6)C=C5)C=C4)cc2)C1
REMARK SMILES IDX 15 1 14 2 13 3 12 4 11 5 9 6 10 7 7 8 8 9 6 10 3 11 4 12
REMARK SMILES IDX 83 13 5 14 2 15 1 16 16 17 17 18 18 19 19 20 20 21 21 22
REMARK SMILES IDX 82 23 22 24 81 25 23 26 24 27 25 28 75 29 26 30 80 31 74 32
REMARK SMILES IDX 76 33 27 34 79 35 73 36 72 37 28 39 60 40 40 41 59 42 41 43
REMARK SMILES IDX 44 44 58 45 77 46 42 47 43 48 57 50 78 51 45 52 29 53 30 54
REMARK SMILES IDX 38 55 31 56 33 57 39 58 32 59 34 60 35 61 36 62 37 63 61 64
REMARK SMILES IDX 62 65 70 66 63 67 65 68 71 69 64 70 66 71 67 72 68 73 69 74
REMARK SMILES IDX 46 75 47 76 55 77 48 78 50 79 56 80 49 81 51 82 52 83 53 84
REMARK SMILES IDX 54 85
REMARK H PARENT 76 38 44 49
REMARK Flexibility Score: inf
ROOT
ATOM      1  C   UNL A   1      35.800  21.276  24.945  1.00  0.00     0.202 C 
ENDROOT
BRANCH   1   2
ATOM      2  O   UNL A   1      34.610  20.574  25.302  1.00  0.00    -0.374 OA
BRANCH   2   3
ATOM      3  C   UNL A   1      33.480  20.745  24.450  1.00  0.00     0.202 C 
BRANCH   3   4
ATOM      4  C   UNL A   1      32.237  21.398  25.065  1.00  0.00     0.261 C 
BRANCH   4   5
ATOM      5  O   UNL A   1      32.397  21.836  26.429  1.00  0.00    -0.463 OA
BRANCH   5   6
ATOM      6  C   UNL A   1      32.247  23.172  26.626  1.00  0.00     0.309 C 
ATOM      7  O   UNL A   1      31.589  23.676  27.533  1.00  0.00    -0.252 OA
BRANCH   6   8
ATOM      8  C   UNL A   1      32.890  24.026  25.545  1.00  0.00     0.099 C 
ATOM      9  C   UNL A   1      34.300  24.371  26.031  1.00  0.00     0.020 C 
BRANCH   8  10
ATOM     10  C   UNL A   1      32.126  25.282  25.075  1.00  0.00     0.003 C 
ATOM     11  C   UNL A   1      32.349  27.649  24.573  1.00  0.00    -0.011 C 
ATOM     12  C   UNL A   1      32.085  27.543  26.069  1.00  0.00     0.004 C 
ATOM     13  C   UNL A   1      32.961  26.282  24.267  1.00  0.00     0.008 C 
ATOM     14  C   UNL A   1      31.589  26.113  26.265  1.00  0.00     0.005 C 
BRANCH  11  15
ATOM     15  C   UNL A   1      33.268  28.805  24.174  1.00  0.00     0.000 C 
ATOM     16  C   UNL A   1      34.047  28.529  22.897  1.00  0.00     0.004 C 
ENDBRANCH  11  15
ENDBRANCH   8  10
ENDBRANCH   6   8
ENDBRANCH   5   6
ENDBRANCH   4   5
ENDBRANCH   3   4
ENDBRANCH   2   3
ENDBRANCH   1   2
BRANCH   1  17
ATOM     17  C   UNL A   1      37.107  20.489  25.095  1.00  0.00     0.261 C 
BRANCH  17  18
ATOM     18  O   UNL A   1      38.256  21.355  25.023  1.00  0.00    -0.460 OA
BRANCH  18  19
ATOM     19  C   UNL A   1      39.227  21.073  25.923  1.00  0.00     0.338 C 
ATOM     20  O   UNL A   1      39.841  20.020  26.032  1.00  0.00    -0.246 OA
BRANCH  19  21
ATOM     21  C   UNL A   1      39.603  22.282  26.677  1.00  0.00     0.060 A 
ATOM     22  C   UNL A   1      38.963  23.477  26.328  1.00  0.00     0.016 A 
ATOM     23  C   UNL A   1      40.638  22.278  27.615  1.00  0.00     0.016 A 
ATOM     24  C   UNL A   1      39.407  24.687  26.860  1.00  0.00     0.010 A 
ATOM     25  C   UNL A   1      41.084  23.497  28.145  1.00  0.00     0.010 A 
ATOM     26  C   UNL A   1      40.504  24.711  27.731  1.00  0.00    -0.014 A 
BRANCH  26  27
ATOM     27  C   UNL A   1      41.128  26.018  28.066  1.00  0.00     0.031 A 
ATOM     28  C   UNL A   1      42.526  26.307  27.583  1.00  0.00     0.074 A 
ATOM     29  C   UNL A   1      40.448  26.957  28.746  1.00  0.00     0.049 A 
ATOM     30  N   UNL A   1      43.230  27.403  27.700  1.00  0.00    -0.248 NA
ATOM     31  C   UNL A   1      43.220  25.221  26.872  1.00  0.00     0.031 C 
ATOM     32  C   UNL A   1      39.093  26.804  29.272  1.00  0.00     0.029 A 
ATOM     33  N   UNL A   1      40.814  28.227  29.120  1.00  0.00    -0.354 N 
ATOM     34  C   UNL A   1      44.452  27.137  27.093  1.00  0.00     0.074 A 
ATOM     35  C   UNL A   1      44.403  25.768  26.626  1.00  0.00     0.031 C 
ATOM     36  C   UNL A   1      38.746  27.933  29.915  1.00  0.00     0.029 A 
ATOM     37  C   UNL A   1      39.855  28.884  29.855  1.00  0.00     0.049 A 
ATOM     38  H   UNL A   1      41.680  28.630  28.883  1.00  0.00     0.167 HD
ATOM     39  C   UNL A   1      45.512  27.961  26.914  1.00  0.00     0.034 A 
ATOM     40  C   UNL A   1      39.872  30.109  30.418  1.00  0.00     0.034 A 
ATOM     41  C   UNL A   1      45.559  29.330  27.350  1.00  0.00     0.049 A 
ATOM     42  C   UNL A   1      41.070  31.002  30.217  1.00  0.00     0.074 A 
ATOM     43  C   UNL A   1      46.572  30.256  27.169  1.00  0.00     0.029 A 
ATOM     44  N   UNL A   1      44.556  29.969  28.061  1.00  0.00    -0.354 N 
ATOM     45  N   UNL A   1      42.158  30.780  29.521  1.00  0.00    -0.248 NA
ATOM     46  C   UNL A   1      41.024  32.329  30.850  1.00  0.00     0.031 C 
ATOM     47  C   UNL A   1      46.186  31.452  27.786  1.00  0.00     0.029 A 
ATOM     48  C   UNL A   1      44.928  31.274  28.337  1.00  0.00     0.049 A 
ATOM     49  H   UNL A   1      43.704  29.556  28.330  1.00  0.00     0.167 HD
ATOM     50  C   UNL A   1      42.911  31.948  29.604  1.00  0.00     0.074 A 
ATOM     51  C   UNL A   1      42.143  32.883  30.400  1.00  0.00     0.031 C 
ATOM     52  C   UNL A   1      44.132  32.216  29.081  1.00  0.00     0.034 A 
BRANCH  39  53
ATOM     53  C   UNL A   1      46.701  27.414  26.170  1.00  0.00     0.023 A 
ATOM     54  C   UNL A   1      46.777  27.582  24.772  1.00  0.00     0.012 A 
ATOM     55  C   UNL A   1      47.764  26.794  26.852  1.00  0.00     0.148 A 
ATOM     56  C   UNL A   1      47.882  27.116  24.061  1.00  0.00     0.002 A 
ATOM     57  C   UNL A   1      48.879  26.365  26.141  1.00  0.00     0.091 A 
ATOM     58  F   UNL A   1      47.661  26.621  28.177  1.00  0.00    -0.205 F 
ATOM     59  C   UNL A   1      48.936  26.518  24.746  1.00  0.00     0.022 A 
BRANCH  57  60
ATOM     60  S   UNL A   1      50.316  25.645  26.945  1.00  0.00     0.127 S 
ATOM     61  O   UNL A   1      49.753  24.420  27.513  1.00  0.00    -0.237 OA
ATOM     62  O   UNL A   1      51.229  25.432  25.820  1.00  0.00    -0.237 OA
ATOM     63  O   UNL A   1      50.769  26.635  27.911  1.00  0.00    -0.744 OA
ENDBRANCH  57  60
ENDBRANCH  39  53
BRANCH  40  64
ATOM     64  C   UNL A   1      38.689  30.588  31.186  1.00  0.00     0.023 A 
ATOM     65  C   UNL A   1      38.645  30.405  32.582  1.00  0.00     0.012 A 
ATOM     66  C   UNL A   1      37.618  31.241  30.545  1.00  0.00     0.148 A 
ATOM     67  C   UNL A   1      37.545  30.841  33.322  1.00  0.00     0.002 A 
ATOM     68  C   UNL A   1      36.550  31.720  31.294  1.00  0.00     0.091 A 
ATOM     69  F   UNL A   1      37.666  31.381  29.213  1.00  0.00    -0.205 F 
ATOM     70  C   UNL A   1      36.504  31.508  32.681  1.00  0.00     0.022 A 
BRANCH  68  71
ATOM     71  S   UNL A   1      35.236  32.702  30.564  1.00  0.00     0.127 S 
ATOM     72  O   UNL A   1      34.303  32.833  31.681  1.00  0.00    -0.237 OA
ATOM     73  O   UNL A   1      35.939  33.933  30.201  1.00  0.00    -0.237 OA
ATOM     74  O   UNL A   1      34.761  31.929  29.424  1.00  0.00    -0.744 OA
ENDBRANCH  68  71
ENDBRANCH  40  64
BRANCH  52  75
ATOM     75  C   UNL A   1      44.720  33.581  29.328  1.00  0.00     0.023 A 
ATOM     76  C   UNL A   1      45.456  33.819  30.506  1.00  0.00     0.012 A 
ATOM     77  C   UNL A   1      44.614  34.602  28.363  1.00  0.00     0.148 A 
ATOM     78  C   UNL A   1      46.053  35.059  30.732  1.00  0.00     0.002 A 
ATOM     79  C   UNL A   1      45.247  35.822  28.576  1.00  0.00     0.091 A 
ATOM     80  F   UNL A   1      43.892  34.366  27.257  1.00  0.00    -0.205 F 
ATOM     81  C   UNL A   1      45.959  36.055  29.763  1.00  0.00     0.022 A 
BRANCH  79  82
ATOM     82  S   UNL A   1      45.253  37.126  27.339  1.00  0.00     0.127 S 
ATOM     83  O   UNL A   1      45.936  38.207  28.049  1.00  0.00    -0.237 OA
ATOM     84  O   UNL A   1      46.026  36.526  26.252  1.00  0.00    -0.237 OA
ATOM     85  O   UNL A   1      43.853  37.371  27.017  1.00  0.00    -0.744 OA
ENDBRANCH  79  82
ENDBRANCH  52  75
ENDBRANCH  26  27
ENDBRANCH  19  21
ENDBRANCH  18  19
ENDBRANCH  17  18
ENDBRANCH   1  17
TORSDOF 19
ENDMDL
MODEL 2
REMARK VINA RESULT:     -10.1      3.328      5.792
REMARK SMILES CC[C@@H]1CC[C@H]([C@@H](C)C(=O)OCCOCCOC(=O)c2ccc(-c3c4nc(c(-c5cccc(S(=O)(=O)[O-])c5F)c5ccc([nH]5)c(-c5cccc(S(=O)(=O)[O-])c5F)c5nc(c(-c6cccc(S(=O)(=O)[O-])c6F)c6ccc3[nH]6)C=C5)C=C4)cc2)C1
REMARK SMILES IDX 15 1 14 2 13 3 12 4 11 5 9 6 10 7 7 8 8 9 6 10 3 11 4 12
REMARK SMILES IDX 83 13 5 14 2 15 1 16 16 17 17 18 18 19 19 20 20 21 21 22
REMARK SMILES IDX 82 23 22 24 81 25 23 26 24 27 25 28 75 29 26 30 80 31 74 32
REMARK SMILES IDX 76 33 27 34 79 35 73 36 72 37 28 39 60 40 40 41 59 42 41 43
REMARK SMILES IDX 44 44 58 45 77 46 42 47 43 48 57 50 78 51 45 52 29 53 30 54
REMARK SMILES IDX 38 55 31 56 33 57 39 58 32 59 34 60 35 61 36 62 37 63 61 64
REMARK SMILES IDX 62 65 70 66 63 67 65 68 71 69 64 70 66 71 67 72 68 73 69 74
REMARK SMILES IDX 46 75 47 76 55 77 48 78 50 79 56 80 49 81 51 82 52 83 53 84
REMARK SMILES IDX 54 85
REMARK H PARENT 76 38 44 49
REMARK Flexibility Score: inf
ROOT
ATOM      1  C   UNL A   1      39.853  19.800  25.869  1.00  0.00     0.202 C 
ENDROOT
BRANCH   1   2
ATOM      2  O   UNL A   1      41.244  20.121  25.887  1.00  0.00    -0.374 OA
BRANCH   2   3
ATOM      3  C   UNL A   1      42.158  19.032  25.795  1.00  0.00     0.202 C 
BRANCH   3   4
ATOM      4  C   UNL A   1      43.645  19.379  25.666  1.00  0.00     0.261 C 
BRANCH   4   5
ATOM      5  O   UNL A   1      43.946  20.387  24.679  1.00  0.00    -0.463 OA
BRANCH   5   6
ATOM      6  C   UNL A   1      45.099  21.074  24.892  1.00  0.00     0.309 C 
ATOM      7  O   UNL A   1      46.126  20.590  25.361  1.00  0.00    -0.252 OA
BRANCH   6   8
ATOM      8  C   UNL A   1      44.989  22.561  24.592  1.00  0.00     0.099 C 
ATOM      9  C   UNL A   1      46.399  23.052  24.253  1.00  0.00     0.020 C 
BRANCH   8  10
ATOM     10  C   UNL A   1      44.314  23.456  25.653  1.00  0.00     0.003 C 
ATOM     11  C   UNL A   1      43.617  23.571  27.978  1.00  0.00    -0.011 C 
ATOM     12  C   UNL A   1      42.478  22.912  27.213  1.00  0.00     0.004 C 
ATOM     13  C   UNL A   1      44.818  23.252  27.087  1.00  0.00     0.008 C 
ATOM     14  C   UNL A   1      42.791  23.198  25.746  1.00  0.00     0.005 C 
BRANCH  11  15
ATOM     15  C   UNL A   1      43.797  23.060  29.408  1.00  0.00     0.000 C 
ATOM     16  C   UNL A   1      44.148  24.165  30.393  1.00  0.00     0.004 C 
ENDBRANCH  11  15
ENDBRANCH   8  10
ENDBRANCH   6   8
ENDBRANCH   5   6
ENDBRANCH   4   5
ENDBRANCH   3   4
ENDBRANCH   2   3
ENDBRANCH   1   2
BRANCH   1  17
ATOM     17  C   UNL A   1      38.908  20.952  25.510  1.00  0.00     0.261 C 
BRANCH  17  18
ATOM     18  O   UNL A   1      38.920  21.980  26.520  1.00  0.00    -0.460 OA
BRANCH  18  19
ATOM     19  C   UNL A   1      38.427  23.172  26.111  1.00  0.00     0.338 C 
ATOM     20  O   UNL A   1      37.368  23.367  25.530  1.00  0.00    -0.246 OA
BRANCH  19  21
ATOM     21  C   UNL A   1      39.259  24.278  26.618  1.00  0.00     0.060 A 
ATOM     22  C   UNL A   1      39.298  24.464  28.005  1.00  0.00     0.016 A 
ATOM     23  C   UNL A   1      39.887  25.186  25.762  1.00  0.00     0.016 A 
ATOM     24  C   UNL A   1      39.902  25.602  28.539  1.00  0.00     0.010 A 
ATOM     25  C   UNL A   1      40.490  26.330  26.303  1.00  0.00     0.010 A 
ATOM     26  C   UNL A   1      40.455  26.569  27.688  1.00  0.00    -0.014 A 
BRANCH  26  27
ATOM     27  C   UNL A   1      40.842  27.888  28.255  1.00  0.00     0.031 A 
ATOM     28  C   UNL A   1      42.299  28.268  28.296  1.00  0.00     0.074 A 
ATOM     29  C   UNL A   1      39.911  28.759  28.681  1.00  0.00     0.049 A 
ATOM     30  N   UNL A   1      42.849  29.391  28.680  1.00  0.00    -0.248 NA
ATOM     31  C   UNL A   1      43.263  27.253  27.841  1.00  0.00     0.031 C 
ATOM     32  C   UNL A   1      38.470  28.514  28.699  1.00  0.00     0.029 A 
ATOM     33  N   UNL A   1      40.045  30.027  29.194  1.00  0.00    -0.354 N 
ATOM     34  C   UNL A   1      44.220  29.215  28.529  1.00  0.00     0.074 A 
ATOM     35  C   UNL A   1      44.421  27.869  28.037  1.00  0.00     0.031 C 
ATOM     36  C   UNL A   1      37.852  29.592  29.212  1.00  0.00     0.029 A 
ATOM     37  C   UNL A   1      38.852  30.599  29.567  1.00  0.00     0.049 A 
ATOM     38  H   UNL A   1      40.912  30.482  29.284  1.00  0.00     0.167 HD
ATOM     39  C   UNL A   1      45.222  30.098  28.752  1.00  0.00     0.034 A 
ATOM     40  C   UNL A   1      38.596  31.796  30.134  1.00  0.00     0.034 A 
ATOM     41  C   UNL A   1      45.029  31.445  29.214  1.00  0.00     0.049 A 
ATOM     42  C   UNL A   1      39.731  32.755  30.387  1.00  0.00     0.074 A 
ATOM     43  C   UNL A   1      45.982  32.427  29.422  1.00  0.00     0.029 A 
ATOM     44  N   UNL A   1      43.805  31.999  29.549  1.00  0.00    -0.354 N 
ATOM     45  N   UNL A   1      41.004  32.621  30.106  1.00  0.00    -0.248 NA
ATOM     46  C   UNL A   1      39.386  34.047  31.000  1.00  0.00     0.031 C 
ATOM     47  C   UNL A   1      45.333  33.573  29.898  1.00  0.00     0.029 A 
ATOM     48  C   UNL A   1      43.976  33.306  29.973  1.00  0.00     0.049 A 
ATOM     49  H   UNL A   1      42.940  31.532  29.494  1.00  0.00     0.167 HD
ATOM     50  C   UNL A   1      41.607  33.819  30.477  1.00  0.00     0.074 A 
ATOM     51  C   UNL A   1      40.554  34.676  30.982  1.00  0.00     0.031 C 
ATOM     52  C   UNL A   1      42.915  34.171  30.419  1.00  0.00     0.034 A 
BRANCH  39  53
ATOM     53  C   UNL A   1      46.627  29.647  28.453  1.00  0.00     0.023 A 
ATOM     54  C   UNL A   1      47.170  29.883  27.173  1.00  0.00     0.012 A 
ATOM     55  C   UNL A   1      47.426  29.049  29.445  1.00  0.00     0.148 A 
ATOM     56  C   UNL A   1      48.479  29.506  26.878  1.00  0.00     0.002 A 
ATOM     57  C   UNL A   1      48.743  28.709  29.154  1.00  0.00     0.091 A 
ATOM     58  F   UNL A   1      46.883  28.809  30.647  1.00  0.00    -0.205 F 
ATOM     59  C   UNL A   1      49.268  28.930  27.870  1.00  0.00     0.022 A 
BRANCH  57  60
ATOM     60  S   UNL A   1      49.856  28.025  30.388  1.00  0.00     0.127 S 
ATOM     61  O   UNL A   1      49.226  26.737  30.671  1.00  0.00    -0.237 OA
ATOM     62  O   UNL A   1      51.120  27.938  29.653  1.00  0.00    -0.237 OA
ATOM     63  O   UNL A   1      49.863  28.978  31.489  1.00  0.00    -0.744 OA
ENDBRANCH  57  60
ENDBRANCH  39  53
BRANCH  40  64
ATOM     64  C   UNL A   1      37.193  32.178  30.456  1.00  0.00     0.023 A 
ATOM     65  C   UNL A   1      36.692  31.957  31.753  1.00  0.00     0.012 A 
ATOM     66  C   UNL A   1      36.361  32.779  29.491  1.00  0.00     0.148 A 
ATOM     67  C   UNL A   1      35.378  32.303  32.076  1.00  0.00     0.002 A 
ATOM     68  C   UNL A   1      35.072  33.170  29.834  1.00  0.00     0.091 A 
ATOM     69  F   UNL A   1      36.847  32.957  28.255  1.00  0.00    -0.205 F 
ATOM     70  C   UNL A   1      34.573  32.920  31.122  1.00  0.00     0.022 A 
BRANCH  68  71
ATOM     71  S   UNL A   1      34.019  34.085  28.704  1.00  0.00     0.127 S 
ATOM     72  O   UNL A   1      34.937  35.100  28.194  1.00  0.00    -0.237 OA
ATOM     73  O   UNL A   1      33.640  33.055  27.736  1.00  0.00    -0.237 OA
ATOM     74  O   UNL A   1      32.913  34.576  29.515  1.00  0.00    -0.744 OA
ENDBRANCH  68  71
ENDBRANCH  40  64
BRANCH  52  75
ATOM     75  C   UNL A   1      43.293  35.551  30.892  1.00  0.00     0.023 A 
ATOM     76  C   UNL A   1      43.618  35.757  32.248  1.00  0.00     0.012 A 
ATOM     77  C   UNL A   1      43.407  36.623  29.985  1.00  0.00     0.148 A 
ATOM     78  C   UNL A   1      44.023  37.013  32.699  1.00  0.00     0.002 A 
ATOM     79  C   UNL A   1      43.851  37.863  30.434  1.00  0.00     0.091 A 
ATOM     80  F   UNL A   1      43.074  36.415  28.702  1.00  0.00    -0.205 F 
ATOM     81  C   UNL A   1      44.151  38.062  31.791  1.00  0.00     0.022 A 
BRANCH  79  82
ATOM     82  S   UNL A   1      44.131  39.242  29.315  1.00  0.00     0.127 S 
ATOM     83  O   UNL A   1      42.849  39.325  28.618  1.00  0.00    -0.237 OA
ATOM     84  O   UNL A   1      44.396  40.346  30.237  1.00  0.00    -0.237 OA
ATOM     85  O   UNL A   1      45.271  38.859  28.493  1.00  0.00    -0.744 OA
ENDBRANCH  79  82
ENDBRANCH  52  75
ENDBRANCH  26  27
ENDBRANCH  19  21
ENDBRANCH  18  19
ENDBRANCH  17  18
ENDBRANCH   1  17
TORSDOF 19
ENDMDL
MODEL 3
REMARK VINA RESULT:     -10.1      0.950      8.100
REMARK SMILES CC[C@@H]1CC[C@H]([C@@H](C)C(=O)OCCOCCOC(=O)c2ccc(-c3c4nc(c(-c5cccc(S(=O)(=O)[O-])c5F)c5ccc([nH]5)c(-c5cccc(S(=O)(=O)[O-])c5F)c5nc(c(-c6cccc(S(=O)(=O)[O-])c6F)c6ccc3[nH]6)C=C5)C=C4)cc2)C1
REMARK SMILES IDX 15 1 14 2 13 3 12 4 11 5 9 6 10 7 7 8 8 9 6 10 3 11 4 12
REMARK SMILES IDX 83 13 5 14 2 15 1 16 16 17 17 18 18 19 19 20 20 21 21 22
REMARK SMILES IDX 82 23 22 24 81 25 23 26 24 27 25 28 75 29 26 30 80 31 74 32
REMARK SMILES IDX 76 33 27 34 79 35 73 36 72 37 28 39 60 40 40 41 59 42 41 43
REMARK SMILES IDX 44 44 58 45 77 46 42 47 43 48 57 50 78 51 45 52 29 53 30 54
REMARK SMILES IDX 38 55 31 56 33 57 39 58 32 59 34 60 35 61 36 62 37 63 61 64
REMARK SMILES IDX 62 65 70 66 63 67 65 68 71 69 64 70 66 71 67 72 68 73 69 74
REMARK SMILES IDX 46 75 47 76 55 77 48 78 50 79 56 80 49 81 51 82 52 83 53 84
REMARK SMILES IDX 54 85
REMARK H PARENT 76 38 44 49
REMARK Flexibility Score: inf
ROOT
ATOM      1  C   UNL A   1      35.642  20.931  24.629  1.00  0.00     0.202 C 
ENDROOT
BRANCH   1   2
ATOM      2  O   UNL A   1      34.578  21.057  25.572  1.00  0.00    -0.374 OA
BRANCH   2   3
ATOM      3  C   UNL A   1      34.843  21.828  26.742  1.00  0.00     0.202 C 
BRANCH   3   4
ATOM      4  C   UNL A   1      34.221  23.227  26.810  1.00  0.00     0.261 C 
BRANCH   4   5
ATOM      5  O   UNL A   1      32.901  23.329  26.237  1.00  0.00    -0.463 OA
BRANCH   5   6
ATOM      6  C   UNL A   1      32.305  24.542  26.377  1.00  0.00     0.309 C 
ATOM      7  O   UNL A   1      31.417  24.796  27.186  1.00  0.00    -0.252 OA
BRANCH   6   8
ATOM      8  C   UNL A   1      32.763  25.570  25.353  1.00  0.00     0.099 C 
ATOM      9  C   UNL A   1      33.005  26.877  26.113  1.00  0.00     0.020 C 
BRANCH   8  10
ATOM     10  C   UNL A   1      31.872  25.789  24.113  1.00  0.00     0.003 C 
ATOM     11  C   UNL A   1      30.165  27.222  23.143  1.00  0.00    -0.011 C 
ATOM     12  C   UNL A   1      29.437  26.191  23.993  1.00  0.00     0.004 C 
ATOM     13  C   UNL A   1      31.543  27.255  23.804  1.00  0.00     0.008 C 
ATOM     14  C   UNL A   1      30.486  25.116  24.267  1.00  0.00     0.005 C 
BRANCH  11  15
ATOM     15  C   UNL A   1      29.498  28.598  23.110  1.00  0.00     0.000 C 
ATOM     16  C   UNL A   1      30.253  29.642  23.920  1.00  0.00     0.004 C 
ENDBRANCH  11  15
ENDBRANCH   8  10
ENDBRANCH   6   8
ENDBRANCH   5   6
ENDBRANCH   4   5
ENDBRANCH   3   4
ENDBRANCH   2   3
ENDBRANCH   1   2
BRANCH   1  17
ATOM     17  C   UNL A   1      36.917  20.257  25.148  1.00  0.00     0.261 C 
BRANCH  17  18
ATOM     18  O   UNL A   1      38.061  21.123  25.026  1.00  0.00    -0.460 OA
BRANCH  18  19
ATOM     19  C   UNL A   1      39.055  20.865  25.908  1.00  0.00     0.338 C 
ATOM     20  O   UNL A   1      39.625  19.796  26.077  1.00  0.00    -0.246 OA
BRANCH  19  21
ATOM     21  C   UNL A   1      39.516  22.111  26.548  1.00  0.00     0.060 A 
ATOM     22  C   UNL A   1      38.897  23.302  26.148  1.00  0.00     0.016 A 
ATOM     23  C   UNL A   1      40.604  22.135  27.423  1.00  0.00     0.016 A 
ATOM     24  C   UNL A   1      39.413  24.529  26.563  1.00  0.00     0.010 A 
ATOM     25  C   UNL A   1      41.121  23.371  27.835  1.00  0.00     0.010 A 
ATOM     26  C   UNL A   1      40.560  24.573  27.366  1.00  0.00    -0.014 A 
BRANCH  26  27
ATOM     27  C   UNL A   1      41.247  25.876  27.567  1.00  0.00     0.031 A 
ATOM     28  C   UNL A   1      40.529  26.977  28.303  1.00  0.00     0.074 A 
ATOM     29  C   UNL A   1      42.511  26.065  27.147  1.00  0.00     0.049 A 
ATOM     30  N   UNL A   1      40.965  28.161  28.649  1.00  0.00    -0.248 NA
ATOM     31  C   UNL A   1      39.138  26.708  28.705  1.00  0.00     0.031 C 
ATOM     32  C   UNL A   1      43.315  25.085  26.422  1.00  0.00     0.029 A 
ATOM     33  N   UNL A   1      43.334  27.159  27.264  1.00  0.00    -0.354 N 
ATOM     34  C   UNL A   1      39.903  28.783  29.295  1.00  0.00     0.074 A 
ATOM     35  C   UNL A   1      38.793  27.855  29.275  1.00  0.00     0.031 C 
ATOM     36  C   UNL A   1      44.514  25.627  26.144  1.00  0.00     0.029 A 
ATOM     37  C   UNL A   1      44.559  26.994  26.662  1.00  0.00     0.049 A 
ATOM     38  H   UNL A   1      43.072  27.982  27.736  1.00  0.00     0.167 HD
ATOM     39  C   UNL A   1      39.858  30.006  29.877  1.00  0.00     0.034 A 
ATOM     40  C   UNL A   1      45.595  27.848  26.540  1.00  0.00     0.034 A 
ATOM     41  C   UNL A   1      40.964  30.923  29.925  1.00  0.00     0.049 A 
ATOM     42  C   UNL A   1      45.515  29.209  27.184  1.00  0.00     0.074 A 
ATOM     43  C   UNL A   1      41.026  32.163  30.535  1.00  0.00     0.029 A 
ATOM     44  N   UNL A   1      42.198  30.706  29.334  1.00  0.00    -0.354 N 
ATOM     45  N   UNL A   1      44.554  29.724  27.910  1.00  0.00    -0.248 NA
ATOM     46  C   UNL A   1      46.681  30.091  27.021  1.00  0.00     0.031 C 
ATOM     47  C   UNL A   1      42.296  32.704  30.299  1.00  0.00     0.029 A 
ATOM     48  C   UNL A   1      43.027  31.793  29.554  1.00  0.00     0.049 A 
ATOM     49  H   UNL A   1      42.449  29.898  28.831  1.00  0.00     0.167 HD
ATOM     50  C   UNL A   1      45.009  30.974  28.318  1.00  0.00     0.074 A 
ATOM     51  C   UNL A   1      46.343  31.129  27.776  1.00  0.00     0.031 C 
ATOM     52  C   UNL A   1      44.374  31.914  29.060  1.00  0.00     0.034 A 
BRANCH  39  53
ATOM     53  C   UNL A   1      38.576  30.408  30.555  1.00  0.00     0.023 A 
ATOM     54  C   UNL A   1      38.375  30.070  31.908  1.00  0.00     0.012 A 
ATOM     55  C   UNL A   1      37.602  31.166  29.878  1.00  0.00     0.148 A 
ATOM     56  C   UNL A   1      37.212  30.458  32.572  1.00  0.00     0.002 A 
ATOM     57  C   UNL A   1      36.461  31.580  30.557  1.00  0.00     0.091 A 
ATOM     58  F   UNL A   1      37.799  31.455  28.584  1.00  0.00    -0.205 F 
ATOM     59  C   UNL A   1      36.261  31.221  31.900  1.00  0.00     0.022 A 
BRANCH  57  60
ATOM     60  S   UNL A   1      35.213  32.625  29.794  1.00  0.00     0.127 S 
ATOM     61  O   UNL A   1      34.339  32.917  30.929  1.00  0.00    -0.237 OA
ATOM     62  O   UNL A   1      36.004  33.764  29.325  1.00  0.00    -0.237 OA
ATOM     63  O   UNL A   1      34.619  31.824  28.733  1.00  0.00    -0.744 OA
ENDBRANCH  57  60
ENDBRANCH  39  53
BRANCH  40  64
ATOM     64  C   UNL A   1      46.826  27.420  25.819  1.00  0.00     0.023 A 
ATOM     65  C   UNL A   1      46.953  27.686  24.442  1.00  0.00     0.012 A 
ATOM     66  C   UNL A   1      47.879  26.772  26.493  1.00  0.00     0.148 A 
ATOM     67  C   UNL A   1      48.096  27.291  23.744  1.00  0.00     0.002 A 
ATOM     68  C   UNL A   1      49.037  26.429  25.804  1.00  0.00     0.091 A 
ATOM     69  F   UNL A   1      47.729  26.504  27.797  1.00  0.00    -0.205 F 
ATOM     70  C   UNL A   1      49.141  26.674  24.426  1.00  0.00     0.022 A 
BRANCH  68  71
ATOM     71  S   UNL A   1      50.477  25.751  26.634  1.00  0.00     0.127 S 
ATOM     72  O   UNL A   1      50.814  26.820  27.571  1.00  0.00    -0.237 OA
ATOM     73  O   UNL A   1      49.934  24.540  27.250  1.00  0.00    -0.237 OA
ATOM     74  O   UNL A   1      51.450  25.498  25.579  1.00  0.00    -0.744 OA
ENDBRANCH  68  71
ENDBRANCH  40  64
BRANCH  52  75
ATOM     75  C   UNL A   1      45.113  33.194  29.357  1.00  0.00     0.023 A 
ATOM     76  C   UNL A   1      46.021  33.239  30.433  1.00  0.00     0.012 A 
ATOM     77  C   UNL A   1      44.971  34.323  28.525  1.00  0.00     0.148 A 
ATOM     78  C   UNL A   1      46.755  34.396  30.695  1.00  0.00     0.002 A 
ATOM     79  C   UNL A   1      45.738  35.458  28.766  1.00  0.00     0.091 A 
ATOM     80  F   UNL A   1      44.087  34.269  27.517  1.00  0.00    -0.205 F 
ATOM     81  C   UNL A   1      46.622  35.499  29.855  1.00  0.00     0.022 A 
BRANCH  79  82
ATOM     82  S   UNL A   1      45.695  36.890  27.681  1.00  0.00     0.127 S 
ATOM     83  O   UNL A   1      46.122  37.959  28.581  1.00  0.00    -0.237 OA
ATOM     84  O   UNL A   1      46.672  36.534  26.651  1.00  0.00    -0.237 OA
ATOM     85  O   UNL A   1      44.323  36.981  27.200  1.00  0.00    -0.744 OA
ENDBRANCH  79  82
ENDBRANCH  52  75
ENDBRANCH  26  27
ENDBRANCH  19  21
ENDBRANCH  18  19
ENDBRANCH  17  18
ENDBRANCH   1  17
TORSDOF 19
ENDMDL
