MODEL 1
REMARK VINA RESULT:     -11.5      0.000      0.000
REMARK SMILES CCN1C(=O)/C(=C/c2cc([N+](=O)[O-])ccc2O)S/C1=[NH+]\c1ccc(C(=O)OCCOCCOC(=O)c2ccc(-c3c4nc(c(-c5cccc(S(=O)(=O)[O-])c5F)c5ccc([nH]5)c(-c5cccc(S(=O)(=O)[O-])c5F)c5nc(c(-c6cccc(S(=O)(=O)[O-])c6F)c6ccc3[nH]6)C=C5)C=C4)cc2)cc1
REMARK SMILES IDX 30 1 29 2 28 3 27 4 25 5 26 6 24 7 21 8 22 9 100 10 23 11
REMARK SMILES IDX 99 12 20 13 3 14 4 15 19 16 5 17 6 18 18 19 7 20 2 22 1 23
REMARK SMILES IDX 8 24 9 25 16 26 10 27 15 28 14 29 17 30 11 32 12 33 13 34
REMARK SMILES IDX 31 35 32 36 33 37 34 38 35 39 36 40 37 41 98 42 38 43 97 44
REMARK SMILES IDX 39 45 40 46 41 47 91 48 42 49 96 50 90 51 92 52 43 53 95 54
REMARK SMILES IDX 89 55 88 56 44 58 76 59 56 60 75 61 57 62 60 63 74 64 93 65
REMARK SMILES IDX 58 66 59 67 73 69 94 70 61 71 45 72 46 73 54 74 47 75 49 76
REMARK SMILES IDX 55 77 48 78 50 79 51 80 52 81 53 82 77 83 78 84 86 85 79 86
REMARK SMILES IDX 81 87 87 88 80 89 82 90 83 91 84 92 85 93 62 94 63 95 71 96
REMARK SMILES IDX 64 97 66 98 72 99 65 100 67 101 68 102 69 103 70 104
REMARK H PARENT 20 21 17 31 92 57 60 68
REMARK Flexibility Score: inf
ROOT
ATOM      1  O   UNL A   1      43.119  20.904  25.173  1.00  0.00    -0.374 OA
ENDROOT
BRANCH   1   2
ATOM      2  C   UNL A   1      42.231  20.601  26.252  1.00  0.00     0.202 C 
BRANCH   2   3
ATOM      3  C   UNL A   1      41.792  21.791  27.110  1.00  0.00     0.261 C 
BRANCH   3   4
ATOM      4  O   UNL A   1      40.376  21.747  27.355  1.00  0.00    -0.460 OA
BRANCH   4   5
ATOM      5  C   UNL A   1      39.676  22.806  26.892  1.00  0.00     0.338 C 
ATOM      6  O   UNL A   1      40.009  23.983  26.937  1.00  0.00    -0.246 OA
BRANCH   5   7
ATOM      7  C   UNL A   1      38.464  22.351  26.167  1.00  0.00     0.060 A 
ATOM      8  C   UNL A   1      36.055  21.491  25.019  1.00  0.00     0.125 A 
ATOM      9  C   UNL A   1      36.083  22.628  25.829  1.00  0.00     0.052 A 
ATOM     10  C   UNL A   1      37.262  20.863  24.682  1.00  0.00     0.052 A 
ATOM     11  C   UNL A   1      37.277  23.054  26.405  1.00  0.00     0.020 A 
ATOM     12  C   UNL A   1      38.464  21.276  25.270  1.00  0.00     0.020 A 
BRANCH   8  13
ATOM     13  N   UNL A   1      34.800  20.977  24.650  1.00  0.00    -0.234 N 
ATOM     14  N   UNL A   1      32.709  21.379  23.651  1.00  0.00    -0.186 N 
ATOM     15  C   UNL A   1      31.858  22.370  23.194  1.00  0.00     0.348 C 
ATOM     16  C   UNL A   1      33.907  21.793  24.184  1.00  0.00     0.324 C 
ATOM     17  O   UNL A   1      30.779  22.199  22.642  1.00  0.00    -0.240 OA
ATOM     18  C   UNL A   1      32.452  23.711  23.440  1.00  0.00     0.110 C 
ATOM     19  S   UNL A   1      34.026  23.538  24.091  1.00  0.00     0.007 SA
ATOM     20  C   UNL A   1      31.814  24.860  23.179  1.00  0.00     0.036 C 
ATOM     21  H   UNL A   1      34.604  20.017  24.742  1.00  0.00     0.313 HD
BRANCH  14  22
ATOM     22  C   UNL A   1      32.390  19.975  23.433  1.00  0.00     0.244 C 
ATOM     23  C   UNL A   1      32.294  19.180  24.727  1.00  0.00     0.055 C 
ENDBRANCH  14  22
BRANCH  20  24
ATOM     24  C   UNL A   1      32.400  26.195  23.390  1.00  0.00     0.024 A 
ATOM     25  C   UNL A   1      32.010  26.941  24.508  1.00  0.00     0.097 A 
ATOM     26  C   UNL A   1      33.363  26.728  22.516  1.00  0.00     0.123 A 
ATOM     27  C   UNL A   1      32.587  28.200  24.740  1.00  0.00     0.270 A 
ATOM     28  C   UNL A   1      33.949  27.972  22.758  1.00  0.00     0.054 A 
ATOM     29  C   UNL A   1      33.562  28.713  23.874  1.00  0.00     0.089 A 
BRANCH  26  30
ATOM     30  O   UNL A   1      33.730  26.012  21.407  1.00  0.00    -0.507 OA
ATOM     31  H   UNL A   1      33.465  26.300  20.555  1.00  0.00     0.293 HD
ENDBRANCH  26  30
BRANCH  27  32
ATOM     32  N   UNL A   1      32.140  29.003  25.885  1.00  0.00     0.062 N 
ATOM     33  O   UNL A   1      31.868  30.195  25.678  1.00  0.00    -0.258 OA
ATOM     34  O   UNL A   1      32.106  28.451  26.993  1.00  0.00    -0.258 OA
ENDBRANCH  27  32
ENDBRANCH  20  24
ENDBRANCH   8  13
ENDBRANCH   5   7
ENDBRANCH   4   5
ENDBRANCH   3   4
ENDBRANCH   2   3
ENDBRANCH   1   2
BRANCH   1  35
ATOM     35  C   UNL A   1      44.330  21.586  25.504  1.00  0.00     0.202 C 
BRANCH  35  36
ATOM     36  C   UNL A   1      44.931  22.478  24.412  1.00  0.00     0.261 C 
BRANCH  36  37
ATOM     37  O   UNL A   1      44.269  23.752  24.331  1.00  0.00    -0.460 OA
BRANCH  37  38
ATOM     38  C   UNL A   1      44.905  24.755  24.982  1.00  0.00     0.338 C 
ATOM     39  O   UNL A   1      46.023  25.191  24.745  1.00  0.00    -0.246 OA
BRANCH  38  40
ATOM     40  C   UNL A   1      43.994  25.407  25.942  1.00  0.00     0.060 A 
ATOM     41  C   UNL A   1      44.060  26.802  26.031  1.00  0.00     0.016 A 
ATOM     42  C   UNL A   1      43.151  24.681  26.788  1.00  0.00     0.016 A 
ATOM     43  C   UNL A   1      43.336  27.472  27.013  1.00  0.00     0.010 A 
ATOM     44  C   UNL A   1      42.424  25.358  27.776  1.00  0.00     0.010 A 
ATOM     45  C   UNL A   1      42.548  26.751  27.920  1.00  0.00    -0.014 A 
BRANCH  45  46
ATOM     46  C   UNL A   1      41.970  27.466  29.086  1.00  0.00     0.031 A 
ATOM     47  C   UNL A   1      42.734  27.507  30.382  1.00  0.00     0.074 A 
ATOM     48  C   UNL A   1      40.804  28.127  28.971  1.00  0.00     0.049 A 
ATOM     49  N   UNL A   1      42.467  28.170  31.478  1.00  0.00    -0.248 NA
ATOM     50  C   UNL A   1      43.960  26.696  30.454  1.00  0.00     0.031 C 
ATOM     51  C   UNL A   1      39.963  28.151  27.775  1.00  0.00     0.029 A 
ATOM     52  N   UNL A   1      40.128  28.905  29.876  1.00  0.00    -0.354 N 
ATOM     53  C   UNL A   1      43.481  27.849  32.373  1.00  0.00     0.074 A 
ATOM     54  C   UNL A   1      44.355  26.911  31.701  1.00  0.00     0.031 C 
ATOM     55  C   UNL A   1      38.877  28.903  28.023  1.00  0.00     0.029 A 
ATOM     56  C   UNL A   1      38.943  29.407  29.394  1.00  0.00     0.049 A 
ATOM     57  H   UNL A   1      40.460  29.086  30.785  1.00  0.00     0.167 HD
ATOM     58  C   UNL A   1      43.684  28.312  33.630  1.00  0.00     0.034 A 
ATOM     59  C   UNL A   1      38.021  30.190  29.988  1.00  0.00     0.034 A 
ATOM     60  C   UNL A   1      42.827  29.258  34.292  1.00  0.00     0.049 A 
ATOM     61  C   UNL A   1      38.274  30.697  31.383  1.00  0.00     0.074 A 
ATOM     62  C   UNL A   1      42.971  29.821  35.549  1.00  0.00     0.029 A 
ATOM     63  N   UNL A   1      41.657  29.775  33.757  1.00  0.00    -0.354 N 
ATOM     64  N   UNL A   1      39.308  30.495  32.162  1.00  0.00    -0.248 NA
ATOM     65  C   UNL A   1      37.249  31.578  31.964  1.00  0.00     0.031 C 
ATOM     66  C   UNL A   1      41.878  30.664  35.780  1.00  0.00     0.029 A 
ATOM     67  C   UNL A   1      41.065  30.645  34.658  1.00  0.00     0.049 A 
ATOM     68  H   UNL A   1      41.299  29.557  32.866  1.00  0.00     0.167 HD
ATOM     69  C   UNL A   1      39.079  31.251  33.307  1.00  0.00     0.074 A 
ATOM     70  C   UNL A   1      37.818  31.935  33.108  1.00  0.00     0.031 C 
ATOM     71  C   UNL A   1      39.835  31.360  34.428  1.00  0.00     0.034 A 
BRANCH  58  72
ATOM     72  C   UNL A   1      44.910  27.827  34.359  1.00  0.00     0.023 A 
ATOM     73  C   UNL A   1      46.111  28.559  34.260  1.00  0.00     0.012 A 
ATOM     74  C   UNL A   1      44.866  26.681  35.176  1.00  0.00     0.148 A 
ATOM     75  C   UNL A   1      47.257  28.141  34.937  1.00  0.00     0.002 A 
ATOM     76  C   UNL A   1      46.000  26.294  35.882  1.00  0.00     0.091 A 
ATOM     77  F   UNL A   1      43.722  25.983  35.239  1.00  0.00    -0.205 F 
ATOM     78  C   UNL A   1      47.198  27.016  35.755  1.00  0.00     0.022 A 
BRANCH  76  79
ATOM     79  S   UNL A   1      46.002  24.902  37.017  1.00  0.00     0.127 S 
ATOM     80  O   UNL A   1      44.643  24.955  37.551  1.00  0.00    -0.237 OA
ATOM     81  O   UNL A   1      46.261  23.773  36.123  1.00  0.00    -0.237 OA
ATOM     82  O   UNL A   1      47.065  25.171  37.976  1.00  0.00    -0.744 OA
ENDBRANCH  76  79
ENDBRANCH  58  72
BRANCH  59  83
ATOM     83  C   UNL A   1      36.804  30.602  29.235  1.00  0.00     0.023 A 
ATOM     84  C   UNL A   1      36.004  29.624  28.613  1.00  0.00     0.012 A 
ATOM     85  C   UNL A   1      36.424  31.955  29.149  1.00  0.00     0.148 A 
ATOM     86  C   UNL A   1      34.863  29.987  27.897  1.00  0.00     0.002 A 
ATOM     87  C   UNL A   1      35.256  32.306  28.483  1.00  0.00     0.091 A 
ATOM     88  F   UNL A   1      37.209  32.873  29.731  1.00  0.00    -0.205 F 
ATOM     89  C   UNL A   1      34.483  31.325  27.841  1.00  0.00     0.022 A 
BRANCH  87  90
ATOM     90  S   UNL A   1      34.619  33.984  28.479  1.00  0.00     0.127 S 
ATOM     91  O   UNL A   1      35.030  34.462  29.796  1.00  0.00    -0.237 OA
ATOM     92  O   UNL A   1      35.341  34.578  27.353  1.00  0.00    -0.237 OA
ATOM     93  O   UNL A   1      33.184  33.856  28.267  1.00  0.00    -0.744 OA
ENDBRANCH  87  90
ENDBRANCH  59  83
BRANCH  71  94
ATOM     94  C   UNL A   1      39.337  32.274  35.518  1.00  0.00     0.023 A 
ATOM     95  C   UNL A   1      38.409  31.795  36.465  1.00  0.00     0.012 A 
ATOM     96  C   UNL A   1      39.818  33.593  35.633  1.00  0.00     0.148 A 
ATOM     97  C   UNL A   1      37.935  32.627  37.480  1.00  0.00     0.002 A 
ATOM     98  C   UNL A   1      39.379  34.401  36.676  1.00  0.00     0.091 A 
ATOM     99  F   UNL A   1      40.685  34.042  34.713  1.00  0.00    -0.205 F 
ATOM    100  C   UNL A   1      38.427  33.925  37.592  1.00  0.00     0.022 A 
BRANCH  98 101
ATOM    101  S   UNL A   1      40.036  36.052  36.942  1.00  0.00     0.127 S 
ATOM    102  O   UNL A   1      39.322  36.468  38.147  1.00  0.00    -0.237 OA
ATOM    103  O   UNL A   1      41.464  35.796  37.138  1.00  0.00    -0.237 OA
ATOM    104  O   UNL A   1      39.724  36.799  35.731  1.00  0.00    -0.744 OA
ENDBRANCH  98 101
ENDBRANCH  71  94
ENDBRANCH  45  46
ENDBRANCH  38  40
ENDBRANCH  37  38
ENDBRANCH  36  37
ENDBRANCH  35  36
ENDBRANCH   1  35
TORSDOF 22
ENDMDL
MODEL 2
REMARK VINA RESULT:     -11.5      3.818      9.407
REMARK SMILES CCN1C(=O)/C(=C/c2cc([N+](=O)[O-])ccc2O)S/C1=[NH+]\c1ccc(C(=O)OCCOCCOC(=O)c2ccc(-c3c4nc(c(-c5cccc(S(=O)(=O)[O-])c5F)c5ccc([nH]5)c(-c5cccc(S(=O)(=O)[O-])c5F)c5nc(c(-c6cccc(S(=O)(=O)[O-])c6F)c6ccc3[nH]6)C=C5)C=C4)cc2)cc1
REMARK SMILES IDX 30 1 29 2 28 3 27 4 25 5 26 6 24 7 21 8 22 9 100 10 23 11
REMARK SMILES IDX 99 12 20 13 3 14 4 15 19 16 5 17 6 18 18 19 7 20 2 22 1 23
REMARK SMILES IDX 8 24 9 25 16 26 10 27 15 28 14 29 17 30 11 32 12 33 13 34
REMARK SMILES IDX 31 35 32 36 33 37 34 38 35 39 36 40 37 41 98 42 38 43 97 44
REMARK SMILES IDX 39 45 40 46 41 47 91 48 42 49 96 50 90 51 92 52 43 53 95 54
REMARK SMILES IDX 89 55 88 56 44 58 76 59 56 60 75 61 57 62 60 63 74 64 93 65
REMARK SMILES IDX 58 66 59 67 73 69 94 70 61 71 45 72 46 73 54 74 47 75 49 76
REMARK SMILES IDX 55 77 48 78 50 79 51 80 52 81 53 82 77 83 78 84 86 85 79 86
REMARK SMILES IDX 81 87 87 88 80 89 82 90 83 91 84 92 85 93 62 94 63 95 71 96
REMARK SMILES IDX 64 97 66 98 72 99 65 100 67 101 68 102 69 103 70 104
REMARK H PARENT 20 21 17 31 92 57 60 68
REMARK Flexibility Score: inf
ROOT
ATOM      1  O   UNL A   1      35.811  32.813  28.135  1.00  0.00    -0.374 OA
ENDROOT
BRANCH   1   2
ATOM      2  C   UNL A   1      35.394  31.458  28.321  1.00  0.00     0.202 C 
BRANCH   2   3
ATOM      3  C   UNL A   1      36.076  30.700  29.464  1.00  0.00     0.261 C 
BRANCH   3   4
ATOM      4  O   UNL A   1      36.733  29.520  28.972  1.00  0.00    -0.460 OA
BRANCH   4   5
ATOM      5  C   UNL A   1      37.973  29.714  28.471  1.00  0.00     0.338 C 
ATOM      6  O   UNL A   1      38.453  30.775  28.092  1.00  0.00    -0.246 OA
BRANCH   5   7
ATOM      7  C   UNL A   1      38.773  28.468  28.564  1.00  0.00     0.060 A 
ATOM      8  C   UNL A   1      40.218  26.067  28.500  1.00  0.00     0.125 A 
ATOM      9  C   UNL A   1      40.421  27.037  27.517  1.00  0.00     0.052 A 
ATOM     10  C   UNL A   1      39.383  26.360  29.588  1.00  0.00     0.052 A 
ATOM     11  C   UNL A   1      39.700  28.229  27.543  1.00  0.00     0.020 A 
ATOM     12  C   UNL A   1      38.643  27.549  29.612  1.00  0.00     0.020 A 
BRANCH   8  13
ATOM     13  N   UNL A   1      40.797  24.802  28.305  1.00  0.00    -0.234 N 
ATOM     14  N   UNL A   1      40.738  22.750  27.158  1.00  0.00    -0.186 N 
ATOM     15  C   UNL A   1      39.966  21.947  26.336  1.00  0.00     0.348 C 
ATOM     16  C   UNL A   1      40.189  23.951  27.540  1.00  0.00     0.324 C 
ATOM     17  O   UNL A   1      40.300  20.875  25.850  1.00  0.00    -0.240 OA
ATOM     18  C   UNL A   1      38.647  22.587  26.087  1.00  0.00     0.110 C 
ATOM     19  S   UNL A   1      38.608  24.140  26.809  1.00  0.00     0.007 SA
ATOM     20  C   UNL A   1      37.659  22.000  25.396  1.00  0.00     0.036 C 
ATOM     21  H   UNL A   1      41.649  24.567  28.740  1.00  0.00     0.313 HD
BRANCH  14  22
ATOM     22  C   UNL A   1      42.113  22.382  27.466  1.00  0.00     0.244 C 
ATOM     23  C   UNL A   1      43.110  22.900  26.440  1.00  0.00     0.055 C 
ENDBRANCH  14  22
BRANCH  20  24
ATOM     24  C   UNL A   1      36.359  22.632  25.116  1.00  0.00     0.024 A 
ATOM     25  C   UNL A   1      35.375  22.635  26.112  1.00  0.00     0.097 A 
ATOM     26  C   UNL A   1      36.089  23.260  23.888  1.00  0.00     0.123 A 
ATOM     27  C   UNL A   1      34.144  23.266  25.871  1.00  0.00     0.270 A 
ATOM     28  C   UNL A   1      34.871  23.902  23.656  1.00  0.00     0.054 A 
ATOM     29  C   UNL A   1      33.893  23.908  24.650  1.00  0.00     0.089 A 
BRANCH  26  30
ATOM     30  O   UNL A   1      37.039  23.239  22.902  1.00  0.00    -0.507 OA
ATOM     31  H   UNL A   1      37.331  22.420  22.550  1.00  0.00     0.293 HD
ENDBRANCH  26  30
BRANCH  27  32
ATOM     32  N   UNL A   1      33.095  23.224  26.898  1.00  0.00     0.062 N 
ATOM     33  O   UNL A   1      33.331  22.584  27.933  1.00  0.00    -0.258 OA
ATOM     34  O   UNL A   1      32.025  23.793  26.645  1.00  0.00    -0.258 OA
ENDBRANCH  27  32
ENDBRANCH  20  24
ENDBRANCH   8  13
ENDBRANCH   5   7
ENDBRANCH   4   5
ENDBRANCH   3   4
ENDBRANCH   2   3
ENDBRANCH   1   2
BRANCH   1  35
ATOM     35  C   UNL A   1      34.799  33.759  27.784  1.00  0.00     0.202 C 
BRANCH  35  36
ATOM     36  C   UNL A   1      33.635  33.911  28.769  1.00  0.00     0.261 C 
BRANCH  36  37
ATOM     37  O   UNL A   1      33.795  35.058  29.621  1.00  0.00    -0.460 OA
BRANCH  37  38
ATOM     38  C   UNL A   1      33.683  34.793  30.944  1.00  0.00     0.338 C 
ATOM     39  O   UNL A   1      32.676  34.896  31.631  1.00  0.00    -0.246 OA
BRANCH  38  40
ATOM     40  C   UNL A   1      34.923  34.180  31.455  1.00  0.00     0.060 A 
ATOM     41  C   UNL A   1      34.784  33.034  32.247  1.00  0.00     0.016 A 
ATOM     42  C   UNL A   1      36.184  34.741  31.235  1.00  0.00     0.016 A 
ATOM     43  C   UNL A   1      35.896  32.486  32.880  1.00  0.00     0.010 A 
ATOM     44  C   UNL A   1      37.302  34.187  31.874  1.00  0.00     0.010 A 
ATOM     45  C   UNL A   1      37.155  33.084  32.734  1.00  0.00    -0.014 A 
BRANCH  45  46
ATOM     46  C   UNL A   1      38.271  32.614  33.593  1.00  0.00     0.031 A 
ATOM     47  C   UNL A   1      39.370  31.782  32.989  1.00  0.00     0.074 A 
ATOM     48  C   UNL A   1      38.335  32.978  34.886  1.00  0.00     0.049 A 
ATOM     49  N   UNL A   1      40.487  31.371  33.530  1.00  0.00    -0.248 NA
ATOM     50  C   UNL A   1      39.189  31.360  31.591  1.00  0.00     0.031 C 
ATOM     51  C   UNL A   1      37.326  33.767  35.591  1.00  0.00     0.029 A 
ATOM     52  N   UNL A   1      39.294  32.729  35.835  1.00  0.00    -0.354 N 
ATOM     53  C   UNL A   1      41.138  30.633  32.548  1.00  0.00     0.074 A 
ATOM     54  C   UNL A   1      40.276  30.630  31.385  1.00  0.00     0.031 C 
ATOM     55  C   UNL A   1      37.717  33.932  36.867  1.00  0.00     0.029 A 
ATOM     56  C   UNL A   1      38.999  33.258  37.069  1.00  0.00     0.049 A 
ATOM     57  H   UNL A   1      40.115  32.219  35.649  1.00  0.00     0.167 HD
ATOM     58  C   UNL A   1      42.351  30.033  32.598  1.00  0.00     0.034 A 
ATOM     59  C   UNL A   1      39.687  33.210  38.226  1.00  0.00     0.034 A 
ATOM     60  C   UNL A   1      43.215  30.051  33.748  1.00  0.00     0.049 A 
ATOM     61  C   UNL A   1      41.037  32.543  38.253  1.00  0.00     0.074 A 
ATOM     62  C   UNL A   1      44.483  29.509  33.882  1.00  0.00     0.029 A 
ATOM     63  N   UNL A   1      42.899  30.631  34.966  1.00  0.00    -0.354 N 
ATOM     64  N   UNL A   1      41.698  31.972  37.276  1.00  0.00    -0.248 NA
ATOM     65  C   UNL A   1      41.756  32.556  39.536  1.00  0.00     0.031 C 
ATOM     66  C   UNL A   1      44.925  29.747  35.189  1.00  0.00     0.029 A 
ATOM     67  C   UNL A   1      43.943  30.457  35.861  1.00  0.00     0.049 A 
ATOM     68  H   UNL A   1      42.057  31.099  35.167  1.00  0.00     0.167 HD
ATOM     69  C   UNL A   1      42.923  31.591  37.813  1.00  0.00     0.074 A 
ATOM     70  C   UNL A   1      42.922  32.020  39.197  1.00  0.00     0.031 C 
ATOM     71  C   UNL A   1      43.951  30.933  37.221  1.00  0.00     0.034 A 
BRANCH  58  72
ATOM     72  C   UNL A   1      42.834  29.337  31.351  1.00  0.00     0.023 A 
ATOM     73  C   UNL A   1      42.626  27.950  31.206  1.00  0.00     0.012 A 
ATOM     74  C   UNL A   1      43.446  30.057  30.308  1.00  0.00     0.148 A 
ATOM     75  C   UNL A   1      43.049  27.284  30.056  1.00  0.00     0.002 A 
ATOM     76  C   UNL A   1      43.827  29.394  29.147  1.00  0.00     0.091 A 
ATOM     77  F   UNL A   1      43.659  31.370  30.474  1.00  0.00    -0.205 F 
ATOM     78  C   UNL A   1      43.639  28.007  29.023  1.00  0.00     0.022 A 
BRANCH  76  79
ATOM     79  S   UNL A   1      44.529  30.251  27.732  1.00  0.00     0.127 S 
ATOM     80  O   UNL A   1      45.935  30.353  28.116  1.00  0.00    -0.237 OA
ATOM     81  O   UNL A   1      44.263  29.313  26.639  1.00  0.00    -0.237 OA
ATOM     82  O   UNL A   1      43.810  31.513  27.633  1.00  0.00    -0.744 OA
ENDBRANCH  76  79
ENDBRANCH  58  72
BRANCH  59  83
ATOM     83  C   UNL A   1      39.140  33.876  39.440  1.00  0.00     0.023 A 
ATOM     84  C   UNL A   1      39.504  35.205  39.731  1.00  0.00     0.012 A 
ATOM     85  C   UNL A   1      38.243  33.208  40.296  1.00  0.00     0.148 A 
ATOM     86  C   UNL A   1      39.009  35.847  40.866  1.00  0.00     0.002 A 
ATOM     87  C   UNL A   1      37.708  33.872  41.394  1.00  0.00     0.091 A 
ATOM     88  F   UNL A   1      37.923  31.937  40.013  1.00  0.00    -0.205 F 
ATOM     89  C   UNL A   1      38.104  35.186  41.691  1.00  0.00     0.022 A 
BRANCH  87  90
ATOM     90  S   UNL A   1      36.434  33.145  42.428  1.00  0.00     0.127 S 
ATOM     91  O   UNL A   1      36.109  34.251  43.324  1.00  0.00    -0.237 OA
ATOM     92  O   UNL A   1      35.398  32.820  41.447  1.00  0.00    -0.237 OA
ATOM     93  O   UNL A   1      37.052  31.983  43.050  1.00  0.00    -0.744 OA
ENDBRANCH  87  90
ENDBRANCH  59  83
BRANCH  71  94
ATOM     94  C   UNL A   1      45.176  30.661  38.056  1.00  0.00     0.023 A 
ATOM     95  C   UNL A   1      45.314  29.422  38.715  1.00  0.00     0.012 A 
ATOM     96  C   UNL A   1      46.211  31.611  38.155  1.00  0.00     0.148 A 
ATOM     97  C   UNL A   1      46.440  29.152  39.493  1.00  0.00     0.002 A 
ATOM     98  C   UNL A   1      47.352  31.317  38.892  1.00  0.00     0.091 A 
ATOM     99  F   UNL A   1      46.057  32.794  37.541  1.00  0.00    -0.205 F 
ATOM    100  C   UNL A   1      47.463  30.094  39.573  1.00  0.00     0.022 A 
BRANCH  98 101
ATOM    101  S   UNL A   1      48.753  32.440  38.967  1.00  0.00     0.127 S 
ATOM    102  O   UNL A   1      49.691  31.694  39.803  1.00  0.00    -0.237 OA
ATOM    103  O   UNL A   1      49.145  32.550  37.560  1.00  0.00    -0.237 OA
ATOM    104  O   UNL A   1      48.236  33.675  39.541  1.00  0.00    -0.744 OA
ENDBRANCH  98 101
ENDBRANCH  71  94
ENDBRANCH  45  46
ENDBRANCH  38  40
ENDBRANCH  37  38
ENDBRANCH  36  37
ENDBRANCH  35  36
ENDBRANCH   1  35
TORSDOF 22
ENDMDL
MODEL 3
REMARK VINA RESULT:     -11.3      5.091     10.194
REMARK SMILES CCN1C(=O)/C(=C/c2cc([N+](=O)[O-])ccc2O)S/C1=[NH+]\c1ccc(C(=O)OCCOCCOC(=O)c2ccc(-c3c4nc(c(-c5cccc(S(=O)(=O)[O-])c5F)c5ccc([nH]5)c(-c5cccc(S(=O)(=O)[O-])c5F)c5nc(c(-c6cccc(S(=O)(=O)[O-])c6F)c6ccc3[nH]6)C=C5)C=C4)cc2)cc1
REMARK SMILES IDX 30 1 29 2 28 3 27 4 25 5 26 6 24 7 21 8 22 9 100 10 23 11
REMARK SMILES IDX 99 12 20 13 3 14 4 15 19 16 5 17 6 18 18 19 7 20 2 22 1 23
REMARK SMILES IDX 8 24 9 25 16 26 10 27 15 28 14 29 17 30 11 32 12 33 13 34
REMARK SMILES IDX 31 35 32 36 33 37 34 38 35 39 36 40 37 41 98 42 38 43 97 44
REMARK SMILES IDX 39 45 40 46 41 47 91 48 42 49 96 50 90 51 92 52 43 53 95 54
REMARK SMILES IDX 89 55 88 56 44 58 76 59 56 60 75 61 57 62 60 63 74 64 93 65
REMARK SMILES IDX 58 66 59 67 73 69 94 70 61 71 45 72 46 73 54 74 47 75 49 76
REMARK SMILES IDX 55 77 48 78 50 79 51 80 52 81 53 82 77 83 78 84 86 85 79 86
REMARK SMILES IDX 81 87 87 88 80 89 82 90 83 91 84 92 85 93 62 94 63 95 71 96
REMARK SMILES IDX 64 97 66 98 72 99 65 100 67 101 68 102 69 103 70 104
REMARK H PARENT 20 21 17 31 92 57 60 68
REMARK Flexibility Score: inf
ROOT
ATOM      1  O   UNL A   1      36.836  21.589  25.922  1.00  0.00    -0.374 OA
ENDROOT
BRANCH   1   2
ATOM      2  C   UNL A   1      35.837  20.794  25.277  1.00  0.00     0.202 C 
BRANCH   2   3
ATOM      3  C   UNL A   1      34.940  21.530  24.278  1.00  0.00     0.261 C 
BRANCH   3   4
ATOM      4  O   UNL A   1      33.972  22.340  24.966  1.00  0.00    -0.460 OA
BRANCH   4   5
ATOM      5  C   UNL A   1      33.092  22.990  24.172  1.00  0.00     0.338 C 
ATOM      6  O   UNL A   1      32.359  22.491  23.327  1.00  0.00    -0.246 OA
BRANCH   5   7
ATOM      7  C   UNL A   1      33.011  24.423  24.548  1.00  0.00     0.060 A 
ATOM      8  C   UNL A   1      32.615  27.089  25.316  1.00  0.00     0.125 A 
ATOM      9  C   UNL A   1      32.260  26.049  26.176  1.00  0.00     0.052 A 
ATOM     10  C   UNL A   1      33.288  26.791  24.123  1.00  0.00     0.052 A 
ATOM     11  C   UNL A   1      32.451  24.723  25.795  1.00  0.00     0.020 A 
ATOM     12  C   UNL A   1      33.469  25.460  23.727  1.00  0.00     0.020 A 
BRANCH   8  13
ATOM     13  N   UNL A   1      32.198  28.390  25.649  1.00  0.00    -0.234 N 
ATOM     14  N   UNL A   1      32.768  30.482  26.560  1.00  0.00    -0.186 N 
ATOM     15  C   UNL A   1      33.728  31.163  27.287  1.00  0.00     0.348 C 
ATOM     16  C   UNL A   1      33.008  29.151  26.316  1.00  0.00     0.324 C 
ATOM     17  O   UNL A   1      33.719  32.357  27.557  1.00  0.00    -0.240 OA
ATOM     18  C   UNL A   1      34.821  30.238  27.687  1.00  0.00     0.110 C 
ATOM     19  S   UNL A   1      34.554  28.692  27.001  1.00  0.00     0.007 SA
ATOM     20  C   UNL A   1      35.845  30.600  28.473  1.00  0.00     0.036 C 
ATOM     21  H   UNL A   1      31.309  28.716  25.380  1.00  0.00     0.313 HD
BRANCH  14  22
ATOM     22  C   UNL A   1      31.643  31.197  25.972  1.00  0.00     0.244 C 
ATOM     23  C   UNL A   1      31.104  32.298  26.871  1.00  0.00     0.055 C 
ENDBRANCH  14  22
BRANCH  20  24
ATOM     24  C   UNL A   1      36.949  29.704  28.854  1.00  0.00     0.024 A 
ATOM     25  C   UNL A   1      37.927  29.385  27.903  1.00  0.00     0.097 A 
ATOM     26  C   UNL A   1      37.066  29.182  30.154  1.00  0.00     0.123 A 
ATOM     27  C   UNL A   1      39.005  28.560  28.264  1.00  0.00     0.270 A 
ATOM     28  C   UNL A   1      38.148  28.377  30.515  1.00  0.00     0.054 A 
ATOM     29  C   UNL A   1      39.123  28.063  29.569  1.00  0.00     0.089 A 
BRANCH  26  30
ATOM     30  O   UNL A   1      36.100  29.471  31.080  1.00  0.00    -0.507 OA
ATOM     31  H   UNL A   1      36.211  29.203  31.972  1.00  0.00     0.293 HD
ENDBRANCH  26  30
BRANCH  27  32
ATOM     32  N   UNL A   1      40.001  28.186  27.252  1.00  0.00     0.062 N 
ATOM     33  O   UNL A   1      40.015  27.007  26.870  1.00  0.00    -0.258 OA
ATOM     34  O   UNL A   1      40.794  29.061  26.879  1.00  0.00    -0.258 OA
ENDBRANCH  27  32
ENDBRANCH  20  24
ENDBRANCH   8  13
ENDBRANCH   5   7
ENDBRANCH   4   5
ENDBRANCH   3   4
ENDBRANCH   2   3
ENDBRANCH   1   2
BRANCH   1  35
ATOM     35  C   UNL A   1      38.184  21.415  25.483  1.00  0.00     0.202 C 
BRANCH  35  36
ATOM     36  C   UNL A   1      39.262  22.160  26.277  1.00  0.00     0.261 C 
BRANCH  36  37
ATOM     37  O   UNL A   1      40.072  21.265  27.058  1.00  0.00    -0.460 OA
BRANCH  37  38
ATOM     38  C   UNL A   1      41.234  20.899  26.466  1.00  0.00     0.338 C 
ATOM     39  O   UNL A   1      41.439  19.881  25.819  1.00  0.00    -0.246 OA
BRANCH  38  40
ATOM     40  C   UNL A   1      42.221  21.991  26.547  1.00  0.00     0.060 A 
ATOM     41  C   UNL A   1      42.879  22.162  27.771  1.00  0.00     0.016 A 
ATOM     42  C   UNL A   1      42.452  22.875  25.489  1.00  0.00     0.016 A 
ATOM     43  C   UNL A   1      43.715  23.257  27.965  1.00  0.00     0.010 A 
ATOM     44  C   UNL A   1      43.295  23.977  25.688  1.00  0.00     0.010 A 
ATOM     45  C   UNL A   1      43.894  24.196  26.940  1.00  0.00    -0.014 A 
BRANCH  45  46
ATOM     46  C   UNL A   1      44.607  25.461  27.250  1.00  0.00     0.031 A 
ATOM     47  C   UNL A   1      44.001  26.434  28.225  1.00  0.00     0.074 A 
ATOM     48  C   UNL A   1      45.816  25.711  26.714  1.00  0.00     0.049 A 
ATOM     49  N   UNL A   1      44.509  27.532  28.720  1.00  0.00    -0.248 NA
ATOM     50  C   UNL A   1      42.644  26.128  28.707  1.00  0.00     0.031 C 
ATOM     51  C   UNL A   1      46.502  24.857  25.746  1.00  0.00     0.029 A 
ATOM     52  N   UNL A   1      46.678  26.759  26.910  1.00  0.00    -0.354 N 
ATOM     53  C   UNL A   1      43.534  28.057  29.562  1.00  0.00     0.074 A 
ATOM     54  C   UNL A   1      42.393  27.169  29.489  1.00  0.00     0.031 C 
ATOM     55  C   UNL A   1      47.680  25.420  25.427  1.00  0.00     0.029 A 
ATOM     56  C   UNL A   1      47.828  26.675  26.163  1.00  0.00     0.049 A 
ATOM     57  H   UNL A   1      46.490  27.503  27.528  1.00  0.00     0.167 HD
ATOM     58  C   UNL A   1      43.591  29.161  30.344  1.00  0.00     0.034 A 
ATOM     59  C   UNL A   1      48.883  27.510  26.086  1.00  0.00     0.034 A 
ATOM     60  C   UNL A   1      44.731  30.033  30.431  1.00  0.00     0.049 A 
ATOM     61  C   UNL A   1      48.924  28.727  26.972  1.00  0.00     0.074 A 
ATOM     62  C   UNL A   1      44.901  31.153  31.228  1.00  0.00     0.029 A 
ATOM     63  N   UNL A   1      45.893  29.892  29.689  1.00  0.00    -0.354 N 
ATOM     64  N   UNL A   1      48.054  29.131  27.865  1.00  0.00    -0.248 NA
ATOM     65  C   UNL A   1      50.119  29.580  26.870  1.00  0.00     0.031 C 
ATOM     66  C   UNL A   1      46.160  31.699  30.953  1.00  0.00     0.029 A 
ATOM     67  C   UNL A   1      46.783  30.906  30.003  1.00  0.00     0.049 A 
ATOM     68  H   UNL A   1      46.062  29.177  29.036  1.00  0.00     0.167 HD
ATOM     69  C   UNL A   1      48.609  30.260  28.458  1.00  0.00     0.074 A 
ATOM     70  C   UNL A   1      49.903  30.461  27.839  1.00  0.00     0.031 C 
ATOM     71  C   UNL A   1      48.090  31.067  29.417  1.00  0.00     0.034 A 
BRANCH  58  72
ATOM     72  C   UNL A   1      42.391  29.465  31.204  1.00  0.00     0.023 A 
ATOM     73  C   UNL A   1      42.197  28.748  32.402  1.00  0.00     0.012 A 
ATOM     74  C   UNL A   1      41.486  30.486  30.856  1.00  0.00     0.148 A 
ATOM     75  C   UNL A   1      41.103  29.019  33.224  1.00  0.00     0.002 A 
ATOM     76  C   UNL A   1      40.422  30.780  31.701  1.00  0.00     0.091 A 
ATOM     77  F   UNL A   1      41.673  31.140  29.701  1.00  0.00    -0.205 F 
ATOM     78  C   UNL A   1      40.223  30.041  32.879  1.00  0.00     0.022 A 
BRANCH  76  79
ATOM     79  S   UNL A   1      39.277  32.126  31.379  1.00  0.00     0.127 S 
ATOM     80  O   UNL A   1      38.160  31.780  32.257  1.00  0.00    -0.237 OA
ATOM     81  O   UNL A   1      40.047  33.296  31.806  1.00  0.00    -0.237 OA
ATOM     82  O   UNL A   1      38.993  32.077  29.952  1.00  0.00    -0.744 OA
ENDBRANCH  76  79
ENDBRANCH  58  72
BRANCH  59  83
ATOM     83  C   UNL A   1      50.022  27.182  25.184  1.00  0.00     0.023 A 
ATOM     84  C   UNL A   1      50.019  27.654  23.857  1.00  0.00     0.012 A 
ATOM     85  C   UNL A   1      51.118  26.425  25.641  1.00  0.00     0.148 A 
ATOM     86  C   UNL A   1      51.072  27.354  22.993  1.00  0.00     0.002 A 
ATOM     87  C   UNL A   1      52.190  26.178  24.793  1.00  0.00     0.091 A 
ATOM     88  F   UNL A   1      51.093  25.969  26.901  1.00  0.00    -0.205 F 
ATOM     89  C   UNL A   1      52.162  26.627  23.463  1.00  0.00     0.022 A 
BRANCH  87  90
ATOM     90  S   UNL A   1      53.692  25.370  25.354  1.00  0.00     0.127 S 
ATOM     91  O   UNL A   1      53.237  23.997  25.549  1.00  0.00    -0.237 OA
ATOM     92  O   UNL A   1      54.586  25.569  24.213  1.00  0.00    -0.237 OA
ATOM     93  O   UNL A   1      54.092  26.085  26.558  1.00  0.00    -0.744 OA
ENDBRANCH  87  90
ENDBRANCH  59  83
BRANCH  71  94
ATOM     94  C   UNL A   1      48.933  32.227  29.881  1.00  0.00     0.023 A 
ATOM     95  C   UNL A   1      49.798  32.069  30.983  1.00  0.00     0.012 A 
ATOM     96  C   UNL A   1      48.906  33.461  29.200  1.00  0.00     0.148 A 
ATOM     97  C   UNL A   1      50.585  33.131  31.428  1.00  0.00     0.002 A 
ATOM     98  C   UNL A   1      49.729  34.499  29.619  1.00  0.00     0.091 A 
ATOM     99  F   UNL A   1      48.064  33.604  28.166  1.00  0.00    -0.205 F 
ATOM    100  C   UNL A   1      50.559  34.342  30.741  1.00  0.00     0.022 A 
BRANCH  98 101
ATOM    101  S   UNL A   1      49.821  36.058  28.728  1.00  0.00     0.127 S 
ATOM    102  O   UNL A   1      48.639  36.758  29.226  1.00  0.00    -0.237 OA
ATOM    103  O   UNL A   1      51.096  36.611  29.190  1.00  0.00    -0.237 OA
ATOM    104  O   UNL A   1      49.800  35.704  27.316  1.00  0.00    -0.744 OA
ENDBRANCH  98 101
ENDBRANCH  71  94
ENDBRANCH  45  46
ENDBRANCH  38  40
ENDBRANCH  37  38
ENDBRANCH  36  37
ENDBRANCH  35  36
ENDBRANCH   1  35
TORSDOF 22
ENDMDL
