MODEL 1
REMARK VINA RESULT:     -11.2      0.000      0.000
REMARK SMILES C[C@@H]1CCC[C@@](Cc2ncccn2)(C(=O)OCCOCCOC(=O)c2ccc(-c3c4nc(c(-c5cccc(S(=O)(=O)[O-])c5F)c5ccc([nH]5)c(-c5cccc(S(=O)(=O)[O-])c5F)c5nc(c(-c6cccc(S(=O)(=O)[O-])c6F)c6ccc3[nH]6)C=C5)C=C4)cc2)C1
REMARK SMILES IDX 20 1 19 2 18 3 17 4 16 5 14 6 15 7 6 8 1 9 2 10 3 11 88 12
REMARK SMILES IDX 4 13 5 14 7 15 8 16 9 17 13 18 10 19 12 20 11 21 21 22 22 23
REMARK SMILES IDX 23 24 24 25 25 26 26 27 87 28 27 29 86 30 28 31 29 32 30 33
REMARK SMILES IDX 80 34 31 35 85 36 79 37 81 38 32 39 84 40 78 41 77 42 33 44
REMARK SMILES IDX 65 45 45 46 64 47 46 48 49 49 63 50 82 51 47 52 48 53 62 55
REMARK SMILES IDX 83 56 50 57 34 58 35 59 43 60 36 61 38 62 44 63 37 64 39 65
REMARK SMILES IDX 40 66 41 67 42 68 66 69 67 70 75 71 68 72 70 73 76 74 69 75
REMARK SMILES IDX 71 76 72 77 73 78 74 79 51 80 52 81 60 82 53 83 55 84 61 85
REMARK SMILES IDX 54 86 56 87 57 88 58 89 59 90
REMARK H PARENT 81 43 49 54
REMARK Flexibility Score: inf
ROOT
ATOM      1  C   UNL A   1      35.721  20.357  25.002  1.00  0.00     0.202 C 
ENDROOT
BRANCH   1   2
ATOM      2  O   UNL A   1      35.372  21.623  24.442  1.00  0.00    -0.374 OA
BRANCH   2   3
ATOM      3  C   UNL A   1      35.045  22.677  25.344  1.00  0.00     0.202 C 
BRANCH   3   4
ATOM      4  C   UNL A   1      35.589  24.077  25.035  1.00  0.00     0.261 C 
BRANCH   4   5
ATOM      5  O   UNL A   1      34.721  25.136  25.464  1.00  0.00    -0.463 OA
BRANCH   5   6
ATOM      6  C   UNL A   1      34.068  25.780  24.461  1.00  0.00     0.312 C 
ATOM      7  O   UNL A   1      34.121  25.454  23.277  1.00  0.00    -0.252 OA
BRANCH   6   8
ATOM      8  C   UNL A   1      33.215  26.969  24.935  1.00  0.00     0.075 C 
ATOM      9  C   UNL A   1      31.617  28.220  27.673  1.00  0.00     0.007 C 
ATOM     10  C   UNL A   1      33.056  28.372  27.177  1.00  0.00    -0.013 C 
ATOM     11  C   UNL A   1      33.252  29.651  26.355  1.00  0.00     0.003 C 
ATOM     12  C   UNL A   1      33.576  27.126  26.444  1.00  0.00     0.022 C 
ATOM     13  C   UNL A   1      32.835  29.501  24.895  1.00  0.00     0.001 C 
ATOM     14  C   UNL A   1      33.531  28.310  24.232  1.00  0.00     0.019 C 
BRANCH   8  15
ATOM     15  C   UNL A   1      31.746  26.520  24.729  1.00  0.00     0.096 C 
BRANCH  15  16
ATOM     16  C   UNL A   1      31.466  25.116  25.209  1.00  0.00     0.129 A 
ATOM     17  N   UNL A   1      31.279  24.170  24.268  1.00  0.00    -0.241 NA
ATOM     18  N   UNL A   1      31.484  24.886  26.535  1.00  0.00    -0.241 NA
ATOM     19  C   UNL A   1      31.082  22.913  24.716  1.00  0.00     0.115 A 
ATOM     20  C   UNL A   1      31.293  23.608  26.922  1.00  0.00     0.115 A 
ATOM     21  C   UNL A   1      31.085  22.570  26.047  1.00  0.00     0.040 A 
ENDBRANCH  15  16
ENDBRANCH   8  15
ENDBRANCH   6   8
ENDBRANCH   5   6
ENDBRANCH   4   5
ENDBRANCH   3   4
ENDBRANCH   2   3
ENDBRANCH   1   2
BRANCH   1  22
ATOM     22  C   UNL A   1      37.203  19.954  24.981  1.00  0.00     0.261 C 
BRANCH  22  23
ATOM     23  O   UNL A   1      38.102  21.071  25.121  1.00  0.00    -0.460 OA
BRANCH  23  24
ATOM     24  C   UNL A   1      39.174  20.840  25.915  1.00  0.00     0.338 C 
ATOM     25  O   UNL A   1      39.813  19.794  26.003  1.00  0.00    -0.246 OA
BRANCH  24  26
ATOM     26  C   UNL A   1      39.623  22.074  26.579  1.00  0.00     0.060 A 
ATOM     27  C   UNL A   1      39.048  23.284  26.165  1.00  0.00     0.016 A 
ATOM     28  C   UNL A   1      40.689  22.069  27.481  1.00  0.00     0.016 A 
ATOM     29  C   UNL A   1      39.573  24.496  26.610  1.00  0.00     0.010 A 
ATOM     30  C   UNL A   1      41.220  23.289  27.919  1.00  0.00     0.010 A 
ATOM     31  C   UNL A   1      40.691  24.507  27.453  1.00  0.00    -0.014 A 
BRANCH  31  32
ATOM     32  C   UNL A   1      41.386  25.790  27.729  1.00  0.00     0.031 A 
ATOM     33  C   UNL A   1      40.655  26.882  28.465  1.00  0.00     0.074 A 
ATOM     34  C   UNL A   1      42.662  25.976  27.347  1.00  0.00     0.049 A 
ATOM     35  N   UNL A   1      41.072  28.073  28.804  1.00  0.00    -0.248 NA
ATOM     36  C   UNL A   1      39.269  26.590  28.874  1.00  0.00     0.031 C 
ATOM     37  C   UNL A   1      43.483  24.997  26.636  1.00  0.00     0.029 A 
ATOM     38  N   UNL A   1      43.486  27.066  27.489  1.00  0.00    -0.354 N 
ATOM     39  C   UNL A   1      40.002  28.681  29.451  1.00  0.00     0.074 A 
ATOM     40  C   UNL A   1      38.909  27.732  29.444  1.00  0.00     0.031 C 
ATOM     41  C   UNL A   1      44.684  25.541  26.377  1.00  0.00     0.029 A 
ATOM     42  C   UNL A   1      44.713  26.910  26.890  1.00  0.00     0.049 A 
ATOM     43  H   UNL A   1      43.222  27.881  27.974  1.00  0.00     0.167 HD
ATOM     44  C   UNL A   1      39.938  29.908  30.020  1.00  0.00     0.034 A 
ATOM     45  C   UNL A   1      45.735  27.780  26.755  1.00  0.00     0.034 A 
ATOM     46  C   UNL A   1      41.029  30.845  30.052  1.00  0.00     0.049 A 
ATOM     47  C   UNL A   1      45.630  29.149  27.376  1.00  0.00     0.074 A 
ATOM     48  C   UNL A   1      41.067  32.100  30.633  1.00  0.00     0.029 A 
ATOM     49  N   UNL A   1      42.270  30.634  29.474  1.00  0.00    -0.354 N 
ATOM     50  N   UNL A   1      44.654  29.660  28.087  1.00  0.00    -0.248 NA
ATOM     51  C   UNL A   1      46.780  30.049  27.205  1.00  0.00     0.031 C 
ATOM     52  C   UNL A   1      42.331  32.653  30.397  1.00  0.00     0.029 A 
ATOM     53  C   UNL A   1      43.081  31.736  29.680  1.00  0.00     0.049 A 
ATOM     54  H   UNL A   1      42.536  29.820  28.989  1.00  0.00     0.167 HD
ATOM     55  C   UNL A   1      45.087  30.923  28.478  1.00  0.00     0.074 A 
ATOM     56  C   UNL A   1      46.421  31.092  27.943  1.00  0.00     0.031 C 
ATOM     57  C   UNL A   1      44.432  31.866  29.200  1.00  0.00     0.034 A 
BRANCH  44  58
ATOM     58  C   UNL A   1      38.657  30.298  30.706  1.00  0.00     0.023 A 
ATOM     59  C   UNL A   1      38.481  29.983  32.068  1.00  0.00     0.012 A 
ATOM     60  C   UNL A   1      37.667  31.039  30.031  1.00  0.00     0.148 A 
ATOM     61  C   UNL A   1      37.331  30.384  32.746  1.00  0.00     0.002 A 
ATOM     62  C   UNL A   1      36.539  31.465  30.723  1.00  0.00     0.091 A 
ATOM     63  F   UNL A   1      37.845  31.307  28.730  1.00  0.00    -0.205 F 
ATOM     64  C   UNL A   1      36.366  31.133  32.077  1.00  0.00     0.022 A 
BRANCH  62  65
ATOM     65  S   UNL A   1      35.271  32.492  29.970  1.00  0.00     0.127 S 
ATOM     66  O   UNL A   1      34.348  32.687  31.088  1.00  0.00    -0.237 OA
ATOM     67  O   UNL A   1      36.027  33.685  29.588  1.00  0.00    -0.237 OA
ATOM     68  O   UNL A   1      34.743  31.722  28.852  1.00  0.00    -0.744 OA
ENDBRANCH  62  65
ENDBRANCH  44  58
BRANCH  45  69
ATOM     69  C   UNL A   1      46.969  27.371  26.026  1.00  0.00     0.023 A 
ATOM     70  C   UNL A   1      47.955  26.615  26.688  1.00  0.00     0.012 A 
ATOM     71  C   UNL A   1      47.163  27.720  24.676  1.00  0.00     0.148 A 
ATOM     72  C   UNL A   1      49.126  26.241  26.027  1.00  0.00     0.002 A 
ATOM     73  C   UNL A   1      48.306  27.294  24.007  1.00  0.00     0.091 A 
ATOM     74  F   UNL A   1      46.230  28.464  24.066  1.00  0.00    -0.205 F 
ATOM     75  C   UNL A   1      49.297  26.569  24.685  1.00  0.00     0.022 A 
BRANCH  73  76
ATOM     76  S   UNL A   1      48.502  27.556  22.241  1.00  0.00     0.127 S 
ATOM     77  O   UNL A   1      47.234  28.185  21.886  1.00  0.00    -0.237 OA
ATOM     78  O   UNL A   1      49.668  28.438  22.183  1.00  0.00    -0.237 OA
ATOM     79  O   UNL A   1      48.741  26.226  21.691  1.00  0.00    -0.744 OA
ENDBRANCH  73  76
ENDBRANCH  45  69
BRANCH  57  80
ATOM     80  C   UNL A   1      45.152  33.157  29.487  1.00  0.00     0.023 A 
ATOM     81  C   UNL A   1      45.947  33.267  30.645  1.00  0.00     0.012 A 
ATOM     82  C   UNL A   1      45.107  34.228  28.574  1.00  0.00     0.148 A 
ATOM     83  C   UNL A   1      46.665  34.434  30.902  1.00  0.00     0.002 A 
ATOM     84  C   UNL A   1      45.859  35.372  28.815  1.00  0.00     0.091 A 
ATOM     85  F   UNL A   1      44.328  34.112  27.488  1.00  0.00    -0.205 F 
ATOM     86  C   UNL A   1      46.631  35.480  29.983  1.00  0.00     0.022 A 
BRANCH  84  87
ATOM     87  S   UNL A   1      45.942  36.730  27.642  1.00  0.00     0.127 S 
ATOM     88  O   UNL A   1      44.552  37.180  27.607  1.00  0.00    -0.237 OA
ATOM     89  O   UNL A   1      46.867  37.655  28.297  1.00  0.00    -0.237 OA
ATOM     90  O   UNL A   1      46.448  36.154  26.403  1.00  0.00    -0.744 OA
ENDBRANCH  84  87
ENDBRANCH  57  80
ENDBRANCH  31  32
ENDBRANCH  24  26
ENDBRANCH  23  24
ENDBRANCH  22  23
ENDBRANCH   1  22
TORSDOF 19
ENDMDL
MODEL 2
REMARK VINA RESULT:     -11.2      1.740      7.816
REMARK SMILES C[C@@H]1CCC[C@@](Cc2ncccn2)(C(=O)OCCOCCOC(=O)c2ccc(-c3c4nc(c(-c5cccc(S(=O)(=O)[O-])c5F)c5ccc([nH]5)c(-c5cccc(S(=O)(=O)[O-])c5F)c5nc(c(-c6cccc(S(=O)(=O)[O-])c6F)c6ccc3[nH]6)C=C5)C=C4)cc2)C1
REMARK SMILES IDX 20 1 19 2 18 3 17 4 16 5 14 6 15 7 6 8 1 9 2 10 3 11 88 12
REMARK SMILES IDX 4 13 5 14 7 15 8 16 9 17 13 18 10 19 12 20 11 21 21 22 22 23
REMARK SMILES IDX 23 24 24 25 25 26 26 27 87 28 27 29 86 30 28 31 29 32 30 33
REMARK SMILES IDX 80 34 31 35 85 36 79 37 81 38 32 39 84 40 78 41 77 42 33 44
REMARK SMILES IDX 65 45 45 46 64 47 46 48 49 49 63 50 82 51 47 52 48 53 62 55
REMARK SMILES IDX 83 56 50 57 34 58 35 59 43 60 36 61 38 62 44 63 37 64 39 65
REMARK SMILES IDX 40 66 41 67 42 68 66 69 67 70 75 71 68 72 70 73 76 74 69 75
REMARK SMILES IDX 71 76 72 77 73 78 74 79 51 80 52 81 60 82 53 83 55 84 61 85
REMARK SMILES IDX 54 86 56 87 57 88 58 89 59 90
REMARK H PARENT 81 43 49 54
REMARK Flexibility Score: inf
ROOT
ATOM      1  C   UNL A   1      35.561  21.713  25.425  1.00  0.00     0.202 C 
ENDROOT
BRANCH   1   2
ATOM      2  O   UNL A   1      34.357  21.169  25.966  1.00  0.00    -0.374 OA
BRANCH   2   3
ATOM      3  C   UNL A   1      34.033  21.493  27.315  1.00  0.00     0.202 C 
BRANCH   3   4
ATOM      4  C   UNL A   1      32.814  22.389  27.563  1.00  0.00     0.261 C 
BRANCH   4   5
ATOM      5  O   UNL A   1      33.037  23.765  27.224  1.00  0.00    -0.463 OA
BRANCH   5   6
ATOM      6  C   UNL A   1      31.930  24.437  26.811  1.00  0.00     0.312 C 
ATOM      7  O   UNL A   1      30.779  24.133  27.117  1.00  0.00    -0.252 OA
BRANCH   6   8
ATOM      8  C   UNL A   1      32.235  25.655  25.923  1.00  0.00     0.075 C 
ATOM      9  C   UNL A   1      31.161  28.811  25.214  1.00  0.00     0.007 C 
ATOM     10  C   UNL A   1      32.137  28.281  26.265  1.00  0.00    -0.013 C 
ATOM     11  C   UNL A   1      33.593  28.367  25.798  1.00  0.00     0.003 C 
ATOM     12  C   UNL A   1      31.772  26.878  26.773  1.00  0.00     0.022 C 
ATOM     13  C   UNL A   1      34.015  27.196  24.914  1.00  0.00     0.001 C 
ATOM     14  C   UNL A   1      33.733  25.853  25.591  1.00  0.00     0.019 C 
BRANCH   8  15
ATOM     15  C   UNL A   1      31.365  25.462  24.656  1.00  0.00     0.096 C 
BRANCH  15  16
ATOM     16  C   UNL A   1      32.002  24.580  23.609  1.00  0.00     0.129 A 
ATOM     17  N   UNL A   1      32.363  25.164  22.449  1.00  0.00    -0.241 NA
ATOM     18  N   UNL A   1      32.226  23.290  23.921  1.00  0.00    -0.241 NA
ATOM     19  C   UNL A   1      32.977  24.371  21.548  1.00  0.00     0.115 A 
ATOM     20  C   UNL A   1      32.855  22.550  22.985  1.00  0.00     0.115 A 
ATOM     21  C   UNL A   1      33.257  23.043  21.768  1.00  0.00     0.040 A 
ENDBRANCH  15  16
ENDBRANCH   8  15
ENDBRANCH   6   8
ENDBRANCH   5   6
ENDBRANCH   4   5
ENDBRANCH   3   4
ENDBRANCH   2   3
ENDBRANCH   1   2
BRANCH   1  22
ATOM     22  C   UNL A   1      36.749  20.759  25.232  1.00  0.00     0.261 C 
BRANCH  22  23
ATOM     23  O   UNL A   1      37.989  21.437  24.954  1.00  0.00    -0.460 OA
BRANCH  23  24
ATOM     24  C   UNL A   1      38.981  21.192  25.843  1.00  0.00     0.338 C 
ATOM     25  O   UNL A   1      39.599  20.140  25.985  1.00  0.00    -0.246 OA
BRANCH  24  26
ATOM     26  C   UNL A   1      39.377  22.420  26.553  1.00  0.00     0.060 A 
ATOM     27  C   UNL A   1      38.738  23.615  26.196  1.00  0.00     0.016 A 
ATOM     28  C   UNL A   1      40.454  22.431  27.442  1.00  0.00     0.016 A 
ATOM     29  C   UNL A   1      39.209  24.833  26.684  1.00  0.00     0.010 A 
ATOM     30  C   UNL A   1      40.930  23.657  27.923  1.00  0.00     0.010 A 
ATOM     31  C   UNL A   1      40.336  24.865  27.514  1.00  0.00    -0.014 A 
BRANCH  31  32
ATOM     32  C   UNL A   1      40.971  26.168  27.835  1.00  0.00     0.031 A 
ATOM     33  C   UNL A   1      42.390  26.424  27.401  1.00  0.00     0.074 A 
ATOM     34  C   UNL A   1      40.286  27.123  28.490  1.00  0.00     0.049 A 
ATOM     35  N   UNL A   1      43.131  27.486  27.580  1.00  0.00    -0.248 NA
ATOM     36  C   UNL A   1      43.062  25.339  26.664  1.00  0.00     0.031 C 
ATOM     37  C   UNL A   1      38.906  27.004  28.957  1.00  0.00     0.029 A 
ATOM     38  N   UNL A   1      40.670  28.380  28.892  1.00  0.00    -0.354 N 
ATOM     39  C   UNL A   1      44.359  27.197  26.996  1.00  0.00     0.074 A 
ATOM     40  C   UNL A   1      44.270  25.851  26.469  1.00  0.00     0.031 C 
ATOM     41  C   UNL A   1      38.568  28.130  29.608  1.00  0.00     0.029 A 
ATOM     42  C   UNL A   1      39.710  29.042  29.618  1.00  0.00     0.049 A 
ATOM     43  H   UNL A   1      41.550  28.768  28.679  1.00  0.00     0.167 HD
ATOM     44  C   UNL A   1      45.455  27.984  26.887  1.00  0.00     0.034 A 
ATOM     45  C   UNL A   1      39.755  30.241  30.235  1.00  0.00     0.034 A 
ATOM     46  C   UNL A   1      45.541  29.329  27.388  1.00  0.00     0.049 A 
ATOM     47  C   UNL A   1      40.996  31.087  30.120  1.00  0.00     0.074 A 
ATOM     48  C   UNL A   1      46.600  30.215  27.296  1.00  0.00     0.029 A 
ATOM     49  N   UNL A   1      44.532  29.983  28.077  1.00  0.00    -0.354 N 
ATOM     50  N   UNL A   1      42.103  30.844  29.460  1.00  0.00    -0.248 NA
ATOM     51  C   UNL A   1      40.982  32.389  30.804  1.00  0.00     0.031 C 
ATOM     52  C   UNL A   1      46.235  31.402  27.941  1.00  0.00     0.029 A 
ATOM     53  C   UNL A   1      44.944  31.258  28.422  1.00  0.00     0.049 A 
ATOM     54  H   UNL A   1      43.652  29.596  28.291  1.00  0.00     0.167 HD
ATOM     55  C   UNL A   1      42.900  31.973  29.620  1.00  0.00     0.074 A 
ATOM     56  C   UNL A   1      42.141  32.911  30.421  1.00  0.00     0.031 C 
ATOM     57  C   UNL A   1      44.154  32.207  29.161  1.00  0.00     0.034 A 
BRANCH  44  58
ATOM     58  C   UNL A   1      46.646  27.430  26.152  1.00  0.00     0.023 A 
ATOM     59  C   UNL A   1      46.752  27.631  24.762  1.00  0.00     0.012 A 
ATOM     60  C   UNL A   1      47.691  26.786  26.842  1.00  0.00     0.148 A 
ATOM     61  C   UNL A   1      47.872  27.183  24.063  1.00  0.00     0.002 A 
ATOM     62  C   UNL A   1      48.821  26.373  26.144  1.00  0.00     0.091 A 
ATOM     63  F   UNL A   1      47.560  26.586  28.161  1.00  0.00    -0.205 F 
ATOM     64  C   UNL A   1      48.910  26.564  24.756  1.00  0.00     0.022 A 
BRANCH  62  65
ATOM     65  S   UNL A   1      50.242  25.628  26.955  1.00  0.00     0.127 S 
ATOM     66  O   UNL A   1      50.595  26.655  27.934  1.00  0.00    -0.237 OA
ATOM     67  O   UNL A   1      49.666  24.411  27.528  1.00  0.00    -0.237 OA
ATOM     68  O   UNL A   1      51.227  25.400  25.907  1.00  0.00    -0.744 OA
ENDBRANCH  62  65
ENDBRANCH  44  58
BRANCH  45  69
ATOM     69  C   UNL A   1      38.570  30.732  30.994  1.00  0.00     0.023 A 
ATOM     70  C   UNL A   1      38.502  30.537  32.387  1.00  0.00     0.012 A 
ATOM     71  C   UNL A   1      37.515  31.399  30.343  1.00  0.00     0.148 A 
ATOM     72  C   UNL A   1      37.390  30.970  33.111  1.00  0.00     0.002 A 
ATOM     73  C   UNL A   1      36.439  31.879  31.080  1.00  0.00     0.091 A 
ATOM     74  F   UNL A   1      37.580  31.553  29.013  1.00  0.00    -0.205 F 
ATOM     75  C   UNL A   1      36.365  31.651  32.461  1.00  0.00     0.022 A 
BRANCH  73  76
ATOM     76  S   UNL A   1      35.170  32.897  30.317  1.00  0.00     0.127 S 
ATOM     77  O   UNL A   1      35.952  34.012  29.792  1.00  0.00    -0.237 OA
ATOM     78  O   UNL A   1      34.615  31.999  29.304  1.00  0.00    -0.237 OA
ATOM     79  O   UNL A   1      34.243  33.210  31.400  1.00  0.00    -0.744 OA
ENDBRANCH  73  76
ENDBRANCH  45  69
BRANCH  57  80
ATOM     80  C   UNL A   1      44.782  33.538  29.480  1.00  0.00     0.023 A 
ATOM     81  C   UNL A   1      45.552  33.681  30.652  1.00  0.00     0.012 A 
ATOM     82  C   UNL A   1      44.679  34.619  28.584  1.00  0.00     0.148 A 
ATOM     83  C   UNL A   1      46.187  34.889  30.939  1.00  0.00     0.002 A 
ATOM     84  C   UNL A   1      45.350  35.806  28.855  1.00  0.00     0.091 A 
ATOM     85  F   UNL A   1      43.926  34.470  27.484  1.00  0.00    -0.205 F 
ATOM     86  C   UNL A   1      46.096  35.945  30.036  1.00  0.00     0.022 A 
BRANCH  84  87
ATOM     87  S   UNL A   1      45.359  37.186  27.704  1.00  0.00     0.127 S 
ATOM     88  O   UNL A   1      46.159  38.173  28.427  1.00  0.00    -0.237 OA
ATOM     89  O   UNL A   1      46.016  36.611  26.530  1.00  0.00    -0.237 OA
ATOM     90  O   UNL A   1      43.961  37.540  27.496  1.00  0.00    -0.744 OA
ENDBRANCH  84  87
ENDBRANCH  57  80
ENDBRANCH  31  32
ENDBRANCH  24  26
ENDBRANCH  23  24
ENDBRANCH  22  23
ENDBRANCH   1  22
TORSDOF 19
ENDMDL
MODEL 3
REMARK VINA RESULT:     -10.7      1.321      7.867
REMARK SMILES C[C@@H]1CCC[C@@](Cc2ncccn2)(C(=O)OCCOCCOC(=O)c2ccc(-c3c4nc(c(-c5cccc(S(=O)(=O)[O-])c5F)c5ccc([nH]5)c(-c5cccc(S(=O)(=O)[O-])c5F)c5nc(c(-c6cccc(S(=O)(=O)[O-])c6F)c6ccc3[nH]6)C=C5)C=C4)cc2)C1
REMARK SMILES IDX 20 1 19 2 18 3 17 4 16 5 14 6 15 7 6 8 1 9 2 10 3 11 88 12
REMARK SMILES IDX 4 13 5 14 7 15 8 16 9 17 13 18 10 19 12 20 11 21 21 22 22 23
REMARK SMILES IDX 23 24 24 25 25 26 26 27 87 28 27 29 86 30 28 31 29 32 30 33
REMARK SMILES IDX 80 34 31 35 85 36 79 37 81 38 32 39 84 40 78 41 77 42 33 44
REMARK SMILES IDX 65 45 45 46 64 47 46 48 49 49 63 50 82 51 47 52 48 53 62 55
REMARK SMILES IDX 83 56 50 57 34 58 35 59 43 60 36 61 38 62 44 63 37 64 39 65
REMARK SMILES IDX 40 66 41 67 42 68 66 69 67 70 75 71 68 72 70 73 76 74 69 75
REMARK SMILES IDX 71 76 72 77 73 78 74 79 51 80 52 81 60 82 53 83 55 84 61 85
REMARK SMILES IDX 54 86 56 87 57 88 58 89 59 90
REMARK H PARENT 81 43 49 54
REMARK Flexibility Score: inf
ROOT
ATOM      1  C   UNL A   1      36.061  21.816  25.331  1.00  0.00     0.202 C 
ENDROOT
BRANCH   1   2
ATOM      2  O   UNL A   1      34.819  21.208  25.689  1.00  0.00    -0.374 OA
BRANCH   2   3
ATOM      3  C   UNL A   1      34.354  21.393  27.023  1.00  0.00     0.202 C 
BRANCH   3   4
ATOM      4  C   UNL A   1      33.581  22.679  27.338  1.00  0.00     0.261 C 
BRANCH   4   5
ATOM      5  O   UNL A   1      33.349  23.504  26.187  1.00  0.00    -0.463 OA
BRANCH   5   6
ATOM      6  C   UNL A   1      32.287  24.346  26.293  1.00  0.00     0.312 C 
ATOM      7  O   UNL A   1      31.443  24.289  27.186  1.00  0.00    -0.252 OA
BRANCH   6   8
ATOM      8  C   UNL A   1      32.230  25.420  25.195  1.00  0.00     0.075 C 
ATOM      9  C   UNL A   1      33.498  26.216  22.133  1.00  0.00     0.007 C 
ATOM     10  C   UNL A   1      32.285  25.382  22.546  1.00  0.00    -0.013 C 
ATOM     11  C   UNL A   1      30.989  26.201  22.537  1.00  0.00     0.003 C 
ATOM     12  C   UNL A   1      32.490  24.635  23.873  1.00  0.00     0.022 C 
ATOM     13  C   UNL A   1      30.779  27.014  23.811  1.00  0.00     0.001 C 
ATOM     14  C   UNL A   1      30.864  26.133  25.060  1.00  0.00     0.019 C 
BRANCH   8  15
ATOM     15  C   UNL A   1      33.382  26.401  25.528  1.00  0.00     0.096 C 
BRANCH  15  16
ATOM     16  C   UNL A   1      32.912  27.746  26.027  1.00  0.00     0.129 A 
ATOM     17  N   UNL A   1      33.145  28.812  25.237  1.00  0.00    -0.241 NA
ATOM     18  N   UNL A   1      32.237  27.786  27.191  1.00  0.00    -0.241 NA
ATOM     19  C   UNL A   1      32.671  29.996  25.677  1.00  0.00     0.115 A 
ATOM     20  C   UNL A   1      31.777  28.996  27.573  1.00  0.00     0.115 A 
ATOM     21  C   UNL A   1      31.967  30.146  26.848  1.00  0.00     0.040 A 
ENDBRANCH  15  16
ENDBRANCH   8  15
ENDBRANCH   6   8
ENDBRANCH   5   6
ENDBRANCH   4   5
ENDBRANCH   3   4
ENDBRANCH   2   3
ENDBRANCH   1   2
BRANCH   1  22
ATOM     22  C   UNL A   1      37.321  20.940  25.376  1.00  0.00     0.261 C 
BRANCH  22  23
ATOM     23  O   UNL A   1      38.541  21.681  25.179  1.00  0.00    -0.460 OA
BRANCH  23  24
ATOM     24  C   UNL A   1      39.492  21.469  26.120  1.00  0.00     0.338 C 
ATOM     25  O   UNL A   1      40.131  20.435  26.301  1.00  0.00    -0.246 OA
BRANCH  24  26
ATOM     26  C   UNL A   1      39.816  22.711  26.841  1.00  0.00     0.060 A 
ATOM     27  C   UNL A   1      39.108  23.870  26.494  1.00  0.00     0.016 A 
ATOM     28  C   UNL A   1      40.890  22.777  27.730  1.00  0.00     0.016 A 
ATOM     29  C   UNL A   1      39.507  25.109  26.993  1.00  0.00     0.010 A 
ATOM     30  C   UNL A   1      41.295  24.024  28.223  1.00  0.00     0.010 A 
ATOM     31  C   UNL A   1      40.631  25.200  27.824  1.00  0.00    -0.014 A 
BRANCH  31  32
ATOM     32  C   UNL A   1      41.189  26.535  28.156  1.00  0.00     0.031 A 
ATOM     33  C   UNL A   1      42.621  26.843  27.808  1.00  0.00     0.074 A 
ATOM     34  C   UNL A   1      40.424  27.472  28.745  1.00  0.00     0.049 A 
ATOM     35  N   UNL A   1      43.304  27.939  28.012  1.00  0.00    -0.248 NA
ATOM     36  C   UNL A   1      43.384  25.774  27.140  1.00  0.00     0.031 C 
ATOM     37  C   UNL A   1      39.023  27.302  29.125  1.00  0.00     0.029 A 
ATOM     38  N   UNL A   1      40.729  28.751  29.143  1.00  0.00    -0.354 N 
ATOM     39  C   UNL A   1      44.579  27.692  27.514  1.00  0.00     0.074 A 
ATOM     40  C   UNL A   1      44.580  26.334  27.012  1.00  0.00     0.031 C 
ATOM     41  C   UNL A   1      38.596  28.425  29.729  1.00  0.00     0.029 A 
ATOM     42  C   UNL A   1      39.697  29.385  29.792  1.00  0.00     0.049 A 
ATOM     43  H   UNL A   1      41.603  29.172  28.979  1.00  0.00     0.167 HD
ATOM     44  C   UNL A   1      45.646  28.523  27.459  1.00  0.00     0.034 A 
ATOM     45  C   UNL A   1      39.651  30.597  30.384  1.00  0.00     0.034 A 
ATOM     46  C   UNL A   1      45.643  29.880  27.934  1.00  0.00     0.049 A 
ATOM     47  C   UNL A   1      40.861  31.493  30.330  1.00  0.00     0.074 A 
ATOM     48  C   UNL A   1      46.668  30.808  27.891  1.00  0.00     0.029 A 
ATOM     49  N   UNL A   1      44.565  30.502  28.543  1.00  0.00    -0.354 N 
ATOM     50  N   UNL A   1      42.018  31.285  29.749  1.00  0.00    -0.248 NA
ATOM     51  C   UNL A   1      40.748  32.806  30.984  1.00  0.00     0.031 C 
ATOM     52  C   UNL A   1      46.213  31.991  28.486  1.00  0.00     0.029 A 
ATOM     53  C   UNL A   1      44.901  31.800  28.886  1.00  0.00     0.049 A 
ATOM     54  H   UNL A   1      43.690  30.083  28.708  1.00  0.00     0.167 HD
ATOM     55  C   UNL A   1      42.754  32.450  29.935  1.00  0.00     0.074 A 
ATOM     56  C   UNL A   1      41.907  33.369  30.664  1.00  0.00     0.031 C 
ATOM     57  C   UNL A   1      44.025  32.729  29.552  1.00  0.00     0.034 A 
BRANCH  44  58
ATOM     58  C   UNL A   1      46.904  28.007  26.814  1.00  0.00     0.023 A 
ATOM     59  C   UNL A   1      47.891  27.402  27.616  1.00  0.00     0.012 A 
ATOM     60  C   UNL A   1      47.075  28.048  25.416  1.00  0.00     0.148 A 
ATOM     61  C   UNL A   1      49.040  26.860  27.041  1.00  0.00     0.002 A 
ATOM     62  C   UNL A   1      48.206  27.474  24.847  1.00  0.00     0.091 A 
ATOM     63  F   UNL A   1      46.133  28.648  24.674  1.00  0.00    -0.205 F 
ATOM     64  C   UNL A   1      49.192  26.887  25.657  1.00  0.00     0.022 A 
BRANCH  62  65
ATOM     65  S   UNL A   1      48.463  27.397  23.070  1.00  0.00     0.127 S 
ATOM     66  O   UNL A   1      48.346  25.961  22.818  1.00  0.00    -0.237 OA
ATOM     67  O   UNL A   1      47.349  28.198  22.562  1.00  0.00    -0.237 OA
ATOM     68  O   UNL A   1      49.781  27.967  22.830  1.00  0.00    -0.744 OA
ENDBRANCH  62  65
ENDBRANCH  44  58
BRANCH  45  69
ATOM     69  C   UNL A   1      38.400  31.050  31.055  1.00  0.00     0.023 A 
ATOM     70  C   UNL A   1      38.247  30.872  32.443  1.00  0.00     0.012 A 
ATOM     71  C   UNL A   1      37.367  31.666  30.324  1.00  0.00     0.148 A 
ATOM     72  C   UNL A   1      37.073  31.271  33.085  1.00  0.00     0.002 A 
ATOM     73  C   UNL A   1      36.225  32.114  30.980  1.00  0.00     0.091 A 
ATOM     74  F   UNL A   1      37.514  31.804  28.999  1.00  0.00    -0.205 F 
ATOM     75  C   UNL A   1      36.068  31.902  32.357  1.00  0.00     0.022 A 
BRANCH  73  76
ATOM     76  S   UNL A   1      34.972  33.070  30.119  1.00  0.00     0.127 S 
ATOM     77  O   UNL A   1      35.775  34.094  29.457  1.00  0.00    -0.237 OA
ATOM     78  O   UNL A   1      34.379  32.075  29.224  1.00  0.00    -0.237 OA
ATOM     79  O   UNL A   1      34.069  33.532  31.167  1.00  0.00    -0.744 OA
ENDBRANCH  73  76
ENDBRANCH  45  69
BRANCH  57  80
ATOM     80  C   UNL A   1      44.576  34.091  29.882  1.00  0.00     0.023 A 
ATOM     81  C   UNL A   1      45.303  34.278  31.074  1.00  0.00     0.012 A 
ATOM     82  C   UNL A   1      44.443  35.163  28.977  1.00  0.00     0.148 A 
ATOM     83  C   UNL A   1      45.867  35.518  31.372  1.00  0.00     0.002 A 
ATOM     84  C   UNL A   1      45.045  36.383  29.260  1.00  0.00     0.091 A 
ATOM     85  F   UNL A   1      43.731  34.971  27.857  1.00  0.00    -0.205 F 
ATOM     86  C   UNL A   1      45.749  36.565  30.462  1.00  0.00     0.022 A 
BRANCH  84  87
ATOM     87  S   UNL A   1      45.017  37.757  28.103  1.00  0.00     0.127 S 
ATOM     88  O   UNL A   1      45.615  37.157  26.912  1.00  0.00    -0.237 OA
ATOM     89  O   UNL A   1      43.587  38.043  27.989  1.00  0.00    -0.237 OA
ATOM     90  O   UNL A   1      45.793  38.820  28.729  1.00  0.00    -0.744 OA
ENDBRANCH  84  87
ENDBRANCH  57  80
ENDBRANCH  31  32
ENDBRANCH  24  26
ENDBRANCH  23  24
ENDBRANCH  22  23
ENDBRANCH   1  22
TORSDOF 19
ENDMDL
