MODEL 1
REMARK VINA RESULT:     -10.7      0.000      0.000
REMARK SMILES COC(=O)Cc1nc(NC(=O)[C@H]2CC[C@@H]2C(=O)OCCOCCOC(=O)c2ccc(-c3c4nc(c(-c5cccc(S(=O)(=O)[O-])c5F)c5ccc([nH]5)c(-c5cccc(S(=O)(=O)[O-])c5F)c5nc(c(-c6cccc(S(=O)(=O)[O-])c6F)c6ccc3[nH]6)C=C5)C=C4)cc2)sc1C
REMARK SMILES IDX 20 1 19 2 18 3 16 4 17 5 15 6 12 7 13 8 14 9 10 10 9 11
REMARK SMILES IDX 11 13 8 14 6 15 7 16 91 17 90 18 92 19 5 20 3 21 4 22 2 23
REMARK SMILES IDX 1 24 21 25 22 26 23 27 24 28 25 29 26 30 27 31 28 32 89 33
REMARK SMILES IDX 29 34 88 35 30 36 31 37 32 38 82 39 33 40 87 41 81 42 83 43
REMARK SMILES IDX 34 44 86 45 80 46 79 47 35 49 67 50 47 51 66 52 48 53 51 54
REMARK SMILES IDX 65 55 84 56 49 57 50 58 64 60 85 61 52 62 36 63 37 64 45 65
REMARK SMILES IDX 38 66 40 67 46 68 39 69 41 70 42 71 43 72 44 73 68 74 69 75
REMARK SMILES IDX 77 76 70 77 72 78 78 79 71 80 73 81 74 82 75 83 76 84 53 85
REMARK SMILES IDX 54 86 62 87 55 88 57 89 63 90 56 91 58 92 59 93 60 94 61 95
REMARK H PARENT 9 12 83 48 51 59
REMARK Flexibility Score: inf
ROOT
ATOM      1  C   UNL A   1      32.684  29.523  26.464  1.00  0.00     0.202 C 
ENDROOT
BRANCH   1   2
ATOM      2  C   UNL A   1      32.133  28.107  26.661  1.00  0.00     0.261 C 
BRANCH   2   3
ATOM      3  O   UNL A   1      31.465  27.657  25.470  1.00  0.00    -0.463 OA
BRANCH   3   4
ATOM      4  C   UNL A   1      31.267  26.312  25.314  1.00  0.00     0.309 C 
ATOM      5  O   UNL A   1      31.195  25.516  26.244  1.00  0.00    -0.252 OA
BRANCH   4   6
ATOM      6  C   UNL A   1      31.123  25.976  23.808  1.00  0.00     0.111 C 
ATOM      7  C   UNL A   1      32.379  26.092  22.898  1.00  0.00     0.093 C 
ATOM      8  C   UNL A   1      31.829  27.493  22.491  1.00  0.00     0.015 C 
ATOM      9  C   UNL A   1      30.432  26.997  22.885  1.00  0.00     0.017 C 
BRANCH   7  10
ATOM     10  C   UNL A   1      32.880  25.200  21.734  1.00  0.00     0.230 C 
ATOM     11  N   UNL A   1      32.995  23.828  21.712  1.00  0.00    -0.302 N 
ATOM     12  H   UNL A   1      32.930  23.438  20.811  1.00  0.00     0.172 HD
ATOM     13  O   UNL A   1      33.050  25.741  20.620  1.00  0.00    -0.274 OA
BRANCH  11  14
ATOM     14  C   UNL A   1      33.180  22.911  22.698  1.00  0.00     0.189 A 
ATOM     15  C   UNL A   1      32.796  21.249  24.089  1.00  0.00     0.068 A 
ATOM     16  N   UNL A   1      32.469  21.817  22.853  1.00  0.00    -0.224 NA
ATOM     17  C   UNL A   1      33.703  22.011  24.810  1.00  0.00     0.027 A 
ATOM     18  S   UNL A   1      34.584  22.918  23.649  1.00  0.00    -0.102 S 
ATOM     19  C   UNL A   1      34.025  22.087  26.255  1.00  0.00     0.058 C 
BRANCH  15  20
ATOM     20  C   UNL A   1      32.207  19.942  24.495  1.00  0.00     0.180 C 
BRANCH  20  21
ATOM     21  C   UNL A   1      32.496  18.798  23.568  1.00  0.00     0.311 C 
ATOM     22  O   UNL A   1      32.272  18.830  22.362  1.00  0.00    -0.252 OA
BRANCH  21  23
ATOM     23  O   UNL A   1      33.159  17.789  24.201  1.00  0.00    -0.469 OA
ATOM     24  C   UNL A   1      33.008  17.819  25.620  1.00  0.00     0.282 C 
ENDBRANCH  21  23
ENDBRANCH  20  21
ENDBRANCH  15  20
ENDBRANCH  11  14
ENDBRANCH   7  10
ENDBRANCH   4   6
ENDBRANCH   3   4
ENDBRANCH   2   3
ENDBRANCH   1   2
BRANCH   1  25
ATOM     25  O   UNL A   1      31.975  30.540  27.178  1.00  0.00    -0.374 OA
BRANCH  25  26
ATOM     26  C   UNL A   1      31.459  31.605  26.377  1.00  0.00     0.202 C 
BRANCH  26  27
ATOM     27  C   UNL A   1      31.710  33.011  26.922  1.00  0.00     0.261 C 
BRANCH  27  28
ATOM     28  O   UNL A   1      33.032  33.107  27.477  1.00  0.00    -0.460 OA
BRANCH  28  29
ATOM     29  C   UNL A   1      33.218  34.163  28.298  1.00  0.00     0.338 C 
ATOM     30  O   UNL A   1      32.523  35.170  28.374  1.00  0.00    -0.246 OA
BRANCH  29  31
ATOM     31  C   UNL A   1      34.303  33.874  29.251  1.00  0.00     0.060 A 
ATOM     32  C   UNL A   1      35.610  34.142  28.830  1.00  0.00     0.016 A 
ATOM     33  C   UNL A   1      34.060  33.301  30.502  1.00  0.00     0.016 A 
ATOM     34  C   UNL A   1      36.688  33.775  29.629  1.00  0.00     0.010 A 
ATOM     35  C   UNL A   1      35.145  32.930  31.303  1.00  0.00     0.010 A 
ATOM     36  C   UNL A   1      36.462  33.125  30.848  1.00  0.00    -0.014 A 
BRANCH  36  37
ATOM     37  C   UNL A   1      37.606  32.518  31.569  1.00  0.00     0.031 A 
ATOM     38  C   UNL A   1      38.351  31.382  30.923  1.00  0.00     0.074 A 
ATOM     39  C   UNL A   1      37.981  32.982  32.775  1.00  0.00     0.049 A 
ATOM     40  N   UNL A   1      39.364  30.693  31.379  1.00  0.00    -0.248 NA
ATOM     41  C   UNL A   1      37.895  30.962  29.586  1.00  0.00     0.031 C 
ATOM     42  C   UNL A   1      37.335  34.078  33.496  1.00  0.00     0.029 A 
ATOM     43  N   UNL A   1      38.983  32.568  33.616  1.00  0.00    -0.354 N 
ATOM     44  C   UNL A   1      39.641  29.737  30.409  1.00  0.00     0.074 A 
ATOM     45  C   UNL A   1      38.691  29.931  29.337  1.00  0.00     0.031 C 
ATOM     46  C   UNL A   1      37.934  34.226  34.692  1.00  0.00     0.029 A 
ATOM     47  C   UNL A   1      38.987  33.221  34.827  1.00  0.00     0.049 A 
ATOM     48  H   UNL A   1      39.635  31.871  33.377  1.00  0.00     0.167 HD
ATOM     49  C   UNL A   1      40.607  28.790  30.410  1.00  0.00     0.034 A 
ATOM     50  C   UNL A   1      39.735  33.009  35.928  1.00  0.00     0.034 A 
ATOM     51  C   UNL A   1      41.571  28.623  31.462  1.00  0.00     0.049 A 
ATOM     52  C   UNL A   1      40.800  31.942  35.896  1.00  0.00     0.074 A 
ATOM     53  C   UNL A   1      42.635  27.739  31.518  1.00  0.00     0.029 A 
ATOM     54  N   UNL A   1      41.584  29.341  32.645  1.00  0.00    -0.354 N 
ATOM     55  N   UNL A   1      41.140  31.143  34.914  1.00  0.00    -0.248 NA
ATOM     56  C   UNL A   1      41.610  31.772  37.112  1.00  0.00     0.031 C 
ATOM     57  C   UNL A   1      43.268  27.898  32.753  1.00  0.00     0.029 A 
ATOM     58  C   UNL A   1      42.623  28.907  33.449  1.00  0.00     0.049 A 
ATOM     59  H   UNL A   1      40.946  30.054  32.880  1.00  0.00     0.167 HD
ATOM     60  C   UNL A   1      42.226  30.407  35.380  1.00  0.00     0.074 A 
ATOM     61  C   UNL A   1      42.501  30.871  36.723  1.00  0.00     0.031 C 
ATOM     62  C   UNL A   1      42.923  29.424  34.759  1.00  0.00     0.034 A 
BRANCH  49  63
ATOM     63  C   UNL A   1      40.693  27.860  29.230  1.00  0.00     0.023 A 
ATOM     64  C   UNL A   1      39.825  26.754  29.143  1.00  0.00     0.012 A 
ATOM     65  C   UNL A   1      41.560  28.147  28.158  1.00  0.00     0.148 A 
ATOM     66  C   UNL A   1      39.828  25.939  28.010  1.00  0.00     0.002 A 
ATOM     67  C   UNL A   1      41.527  27.358  27.015  1.00  0.00     0.091 A 
ATOM     68  F   UNL A   1      42.392  29.193  28.273  1.00  0.00    -0.205 F 
ATOM     69  C   UNL A   1      40.668  26.249  26.943  1.00  0.00     0.022 A 
BRANCH  67  70
ATOM     70  S   UNL A   1      42.508  27.722  25.555  1.00  0.00     0.127 S 
ATOM     71  O   UNL A   1      42.248  26.547  24.724  1.00  0.00    -0.237 OA
ATOM     72  O   UNL A   1      41.891  28.958  25.074  1.00  0.00    -0.237 OA
ATOM     73  O   UNL A   1      43.882  27.862  26.016  1.00  0.00    -0.744 OA
ENDBRANCH  67  70
ENDBRANCH  49  63
BRANCH  50  74
ATOM     74  C   UNL A   1      39.517  33.827  37.155  1.00  0.00     0.023 A 
ATOM     75  C   UNL A   1      40.014  35.144  37.218  1.00  0.00     0.012 A 
ATOM     76  C   UNL A   1      38.835  33.298  38.268  1.00  0.00     0.148 A 
ATOM     77  C   UNL A   1      39.877  35.900  38.383  1.00  0.00     0.002 A 
ATOM     78  C   UNL A   1      38.647  34.079  39.403  1.00  0.00     0.091 A 
ATOM     79  F   UNL A   1      38.386  32.037  38.200  1.00  0.00    -0.205 F 
ATOM     80  C   UNL A   1      39.186  35.372  39.471  1.00  0.00     0.022 A 
BRANCH  78  81
ATOM     81  S   UNL A   1      37.651  33.522  40.789  1.00  0.00     0.127 S 
ATOM     82  O   UNL A   1      38.475  32.452  41.341  1.00  0.00    -0.237 OA
ATOM     83  O   UNL A   1      37.573  34.729  41.614  1.00  0.00    -0.237 OA
ATOM     84  O   UNL A   1      36.376  33.116  40.213  1.00  0.00    -0.744 OA
ENDBRANCH  78  81
ENDBRANCH  50  74
BRANCH  62  85
ATOM     85  C   UNL A   1      44.086  28.813  35.495  1.00  0.00     0.023 A 
ATOM     86  C   UNL A   1      45.378  29.354  35.344  1.00  0.00     0.012 A 
ATOM     87  C   UNL A   1      43.882  27.751  36.398  1.00  0.00     0.148 A 
ATOM     88  C   UNL A   1      46.455  28.824  36.056  1.00  0.00     0.002 A 
ATOM     89  C   UNL A   1      44.949  27.263  37.142  1.00  0.00     0.091 A 
ATOM     90  F   UNL A   1      42.647  27.240  36.516  1.00  0.00    -0.205 F 
ATOM     91  C   UNL A   1      46.238  27.788  36.961  1.00  0.00     0.022 A 
BRANCH  89  92
ATOM     92  S   UNL A   1      44.745  26.001  38.404  1.00  0.00     0.127 S 
ATOM     93  O   UNL A   1      44.114  24.921  37.646  1.00  0.00    -0.237 OA
ATOM     94  O   UNL A   1      46.128  25.738  38.805  1.00  0.00    -0.237 OA
ATOM     95  O   UNL A   1      43.919  26.601  39.443  1.00  0.00    -0.744 OA
ENDBRANCH  89  92
ENDBRANCH  62  85
ENDBRANCH  36  37
ENDBRANCH  29  31
ENDBRANCH  28  29
ENDBRANCH  27  28
ENDBRANCH  26  27
ENDBRANCH  25  26
ENDBRANCH   1  25
TORSDOF 22
ENDMDL
MODEL 2
REMARK VINA RESULT:     -10.6      2.346      4.272
REMARK SMILES COC(=O)Cc1nc(NC(=O)[C@H]2CC[C@@H]2C(=O)OCCOCCOC(=O)c2ccc(-c3c4nc(c(-c5cccc(S(=O)(=O)[O-])c5F)c5ccc([nH]5)c(-c5cccc(S(=O)(=O)[O-])c5F)c5nc(c(-c6cccc(S(=O)(=O)[O-])c6F)c6ccc3[nH]6)C=C5)C=C4)cc2)sc1C
REMARK SMILES IDX 20 1 19 2 18 3 16 4 17 5 15 6 12 7 13 8 14 9 10 10 9 11
REMARK SMILES IDX 11 13 8 14 6 15 7 16 91 17 90 18 92 19 5 20 3 21 4 22 2 23
REMARK SMILES IDX 1 24 21 25 22 26 23 27 24 28 25 29 26 30 27 31 28 32 89 33
REMARK SMILES IDX 29 34 88 35 30 36 31 37 32 38 82 39 33 40 87 41 81 42 83 43
REMARK SMILES IDX 34 44 86 45 80 46 79 47 35 49 67 50 47 51 66 52 48 53 51 54
REMARK SMILES IDX 65 55 84 56 49 57 50 58 64 60 85 61 52 62 36 63 37 64 45 65
REMARK SMILES IDX 38 66 40 67 46 68 39 69 41 70 42 71 43 72 44 73 68 74 69 75
REMARK SMILES IDX 77 76 70 77 72 78 78 79 71 80 73 81 74 82 75 83 76 84 53 85
REMARK SMILES IDX 54 86 62 87 55 88 57 89 63 90 56 91 58 92 59 93 60 94 61 95
REMARK H PARENT 9 12 83 48 51 59
REMARK Flexibility Score: inf
ROOT
ATOM      1  C   UNL A   1      32.065  26.325  27.119  1.00  0.00     0.202 C 
ENDROOT
BRANCH   1   2
ATOM      2  C   UNL A   1      31.204  25.276  26.409  1.00  0.00     0.261 C 
BRANCH   2   3
ATOM      3  O   UNL A   1      31.142  24.067  27.183  1.00  0.00    -0.463 OA
BRANCH   3   4
ATOM      4  C   UNL A   1      32.207  23.210  27.123  1.00  0.00     0.309 C 
ATOM      5  O   UNL A   1      32.580  22.511  28.060  1.00  0.00    -0.252 OA
BRANCH   4   6
ATOM      6  C   UNL A   1      32.828  23.246  25.703  1.00  0.00     0.111 C 
ATOM      7  C   UNL A   1      32.159  22.408  24.577  1.00  0.00     0.093 C 
ATOM      8  C   UNL A   1      33.248  21.333  24.871  1.00  0.00     0.015 C 
ATOM      9  C   UNL A   1      34.124  22.455  25.442  1.00  0.00     0.017 C 
BRANCH   7  10
ATOM     10  C   UNL A   1      31.909  22.725  23.082  1.00  0.00     0.230 C 
ATOM     11  N   UNL A   1      32.163  23.904  22.415  1.00  0.00    -0.302 N 
ATOM     12  H   UNL A   1      32.327  23.788  21.452  1.00  0.00     0.172 HD
ATOM     13  O   UNL A   1      31.598  21.776  22.331  1.00  0.00    -0.274 OA
BRANCH  11  14
ATOM     14  C   UNL A   1      32.232  25.194  22.835  1.00  0.00     0.189 A 
ATOM     15  C   UNL A   1      31.659  27.280  23.244  1.00  0.00     0.068 A 
ATOM     16  N   UNL A   1      31.196  25.975  23.046  1.00  0.00    -0.224 NA
ATOM     17  C   UNL A   1      33.033  27.392  23.102  1.00  0.00     0.027 A 
ATOM     18  S   UNL A   1      33.672  25.839  23.457  1.00  0.00    -0.102 S 
ATOM     19  C   UNL A   1      33.921  28.541  22.796  1.00  0.00     0.058 C 
BRANCH  15  20
ATOM     20  C   UNL A   1      30.706  28.370  23.597  1.00  0.00     0.180 C 
BRANCH  20  21
ATOM     21  C   UNL A   1      29.554  28.539  22.651  1.00  0.00     0.311 C 
ATOM     22  O   UNL A   1      29.669  28.995  21.517  1.00  0.00    -0.252 OA
BRANCH  21  23
ATOM     23  O   UNL A   1      28.405  28.000  23.149  1.00  0.00    -0.469 OA
ATOM     24  C   UNL A   1      27.312  28.918  23.163  1.00  0.00     0.282 C 
ENDBRANCH  21  23
ENDBRANCH  20  21
ENDBRANCH  15  20
ENDBRANCH  11  14
ENDBRANCH   7  10
ENDBRANCH   4   6
ENDBRANCH   3   4
ENDBRANCH   2   3
ENDBRANCH   1   2
BRANCH   1  25
ATOM     25  O   UNL A   1      31.402  27.569  27.363  1.00  0.00    -0.374 OA
BRANCH  25  26
ATOM     26  C   UNL A   1      31.825  28.661  26.544  1.00  0.00     0.202 C 
BRANCH  26  27
ATOM     27  C   UNL A   1      32.003  29.993  27.273  1.00  0.00     0.261 C 
BRANCH  27  28
ATOM     28  O   UNL A   1      32.952  30.822  26.582  1.00  0.00    -0.460 OA
BRANCH  28  29
ATOM     29  C   UNL A   1      33.454  31.833  27.322  1.00  0.00     0.338 C 
ATOM     30  O   UNL A   1      32.854  32.826  27.719  1.00  0.00    -0.246 OA
BRANCH  29  31
ATOM     31  C   UNL A   1      34.821  31.505  27.759  1.00  0.00     0.060 A 
ATOM     32  C   UNL A   1      35.122  30.152  27.952  1.00  0.00     0.016 A 
ATOM     33  C   UNL A   1      35.773  32.492  28.031  1.00  0.00     0.016 A 
ATOM     34  C   UNL A   1      36.352  29.781  28.485  1.00  0.00     0.010 A 
ATOM     35  C   UNL A   1      37.007  32.117  28.569  1.00  0.00     0.010 A 
ATOM     36  C   UNL A   1      37.283  30.764  28.841  1.00  0.00    -0.014 A 
BRANCH  36  37
ATOM     37  C   UNL A   1      38.476  30.381  29.631  1.00  0.00     0.031 A 
ATOM     38  C   UNL A   1      39.433  29.372  29.058  1.00  0.00     0.074 A 
ATOM     39  C   UNL A   1      38.708  30.934  30.835  1.00  0.00     0.049 A 
ATOM     40  N   UNL A   1      40.524  28.878  29.580  1.00  0.00    -0.248 NA
ATOM     41  C   UNL A   1      39.120  28.845  27.717  1.00  0.00     0.031 C 
ATOM     42  C   UNL A   1      37.852  31.923  31.490  1.00  0.00     0.029 A 
ATOM     43  N   UNL A   1      39.723  30.719  31.733  1.00  0.00    -0.354 N 
ATOM     44  C   UNL A   1      41.005  27.958  28.657  1.00  0.00     0.074 A 
ATOM     45  C   UNL A   1      40.090  27.959  27.538  1.00  0.00     0.031 C 
ATOM     46  C   UNL A   1      38.358  32.202  32.704  1.00  0.00     0.029 A 
ATOM     47  C   UNL A   1      39.558  31.395  32.920  1.00  0.00     0.049 A 
ATOM     48  H   UNL A   1      40.494  30.137  31.547  1.00  0.00     0.167 HD
ATOM     49  C   UNL A   1      42.117  27.189  28.732  1.00  0.00     0.034 A 
ATOM     50  C   UNL A   1      40.277  31.343  34.059  1.00  0.00     0.034 A 
ATOM     51  C   UNL A   1      43.043  27.218  29.830  1.00  0.00     0.049 A 
ATOM     52  C   UNL A   1      41.507  30.473  34.109  1.00  0.00     0.074 A 
ATOM     53  C   UNL A   1      44.236  26.529  29.963  1.00  0.00     0.029 A 
ATOM     54  N   UNL A   1      42.876  27.958  30.988  1.00  0.00    -0.354 N 
ATOM     55  N   UNL A   1      42.025  29.718  33.172  1.00  0.00    -0.248 NA
ATOM     56  C   UNL A   1      42.274  30.476  35.365  1.00  0.00     0.031 C 
ATOM     57  C   UNL A   1      44.773  26.826  31.218  1.00  0.00     0.029 A 
ATOM     58  C   UNL A   1      43.934  27.730  31.850  1.00  0.00     0.049 A 
ATOM     59  H   UNL A   1      42.117  28.558  31.170  1.00  0.00     0.167 HD
ATOM     60  C   UNL A   1      43.195  29.190  33.709  1.00  0.00     0.074 A 
ATOM     61  C   UNL A   1      43.322  29.729  35.046  1.00  0.00     0.031 C 
ATOM     62  C   UNL A   1      44.078  28.324  33.153  1.00  0.00     0.034 A 
BRANCH  49  63
ATOM     63  C   UNL A   1      42.416  26.256  27.589  1.00  0.00     0.023 A 
ATOM     64  C   UNL A   1      43.261  26.675  26.544  1.00  0.00     0.012 A 
ATOM     65  C   UNL A   1      41.944  24.929  27.612  1.00  0.00     0.148 A 
ATOM     66  C   UNL A   1      43.623  25.789  25.529  1.00  0.00     0.002 A 
ATOM     67  C   UNL A   1      42.343  24.040  26.622  1.00  0.00     0.091 A 
ATOM     68  F   UNL A   1      41.123  24.561  28.606  1.00  0.00    -0.205 F 
ATOM     69  C   UNL A   1      43.175  24.470  25.576  1.00  0.00     0.022 A 
BRANCH  67  70
ATOM     70  S   UNL A   1      41.890  22.303  26.637  1.00  0.00     0.127 S 
ATOM     71  O   UNL A   1      42.544  21.837  27.859  1.00  0.00    -0.237 OA
ATOM     72  O   UNL A   1      40.430  22.370  26.713  1.00  0.00    -0.237 OA
ATOM     73  O   UNL A   1      42.412  21.737  25.401  1.00  0.00    -0.744 OA
ENDBRANCH  67  70
ENDBRANCH  49  63
BRANCH  50  74
ATOM     74  C   UNL A   1      39.864  32.144  35.246  1.00  0.00     0.023 A 
ATOM     75  C   UNL A   1      40.361  33.451  35.418  1.00  0.00     0.012 A 
ATOM     76  C   UNL A   1      38.996  31.609  36.217  1.00  0.00     0.148 A 
ATOM     77  C   UNL A   1      40.038  34.191  36.557  1.00  0.00     0.002 A 
ATOM     78  C   UNL A   1      38.628  32.374  37.318  1.00  0.00     0.091 A 
ATOM     79  F   UNL A   1      38.548  30.356  36.049  1.00  0.00    -0.205 F 
ATOM     80  C   UNL A   1      39.165  33.656  37.501  1.00  0.00     0.022 A 
BRANCH  78  81
ATOM     81  S   UNL A   1      37.403  31.811  38.504  1.00  0.00     0.127 S 
ATOM     82  O   UNL A   1      36.316  32.760  38.288  1.00  0.00    -0.237 OA
ATOM     83  O   UNL A   1      37.134  30.448  38.042  1.00  0.00    -0.237 OA
ATOM     84  O   UNL A   1      38.061  31.877  39.802  1.00  0.00    -0.744 OA
ENDBRANCH  78  81
ENDBRANCH  50  74
BRANCH  62  85
ATOM     85  C   UNL A   1      45.290  27.940  33.960  1.00  0.00     0.023 A 
ATOM     86  C   UNL A   1      46.436  28.760  33.945  1.00  0.00     0.012 A 
ATOM     87  C   UNL A   1      45.263  26.806  34.795  1.00  0.00     0.148 A 
ATOM     88  C   UNL A   1      47.548  28.438  34.723  1.00  0.00     0.002 A 
ATOM     89  C   UNL A   1      46.354  26.520  35.606  1.00  0.00     0.091 A 
ATOM     90  F   UNL A   1      44.169  26.029  34.783  1.00  0.00    -0.205 F 
ATOM     91  C   UNL A   1      47.502  27.326  35.561  1.00  0.00     0.022 A 
BRANCH  89  92
ATOM     92  S   UNL A   1      46.345  25.169  36.790  1.00  0.00     0.127 S 
ATOM     93  O   UNL A   1      47.450  25.540  37.673  1.00  0.00    -0.237 OA
ATOM     94  O   UNL A   1      45.016  25.292  37.392  1.00  0.00    -0.237 OA
ATOM     95  O   UNL A   1      46.546  23.953  36.014  1.00  0.00    -0.744 OA
ENDBRANCH  89  92
ENDBRANCH  62  85
ENDBRANCH  36  37
ENDBRANCH  29  31
ENDBRANCH  28  29
ENDBRANCH  27  28
ENDBRANCH  26  27
ENDBRANCH  25  26
ENDBRANCH   1  25
TORSDOF 22
ENDMDL
MODEL 3
REMARK VINA RESULT:     -10.6      2.185      7.961
REMARK SMILES COC(=O)Cc1nc(NC(=O)[C@H]2CC[C@@H]2C(=O)OCCOCCOC(=O)c2ccc(-c3c4nc(c(-c5cccc(S(=O)(=O)[O-])c5F)c5ccc([nH]5)c(-c5cccc(S(=O)(=O)[O-])c5F)c5nc(c(-c6cccc(S(=O)(=O)[O-])c6F)c6ccc3[nH]6)C=C5)C=C4)cc2)sc1C
REMARK SMILES IDX 20 1 19 2 18 3 16 4 17 5 15 6 12 7 13 8 14 9 10 10 9 11
REMARK SMILES IDX 11 13 8 14 6 15 7 16 91 17 90 18 92 19 5 20 3 21 4 22 2 23
REMARK SMILES IDX 1 24 21 25 22 26 23 27 24 28 25 29 26 30 27 31 28 32 89 33
REMARK SMILES IDX 29 34 88 35 30 36 31 37 32 38 82 39 33 40 87 41 81 42 83 43
REMARK SMILES IDX 34 44 86 45 80 46 79 47 35 49 67 50 47 51 66 52 48 53 51 54
REMARK SMILES IDX 65 55 84 56 49 57 50 58 64 60 85 61 52 62 36 63 37 64 45 65
REMARK SMILES IDX 38 66 40 67 46 68 39 69 41 70 42 71 43 72 44 73 68 74 69 75
REMARK SMILES IDX 77 76 70 77 72 78 78 79 71 80 73 81 74 82 75 83 76 84 53 85
REMARK SMILES IDX 54 86 62 87 55 88 57 89 63 90 56 91 58 92 59 93 60 94 61 95
REMARK H PARENT 9 12 83 48 51 59
REMARK Flexibility Score: inf
ROOT
ATOM      1  C   UNL A   1      32.862  28.842  26.302  1.00  0.00     0.202 C 
ENDROOT
BRANCH   1   2
ATOM      2  C   UNL A   1      33.435  29.449  25.018  1.00  0.00     0.261 C 
BRANCH   2   3
ATOM      3  O   UNL A   1      32.601  29.128  23.893  1.00  0.00    -0.463 OA
BRANCH   3   4
ATOM      4  C   UNL A   1      33.141  28.377  22.884  1.00  0.00     0.309 C 
ATOM      5  O   UNL A   1      34.243  28.585  22.388  1.00  0.00    -0.252 OA
BRANCH   4   6
ATOM      6  C   UNL A   1      32.167  27.233  22.505  1.00  0.00     0.111 C 
ATOM      7  C   UNL A   1      31.985  26.052  23.501  1.00  0.00     0.093 C 
ATOM      8  C   UNL A   1      33.008  25.281  22.613  1.00  0.00     0.015 C 
ATOM      9  C   UNL A   1      32.612  26.201  21.452  1.00  0.00     0.017 C 
BRANCH   7  10
ATOM     10  C   UNL A   1      30.722  25.258  23.920  1.00  0.00     0.230 C 
ATOM     11  N   UNL A   1      30.643  24.207  24.808  1.00  0.00    -0.302 N 
ATOM     12  H   UNL A   1      29.762  24.117  25.239  1.00  0.00     0.172 HD
ATOM     13  O   UNL A   1      29.612  25.701  23.559  1.00  0.00    -0.274 OA
BRANCH  11  14
ATOM     14  C   UNL A   1      31.547  23.273  25.202  1.00  0.00     0.189 A 
ATOM     15  C   UNL A   1      32.489  21.318  25.571  1.00  0.00     0.068 A 
ATOM     16  N   UNL A   1      31.575  22.027  24.784  1.00  0.00    -0.224 NA
ATOM     17  C   UNL A   1      33.044  22.089  26.581  1.00  0.00     0.027 A 
ATOM     18  S   UNL A   1      32.957  23.714  26.035  1.00  0.00    -0.102 S 
ATOM     19  C   UNL A   1      33.687  21.741  27.871  1.00  0.00     0.058 C 
BRANCH  15  20
ATOM     20  C   UNL A   1      32.797  19.893  25.264  1.00  0.00     0.180 C 
BRANCH  20  21
ATOM     21  C   UNL A   1      34.182  19.638  24.747  1.00  0.00     0.311 C 
ATOM     22  O   UNL A   1      35.046  20.506  24.665  1.00  0.00    -0.252 OA
BRANCH  21  23
ATOM     23  O   UNL A   1      34.400  18.312  24.514  1.00  0.00    -0.469 OA
ATOM     24  C   UNL A   1      33.529  17.763  23.526  1.00  0.00     0.282 C 
ENDBRANCH  21  23
ENDBRANCH  20  21
ENDBRANCH  15  20
ENDBRANCH  11  14
ENDBRANCH   7  10
ENDBRANCH   4   6
ENDBRANCH   3   4
ENDBRANCH   2   3
ENDBRANCH   1   2
BRANCH   1  25
ATOM     25  O   UNL A   1      32.190  29.777  27.151  1.00  0.00    -0.374 OA
BRANCH  25  26
ATOM     26  C   UNL A   1      31.479  30.817  26.476  1.00  0.00     0.202 C 
BRANCH  26  27
ATOM     27  C   UNL A   1      31.765  32.233  26.975  1.00  0.00     0.261 C 
BRANCH  27  28
ATOM     28  O   UNL A   1      33.154  32.557  26.803  1.00  0.00    -0.460 OA
BRANCH  28  29
ATOM     29  C   UNL A   1      33.724  33.159  27.869  1.00  0.00     0.338 C 
ATOM     30  O   UNL A   1      33.234  34.037  28.572  1.00  0.00    -0.246 OA
BRANCH  29  31
ATOM     31  C   UNL A   1      34.990  32.487  28.208  1.00  0.00     0.060 A 
ATOM     32  C   UNL A   1      34.926  31.122  28.514  1.00  0.00     0.016 A 
ATOM     33  C   UNL A   1      36.202  33.178  28.284  1.00  0.00     0.016 A 
ATOM     34  C   UNL A   1      36.060  30.456  28.965  1.00  0.00     0.010 A 
ATOM     35  C   UNL A   1      37.340  32.507  28.741  1.00  0.00     0.010 A 
ATOM     36  C   UNL A   1      37.262  31.156  29.126  1.00  0.00    -0.014 A 
BRANCH  36  37
ATOM     37  C   UNL A   1      38.389  30.507  29.837  1.00  0.00     0.031 A 
ATOM     38  C   UNL A   1      38.657  30.884  31.269  1.00  0.00     0.074 A 
ATOM     39  C   UNL A   1      39.154  29.590  29.218  1.00  0.00     0.049 A 
ATOM     40  N   UNL A   1      39.596  30.460  32.073  1.00  0.00    -0.248 NA
ATOM     41  C   UNL A   1      37.747  31.870  31.879  1.00  0.00     0.031 C 
ATOM     42  C   UNL A   1      38.987  29.146  27.835  1.00  0.00     0.029 A 
ATOM     43  N   UNL A   1      40.241  28.886  29.670  1.00  0.00    -0.354 N 
ATOM     44  C   UNL A   1      39.417  31.152  33.264  1.00  0.00     0.074 A 
ATOM     45  C   UNL A   1      38.280  32.026  33.083  1.00  0.00     0.031 C 
ATOM     46  C   UNL A   1      39.964  28.271  27.537  1.00  0.00     0.029 A 
ATOM     47  C   UNL A   1      40.835  28.112  28.700  1.00  0.00     0.049 A 
ATOM     48  H   UNL A   1      40.566  28.931  30.598  1.00  0.00     0.167 HD
ATOM     49  C   UNL A   1      40.133  31.060  34.409  1.00  0.00     0.034 A 
ATOM     50  C   UNL A   1      41.970  27.386  28.739  1.00  0.00     0.034 A 
ATOM     51  C   UNL A   1      41.241  30.164  34.597  1.00  0.00     0.049 A 
ATOM     52  C   UNL A   1      42.745  27.307  30.031  1.00  0.00     0.074 A 
ATOM     53  C   UNL A   1      41.982  29.945  35.745  1.00  0.00     0.029 A 
ATOM     54  N   UNL A   1      41.778  29.352  33.613  1.00  0.00    -0.354 N 
ATOM     55  N   UNL A   1      42.479  27.859  31.189  1.00  0.00    -0.248 NA
ATOM     56  C   UNL A   1      43.959  26.476  30.030  1.00  0.00     0.031 C 
ATOM     57  C   UNL A   1      42.990  29.027  35.444  1.00  0.00     0.029 A 
ATOM     58  C   UNL A   1      42.853  28.644  34.120  1.00  0.00     0.049 A 
ATOM     59  H   UNL A   1      41.443  29.287  32.689  1.00  0.00     0.167 HD
ATOM     60  C   UNL A   1      43.466  27.410  32.062  1.00  0.00     0.074 A 
ATOM     61  C   UNL A   1      44.322  26.524  31.304  1.00  0.00     0.031 C 
ATOM     62  C   UNL A   1      43.657  27.716  33.369  1.00  0.00     0.034 A 
BRANCH  49  63
ATOM     63  C   UNL A   1      39.738  31.935  35.568  1.00  0.00     0.023 A 
ATOM     64  C   UNL A   1      40.121  33.290  35.586  1.00  0.00     0.012 A 
ATOM     65  C   UNL A   1      38.897  31.437  36.582  1.00  0.00     0.148 A 
ATOM     66  C   UNL A   1      39.682  34.135  36.605  1.00  0.00     0.002 A 
ATOM     67  C   UNL A   1      38.427  32.295  37.569  1.00  0.00     0.091 A 
ATOM     68  F   UNL A   1      38.564  30.139  36.554  1.00  0.00    -0.205 F 
ATOM     69  C   UNL A   1      38.825  33.641  37.587  1.00  0.00     0.022 A 
BRANCH  67  70
ATOM     70  S   UNL A   1      37.257  31.777  38.829  1.00  0.00     0.127 S 
ATOM     71  O   UNL A   1      38.081  31.826  40.036  1.00  0.00    -0.237 OA
ATOM     72  O   UNL A   1      36.237  32.822  38.744  1.00  0.00    -0.237 OA
ATOM     73  O   UNL A   1      36.805  30.449  38.440  1.00  0.00    -0.744 OA
ENDBRANCH  67  70
ENDBRANCH  49  63
BRANCH  50  74
ATOM     74  C   UNL A   1      42.443  26.662  27.525  1.00  0.00     0.023 A 
ATOM     75  C   UNL A   1      43.128  27.363  26.513  1.00  0.00     0.012 A 
ATOM     76  C   UNL A   1      42.201  25.285  27.360  1.00  0.00     0.148 A 
ATOM     77  C   UNL A   1      43.521  26.715  25.341  1.00  0.00     0.002 A 
ATOM     78  C   UNL A   1      42.650  24.632  26.218  1.00  0.00     0.091 A 
ATOM     79  F   UNL A   1      41.530  24.636  28.324  1.00  0.00    -0.205 F 
ATOM     80  C   UNL A   1      43.290  25.349  25.197  1.00  0.00     0.022 A 
BRANCH  78  81
ATOM     81  S   UNL A   1      42.514  22.852  26.021  1.00  0.00     0.127 S 
ATOM     82  O   UNL A   1      41.083  22.637  26.212  1.00  0.00    -0.237 OA
ATOM     83  O   UNL A   1      42.990  22.659  24.651  1.00  0.00    -0.237 OA
ATOM     84  O   UNL A   1      43.388  22.281  27.038  1.00  0.00    -0.744 OA
ENDBRANCH  78  81
ENDBRANCH  50  74
BRANCH  62  85
ATOM     85  C   UNL A   1      44.802  27.053  34.087  1.00  0.00     0.023 A 
ATOM     86  C   UNL A   1      46.036  27.722  34.215  1.00  0.00     0.012 A 
ATOM     87  C   UNL A   1      44.629  25.798  34.704  1.00  0.00     0.148 A 
ATOM     88  C   UNL A   1      47.089  27.136  34.917  1.00  0.00     0.002 A 
ATOM     89  C   UNL A   1      45.665  25.244  35.445  1.00  0.00     0.091 A 
ATOM     90  F   UNL A   1      43.452  25.171  34.557  1.00  0.00    -0.205 F 
ATOM     91  C   UNL A   1      46.901  25.905  35.540  1.00  0.00     0.022 A 
BRANCH  89  92
ATOM     92  S   UNL A   1      45.479  23.713  36.366  1.00  0.00     0.127 S 
ATOM     93  O   UNL A   1      46.794  23.098  36.189  1.00  0.00    -0.237 OA
ATOM     94  O   UNL A   1      45.209  24.197  37.721  1.00  0.00    -0.237 OA
ATOM     95  O   UNL A   1      44.368  23.004  35.746  1.00  0.00    -0.744 OA
ENDBRANCH  89  92
ENDBRANCH  62  85
ENDBRANCH  36  37
ENDBRANCH  29  31
ENDBRANCH  28  29
ENDBRANCH  27  28
ENDBRANCH  26  27
ENDBRANCH  25  26
ENDBRANCH   1  25
TORSDOF 22
ENDMDL
