MODEL 1
REMARK VINA RESULT:     -11.0      0.000      0.000
REMARK SMILES O=C(Cn1c(=O)n(Cc2cccnc2)c(=O)c2sccc21)OCCOCCOC(=O)c1ccc(-c2c3nc(c(-c4cccc(S(=O)(=O)[O-])c4F)c4ccc([nH]4)c(-c4cccc(S(=O)(=O)[O-])c4F)c4nc(c(-c5cccc(S(=O)(=O)[O-])c5F)c5ccc2[nH]5)C=C4)C=C3)cc1
REMARK SMILES IDX 25 1 24 2 23 3 22 4 2 5 1 6 3 7 4 8 5 9 21 10 6 11 7 12
REMARK SMILES IDX 17 13 20 14 15 15 18 16 19 17 16 18 8 19 9 20 10 21 14 22
REMARK SMILES IDX 11 23 13 24 12 25 26 26 27 27 28 28 29 29 30 30 31 31 32 32
REMARK SMILES IDX 93 33 33 34 92 35 34 36 35 37 36 38 86 39 37 40 91 41 85 42
REMARK SMILES IDX 87 43 38 44 90 45 84 46 83 47 39 49 71 50 51 51 70 52 52 53
REMARK SMILES IDX 55 54 69 55 88 56 53 57 54 58 68 60 89 61 56 62 40 63 41 64
REMARK SMILES IDX 49 65 42 66 44 67 50 68 43 69 45 70 46 71 47 72 48 73 72 74
REMARK SMILES IDX 73 75 81 76 74 77 76 78 82 79 75 80 77 81 78 82 79 83 80 84
REMARK SMILES IDX 57 85 58 86 66 87 59 88 61 89 67 90 60 91 62 92 63 93 64 94
REMARK SMILES IDX 65 95
REMARK H PARENT 87 48 55 59
REMARK Flexibility Score: inf
ROOT
ATOM      1  O   UNL A   1      32.926  29.193  26.055  1.00  0.00    -0.374 OA
ENDROOT
BRANCH   1   2
ATOM      2  C   UNL A   1      32.790  27.838  26.471  1.00  0.00     0.202 C 
BRANCH   2   3
ATOM      3  C   UNL A   1      31.551  27.072  26.017  1.00  0.00     0.261 C 
BRANCH   3   4
ATOM      4  O   UNL A   1      31.490  25.713  26.470  1.00  0.00    -0.462 OA
BRANCH   4   5
ATOM      5  C   UNL A   1      30.605  24.764  26.098  1.00  0.00     0.326 C 
ATOM      6  O   UNL A   1      29.679  24.484  26.865  1.00  0.00    -0.250 OA
BRANCH   5   7
ATOM      7  C   UNL A   1      30.830  23.890  24.865  1.00  0.00     0.250 C 
BRANCH   7   8
ATOM      8  N   UNL A   1      32.011  23.046  24.788  1.00  0.00    -0.281 N 
ATOM      9  C   UNL A   1      31.905  21.801  25.423  1.00  0.00     0.332 A 
ATOM     10  C   UNL A   1      33.236  23.467  24.264  1.00  0.00     0.070 A 
ATOM     11  O   UNL A   1      30.860  21.470  25.987  1.00  0.00    -0.247 OA
ATOM     12  N   UNL A   1      33.009  20.957  25.368  1.00  0.00    -0.254 N 
ATOM     13  C   UNL A   1      34.342  22.683  24.456  1.00  0.00     0.116 A 
ATOM     14  C   UNL A   1      33.565  24.648  23.535  1.00  0.00     0.039 A 
ATOM     15  C   UNL A   1      34.304  21.423  25.141  1.00  0.00     0.274 A 
ATOM     16  S   UNL A   1      35.763  23.348  23.810  1.00  0.00    -0.136 S 
ATOM     17  C   UNL A   1      34.906  24.700  23.207  1.00  0.00     0.068 A 
ATOM     18  O   UNL A   1      35.303  20.824  25.532  1.00  0.00    -0.268 OA
BRANCH  12  19
ATOM     19  C   UNL A   1      32.842  19.585  25.833  1.00  0.00     0.168 C 
BRANCH  19  20
ATOM     20  C   UNL A   1      33.157  18.546  24.779  1.00  0.00    -0.010 A 
ATOM     21  C   UNL A   1      34.120  17.550  24.979  1.00  0.00     0.009 A 
ATOM     22  C   UNL A   1      32.522  18.567  23.538  1.00  0.00     0.116 A 
ATOM     23  C   UNL A   1      34.416  16.656  23.950  1.00  0.00     0.020 A 
ATOM     24  N   UNL A   1      32.782  17.706  22.528  1.00  0.00    -0.264 NA
ATOM     25  C   UNL A   1      33.727  16.772  22.755  1.00  0.00     0.111 A 
ENDBRANCH  19  20
ENDBRANCH  12  19
ENDBRANCH   7   8
ENDBRANCH   5   7
ENDBRANCH   4   5
ENDBRANCH   3   4
ENDBRANCH   2   3
ENDBRANCH   1   2
BRANCH   1  26
ATOM     26  C   UNL A   1      31.761  29.955  25.730  1.00  0.00     0.202 C 
BRANCH  26  27
ATOM     27  C   UNL A   1      31.491  31.247  26.476  1.00  0.00     0.261 C 
BRANCH  27  28
ATOM     28  O   UNL A   1      32.628  31.622  27.229  1.00  0.00    -0.460 OA
BRANCH  28  29
ATOM     29  C   UNL A   1      32.644  32.913  27.619  1.00  0.00     0.338 C 
ATOM     30  O   UNL A   1      31.815  33.769  27.370  1.00  0.00    -0.246 OA
BRANCH  29  31
ATOM     31  C   UNL A   1      33.890  33.142  28.348  1.00  0.00     0.060 A 
ATOM     32  C   UNL A   1      34.917  33.750  27.626  1.00  0.00     0.016 A 
ATOM     33  C   UNL A   1      34.104  32.499  29.578  1.00  0.00     0.016 A 
ATOM     34  C   UNL A   1      36.207  33.496  28.014  1.00  0.00     0.010 A 
ATOM     35  C   UNL A   1      35.393  32.229  29.953  1.00  0.00     0.010 A 
ATOM     36  C   UNL A   1      36.414  32.656  29.111  1.00  0.00    -0.014 A 
BRANCH  36  37
ATOM     37  C   UNL A   1      37.761  32.222  29.366  1.00  0.00     0.031 A 
ATOM     38  C   UNL A   1      37.992  30.805  29.041  1.00  0.00     0.074 A 
ATOM     39  C   UNL A   1      38.712  33.082  29.766  1.00  0.00     0.049 A 
ATOM     40  N   UNL A   1      38.230  29.838  29.861  1.00  0.00    -0.248 NA
ATOM     41  C   UNL A   1      37.766  30.392  27.648  1.00  0.00     0.031 C 
ATOM     42  C   UNL A   1      38.645  34.548  29.789  1.00  0.00     0.029 A 
ATOM     43  N   UNL A   1      40.003  32.818  30.088  1.00  0.00    -0.354 N 
ATOM     44  C   UNL A   1      38.416  28.729  29.049  1.00  0.00     0.074 A 
ATOM     45  C   UNL A   1      37.913  29.072  27.744  1.00  0.00     0.031 C 
ATOM     46  C   UNL A   1      39.904  35.037  29.854  1.00  0.00     0.029 A 
ATOM     47  C   UNL A   1      40.831  33.929  30.009  1.00  0.00     0.049 A 
ATOM     48  H   UNL A   1      40.321  31.926  30.353  1.00  0.00     0.167 HD
ATOM     49  C   UNL A   1      39.227  27.706  29.420  1.00  0.00     0.034 A 
ATOM     50  C   UNL A   1      42.183  33.898  29.960  1.00  0.00     0.034 A 
ATOM     51  C   UNL A   1      39.526  27.724  30.824  1.00  0.00     0.049 A 
ATOM     52  C   UNL A   1      42.614  32.573  30.472  1.00  0.00     0.074 A 
ATOM     53  C   UNL A   1      38.773  27.667  31.979  1.00  0.00     0.029 A 
ATOM     54  N   UNL A   1      40.758  28.206  31.190  1.00  0.00    -0.354 N 
ATOM     55  N   UNL A   1      42.467  32.184  31.707  1.00  0.00    -0.248 NA
ATOM     56  C   UNL A   1      42.870  31.512  29.511  1.00  0.00     0.031 C 
ATOM     57  C   UNL A   1      39.445  28.516  32.905  1.00  0.00     0.029 A 
ATOM     58  C   UNL A   1      40.585  29.025  32.276  1.00  0.00     0.049 A 
ATOM     59  H   UNL A   1      41.615  28.001  30.751  1.00  0.00     0.167 HD
ATOM     60  C   UNL A   1      42.178  30.828  31.617  1.00  0.00     0.074 A 
ATOM     61  C   UNL A   1      42.577  30.449  30.265  1.00  0.00     0.031 C 
ATOM     62  C   UNL A   1      41.377  30.212  32.537  1.00  0.00     0.034 A 
BRANCH  49  63
ATOM     63  C   UNL A   1      40.020  26.896  28.435  1.00  0.00     0.023 A 
ATOM     64  C   UNL A   1      39.834  25.501  28.419  1.00  0.00     0.012 A 
ATOM     65  C   UNL A   1      41.093  27.416  27.676  1.00  0.00     0.148 A 
ATOM     66  C   UNL A   1      40.671  24.668  27.668  1.00  0.00     0.002 A 
ATOM     67  C   UNL A   1      41.847  26.601  26.846  1.00  0.00     0.091 A 
ATOM     68  F   UNL A   1      41.485  28.684  27.850  1.00  0.00    -0.205 F 
ATOM     69  C   UNL A   1      41.660  25.219  26.859  1.00  0.00     0.022 A 
BRANCH  67  70
ATOM     70  S   UNL A   1      43.044  27.302  25.708  1.00  0.00     0.127 S 
ATOM     71  O   UNL A   1      44.018  27.885  26.623  1.00  0.00    -0.237 OA
ATOM     72  O   UNL A   1      43.504  26.116  24.983  1.00  0.00    -0.237 OA
ATOM     73  O   UNL A   1      42.279  28.235  24.888  1.00  0.00    -0.744 OA
ENDBRANCH  67  70
ENDBRANCH  49  63
BRANCH  50  74
ATOM     74  C   UNL A   1      43.111  34.797  29.238  1.00  0.00     0.023 A 
ATOM     75  C   UNL A   1      43.337  34.584  27.864  1.00  0.00     0.012 A 
ATOM     76  C   UNL A   1      43.550  36.014  29.806  1.00  0.00     0.148 A 
ATOM     77  C   UNL A   1      43.938  35.568  27.072  1.00  0.00     0.002 A 
ATOM     78  C   UNL A   1      44.158  36.985  29.017  1.00  0.00     0.091 A 
ATOM     79  F   UNL A   1      43.285  36.262  31.095  1.00  0.00    -0.205 F 
ATOM     80  C   UNL A   1      44.340  36.771  27.645  1.00  0.00     0.022 A 
BRANCH  78  81
ATOM     81  S   UNL A   1      44.683  38.570  29.684  1.00  0.00     0.127 S 
ATOM     82  O   UNL A   1      43.404  39.216  29.977  1.00  0.00    -0.237 OA
ATOM     83  O   UNL A   1      45.447  38.164  30.859  1.00  0.00    -0.237 OA
ATOM     84  O   UNL A   1      45.447  39.214  28.622  1.00  0.00    -0.744 OA
ENDBRANCH  78  81
ENDBRANCH  50  74
BRANCH  62  85
ATOM     85  C   UNL A   1      41.043  30.962  33.808  1.00  0.00     0.023 A 
ATOM     86  C   UNL A   1      41.908  30.963  34.922  1.00  0.00     0.012 A 
ATOM     87  C   UNL A   1      39.942  31.836  33.807  1.00  0.00     0.148 A 
ATOM     88  C   UNL A   1      41.670  31.797  36.018  1.00  0.00     0.002 A 
ATOM     89  C   UNL A   1      39.738  32.704  34.876  1.00  0.00     0.091 A 
ATOM     90  F   UNL A   1      39.128  31.832  32.740  1.00  0.00    -0.205 F 
ATOM     91  C   UNL A   1      40.595  32.679  35.987  1.00  0.00     0.022 A 
BRANCH  89  92
ATOM     92  S   UNL A   1      38.462  33.966  34.833  1.00  0.00     0.127 S 
ATOM     93  O   UNL A   1      38.755  34.738  36.038  1.00  0.00    -0.237 OA
ATOM     94  O   UNL A   1      38.747  34.662  33.576  1.00  0.00    -0.237 OA
ATOM     95  O   UNL A   1      37.192  33.249  34.837  1.00  0.00    -0.744 OA
ENDBRANCH  89  92
ENDBRANCH  62  85
ENDBRANCH  36  37
ENDBRANCH  29  31
ENDBRANCH  28  29
ENDBRANCH  27  28
ENDBRANCH  26  27
ENDBRANCH   1  26
TORSDOF 20
ENDMDL
MODEL 2
REMARK VINA RESULT:     -10.8      3.864      7.806
REMARK SMILES O=C(Cn1c(=O)n(Cc2cccnc2)c(=O)c2sccc21)OCCOCCOC(=O)c1ccc(-c2c3nc(c(-c4cccc(S(=O)(=O)[O-])c4F)c4ccc([nH]4)c(-c4cccc(S(=O)(=O)[O-])c4F)c4nc(c(-c5cccc(S(=O)(=O)[O-])c5F)c5ccc2[nH]5)C=C4)C=C3)cc1
REMARK SMILES IDX 25 1 24 2 23 3 22 4 2 5 1 6 3 7 4 8 5 9 21 10 6 11 7 12
REMARK SMILES IDX 17 13 20 14 15 15 18 16 19 17 16 18 8 19 9 20 10 21 14 22
REMARK SMILES IDX 11 23 13 24 12 25 26 26 27 27 28 28 29 29 30 30 31 31 32 32
REMARK SMILES IDX 93 33 33 34 92 35 34 36 35 37 36 38 86 39 37 40 91 41 85 42
REMARK SMILES IDX 87 43 38 44 90 45 84 46 83 47 39 49 71 50 51 51 70 52 52 53
REMARK SMILES IDX 55 54 69 55 88 56 53 57 54 58 68 60 89 61 56 62 40 63 41 64
REMARK SMILES IDX 49 65 42 66 44 67 50 68 43 69 45 70 46 71 47 72 48 73 72 74
REMARK SMILES IDX 73 75 81 76 74 77 76 78 82 79 75 80 77 81 78 82 79 83 80 84
REMARK SMILES IDX 57 85 58 86 66 87 59 88 61 89 67 90 60 91 62 92 63 93 64 94
REMARK SMILES IDX 65 95
REMARK H PARENT 87 48 55 59
REMARK Flexibility Score: inf
ROOT
ATOM      1  O   UNL A   1      33.704  28.646  25.390  1.00  0.00    -0.374 OA
ENDROOT
BRANCH   1   2
ATOM      2  C   UNL A   1      33.434  27.271  25.132  1.00  0.00     0.202 C 
BRANCH   2   3
ATOM      3  C   UNL A   1      32.422  26.934  24.042  1.00  0.00     0.261 C 
BRANCH   3   4
ATOM      4  O   UNL A   1      32.574  25.627  23.469  1.00  0.00    -0.462 OA
BRANCH   4   5
ATOM      5  C   UNL A   1      33.391  25.266  22.458  1.00  0.00     0.326 C 
ATOM      6  O   UNL A   1      33.646  26.094  21.577  1.00  0.00    -0.250 OA
BRANCH   5   7
ATOM      7  C   UNL A   1      33.839  23.818  22.258  1.00  0.00     0.250 C 
BRANCH   7   8
ATOM      8  N   UNL A   1      34.004  22.952  23.414  1.00  0.00    -0.281 N 
ATOM      9  C   UNL A   1      32.945  22.066  23.659  1.00  0.00     0.332 A 
ATOM     10  C   UNL A   1      35.053  23.066  24.329  1.00  0.00     0.070 A 
ATOM     11  O   UNL A   1      31.962  22.041  22.916  1.00  0.00    -0.247 OA
ATOM     12  N   UNL A   1      33.064  21.213  24.751  1.00  0.00    -0.254 N 
ATOM     13  C   UNL A   1      34.986  22.365  25.503  1.00  0.00     0.116 A 
ATOM     14  C   UNL A   1      36.247  23.844  24.264  1.00  0.00     0.039 A 
ATOM     15  C   UNL A   1      33.904  21.482  25.831  1.00  0.00     0.274 A 
ATOM     16  S   UNL A   1      36.303  22.645  26.535  1.00  0.00    -0.136 S 
ATOM     17  C   UNL A   1      37.029  23.692  25.393  1.00  0.00     0.068 A 
ATOM     18  O   UNL A   1      33.701  21.034  26.958  1.00  0.00    -0.268 OA
BRANCH  12  19
ATOM     19  C   UNL A   1      32.079  20.147  24.892  1.00  0.00     0.168 C 
BRANCH  19  20
ATOM     20  C   UNL A   1      32.651  18.762  24.685  1.00  0.00    -0.010 A 
ATOM     21  C   UNL A   1      33.002  18.282  23.418  1.00  0.00     0.009 A 
ATOM     22  C   UNL A   1      32.813  17.884  25.757  1.00  0.00     0.116 A 
ATOM     23  C   UNL A   1      33.466  16.974  23.276  1.00  0.00     0.020 A 
ATOM     24  N   UNL A   1      33.271  16.616  25.648  1.00  0.00    -0.264 NA
ATOM     25  C   UNL A   1      33.583  16.188  24.410  1.00  0.00     0.111 A 
ENDBRANCH  19  20
ENDBRANCH  12  19
ENDBRANCH   7   8
ENDBRANCH   5   7
ENDBRANCH   4   5
ENDBRANCH   3   4
ENDBRANCH   2   3
ENDBRANCH   1   2
BRANCH   1  26
ATOM     26  C   UNL A   1      32.804  29.404  26.201  1.00  0.00     0.202 C 
BRANCH  26  27
ATOM     27  C   UNL A   1      33.336  30.590  26.984  1.00  0.00     0.261 C 
BRANCH  27  28
ATOM     28  O   UNL A   1      34.716  30.422  27.244  1.00  0.00    -0.460 OA
BRANCH  28  29
ATOM     29  C   UNL A   1      35.304  31.471  27.856  1.00  0.00     0.338 C 
ATOM     30  O   UNL A   1      35.052  32.651  27.701  1.00  0.00    -0.246 OA
BRANCH  29  31
ATOM     31  C   UNL A   1      36.372  30.947  28.706  1.00  0.00     0.060 A 
ATOM     32  C   UNL A   1      37.511  31.746  28.816  1.00  0.00     0.016 A 
ATOM     33  C   UNL A   1      36.347  29.601  29.106  1.00  0.00     0.016 A 
ATOM     34  C   UNL A   1      38.701  31.125  29.095  1.00  0.00     0.010 A 
ATOM     35  C   UNL A   1      37.538  28.979  29.363  1.00  0.00     0.010 A 
ATOM     36  C   UNL A   1      38.699  29.737  29.261  1.00  0.00    -0.014 A 
BRANCH  36  37
ATOM     37  C   UNL A   1      39.976  29.079  29.328  1.00  0.00     0.031 A 
ATOM     38  C   UNL A   1      40.481  28.916  30.700  1.00  0.00     0.074 A 
ATOM     39  C   UNL A   1      40.570  28.585  28.229  1.00  0.00     0.049 A 
ATOM     40  N   UNL A   1      41.497  29.500  31.239  1.00  0.00    -0.248 NA
ATOM     41  C   UNL A   1      39.653  28.134  31.630  1.00  0.00     0.031 C 
ATOM     42  C   UNL A   1      39.986  28.412  26.893  1.00  0.00     0.029 A 
ATOM     43  N   UNL A   1      41.782  27.987  28.125  1.00  0.00    -0.354 N 
ATOM     44  C   UNL A   1      41.568  28.968  32.519  1.00  0.00     0.074 A 
ATOM     45  C   UNL A   1      40.309  28.316  32.774  1.00  0.00     0.031 C 
ATOM     46  C   UNL A   1      40.742  27.529  26.202  1.00  0.00     0.029 A 
ATOM     47  C   UNL A   1      41.912  27.191  26.995  1.00  0.00     0.049 A 
ATOM     48  H   UNL A   1      42.501  28.105  28.787  1.00  0.00     0.167 HD
ATOM     49  C   UNL A   1      42.750  28.851  33.175  1.00  0.00     0.034 A 
ATOM     50  C   UNL A   1      42.862  26.247  26.805  1.00  0.00     0.034 A 
ATOM     51  C   UNL A   1      43.784  29.656  32.588  1.00  0.00     0.049 A 
ATOM     52  C   UNL A   1      43.969  26.536  27.750  1.00  0.00     0.074 A 
ATOM     53  C   UNL A   1      43.948  31.005  32.347  1.00  0.00     0.029 A 
ATOM     54  N   UNL A   1      44.701  29.008  31.798  1.00  0.00    -0.354 N 
ATOM     55  N   UNL A   1      44.738  27.586  27.677  1.00  0.00    -0.248 NA
ATOM     56  C   UNL A   1      43.983  25.842  29.028  1.00  0.00     0.031 C 
ATOM     57  C   UNL A   1      44.656  31.079  31.113  1.00  0.00     0.029 A 
ATOM     58  C   UNL A   1      44.910  29.774  30.681  1.00  0.00     0.049 A 
ATOM     59  H   UNL A   1      45.132  28.146  31.998  1.00  0.00     0.167 HD
ATOM     60  C   UNL A   1      44.986  27.934  28.999  1.00  0.00     0.074 A 
ATOM     61  C   UNL A   1      44.616  26.753  29.773  1.00  0.00     0.031 C 
ATOM     62  C   UNL A   1      45.186  29.237  29.362  1.00  0.00     0.034 A 
BRANCH  49  63
ATOM     63  C   UNL A   1      43.040  27.737  34.138  1.00  0.00     0.023 A 
ATOM     64  C   UNL A   1      42.999  28.021  35.516  1.00  0.00     0.012 A 
ATOM     65  C   UNL A   1      43.561  26.481  33.751  1.00  0.00     0.148 A 
ATOM     66  C   UNL A   1      43.443  27.090  36.461  1.00  0.00     0.002 A 
ATOM     67  C   UNL A   1      43.892  25.520  34.694  1.00  0.00     0.091 A 
ATOM     68  F   UNL A   1      43.869  26.249  32.469  1.00  0.00    -0.205 F 
ATOM     69  C   UNL A   1      43.863  25.829  36.053  1.00  0.00     0.022 A 
BRANCH  67  70
ATOM     70  S   UNL A   1      44.322  23.851  34.194  1.00  0.00     0.127 S 
ATOM     71  O   UNL A   1      43.522  23.050  35.114  1.00  0.00    -0.237 OA
ATOM     72  O   UNL A   1      43.874  23.827  32.800  1.00  0.00    -0.237 OA
ATOM     73  O   UNL A   1      45.770  23.773  34.350  1.00  0.00    -0.744 OA
ENDBRANCH  67  70
ENDBRANCH  49  63
BRANCH  50  74
ATOM     74  C   UNL A   1      42.764  24.956  26.088  1.00  0.00     0.023 A 
ATOM     75  C   UNL A   1      43.718  24.650  25.098  1.00  0.00     0.012 A 
ATOM     76  C   UNL A   1      41.928  23.915  26.554  1.00  0.00     0.148 A 
ATOM     77  C   UNL A   1      43.867  23.343  24.620  1.00  0.00     0.002 A 
ATOM     78  C   UNL A   1      42.072  22.620  26.067  1.00  0.00     0.091 A 
ATOM     79  F   UNL A   1      41.060  24.172  27.541  1.00  0.00    -0.205 F 
ATOM     80  C   UNL A   1      43.051  22.327  25.110  1.00  0.00     0.022 A 
BRANCH  78  81
ATOM     81  S   UNL A   1      41.069  21.254  26.669  1.00  0.00     0.127 S 
ATOM     82  O   UNL A   1      41.277  21.338  28.115  1.00  0.00    -0.237 OA
ATOM     83  O   UNL A   1      39.735  21.639  26.219  1.00  0.00    -0.237 OA
ATOM     84  O   UNL A   1      41.624  20.054  26.055  1.00  0.00    -0.744 OA
ENDBRANCH  78  81
ENDBRANCH  50  74
BRANCH  62  85
ATOM     85  C   UNL A   1      45.415  30.255  28.267  1.00  0.00     0.023 A 
ATOM     86  C   UNL A   1      44.346  30.837  27.554  1.00  0.00     0.012 A 
ATOM     87  C   UNL A   1      46.708  30.777  28.091  1.00  0.00     0.148 A 
ATOM     88  C   UNL A   1      44.563  31.898  26.671  1.00  0.00     0.002 A 
ATOM     89  C   UNL A   1      46.913  31.868  27.252  1.00  0.00     0.091 A 
ATOM     90  F   UNL A   1      47.718  30.221  28.778  1.00  0.00    -0.205 F 
ATOM     91  C   UNL A   1      45.843  32.424  26.532  1.00  0.00     0.022 A 
BRANCH  89  92
ATOM     92  S   UNL A   1      48.506  32.688  27.144  1.00  0.00     0.127 S 
ATOM     93  O   UNL A   1      49.344  31.650  26.548  1.00  0.00    -0.237 OA
ATOM     94  O   UNL A   1      48.219  33.823  26.263  1.00  0.00    -0.237 OA
ATOM     95  O   UNL A   1      48.851  33.070  28.508  1.00  0.00    -0.744 OA
ENDBRANCH  89  92
ENDBRANCH  62  85
ENDBRANCH  36  37
ENDBRANCH  29  31
ENDBRANCH  28  29
ENDBRANCH  27  28
ENDBRANCH  26  27
ENDBRANCH   1  26
TORSDOF 20
ENDMDL
MODEL 3
REMARK VINA RESULT:     -10.8      3.722      7.966
REMARK SMILES O=C(Cn1c(=O)n(Cc2cccnc2)c(=O)c2sccc21)OCCOCCOC(=O)c1ccc(-c2c3nc(c(-c4cccc(S(=O)(=O)[O-])c4F)c4ccc([nH]4)c(-c4cccc(S(=O)(=O)[O-])c4F)c4nc(c(-c5cccc(S(=O)(=O)[O-])c5F)c5ccc2[nH]5)C=C4)C=C3)cc1
REMARK SMILES IDX 25 1 24 2 23 3 22 4 2 5 1 6 3 7 4 8 5 9 21 10 6 11 7 12
REMARK SMILES IDX 17 13 20 14 15 15 18 16 19 17 16 18 8 19 9 20 10 21 14 22
REMARK SMILES IDX 11 23 13 24 12 25 26 26 27 27 28 28 29 29 30 30 31 31 32 32
REMARK SMILES IDX 93 33 33 34 92 35 34 36 35 37 36 38 86 39 37 40 91 41 85 42
REMARK SMILES IDX 87 43 38 44 90 45 84 46 83 47 39 49 71 50 51 51 70 52 52 53
REMARK SMILES IDX 55 54 69 55 88 56 53 57 54 58 68 60 89 61 56 62 40 63 41 64
REMARK SMILES IDX 49 65 42 66 44 67 50 68 43 69 45 70 46 71 47 72 48 73 72 74
REMARK SMILES IDX 73 75 81 76 74 77 76 78 82 79 75 80 77 81 78 82 79 83 80 84
REMARK SMILES IDX 57 85 58 86 66 87 59 88 61 89 67 90 60 91 62 92 63 93 64 94
REMARK SMILES IDX 65 95
REMARK H PARENT 87 48 55 59
REMARK Flexibility Score: inf
ROOT
ATOM      1  O   UNL A   1      31.842  28.260  26.455  1.00  0.00    -0.374 OA
ENDROOT
BRANCH   1   2
ATOM      2  C   UNL A   1      31.861  26.917  25.982  1.00  0.00     0.202 C 
BRANCH   2   3
ATOM      3  C   UNL A   1      30.613  26.066  26.196  1.00  0.00     0.261 C 
BRANCH   3   4
ATOM      4  O   UNL A   1      30.826  24.877  26.969  1.00  0.00    -0.462 OA
BRANCH   4   5
ATOM      5  C   UNL A   1      30.238  23.674  26.802  1.00  0.00     0.326 C 
ATOM      6  O   UNL A   1      29.284  23.375  27.527  1.00  0.00    -0.250 OA
BRANCH   5   7
ATOM      7  C   UNL A   1      30.839  22.600  25.894  1.00  0.00     0.250 C 
BRANCH   7   8
ATOM      8  N   UNL A   1      31.989  22.921  25.066  1.00  0.00    -0.281 N 
ATOM      9  C   UNL A   1      31.701  23.576  23.861  1.00  0.00     0.332 A 
ATOM     10  C   UNL A   1      33.290  22.488  25.338  1.00  0.00     0.070 A 
ATOM     11  O   UNL A   1      30.539  23.860  23.563  1.00  0.00    -0.247 OA
ATOM     12  N   UNL A   1      32.772  23.909  23.040  1.00  0.00    -0.254 N 
ATOM     13  C   UNL A   1      34.252  22.640  24.377  1.00  0.00     0.116 A 
ATOM     14  C   UNL A   1      33.823  21.862  26.504  1.00  0.00     0.039 A 
ATOM     15  C   UNL A   1      34.005  23.258  23.107  1.00  0.00     0.274 A 
ATOM     16  S   UNL A   1      35.765  22.022  24.831  1.00  0.00    -0.136 S 
ATOM     17  C   UNL A   1      35.167  21.572  26.370  1.00  0.00     0.068 A 
ATOM     18  O   UNL A   1      34.773  23.193  22.150  1.00  0.00    -0.268 OA
BRANCH  12  19
ATOM     19  C   UNL A   1      32.511  24.776  21.897  1.00  0.00     0.168 C 
BRANCH  19  20
ATOM     20  C   UNL A   1      32.446  26.245  22.252  1.00  0.00    -0.010 A 
ATOM     21  C   UNL A   1      31.238  26.949  22.294  1.00  0.00     0.009 A 
ATOM     22  C   UNL A   1      33.607  26.973  22.513  1.00  0.00     0.116 A 
ATOM     23  C   UNL A   1      31.241  28.318  22.565  1.00  0.00     0.020 A 
ATOM     24  N   UNL A   1      33.638  28.296  22.790  1.00  0.00    -0.264 NA
ATOM     25  C   UNL A   1      32.455  28.940  22.805  1.00  0.00     0.111 A 
ENDBRANCH  19  20
ENDBRANCH  12  19
ENDBRANCH   7   8
ENDBRANCH   5   7
ENDBRANCH   4   5
ENDBRANCH   3   4
ENDBRANCH   2   3
ENDBRANCH   1   2
BRANCH   1  26
ATOM     26  C   UNL A   1      32.744  28.661  27.488  1.00  0.00     0.202 C 
BRANCH  26  27
ATOM     27  C   UNL A   1      33.686  29.822  27.237  1.00  0.00     0.261 C 
BRANCH  27  28
ATOM     28  O   UNL A   1      34.856  29.678  28.018  1.00  0.00    -0.460 OA
BRANCH  28  29
ATOM     29  C   UNL A   1      35.374  30.838  28.473  1.00  0.00     0.338 C 
ATOM     30  O   UNL A   1      34.766  31.802  28.895  1.00  0.00    -0.246 OA
BRANCH  29  31
ATOM     31  C   UNL A   1      36.826  30.772  28.304  1.00  0.00     0.060 A 
ATOM     32  C   UNL A   1      37.295  29.779  27.444  1.00  0.00     0.016 A 
ATOM     33  C   UNL A   1      37.662  31.460  29.197  1.00  0.00     0.016 A 
ATOM     34  C   UNL A   1      38.561  29.298  27.655  1.00  0.00     0.010 A 
ATOM     35  C   UNL A   1      38.918  30.966  29.421  1.00  0.00     0.010 A 
ATOM     36  C   UNL A   1      39.305  29.837  28.708  1.00  0.00    -0.014 A 
BRANCH  36  37
ATOM     37  C   UNL A   1      40.533  29.173  29.057  1.00  0.00     0.031 A 
ATOM     38  C   UNL A   1      40.683  28.937  30.502  1.00  0.00     0.074 A 
ATOM     39  C   UNL A   1      41.386  28.737  28.116  1.00  0.00     0.049 A 
ATOM     40  N   UNL A   1      41.526  29.490  31.305  1.00  0.00    -0.248 NA
ATOM     41  C   UNL A   1      39.658  28.109  31.154  1.00  0.00     0.031 C 
ATOM     42  C   UNL A   1      41.155  28.635  26.670  1.00  0.00     0.029 A 
ATOM     43  N   UNL A   1      42.593  28.142  28.286  1.00  0.00    -0.354 N 
ATOM     44  C   UNL A   1      41.283  28.891  32.534  1.00  0.00     0.074 A 
ATOM     45  C   UNL A   1      40.008  28.228  32.434  1.00  0.00     0.031 C 
ATOM     46  C   UNL A   1      42.068  27.789  26.144  1.00  0.00     0.029 A 
ATOM     47  C   UNL A   1      43.008  27.407  27.184  1.00  0.00     0.049 A 
ATOM     48  H   UNL A   1      43.124  28.224  29.111  1.00  0.00     0.167 HD
ATOM     49  C   UNL A   1      42.267  28.737  33.455  1.00  0.00     0.034 A 
ATOM     50  C   UNL A   1      43.986  26.472  27.188  1.00  0.00     0.034 A 
ATOM     51  C   UNL A   1      43.405  29.570  33.187  1.00  0.00     0.049 A 
ATOM     52  C   UNL A   1      44.820  26.709  28.392  1.00  0.00     0.074 A 
ATOM     53  C   UNL A   1      43.608  30.929  33.064  1.00  0.00     0.029 A 
ATOM     54  N   UNL A   1      44.497  28.962  32.617  1.00  0.00    -0.354 N 
ATOM     55  N   UNL A   1      45.572  27.760  28.567  1.00  0.00    -0.248 NA
ATOM     56  C   UNL A   1      44.525  25.948  29.596  1.00  0.00     0.031 C 
ATOM     57  C   UNL A   1      44.600  31.066  32.050  1.00  0.00     0.029 A 
ATOM     58  C   UNL A   1      44.968  29.786  31.628  1.00  0.00     0.049 A 
ATOM     59  H   UNL A   1      44.874  28.090  32.873  1.00  0.00     0.167 HD
ATOM     60  C   UNL A   1      45.480  28.037  29.925  1.00  0.00     0.074 A 
ATOM     61  C   UNL A   1      44.943  26.817  30.521  1.00  0.00     0.031 C 
ATOM     62  C   UNL A   1      45.569  29.318  30.393  1.00  0.00     0.034 A 
BRANCH  49  63
ATOM     63  C   UNL A   1      42.320  27.573  34.402  1.00  0.00     0.023 A 
ATOM     64  C   UNL A   1      41.754  27.729  35.681  1.00  0.00     0.012 A 
ATOM     65  C   UNL A   1      43.090  26.410  34.172  1.00  0.00     0.148 A 
ATOM     66  C   UNL A   1      41.936  26.763  36.676  1.00  0.00     0.002 A 
ATOM     67  C   UNL A   1      43.172  25.404  35.122  1.00  0.00     0.091 A 
ATOM     68  F   UNL A   1      43.864  26.323  33.083  1.00  0.00    -0.205 F 
ATOM     69  C   UNL A   1      42.620  25.586  36.389  1.00  0.00     0.022 A 
BRANCH  67  70
ATOM     70  S   UNL A   1      43.947  23.832  34.733  1.00  0.00     0.127 S 
ATOM     71  O   UNL A   1      44.362  23.371  36.053  1.00  0.00    -0.237 OA
ATOM     72  O   UNL A   1      42.838  23.087  34.134  1.00  0.00    -0.237 OA
ATOM     73  O   UNL A   1      45.012  24.162  33.792  1.00  0.00    -0.744 OA
ENDBRANCH  67  70
ENDBRANCH  49  63
BRANCH  50  74
ATOM     74  C   UNL A   1      44.083  25.221  26.403  1.00  0.00     0.023 A 
ATOM     75  C   UNL A   1      45.259  24.963  25.671  1.00  0.00     0.012 A 
ATOM     76  C   UNL A   1      43.167  24.161  26.589  1.00  0.00     0.148 A 
ATOM     77  C   UNL A   1      45.535  23.683  25.179  1.00  0.00     0.002 A 
ATOM     78  C   UNL A   1      43.441  22.892  26.088  1.00  0.00     0.091 A 
ATOM     79  F   UNL A   1      42.076  24.369  27.338  1.00  0.00    -0.205 F 
ATOM     80  C   UNL A   1      44.632  22.646  25.395  1.00  0.00     0.022 A 
BRANCH  78  81
ATOM     81  S   UNL A   1      42.332  21.501  26.346  1.00  0.00     0.127 S 
ATOM     82  O   UNL A   1      42.947  20.463  25.518  1.00  0.00    -0.237 OA
ATOM     83  O   UNL A   1      42.449  21.285  27.785  1.00  0.00    -0.237 OA
ATOM     84  O   UNL A   1      41.025  21.942  25.874  1.00  0.00    -0.744 OA
ENDBRANCH  78  81
ENDBRANCH  50  74
BRANCH  62  85
ATOM     85  C   UNL A   1      46.051  30.392  29.444  1.00  0.00     0.023 A 
ATOM     86  C   UNL A   1      47.423  30.658  29.253  1.00  0.00     0.012 A 
ATOM     87  C   UNL A   1      45.120  31.005  28.587  1.00  0.00     0.148 A 
ATOM     88  C   UNL A   1      47.856  31.529  28.250  1.00  0.00     0.002 A 
ATOM     89  C   UNL A   1      45.557  31.830  27.555  1.00  0.00     0.091 A 
ATOM     90  F   UNL A   1      43.817  30.742  28.772  1.00  0.00    -0.205 F 
ATOM     91  C   UNL A   1      46.924  32.102  27.391  1.00  0.00     0.022 A 
BRANCH  89  92
ATOM     92  S   UNL A   1      44.422  32.478  26.324  1.00  0.00     0.127 S 
ATOM     93  O   UNL A   1      45.330  32.875  25.251  1.00  0.00    -0.237 OA
ATOM     94  O   UNL A   1      43.587  31.314  26.019  1.00  0.00    -0.237 OA
ATOM     95  O   UNL A   1      43.704  33.567  26.977  1.00  0.00    -0.744 OA
ENDBRANCH  89  92
ENDBRANCH  62  85
ENDBRANCH  36  37
ENDBRANCH  29  31
ENDBRANCH  28  29
ENDBRANCH  27  28
ENDBRANCH  26  27
ENDBRANCH   1  26
TORSDOF 20
ENDMDL
