MODEL 1
REMARK VINA RESULT:     -10.2      0.000      0.000
REMARK SMILES Cc1ccc(C)c([C@@H](O)[C@@H](C)[C@@H](C)C(=O)OCCOCCOC(=O)c2ccc(-c3c4nc(c(-c5cccc(S(=O)(=O)[O-])c5F)c5ccc([nH]5)c(-c5cccc(S(=O)(=O)[O-])c5F)c5nc(c(-c6cccc(S(=O)(=O)[O-])c6F)c6ccc3[nH]6)C=C5)C=C4)cc2)c1
REMARK SMILES IDX 19 1 18 2 17 3 16 4 14 5 15 6 12 7 13 8 10 9 11 10 8 11 7 12
REMARK SMILES IDX 1 13 2 14 3 15 88 16 4 17 5 18 6 19 9 20 20 22 21 23 22 24
REMARK SMILES IDX 23 25 24 26 25 27 26 28 87 29 27 30 86 31 28 32 29 33 30 34
REMARK SMILES IDX 80 35 31 36 85 37 79 38 81 39 32 40 84 41 78 42 77 43 33 45
REMARK SMILES IDX 65 46 45 47 64 48 46 49 49 50 63 51 82 52 47 53 48 54 62 56
REMARK SMILES IDX 83 57 50 58 34 59 35 60 43 61 36 62 38 63 44 64 37 65 39 66
REMARK SMILES IDX 40 67 41 68 42 69 66 70 67 71 75 72 68 73 70 74 76 75 69 76
REMARK SMILES IDX 71 77 72 78 73 79 74 80 51 81 52 82 60 83 53 84 55 85 61 86
REMARK SMILES IDX 54 87 56 88 57 89 58 90 59 91
REMARK H PARENT 9 21 81 44 49 55
REMARK Flexibility Score: inf
ROOT
ATOM      1  O   UNL A   1      37.734  20.183  24.910  1.00  0.00    -0.374 OA
ENDROOT
BRANCH   1   2
ATOM      2  C   UNL A   1      37.943  21.551  25.176  1.00  0.00     0.202 C 
BRANCH   2   3
ATOM      3  C   UNL A   1      36.827  22.342  24.467  1.00  0.00     0.261 C 
BRANCH   3   4
ATOM      4  O   UNL A   1      35.556  21.666  24.521  1.00  0.00    -0.463 OA
BRANCH   4   5
ATOM      5  C   UNL A   1      34.765  22.003  25.580  1.00  0.00     0.309 C 
ATOM      6  O   UNL A   1      35.145  22.267  26.690  1.00  0.00    -0.252 OA
BRANCH   5   7
ATOM      7  C   UNL A   1      33.316  22.193  25.174  1.00  0.00     0.102 C 
ATOM      8  C   UNL A   1      33.153  21.959  23.675  1.00  0.00     0.020 C 
BRANCH   7   9
ATOM      9  C   UNL A   1      32.928  23.548  25.761  1.00  0.00     0.033 C 
ATOM     10  C   UNL A   1      31.735  23.399  26.741  1.00  0.00     0.011 C 
BRANCH   9  11
ATOM     11  C   UNL A   1      32.635  24.661  24.747  1.00  0.00     0.148 C 
BRANCH  11  12
ATOM     12  C   UNL A   1      32.353  25.936  25.524  1.00  0.00    -0.016 A 
ATOM     13  C   UNL A   1      34.604  28.627  26.999  1.00  0.00     0.044 C 
ATOM     14  C   UNL A   1      33.378  27.910  26.530  1.00  0.00    -0.051 A 
ATOM     15  C   UNL A   1      32.125  28.525  26.566  1.00  0.00     0.004 A 
ATOM     16  C   UNL A   1      33.477  26.611  26.035  1.00  0.00     0.010 A 
ATOM     17  C   UNL A   1      30.991  27.852  26.108  1.00  0.00     0.004 A 
ATOM     18  C   UNL A   1      31.079  26.551  25.594  1.00  0.00    -0.045 A 
ATOM     19  C   UNL A   1      29.811  25.945  25.040  1.00  0.00     0.045 C 
ENDBRANCH  11  12
BRANCH  11  20
ATOM     20  O   UNL A   1      33.691  24.923  23.840  1.00  0.00    -0.388 OA
ATOM     21  H   UNL A   1      34.128  25.755  24.084  1.00  0.00     0.211 HD
ENDBRANCH  11  20
ENDBRANCH   9  11
ENDBRANCH   7   9
ENDBRANCH   5   7
ENDBRANCH   4   5
ENDBRANCH   3   4
ENDBRANCH   2   3
ENDBRANCH   1   2
BRANCH   1  22
ATOM     22  C   UNL A   1      38.643  19.213  25.382  1.00  0.00     0.202 C 
BRANCH  22  23
ATOM     23  C   UNL A   1      39.978  19.845  25.766  1.00  0.00     0.261 C 
BRANCH  23  24
ATOM     24  O   UNL A   1      41.174  19.016  25.811  1.00  0.00    -0.460 OA
BRANCH  24  25
ATOM     25  C   UNL A   1      42.406  19.547  25.567  1.00  0.00     0.338 C 
ATOM     26  O   UNL A   1      43.176  19.104  24.728  1.00  0.00    -0.246 OA
BRANCH  25  27
ATOM     27  C   UNL A   1      42.673  20.772  26.374  1.00  0.00     0.060 A 
ATOM     28  C   UNL A   1      42.229  20.827  27.704  1.00  0.00     0.016 A 
ATOM     29  C   UNL A   1      43.115  21.930  25.731  1.00  0.00     0.016 A 
ATOM     30  C   UNL A   1      42.090  22.070  28.332  1.00  0.00     0.010 A 
ATOM     31  C   UNL A   1      42.878  23.164  26.320  1.00  0.00     0.010 A 
ATOM     32  C   UNL A   1      42.352  23.249  27.618  1.00  0.00    -0.014 A 
BRANCH  32  33
ATOM     33  C   UNL A   1      42.538  24.532  28.316  1.00  0.00     0.031 A 
ATOM     34  C   UNL A   1      41.365  25.371  28.079  1.00  0.00     0.074 A 
ATOM     35  C   UNL A   1      43.503  24.977  29.147  1.00  0.00     0.049 A 
ATOM     36  N   UNL A   1      41.335  26.323  27.207  1.00  0.00    -0.248 NA
ATOM     37  C   UNL A   1      40.062  24.996  28.639  1.00  0.00     0.031 C 
ATOM     38  C   UNL A   1      44.745  24.318  29.443  1.00  0.00     0.029 A 
ATOM     39  N   UNL A   1      43.580  26.070  29.973  1.00  0.00    -0.354 N 
ATOM     40  C   UNL A   1      40.088  26.875  27.389  1.00  0.00     0.074 A 
ATOM     41  C   UNL A   1      39.269  25.864  28.010  1.00  0.00     0.031 C 
ATOM     42  C   UNL A   1      45.305  24.770  30.579  1.00  0.00     0.029 A 
ATOM     43  C   UNL A   1      44.555  25.940  30.968  1.00  0.00     0.049 A 
ATOM     44  H   UNL A   1      43.008  26.866  29.875  1.00  0.00     0.167 HD
ATOM     45  C   UNL A   1      39.968  28.223  27.447  1.00  0.00     0.034 A 
ATOM     46  C   UNL A   1      44.903  26.785  31.965  1.00  0.00     0.034 A 
ATOM     47  C   UNL A   1      41.143  28.908  26.975  1.00  0.00     0.049 A 
ATOM     48  C   UNL A   1      44.645  28.136  31.435  1.00  0.00     0.074 A 
ATOM     49  C   UNL A   1      41.823  28.981  25.778  1.00  0.00     0.029 A 
ATOM     50  N   UNL A   1      42.000  29.329  27.961  1.00  0.00    -0.354 N 
ATOM     51  N   UNL A   1      45.338  28.666  30.462  1.00  0.00    -0.248 NA
ATOM     52  C   UNL A   1      43.371  28.776  31.724  1.00  0.00     0.031 C 
ATOM     53  C   UNL A   1      43.173  29.289  26.106  1.00  0.00     0.029 A 
ATOM     54  C   UNL A   1      43.285  29.416  27.490  1.00  0.00     0.049 A 
ATOM     55  H   UNL A   1      41.728  29.539  28.884  1.00  0.00     0.167 HD
ATOM     56  C   UNL A   1      44.383  29.347  29.725  1.00  0.00     0.074 A 
ATOM     57  C   UNL A   1      43.262  29.539  30.634  1.00  0.00     0.031 C 
ATOM     58  C   UNL A   1      44.446  29.397  28.364  1.00  0.00     0.034 A 
BRANCH  45  59
ATOM     59  C   UNL A   1      38.978  28.879  28.353  1.00  0.00     0.023 A 
ATOM     60  C   UNL A   1      38.068  29.780  27.785  1.00  0.00     0.012 A 
ATOM     61  C   UNL A   1      39.034  28.799  29.764  1.00  0.00     0.148 A 
ATOM     62  C   UNL A   1      37.212  30.533  28.592  1.00  0.00     0.002 A 
ATOM     63  C   UNL A   1      38.104  29.450  30.552  1.00  0.00     0.091 A 
ATOM     64  F   UNL A   1      40.077  28.205  30.359  1.00  0.00    -0.205 F 
ATOM     65  C   UNL A   1      37.201  30.340  29.973  1.00  0.00     0.022 A 
BRANCH  63  66
ATOM     66  S   UNL A   1      38.004  29.124  32.313  1.00  0.00     0.127 S 
ATOM     67  O   UNL A   1      39.101  29.937  32.828  1.00  0.00    -0.237 OA
ATOM     68  O   UNL A   1      36.662  29.613  32.636  1.00  0.00    -0.237 OA
ATOM     69  O   UNL A   1      38.154  27.679  32.440  1.00  0.00    -0.744 OA
ENDBRANCH  63  66
ENDBRANCH  45  59
BRANCH  46  70
ATOM     70  C   UNL A   1      45.487  26.510  33.301  1.00  0.00     0.023 A 
ATOM     71  C   UNL A   1      46.495  27.344  33.823  1.00  0.00     0.012 A 
ATOM     72  C   UNL A   1      44.860  25.598  34.185  1.00  0.00     0.148 A 
ATOM     73  C   UNL A   1      46.823  27.319  35.186  1.00  0.00     0.002 A 
ATOM     74  C   UNL A   1      45.188  25.580  35.540  1.00  0.00     0.091 A 
ATOM     75  F   UNL A   1      43.881  24.811  33.716  1.00  0.00    -0.205 F 
ATOM     76  C   UNL A   1      46.160  26.451  36.048  1.00  0.00     0.022 A 
BRANCH  74  77
ATOM     77  S   UNL A   1      44.350  24.496  36.708  1.00  0.00     0.127 S 
ATOM     78  O   UNL A   1      42.946  24.872  36.533  1.00  0.00    -0.237 OA
ATOM     79  O   UNL A   1      44.696  23.174  36.197  1.00  0.00    -0.237 OA
ATOM     80  O   UNL A   1      44.894  24.842  38.016  1.00  0.00    -0.744 OA
ENDBRANCH  74  77
ENDBRANCH  46  70
BRANCH  58  81
ATOM     81  C   UNL A   1      45.788  29.228  27.703  1.00  0.00     0.023 A 
ATOM     82  C   UNL A   1      46.732  30.268  27.603  1.00  0.00     0.012 A 
ATOM     83  C   UNL A   1      46.163  27.926  27.321  1.00  0.00     0.148 A 
ATOM     84  C   UNL A   1      48.024  30.010  27.130  1.00  0.00     0.002 A 
ATOM     85  C   UNL A   1      47.460  27.664  26.903  1.00  0.00     0.091 A 
ATOM     86  F   UNL A   1      45.243  26.952  27.411  1.00  0.00    -0.205 F 
ATOM     87  C   UNL A   1      48.393  28.707  26.798  1.00  0.00     0.022 A 
BRANCH  85  88
ATOM     88  S   UNL A   1      48.028  25.988  26.597  1.00  0.00     0.127 S 
ATOM     89  O   UNL A   1      47.183  25.578  25.477  1.00  0.00    -0.237 OA
ATOM     90  O   UNL A   1      49.437  26.192  26.257  1.00  0.00    -0.237 OA
ATOM     91  O   UNL A   1      47.816  25.259  27.841  1.00  0.00    -0.744 OA
ENDBRANCH  85  88
ENDBRANCH  58  81
ENDBRANCH  32  33
ENDBRANCH  25  27
ENDBRANCH  24  25
ENDBRANCH  23  24
ENDBRANCH  22  23
ENDBRANCH   1  22
TORSDOF 21
ENDMDL
MODEL 2
REMARK VINA RESULT:     -10.0      4.445      9.635
REMARK SMILES Cc1ccc(C)c([C@@H](O)[C@@H](C)[C@@H](C)C(=O)OCCOCCOC(=O)c2ccc(-c3c4nc(c(-c5cccc(S(=O)(=O)[O-])c5F)c5ccc([nH]5)c(-c5cccc(S(=O)(=O)[O-])c5F)c5nc(c(-c6cccc(S(=O)(=O)[O-])c6F)c6ccc3[nH]6)C=C5)C=C4)cc2)c1
REMARK SMILES IDX 19 1 18 2 17 3 16 4 14 5 15 6 12 7 13 8 10 9 11 10 8 11 7 12
REMARK SMILES IDX 1 13 2 14 3 15 88 16 4 17 5 18 6 19 9 20 20 22 21 23 22 24
REMARK SMILES IDX 23 25 24 26 25 27 26 28 87 29 27 30 86 31 28 32 29 33 30 34
REMARK SMILES IDX 80 35 31 36 85 37 79 38 81 39 32 40 84 41 78 42 77 43 33 45
REMARK SMILES IDX 65 46 45 47 64 48 46 49 49 50 63 51 82 52 47 53 48 54 62 56
REMARK SMILES IDX 83 57 50 58 34 59 35 60 43 61 36 62 38 63 44 64 37 65 39 66
REMARK SMILES IDX 40 67 41 68 42 69 66 70 67 71 75 72 68 73 70 74 76 75 69 76
REMARK SMILES IDX 71 77 72 78 73 79 74 80 51 81 52 82 60 83 53 84 55 85 61 86
REMARK SMILES IDX 54 87 56 88 57 89 58 90 59 91
REMARK H PARENT 9 21 81 44 49 55
REMARK Flexibility Score: inf
ROOT
ATOM      1  O   UNL A   1      32.271  30.811  27.319  1.00  0.00    -0.374 OA
ENDROOT
BRANCH   1   2
ATOM      2  C   UNL A   1      32.606  29.465  27.069  1.00  0.00     0.202 C 
BRANCH   2   3
ATOM      3  C   UNL A   1      33.737  29.449  26.022  1.00  0.00     0.261 C 
BRANCH   3   4
ATOM      4  O   UNL A   1      33.811  28.198  25.313  1.00  0.00    -0.463 OA
BRANCH   4   5
ATOM      5  C   UNL A   1      33.232  28.196  24.078  1.00  0.00     0.309 C 
ATOM      6  O   UNL A   1      32.733  29.143  23.530  1.00  0.00    -0.252 OA
BRANCH   5   7
ATOM      7  C   UNL A   1      33.436  26.880  23.352  1.00  0.00     0.102 C 
ATOM      8  C   UNL A   1      33.590  27.123  21.854  1.00  0.00     0.020 C 
BRANCH   7   9
ATOM      9  C   UNL A   1      32.298  25.990  23.847  1.00  0.00     0.033 C 
ATOM     10  C   UNL A   1      31.103  26.850  24.334  1.00  0.00     0.011 C 
BRANCH   9  11
ATOM     11  C   UNL A   1      32.669  24.959  24.920  1.00  0.00     0.148 C 
BRANCH  11  12
ATOM     12  C   UNL A   1      33.951  24.271  24.480  1.00  0.00    -0.016 A 
ATOM     13  C   UNL A   1      37.403  23.966  26.054  1.00  0.00     0.044 C 
ATOM     14  C   UNL A   1      36.240  23.738  25.140  1.00  0.00    -0.051 A 
ATOM     15  C   UNL A   1      36.282  22.754  24.151  1.00  0.00     0.004 A 
ATOM     16  C   UNL A   1      35.086  24.507  25.279  1.00  0.00     0.010 A 
ATOM     17  C   UNL A   1      35.183  22.539  23.319  1.00  0.00     0.004 A 
ATOM     18  C   UNL A   1      34.010  23.294  23.456  1.00  0.00    -0.045 A 
ATOM     19  C   UNL A   1      32.847  22.922  22.568  1.00  0.00     0.045 C 
ENDBRANCH  11  12
BRANCH  11  20
ATOM     20  O   UNL A   1      32.882  25.502  26.210  1.00  0.00    -0.388 OA
ATOM     21  H   UNL A   1      32.887  26.471  26.157  1.00  0.00     0.211 HD
ENDBRANCH  11  20
ENDBRANCH   9  11
ENDBRANCH   7   9
ENDBRANCH   5   7
ENDBRANCH   4   5
ENDBRANCH   3   4
ENDBRANCH   2   3
ENDBRANCH   1   2
BRANCH   1  22
ATOM     22  C   UNL A   1      33.278  31.767  27.560  1.00  0.00     0.202 C 
BRANCH  22  23
ATOM     23  C   UNL A   1      32.725  33.187  27.482  1.00  0.00     0.261 C 
BRANCH  23  24
ATOM     24  O   UNL A   1      32.313  33.863  28.704  1.00  0.00    -0.460 OA
BRANCH  24  25
ATOM     25  C   UNL A   1      33.099  34.819  29.277  1.00  0.00     0.338 C 
ATOM     26  O   UNL A   1      32.677  35.907  29.641  1.00  0.00    -0.246 OA
BRANCH  25  27
ATOM     27  C   UNL A   1      34.502  34.361  29.484  1.00  0.00     0.060 A 
ATOM     28  C   UNL A   1      35.449  34.575  28.471  1.00  0.00     0.016 A 
ATOM     29  C   UNL A   1      34.791  33.503  30.546  1.00  0.00     0.016 A 
ATOM     30  C   UNL A   1      36.622  33.811  28.452  1.00  0.00     0.010 A 
ATOM     31  C   UNL A   1      35.903  32.677  30.468  1.00  0.00     0.010 A 
ATOM     32  C   UNL A   1      36.822  32.812  29.416  1.00  0.00    -0.014 A 
BRANCH  32  33
ATOM     33  C   UNL A   1      38.155  32.225  29.633  1.00  0.00     0.031 A 
ATOM     34  C   UNL A   1      38.118  30.816  29.246  1.00  0.00     0.074 A 
ATOM     35  C   UNL A   1      39.330  32.766  30.015  1.00  0.00     0.049 A 
ATOM     36  N   UNL A   1      38.008  29.847  30.093  1.00  0.00    -0.248 NA
ATOM     37  C   UNL A   1      37.931  30.441  27.840  1.00  0.00     0.031 C 
ATOM     38  C   UNL A   1      39.538  34.108  30.486  1.00  0.00     0.029 A 
ATOM     39  N   UNL A   1      40.615  32.287  30.007  1.00  0.00    -0.354 N 
ATOM     40  C   UNL A   1      38.096  28.727  29.300  1.00  0.00     0.074 A 
ATOM     41  C   UNL A   1      37.729  29.128  27.965  1.00  0.00     0.031 C 
ATOM     42  C   UNL A   1      40.826  34.485  30.402  1.00  0.00     0.029 A 
ATOM     43  C   UNL A   1      41.581  33.298  30.081  1.00  0.00     0.049 A 
ATOM     44  H   UNL A   1      40.837  31.329  29.955  1.00  0.00     0.167 HD
ATOM     45  C   UNL A   1      38.893  27.705  29.693  1.00  0.00     0.034 A 
ATOM     46  C   UNL A   1      42.930  33.217  30.075  1.00  0.00     0.034 A 
ATOM     47  C   UNL A   1      39.289  27.805  31.074  1.00  0.00     0.049 A 
ATOM     48  C   UNL A   1      43.245  31.925  30.711  1.00  0.00     0.074 A 
ATOM     49  C   UNL A   1      38.633  27.811  32.285  1.00  0.00     0.029 A 
ATOM     50  N   UNL A   1      40.534  28.344  31.278  1.00  0.00    -0.354 N 
ATOM     51  N   UNL A   1      43.028  31.681  31.977  1.00  0.00    -0.248 NA
ATOM     52  C   UNL A   1      43.457  30.758  29.870  1.00  0.00     0.031 C 
ATOM     53  C   UNL A   1      39.463  28.537  33.185  1.00  0.00     0.029 A 
ATOM     54  C   UNL A   1      40.614  28.942  32.510  1.00  0.00     0.049 A 
ATOM     55  H   UNL A   1      41.272  28.308  30.627  1.00  0.00     0.167 HD
ATOM     56  C   UNL A   1      42.586  30.368  31.976  1.00  0.00     0.074 A 
ATOM     57  C   UNL A   1      43.049  29.808  30.715  1.00  0.00     0.031 C 
ATOM     58  C   UNL A   1      41.608  29.953  32.831  1.00  0.00     0.034 A 
BRANCH  45  59
ATOM     59  C   UNL A   1      39.665  26.893  28.704  1.00  0.00     0.023 A 
ATOM     60  C   UNL A   1      39.484  25.504  28.714  1.00  0.00     0.012 A 
ATOM     61  C   UNL A   1      40.706  27.417  27.903  1.00  0.00     0.148 A 
ATOM     62  C   UNL A   1      40.277  24.676  27.916  1.00  0.00     0.002 A 
ATOM     63  C   UNL A   1      41.403  26.610  27.024  1.00  0.00     0.091 A 
ATOM     64  F   UNL A   1      41.125  28.675  28.090  1.00  0.00    -0.205 F 
ATOM     65  C   UNL A   1      41.209  25.230  27.041  1.00  0.00     0.022 A 
BRANCH  63  66
ATOM     66  S   UNL A   1      42.521  27.321  25.815  1.00  0.00     0.127 S 
ATOM     67  O   UNL A   1      42.574  26.269  24.805  1.00  0.00    -0.237 OA
ATOM     68  O   UNL A   1      41.805  28.533  25.416  1.00  0.00    -0.237 OA
ATOM     69  O   UNL A   1      43.757  27.579  26.547  1.00  0.00    -0.744 OA
ENDBRANCH  63  66
ENDBRANCH  45  59
BRANCH  46  70
ATOM     70  C   UNL A   1      43.951  34.190  29.616  1.00  0.00     0.023 A 
ATOM     71  C   UNL A   1      44.571  35.061  30.533  1.00  0.00     0.012 A 
ATOM     72  C   UNL A   1      44.522  34.076  28.324  1.00  0.00     0.148 A 
ATOM     73  C   UNL A   1      45.751  35.741  30.205  1.00  0.00     0.002 A 
ATOM     74  C   UNL A   1      45.699  34.753  28.004  1.00  0.00     0.091 A 
ATOM     75  F   UNL A   1      43.964  33.237  27.441  1.00  0.00    -0.205 F 
ATOM     76  C   UNL A   1      46.325  35.576  28.948  1.00  0.00     0.022 A 
BRANCH  74  77
ATOM     77  S   UNL A   1      46.501  34.563  26.404  1.00  0.00     0.127 S 
ATOM     78  O   UNL A   1      45.456  35.000  25.475  1.00  0.00    -0.237 OA
ATOM     79  O   UNL A   1      47.633  35.476  26.520  1.00  0.00    -0.237 OA
ATOM     80  O   UNL A   1      46.826  33.146  26.300  1.00  0.00    -0.744 OA
ENDBRANCH  74  77
ENDBRANCH  46  70
BRANCH  58  81
ATOM     81  C   UNL A   1      41.411  30.711  34.117  1.00  0.00     0.023 A 
ATOM     82  C   UNL A   1      42.223  30.524  35.251  1.00  0.00     0.012 A 
ATOM     83  C   UNL A   1      40.477  31.764  34.110  1.00  0.00     0.148 A 
ATOM     84  C   UNL A   1      42.102  31.373  36.358  1.00  0.00     0.002 A 
ATOM     85  C   UNL A   1      40.396  32.636  35.188  1.00  0.00     0.091 A 
ATOM     86  F   UNL A   1      39.703  31.916  33.024  1.00  0.00    -0.205 F 
ATOM     87  C   UNL A   1      41.202  32.438  36.319  1.00  0.00     0.022 A 
BRANCH  85  88
ATOM     88  S   UNL A   1      39.359  34.101  35.134  1.00  0.00     0.127 S 
ATOM     89  O   UNL A   1      38.016  33.528  35.192  1.00  0.00    -0.237 OA
ATOM     90  O   UNL A   1      39.770  34.820  36.342  1.00  0.00    -0.237 OA
ATOM     91  O   UNL A   1      39.696  34.786  33.892  1.00  0.00    -0.744 OA
ENDBRANCH  85  88
ENDBRANCH  58  81
ENDBRANCH  32  33
ENDBRANCH  25  27
ENDBRANCH  24  25
ENDBRANCH  23  24
ENDBRANCH  22  23
ENDBRANCH   1  22
TORSDOF 21
ENDMDL
MODEL 3
REMARK VINA RESULT:      -9.9      2.923      7.731
REMARK SMILES Cc1ccc(C)c([C@@H](O)[C@@H](C)[C@@H](C)C(=O)OCCOCCOC(=O)c2ccc(-c3c4nc(c(-c5cccc(S(=O)(=O)[O-])c5F)c5ccc([nH]5)c(-c5cccc(S(=O)(=O)[O-])c5F)c5nc(c(-c6cccc(S(=O)(=O)[O-])c6F)c6ccc3[nH]6)C=C5)C=C4)cc2)c1
REMARK SMILES IDX 19 1 18 2 17 3 16 4 14 5 15 6 12 7 13 8 10 9 11 10 8 11 7 12
REMARK SMILES IDX 1 13 2 14 3 15 88 16 4 17 5 18 6 19 9 20 20 22 21 23 22 24
REMARK SMILES IDX 23 25 24 26 25 27 26 28 87 29 27 30 86 31 28 32 29 33 30 34
REMARK SMILES IDX 80 35 31 36 85 37 79 38 81 39 32 40 84 41 78 42 77 43 33 45
REMARK SMILES IDX 65 46 45 47 64 48 46 49 49 50 63 51 82 52 47 53 48 54 62 56
REMARK SMILES IDX 83 57 50 58 34 59 35 60 43 61 36 62 38 63 44 64 37 65 39 66
REMARK SMILES IDX 40 67 41 68 42 69 66 70 67 71 75 72 68 73 70 74 76 75 69 76
REMARK SMILES IDX 71 77 72 78 73 79 74 80 51 81 52 82 60 83 53 84 55 85 61 86
REMARK SMILES IDX 54 87 56 88 57 89 58 90 59 91
REMARK H PARENT 9 21 81 44 49 55
REMARK Flexibility Score: inf
ROOT
ATOM      1  O   UNL A   1      32.937  30.034  25.507  1.00  0.00    -0.374 OA
ENDROOT
BRANCH   1   2
ATOM      2  C   UNL A   1      33.294  29.058  24.555  1.00  0.00     0.202 C 
BRANCH   2   3
ATOM      3  C   UNL A   1      32.143  28.956  23.534  1.00  0.00     0.261 C 
BRANCH   3   4
ATOM      4  O   UNL A   1      31.059  28.136  24.010  1.00  0.00    -0.463 OA
BRANCH   4   5
ATOM      5  C   UNL A   1      30.125  27.809  23.071  1.00  0.00     0.309 C 
ATOM      6  O   UNL A   1      29.919  28.400  22.044  1.00  0.00    -0.252 OA
BRANCH   5   7
ATOM      7  C   UNL A   1      29.458  26.479  23.365  1.00  0.00     0.102 C 
ATOM      8  C   UNL A   1      28.159  26.700  24.133  1.00  0.00     0.020 C 
BRANCH   7   9
ATOM      9  C   UNL A   1      30.559  25.630  23.996  1.00  0.00     0.033 C 
ATOM     10  C   UNL A   1      30.671  24.259  23.280  1.00  0.00     0.011 C 
BRANCH   9  11
ATOM     11  C   UNL A   1      30.461  25.421  25.512  1.00  0.00     0.148 C 
BRANCH  11  12
ATOM     12  C   UNL A   1      31.520  24.407  25.911  1.00  0.00    -0.016 A 
ATOM     13  C   UNL A   1      35.323  24.428  25.754  1.00  0.00     0.044 C 
ATOM     14  C   UNL A   1      33.923  24.019  26.091  1.00  0.00    -0.051 A 
ATOM     15  C   UNL A   1      33.672  22.943  26.945  1.00  0.00     0.004 A 
ATOM     16  C   UNL A   1      32.846  24.724  25.559  1.00  0.00     0.010 A 
ATOM     17  C   UNL A   1      32.363  22.585  27.267  1.00  0.00     0.004 A 
ATOM     18  C   UNL A   1      31.269  23.294  26.752  1.00  0.00    -0.045 A 
ATOM     19  C   UNL A   1      29.897  22.885  27.232  1.00  0.00     0.045 C 
ENDBRANCH  11  12
BRANCH  11  20
ATOM     20  O   UNL A   1      30.663  26.592  26.282  1.00  0.00    -0.388 OA
ATOM     21  H   UNL A   1      29.821  27.067  26.375  1.00  0.00     0.211 HD
ENDBRANCH  11  20
ENDBRANCH   9  11
ENDBRANCH   7   9
ENDBRANCH   5   7
ENDBRANCH   4   5
ENDBRANCH   3   4
ENDBRANCH   2   3
ENDBRANCH   1   2
BRANCH   1  22
ATOM     22  C   UNL A   1      33.366  29.921  26.845  1.00  0.00     0.202 C 
BRANCH  22  23
ATOM     23  C   UNL A   1      33.267  31.258  27.575  1.00  0.00     0.261 C 
BRANCH  23  24
ATOM     24  O   UNL A   1      34.485  31.972  27.929  1.00  0.00    -0.460 OA
BRANCH  24  25
ATOM     25  C   UNL A   1      34.870  32.101  29.230  1.00  0.00     0.338 C 
ATOM     26  O   UNL A   1      34.219  32.708  30.068  1.00  0.00    -0.246 OA
BRANCH  25  27
ATOM     27  C   UNL A   1      36.124  31.356  29.535  1.00  0.00     0.060 A 
ATOM     28  C   UNL A   1      37.297  32.073  29.818  1.00  0.00     0.016 A 
ATOM     29  C   UNL A   1      36.183  29.984  29.278  1.00  0.00     0.016 A 
ATOM     30  C   UNL A   1      38.538  31.439  29.692  1.00  0.00     0.010 A 
ATOM     31  C   UNL A   1      37.417  29.389  29.055  1.00  0.00     0.010 A 
ATOM     32  C   UNL A   1      38.605  30.111  29.246  1.00  0.00    -0.014 A 
BRANCH  32  33
ATOM     33  C   UNL A   1      39.832  29.316  29.414  1.00  0.00     0.031 A 
ATOM     34  C   UNL A   1      40.164  29.257  30.837  1.00  0.00     0.074 A 
ATOM     35  C   UNL A   1      40.583  28.613  28.540  1.00  0.00     0.049 A 
ATOM     36  N   UNL A   1      41.064  30.002  31.389  1.00  0.00    -0.248 NA
ATOM     37  C   UNL A   1      39.294  28.532  31.769  1.00  0.00     0.031 C 
ATOM     38  C   UNL A   1      40.442  28.605  27.109  1.00  0.00     0.029 A 
ATOM     39  N   UNL A   1      41.588  27.696  28.712  1.00  0.00    -0.354 N 
ATOM     40  C   UNL A   1      41.085  29.553  32.689  1.00  0.00     0.074 A 
ATOM     41  C   UNL A   1      39.814  28.919  32.935  1.00  0.00     0.031 C 
ATOM     42  C   UNL A   1      41.031  27.536  26.545  1.00  0.00     0.029 A 
ATOM     43  C   UNL A   1      41.805  26.899  27.582  1.00  0.00     0.049 A 
ATOM     44  H   UNL A   1      42.105  27.608  29.545  1.00  0.00     0.167 HD
ATOM     45  C   UNL A   1      42.279  29.326  33.287  1.00  0.00     0.034 A 
ATOM     46  C   UNL A   1      42.680  25.887  27.384  1.00  0.00     0.034 A 
ATOM     47  C   UNL A   1      43.382  29.910  32.568  1.00  0.00     0.049 A 
ATOM     48  C   UNL A   1      43.847  26.213  28.223  1.00  0.00     0.074 A 
ATOM     49  C   UNL A   1      43.757  31.188  32.213  1.00  0.00     0.029 A 
ATOM     50  N   UNL A   1      44.062  29.041  31.752  1.00  0.00    -0.354 N 
ATOM     51  N   UNL A   1      44.640  27.224  27.983  1.00  0.00    -0.248 NA
ATOM     52  C   UNL A   1      43.935  25.645  29.559  1.00  0.00     0.031 C 
ATOM     53  C   UNL A   1      44.549  31.059  31.038  1.00  0.00     0.029 A 
ATOM     54  C   UNL A   1      44.656  29.708  30.711  1.00  0.00     0.049 A 
ATOM     55  H   UNL A   1      44.116  28.068  31.894  1.00  0.00     0.167 HD
ATOM     56  C   UNL A   1      44.928  27.710  29.247  1.00  0.00     0.074 A 
ATOM     57  C   UNL A   1      44.639  26.610  30.156  1.00  0.00     0.031 C 
ATOM     58  C   UNL A   1      45.051  29.048  29.477  1.00  0.00     0.034 A 
BRANCH  45  59
ATOM     59  C   UNL A   1      42.468  28.200  34.250  1.00  0.00     0.023 A 
ATOM     60  C   UNL A   1      41.561  27.134  34.197  1.00  0.00     0.012 A 
ATOM     61  C   UNL A   1      43.377  28.240  35.333  1.00  0.00     0.148 A 
ATOM     62  C   UNL A   1      41.594  26.121  35.158  1.00  0.00     0.002 A 
ATOM     63  C   UNL A   1      43.489  27.176  36.208  1.00  0.00     0.091 A 
ATOM     64  F   UNL A   1      44.041  29.371  35.608  1.00  0.00    -0.205 F 
ATOM     65  C   UNL A   1      42.582  26.120  36.140  1.00  0.00     0.022 A 
BRANCH  63  66
ATOM     66  S   UNL A   1      44.825  27.107  37.403  1.00  0.00     0.127 S 
ATOM     67  O   UNL A   1      44.665  25.763  37.950  1.00  0.00    -0.237 OA
ATOM     68  O   UNL A   1      46.001  27.298  36.553  1.00  0.00    -0.237 OA
ATOM     69  O   UNL A   1      44.571  28.214  38.319  1.00  0.00    -0.744 OA
ENDBRANCH  63  66
ENDBRANCH  45  59
BRANCH  46  70
ATOM     70  C   UNL A   1      42.600  24.707  26.488  1.00  0.00     0.023 A 
ATOM     71  C   UNL A   1      43.600  24.475  25.523  1.00  0.00     0.012 A 
ATOM     72  C   UNL A   1      41.694  23.655  26.767  1.00  0.00     0.148 A 
ATOM     73  C   UNL A   1      43.735  23.225  24.905  1.00  0.00     0.002 A 
ATOM     74  C   UNL A   1      41.836  22.411  26.152  1.00  0.00     0.091 A 
ATOM     75  F   UNL A   1      40.749  23.843  27.698  1.00  0.00    -0.205 F 
ATOM     76  C   UNL A   1      42.866  22.187  25.231  1.00  0.00     0.022 A 
BRANCH  74  77
ATOM     77  S   UNL A   1      40.758  21.025  26.546  1.00  0.00     0.127 S 
ATOM     78  O   UNL A   1      39.450  21.509  26.101  1.00  0.00    -0.237 OA
ATOM     79  O   UNL A   1      41.323  19.957  25.728  1.00  0.00    -0.237 OA
ATOM     80  O   UNL A   1      40.862  20.852  27.990  1.00  0.00    -0.744 OA
ENDBRANCH  74  77
ENDBRANCH  46  70
BRANCH  58  81
ATOM     81  C   UNL A   1      45.438  29.940  28.327  1.00  0.00     0.023 A 
ATOM     82  C   UNL A   1      44.497  30.598  27.514  1.00  0.00     0.012 A 
ATOM     83  C   UNL A   1      46.804  30.247  28.178  1.00  0.00     0.148 A 
ATOM     84  C   UNL A   1      44.914  31.545  26.570  1.00  0.00     0.002 A 
ATOM     85  C   UNL A   1      47.209  31.223  27.278  1.00  0.00     0.091 A 
ATOM     86  F   UNL A   1      47.686  29.597  28.954  1.00  0.00    -0.205 F 
ATOM     87  C   UNL A   1      46.266  31.870  26.465  1.00  0.00     0.022 A 
BRANCH  85  88
ATOM     88  S   UNL A   1      48.915  31.779  27.201  1.00  0.00     0.127 S 
ATOM     89  O   UNL A   1      49.160  32.207  28.577  1.00  0.00    -0.237 OA
ATOM     90  O   UNL A   1      49.623  30.561  26.804  1.00  0.00    -0.237 OA
ATOM     91  O   UNL A   1      48.948  32.838  26.199  1.00  0.00    -0.744 OA
ENDBRANCH  85  88
ENDBRANCH  58  81
ENDBRANCH  32  33
ENDBRANCH  25  27
ENDBRANCH  24  25
ENDBRANCH  23  24
ENDBRANCH  22  23
ENDBRANCH   1  22
TORSDOF 21
ENDMDL
