MODEL 1
REMARK VINA RESULT:     -12.1      0.000      0.000
REMARK SMILES Cc1ccc(NC(=O)c2ccccc2NC(=O)[C@H]2CCCC[C@H]2C(=O)OCCOCCOC(=O)c2ccc(-c3c4nc(c(-c5cccc(S(=O)(=O)[O-])c5F)c5ccc([nH]5)c(-c5cccc(S(=O)(=O)[O-])c5F)c5nc(c(-c6cccc(S(=O)(=O)[O-])c6F)c6ccc3[nH]6)C=C5)C=C4)cc2)cc1
REMARK SMILES IDX 28 1 27 2 26 3 24 4 25 5 23 6 18 7 19 8 20 9 22 10 21 11
REMARK SMILES IDX 16 12 15 13 17 15 14 16 9 17 10 18 11 19 13 20 12 21 7 22
REMARK SMILES IDX 6 23 8 25 5 26 1 27 2 28 3 29 99 30 4 31 98 32 29 33 30 34
REMARK SMILES IDX 31 35 32 36 33 37 34 38 35 39 36 40 97 41 37 42 96 43 38 44
REMARK SMILES IDX 39 45 40 46 90 47 41 48 95 49 89 50 91 51 42 52 94 53 88 54
REMARK SMILES IDX 87 55 43 57 75 58 55 59 74 60 56 61 59 62 73 63 92 64 57 65
REMARK SMILES IDX 58 66 72 68 93 69 60 70 44 71 45 72 53 73 46 74 48 75 54 76
REMARK SMILES IDX 47 77 49 78 50 79 51 80 52 81 76 82 77 83 85 84 78 85 80 86
REMARK SMILES IDX 86 87 79 88 81 89 82 90 83 91 84 92 61 93 62 94 70 95 63 96
REMARK SMILES IDX 65 97 71 98 64 99 66 100 67 101 68 102 69 103
REMARK H PARENT 15 14 6 24 91 56 59 67
REMARK Flexibility Score: inf
ROOT
ATOM      1  C   UNL A   1      38.100  19.858  25.074  1.00  0.00     0.202 C 
ENDROOT
BRANCH   1   2
ATOM      2  C   UNL A   1      38.166  21.380  25.283  1.00  0.00     0.261 C 
BRANCH   2   3
ATOM      3  O   UNL A   1      36.964  21.928  25.771  1.00  0.00    -0.463 OA
BRANCH   3   4
ATOM      4  C   UNL A   1      36.077  22.160  24.791  1.00  0.00     0.309 C 
ATOM      5  O   UNL A   1      36.340  22.453  23.632  1.00  0.00    -0.252 OA
BRANCH   4   6
ATOM      6  C   UNL A   1      34.684  21.926  25.272  1.00  0.00     0.111 C 
ATOM      7  C   UNL A   1      33.738  23.157  25.299  1.00  0.00     0.093 C 
ATOM      8  C   UNL A   1      32.417  22.719  25.947  1.00  0.00     0.014 C 
ATOM      9  C   UNL A   1      31.851  21.419  25.352  1.00  0.00     0.001 C 
ATOM     10  C   UNL A   1      34.114  20.691  24.589  1.00  0.00     0.016 C 
ATOM     11  C   UNL A   1      32.856  20.273  25.323  1.00  0.00     0.001 C 
BRANCH   7  12
ATOM     12  C   UNL A   1      33.472  23.845  23.949  1.00  0.00     0.228 C 
ATOM     13  N   UNL A   1      33.398  25.201  23.761  1.00  0.00    -0.325 N 
ATOM     14  H   UNL A   1      33.262  25.415  22.810  1.00  0.00     0.169 HD
ATOM     15  O   UNL A   1      33.282  23.159  22.936  1.00  0.00    -0.274 OA
BRANCH  13  16
ATOM     16  C   UNL A   1      33.458  26.388  24.540  1.00  0.00     0.054 A 
ATOM     17  C   UNL A   1      33.451  27.665  23.903  1.00  0.00     0.063 A 
ATOM     18  C   UNL A   1      33.915  28.789  24.625  1.00  0.00     0.016 A 
ATOM     19  C   UNL A   1      34.267  28.694  25.967  1.00  0.00     0.001 A 
ATOM     20  C   UNL A   1      33.631  26.361  25.929  1.00  0.00     0.027 A 
ATOM     21  C   UNL A   1      34.064  27.495  26.631  1.00  0.00     0.002 A 
BRANCH  17  22
ATOM     22  C   UNL A   1      33.111  27.979  22.471  1.00  0.00     0.257 C 
ATOM     23  N   UNL A   1      31.826  28.079  21.979  1.00  0.00    -0.322 N 
ATOM     24  H   UNL A   1      31.764  28.021  20.998  1.00  0.00     0.170 HD
ATOM     25  O   UNL A   1      34.033  28.167  21.675  1.00  0.00    -0.269 OA
BRANCH  23  26
ATOM     26  C   UNL A   1      30.595  28.247  22.625  1.00  0.00     0.041 A 
ATOM     27  C   UNL A   1      26.369  28.367  23.236  1.00  0.00     0.044 C 
ATOM     28  C   UNL A   1      27.863  28.400  23.154  1.00  0.00    -0.051 A 
ATOM     29  C   UNL A   1      28.607  27.301  23.597  1.00  0.00     0.005 A 
ATOM     30  C   UNL A   1      28.532  29.493  22.600  1.00  0.00     0.005 A 
ATOM     31  C   UNL A   1      29.977  27.237  23.353  1.00  0.00     0.026 A 
ATOM     32  C   UNL A   1      29.911  29.438  22.399  1.00  0.00     0.026 A 
ENDBRANCH  23  26
ENDBRANCH  17  22
ENDBRANCH  13  16
ENDBRANCH   7  12
ENDBRANCH   4   6
ENDBRANCH   3   4
ENDBRANCH   2   3
ENDBRANCH   1   2
BRANCH   1  33
ATOM     33  O   UNL A   1      39.293  19.126  25.214  1.00  0.00    -0.374 OA
BRANCH  33  34
ATOM     34  C   UNL A   1      40.202  19.651  26.169  1.00  0.00     0.202 C 
BRANCH  34  35
ATOM     35  C   UNL A   1      41.773  19.430  26.103  1.00  0.00     0.261 C 
BRANCH  35  36
ATOM     36  O   UNL A   1      42.601  20.485  26.668  1.00  0.00    -0.460 OA
BRANCH  36  37
ATOM     37  C   UNL A   1      43.320  21.454  26.013  1.00  0.00     0.338 C 
ATOM     38  O   UNL A   1      44.512  21.384  25.731  1.00  0.00    -0.246 OA
BRANCH  37  39
ATOM     39  C   UNL A   1      42.380  22.644  25.794  1.00  0.00     0.060 A 
ATOM     40  C   UNL A   1      42.734  23.787  25.084  1.00  0.00     0.016 A 
ATOM     41  C   UNL A   1      41.407  22.841  26.741  1.00  0.00     0.016 A 
ATOM     42  C   UNL A   1      42.641  25.058  25.700  1.00  0.00     0.010 A 
ATOM     43  C   UNL A   1      41.475  24.031  27.447  1.00  0.00     0.010 A 
ATOM     44  C   UNL A   1      42.251  25.110  27.014  1.00  0.00    -0.014 A 
BRANCH  44  45
ATOM     45  C   UNL A   1      42.540  26.156  28.013  1.00  0.00     0.031 A 
ATOM     46  C   UNL A   1      41.463  27.165  28.215  1.00  0.00     0.074 A 
ATOM     47  C   UNL A   1      43.587  26.110  28.897  1.00  0.00     0.049 A 
ATOM     48  N   UNL A   1      41.607  28.260  28.871  1.00  0.00    -0.248 NA
ATOM     49  C   UNL A   1      40.122  27.053  27.627  1.00  0.00     0.031 C 
ATOM     50  C   UNL A   1      43.609  26.730  30.237  1.00  0.00     0.029 A 
ATOM     51  N   UNL A   1      44.827  25.472  28.863  1.00  0.00    -0.354 N 
ATOM     52  C   UNL A   1      40.349  28.784  29.071  1.00  0.00     0.074 A 
ATOM     53  C   UNL A   1      39.495  28.106  28.147  1.00  0.00     0.031 C 
ATOM     54  C   UNL A   1      44.822  26.597  30.798  1.00  0.00     0.029 A 
ATOM     55  C   UNL A   1      45.708  26.040  29.804  1.00  0.00     0.049 A 
ATOM     56  H   UNL A   1      45.056  24.726  28.262  1.00  0.00     0.167 HD
ATOM     57  C   UNL A   1      40.149  29.632  30.109  1.00  0.00     0.034 A 
ATOM     58  C   UNL A   1      46.893  26.634  29.453  1.00  0.00     0.034 A 
ATOM     59  C   UNL A   1      41.441  29.997  30.713  1.00  0.00     0.049 A 
ATOM     60  C   UNL A   1      46.822  28.152  29.482  1.00  0.00     0.074 A 
ATOM     61  C   UNL A   1      42.084  29.649  31.884  1.00  0.00     0.029 A 
ATOM     62  N   UNL A   1      42.413  30.565  29.892  1.00  0.00    -0.354 N 
ATOM     63  N   UNL A   1      45.824  28.825  29.989  1.00  0.00    -0.248 NA
ATOM     64  C   UNL A   1      47.849  29.043  28.942  1.00  0.00     0.031 C 
ATOM     65  C   UNL A   1      43.475  29.928  31.714  1.00  0.00     0.029 A 
ATOM     66  C   UNL A   1      43.674  30.498  30.464  1.00  0.00     0.049 A 
ATOM     67  H   UNL A   1      42.228  30.965  29.012  1.00  0.00     0.167 HD
ATOM     68  C   UNL A   1      45.913  30.141  29.628  1.00  0.00     0.074 A 
ATOM     69  C   UNL A   1      47.262  30.244  29.093  1.00  0.00     0.031 C 
ATOM     70  C   UNL A   1      44.842  30.996  29.721  1.00  0.00     0.034 A 
BRANCH  57  71
ATOM     71  C   UNL A   1      38.795  30.035  30.673  1.00  0.00     0.023 A 
ATOM     72  C   UNL A   1      38.466  29.498  31.935  1.00  0.00     0.012 A 
ATOM     73  C   UNL A   1      37.791  30.835  30.057  1.00  0.00     0.148 A 
ATOM     74  C   UNL A   1      37.235  29.743  32.556  1.00  0.00     0.002 A 
ATOM     75  C   UNL A   1      36.592  31.140  30.712  1.00  0.00     0.091 A 
ATOM     76  F   UNL A   1      37.928  31.239  28.792  1.00  0.00    -0.205 F 
ATOM     77  C   UNL A   1      36.306  30.581  31.958  1.00  0.00     0.022 A 
BRANCH  75  78
ATOM     78  S   UNL A   1      35.350  32.263  30.029  1.00  0.00     0.127 S 
ATOM     79  O   UNL A   1      34.436  32.439  31.159  1.00  0.00    -0.237 OA
ATOM     80  O   UNL A   1      36.145  33.449  29.705  1.00  0.00    -0.237 OA
ATOM     81  O   UNL A   1      34.774  31.590  28.872  1.00  0.00    -0.744 OA
ENDBRANCH  75  78
ENDBRANCH  57  71
BRANCH  58  82
ATOM     82  C   UNL A   1      47.702  25.781  28.540  1.00  0.00     0.023 A 
ATOM     83  C   UNL A   1      47.133  25.631  27.253  1.00  0.00     0.012 A 
ATOM     84  C   UNL A   1      49.091  25.696  28.695  1.00  0.00     0.148 A 
ATOM     85  C   UNL A   1      47.945  25.643  26.128  1.00  0.00     0.002 A 
ATOM     86  C   UNL A   1      49.883  25.716  27.552  1.00  0.00     0.091 A 
ATOM     87  F   UNL A   1      49.612  25.791  29.926  1.00  0.00    -0.205 F 
ATOM     88  C   UNL A   1      49.316  25.677  26.266  1.00  0.00     0.022 A 
BRANCH  86  89
ATOM     89  S   UNL A   1      51.463  26.557  27.569  1.00  0.00     0.127 S 
ATOM     90  O   UNL A   1      51.406  27.428  26.401  1.00  0.00    -0.237 OA
ATOM     91  O   UNL A   1      51.292  27.252  28.840  1.00  0.00    -0.237 OA
ATOM     92  O   UNL A   1      52.483  25.521  27.535  1.00  0.00    -0.744 OA
ENDBRANCH  86  89
ENDBRANCH  58  82
BRANCH  70  93
ATOM     93  C   UNL A   1      44.786  32.386  29.086  1.00  0.00     0.023 A 
ATOM     94  C   UNL A   1      45.213  33.546  29.762  1.00  0.00     0.012 A 
ATOM     95  C   UNL A   1      44.400  32.568  27.731  1.00  0.00     0.148 A 
ATOM     96  C   UNL A   1      45.145  34.818  29.183  1.00  0.00     0.002 A 
ATOM     97  C   UNL A   1      44.484  33.812  27.112  1.00  0.00     0.091 A 
ATOM     98  F   UNL A   1      43.908  31.540  27.025  1.00  0.00    -0.205 F 
ATOM     99  C   UNL A   1      44.799  34.951  27.850  1.00  0.00     0.022 A 
BRANCH  97 100
ATOM    100  S   UNL A   1      44.346  33.986  25.327  1.00  0.00     0.127 S 
ATOM    101  O   UNL A   1      43.151  34.817  25.198  1.00  0.00    -0.237 OA
ATOM    102  O   UNL A   1      45.599  34.662  24.987  1.00  0.00    -0.237 OA
ATOM    103  O   UNL A   1      44.243  32.628  24.812  1.00  0.00    -0.744 OA
ENDBRANCH  97 100
ENDBRANCH  70  93
ENDBRANCH  44  45
ENDBRANCH  37  39
ENDBRANCH  36  37
ENDBRANCH  35  36
ENDBRANCH  34  35
ENDBRANCH  33  34
ENDBRANCH   1  33
TORSDOF 21
ENDMDL
MODEL 2
REMARK VINA RESULT:     -11.8      2.132      2.818
REMARK SMILES Cc1ccc(NC(=O)c2ccccc2NC(=O)[C@H]2CCCC[C@H]2C(=O)OCCOCCOC(=O)c2ccc(-c3c4nc(c(-c5cccc(S(=O)(=O)[O-])c5F)c5ccc([nH]5)c(-c5cccc(S(=O)(=O)[O-])c5F)c5nc(c(-c6cccc(S(=O)(=O)[O-])c6F)c6ccc3[nH]6)C=C5)C=C4)cc2)cc1
REMARK SMILES IDX 28 1 27 2 26 3 24 4 25 5 23 6 18 7 19 8 20 9 22 10 21 11
REMARK SMILES IDX 16 12 15 13 17 15 14 16 9 17 10 18 11 19 13 20 12 21 7 22
REMARK SMILES IDX 6 23 8 25 5 26 1 27 2 28 3 29 99 30 4 31 98 32 29 33 30 34
REMARK SMILES IDX 31 35 32 36 33 37 34 38 35 39 36 40 97 41 37 42 96 43 38 44
REMARK SMILES IDX 39 45 40 46 90 47 41 48 95 49 89 50 91 51 42 52 94 53 88 54
REMARK SMILES IDX 87 55 43 57 75 58 55 59 74 60 56 61 59 62 73 63 92 64 57 65
REMARK SMILES IDX 58 66 72 68 93 69 60 70 44 71 45 72 53 73 46 74 48 75 54 76
REMARK SMILES IDX 47 77 49 78 50 79 51 80 52 81 76 82 77 83 85 84 78 85 80 86
REMARK SMILES IDX 86 87 79 88 81 89 82 90 83 91 84 92 61 93 62 94 70 95 63 96
REMARK SMILES IDX 65 97 71 98 64 99 66 100 67 101 68 102 69 103
REMARK H PARENT 15 14 6 24 91 56 59 67
REMARK Flexibility Score: inf
ROOT
ATOM      1  C   UNL A   1      38.484  19.656  25.335  1.00  0.00     0.202 C 
ENDROOT
BRANCH   1   2
ATOM      2  C   UNL A   1      38.361  21.189  25.299  1.00  0.00     0.261 C 
BRANCH   2   3
ATOM      3  O   UNL A   1      37.171  21.665  25.884  1.00  0.00    -0.463 OA
BRANCH   3   4
ATOM      4  C   UNL A   1      36.246  21.983  24.964  1.00  0.00     0.309 C 
ATOM      5  O   UNL A   1      36.464  22.408  23.837  1.00  0.00    -0.252 OA
BRANCH   4   6
ATOM      6  C   UNL A   1      34.876  21.665  25.461  1.00  0.00     0.111 C 
ATOM      7  C   UNL A   1      33.936  22.868  25.739  1.00  0.00     0.093 C 
ATOM      8  C   UNL A   1      32.644  22.321  26.362  1.00  0.00     0.014 C 
ATOM      9  C   UNL A   1      32.048  21.139  25.582  1.00  0.00     0.001 C 
ATOM     10  C   UNL A   1      34.272  20.560  24.604  1.00  0.00     0.016 C 
ATOM     11  C   UNL A   1      33.047  20.019  25.313  1.00  0.00     0.001 C 
BRANCH   7  12
ATOM     12  C   UNL A   1      33.612  23.774  24.538  1.00  0.00     0.228 C 
ATOM     13  N   UNL A   1      33.245  25.093  24.627  1.00  0.00    -0.325 N 
ATOM     14  H   UNL A   1      33.128  25.484  23.731  1.00  0.00     0.169 HD
ATOM     15  O   UNL A   1      33.649  23.311  23.391  1.00  0.00    -0.274 OA
BRANCH  13  16
ATOM     16  C   UNL A   1      32.984  26.058  25.635  1.00  0.00     0.054 A 
ATOM     17  C   UNL A   1      31.650  26.275  26.094  1.00  0.00     0.063 A 
ATOM     18  C   UNL A   1      31.348  27.480  26.769  1.00  0.00     0.016 A 
ATOM     19  C   UNL A   1      32.341  28.398  27.092  1.00  0.00     0.001 A 
ATOM     20  C   UNL A   1      33.983  26.900  26.140  1.00  0.00     0.027 A 
ATOM     21  C   UNL A   1      33.663  28.076  26.832  1.00  0.00     0.002 A 
BRANCH  17  22
ATOM     22  C   UNL A   1      30.441  25.413  25.850  1.00  0.00     0.257 C 
ATOM     23  N   UNL A   1      29.428  25.723  24.966  1.00  0.00    -0.322 N 
ATOM     24  H   UNL A   1      28.598  25.214  25.109  1.00  0.00     0.170 HD
ATOM     25  O   UNL A   1      30.339  24.351  26.469  1.00  0.00    -0.269 OA
BRANCH  23  26
ATOM     26  C   UNL A   1      29.370  26.633  23.903  1.00  0.00     0.041 A 
ATOM     27  C   UNL A   1      29.406  30.349  21.797  1.00  0.00     0.044 C 
ATOM     28  C   UNL A   1      29.336  28.985  22.408  1.00  0.00    -0.051 A 
ATOM     29  C   UNL A   1      30.470  28.166  22.411  1.00  0.00     0.005 A 
ATOM     30  C   UNL A   1      28.168  28.526  23.019  1.00  0.00     0.005 A 
ATOM     31  C   UNL A   1      30.477  26.978  23.139  1.00  0.00     0.026 A 
ATOM     32  C   UNL A   1      28.171  27.315  23.709  1.00  0.00     0.026 A 
ENDBRANCH  23  26
ENDBRANCH  17  22
ENDBRANCH  13  16
ENDBRANCH   7  12
ENDBRANCH   4   6
ENDBRANCH   3   4
ENDBRANCH   2   3
ENDBRANCH   1   2
BRANCH   1  33
ATOM     33  O   UNL A   1      39.735  19.108  25.673  1.00  0.00    -0.374 OA
BRANCH  33  34
ATOM     34  C   UNL A   1      40.616  20.002  26.333  1.00  0.00     0.202 C 
BRANCH  34  35
ATOM     35  C   UNL A   1      42.191  19.812  26.382  1.00  0.00     0.261 C 
BRANCH  35  36
ATOM     36  O   UNL A   1      42.997  20.976  26.046  1.00  0.00    -0.460 OA
BRANCH  36  37
ATOM     37  C   UNL A   1      44.179  21.028  25.351  1.00  0.00     0.338 C 
ATOM     38  O   UNL A   1      45.073  20.189  25.407  1.00  0.00    -0.246 OA
BRANCH  37  39
ATOM     39  C   UNL A   1      44.197  22.355  24.586  1.00  0.00     0.060 A 
ATOM     40  C   UNL A   1      45.356  23.072  24.308  1.00  0.00     0.016 A 
ATOM     41  C   UNL A   1      43.059  23.119  24.653  1.00  0.00     0.016 A 
ATOM     42  C   UNL A   1      45.473  24.418  24.730  1.00  0.00     0.010 A 
ATOM     43  C   UNL A   1      43.194  24.362  25.247  1.00  0.00     0.010 A 
ATOM     44  C   UNL A   1      44.441  24.957  25.456  1.00  0.00    -0.014 A 
BRANCH  44  45
ATOM     45  C   UNL A   1      44.485  26.078  26.414  1.00  0.00     0.031 A 
ATOM     46  C   UNL A   1      43.207  26.824  26.587  1.00  0.00     0.074 A 
ATOM     47  C   UNL A   1      45.514  26.304  27.291  1.00  0.00     0.049 A 
ATOM     48  N   UNL A   1      43.099  27.947  27.201  1.00  0.00    -0.248 NA
ATOM     49  C   UNL A   1      41.927  26.389  26.014  1.00  0.00     0.031 C 
ATOM     50  C   UNL A   1      45.394  26.962  28.607  1.00  0.00     0.029 A 
ATOM     51  N   UNL A   1      46.866  25.962  27.271  1.00  0.00    -0.354 N 
ATOM     52  C   UNL A   1      41.755  28.179  27.391  1.00  0.00     0.074 A 
ATOM     53  C   UNL A   1      41.077  27.291  26.499  1.00  0.00     0.031 C 
ATOM     54  C   UNL A   1      46.605  27.129  29.163  1.00  0.00     0.029 A 
ATOM     55  C   UNL A   1      47.596  26.750  28.184  1.00  0.00     0.049 A 
ATOM     56  H   UNL A   1      47.259  25.266  26.696  1.00  0.00     0.167 HD
ATOM     57  C   UNL A   1      41.367  28.998  28.399  1.00  0.00     0.034 A 
ATOM     58  C   UNL A   1      48.616  27.584  27.802  1.00  0.00     0.034 A 
ATOM     59  C   UNL A   1      42.541  29.668  28.979  1.00  0.00     0.049 A 
ATOM     60  C   UNL A   1      48.202  29.046  27.775  1.00  0.00     0.074 A 
ATOM     61  C   UNL A   1      43.246  29.520  30.157  1.00  0.00     0.029 A 
ATOM     62  N   UNL A   1      43.361  30.411  28.130  1.00  0.00    -0.354 N 
ATOM     63  N   UNL A   1      47.077  29.494  28.265  1.00  0.00    -0.248 NA
ATOM     64  C   UNL A   1      49.001  30.125  27.195  1.00  0.00     0.031 C 
ATOM     65  C   UNL A   1      44.538  30.100  29.966  1.00  0.00     0.029 A 
ATOM     66  C   UNL A   1      44.603  30.653  28.695  1.00  0.00     0.049 A 
ATOM     67  H   UNL A   1      43.090  30.725  27.238  1.00  0.00     0.167 HD
ATOM     68  C   UNL A   1      46.866  30.781  27.856  1.00  0.00     0.074 A 
ATOM     69  C   UNL A   1      48.157  31.167  27.306  1.00  0.00     0.031 C 
ATOM     70  C   UNL A   1      45.628  31.374  27.925  1.00  0.00     0.034 A 
BRANCH  57  71
ATOM     71  C   UNL A   1      39.956  29.105  28.957  1.00  0.00     0.023 A 
ATOM     72  C   UNL A   1      38.918  29.184  28.005  1.00  0.00     0.012 A 
ATOM     73  C   UNL A   1      39.557  29.201  30.321  1.00  0.00     0.148 A 
ATOM     74  C   UNL A   1      37.575  29.335  28.371  1.00  0.00     0.002 A 
ATOM     75  C   UNL A   1      38.207  29.275  30.687  1.00  0.00     0.091 A 
ATOM     76  F   UNL A   1      40.470  29.320  31.287  1.00  0.00    -0.205 F 
ATOM     77  C   UNL A   1      37.215  29.358  29.710  1.00  0.00     0.022 A 
BRANCH  75  78
ATOM     78  S   UNL A   1      37.647  29.257  32.405  1.00  0.00     0.127 S 
ATOM     79  O   UNL A   1      36.269  29.739  32.288  1.00  0.00    -0.237 OA
ATOM     80  O   UNL A   1      37.764  27.842  32.758  1.00  0.00    -0.237 OA
ATOM     81  O   UNL A   1      38.544  30.138  33.144  1.00  0.00    -0.744 OA
ENDBRANCH  75  78
ENDBRANCH  57  71
BRANCH  58  82
ATOM     82  C   UNL A   1      49.597  26.902  26.914  1.00  0.00     0.023 A 
ATOM     83  C   UNL A   1      49.238  26.928  25.546  1.00  0.00     0.012 A 
ATOM     84  C   UNL A   1      50.949  26.838  27.272  1.00  0.00     0.148 A 
ATOM     85  C   UNL A   1      50.208  27.132  24.576  1.00  0.00     0.002 A 
ATOM     86  C   UNL A   1      51.902  27.054  26.282  1.00  0.00     0.091 A 
ATOM     87  F   UNL A   1      51.273  26.765  28.570  1.00  0.00    -0.205 F 
ATOM     88  C   UNL A   1      51.539  27.189  24.930  1.00  0.00     0.022 A 
BRANCH  86  89
ATOM     89  S   UNL A   1      53.414  27.932  26.666  1.00  0.00     0.127 S 
ATOM     90  O   UNL A   1      54.324  26.882  27.109  1.00  0.00    -0.237 OA
ATOM     91  O   UNL A   1      53.686  28.430  25.322  1.00  0.00    -0.237 OA
ATOM     92  O   UNL A   1      53.069  28.931  27.665  1.00  0.00    -0.744 OA
ENDBRANCH  86  89
ENDBRANCH  58  82
BRANCH  70  93
ATOM     93  C   UNL A   1      45.260  32.691  27.240  1.00  0.00     0.023 A 
ATOM     94  C   UNL A   1      44.671  32.741  25.961  1.00  0.00     0.012 A 
ATOM     95  C   UNL A   1      45.392  33.938  27.908  1.00  0.00     0.148 A 
ATOM     96  C   UNL A   1      44.350  33.948  25.330  1.00  0.00     0.002 A 
ATOM     97  C   UNL A   1      44.925  35.120  27.339  1.00  0.00     0.091 A 
ATOM     98  F   UNL A   1      46.006  34.005  29.097  1.00  0.00    -0.205 F 
ATOM     99  C   UNL A   1      44.458  35.139  26.027  1.00  0.00     0.022 A 
BRANCH  97 100
ATOM    100  S   UNL A   1      44.759  36.627  28.306  1.00  0.00     0.127 S 
ATOM    101  O   UNL A   1      46.150  37.049  28.448  1.00  0.00    -0.237 OA
ATOM    102  O   UNL A   1      43.952  37.471  27.422  1.00  0.00    -0.237 OA
ATOM    103  O   UNL A   1      44.080  36.229  29.532  1.00  0.00    -0.744 OA
ENDBRANCH  97 100
ENDBRANCH  70  93
ENDBRANCH  44  45
ENDBRANCH  37  39
ENDBRANCH  36  37
ENDBRANCH  35  36
ENDBRANCH  34  35
ENDBRANCH  33  34
ENDBRANCH   1  33
TORSDOF 21
ENDMDL
MODEL 3
REMARK VINA RESULT:     -11.6      5.114     11.898
REMARK SMILES Cc1ccc(NC(=O)c2ccccc2NC(=O)[C@H]2CCCC[C@H]2C(=O)OCCOCCOC(=O)c2ccc(-c3c4nc(c(-c5cccc(S(=O)(=O)[O-])c5F)c5ccc([nH]5)c(-c5cccc(S(=O)(=O)[O-])c5F)c5nc(c(-c6cccc(S(=O)(=O)[O-])c6F)c6ccc3[nH]6)C=C5)C=C4)cc2)cc1
REMARK SMILES IDX 28 1 27 2 26 3 24 4 25 5 23 6 18 7 19 8 20 9 22 10 21 11
REMARK SMILES IDX 16 12 15 13 17 15 14 16 9 17 10 18 11 19 13 20 12 21 7 22
REMARK SMILES IDX 6 23 8 25 5 26 1 27 2 28 3 29 99 30 4 31 98 32 29 33 30 34
REMARK SMILES IDX 31 35 32 36 33 37 34 38 35 39 36 40 97 41 37 42 96 43 38 44
REMARK SMILES IDX 39 45 40 46 90 47 41 48 95 49 89 50 91 51 42 52 94 53 88 54
REMARK SMILES IDX 87 55 43 57 75 58 55 59 74 60 56 61 59 62 73 63 92 64 57 65
REMARK SMILES IDX 58 66 72 68 93 69 60 70 44 71 45 72 53 73 46 74 48 75 54 76
REMARK SMILES IDX 47 77 49 78 50 79 51 80 52 81 76 82 77 83 85 84 78 85 80 86
REMARK SMILES IDX 86 87 79 88 81 89 82 90 83 91 84 92 61 93 62 94 70 95 63 96
REMARK SMILES IDX 65 97 71 98 64 99 66 100 67 101 68 102 69 103
REMARK H PARENT 15 14 6 24 91 56 59 67
REMARK Flexibility Score: inf
ROOT
ATOM      1  C   UNL A   1      34.642  29.909  27.592  1.00  0.00     0.202 C 
ENDROOT
BRANCH   1   2
ATOM      2  C   UNL A   1      36.082  29.677  27.102  1.00  0.00     0.261 C 
BRANCH   2   3
ATOM      3  O   UNL A   1      36.892  29.021  28.049  1.00  0.00    -0.463 OA
BRANCH   3   4
ATOM      4  C   UNL A   1      37.615  29.882  28.783  1.00  0.00     0.309 C 
ATOM      5  O   UNL A   1      38.000  30.988  28.428  1.00  0.00    -0.252 OA
BRANCH   4   6
ATOM      6  C   UNL A   1      37.826  29.353  30.162  1.00  0.00     0.111 C 
ATOM      7  C   UNL A   1      39.206  28.708  30.459  1.00  0.00     0.093 C 
ATOM      8  C   UNL A   1      39.154  28.120  31.876  1.00  0.00     0.014 C 
ATOM      9  C   UNL A   1      38.607  29.104  32.922  1.00  0.00     0.001 C 
ATOM     10  C   UNL A   1      37.368  30.392  31.177  1.00  0.00     0.016 C 
ATOM     11  C   UNL A   1      37.270  29.725  32.535  1.00  0.00     0.001 C 
BRANCH   7  12
ATOM     12  C   UNL A   1      40.435  29.620  30.301  1.00  0.00     0.228 C 
ATOM     13  N   UNL A   1      41.304  29.589  29.239  1.00  0.00    -0.325 N 
ATOM     14  H   UNL A   1      41.990  30.289  29.330  1.00  0.00     0.169 HD
ATOM     15  O   UNL A   1      40.711  30.440  31.186  1.00  0.00    -0.274 OA
BRANCH  13  16
ATOM     16  C   UNL A   1      41.502  28.841  28.049  1.00  0.00     0.054 A 
ATOM     17  C   UNL A   1      42.608  27.946  27.939  1.00  0.00     0.063 A 
ATOM     18  C   UNL A   1      43.025  27.533  26.652  1.00  0.00     0.016 A 
ATOM     19  C   UNL A   1      42.315  27.888  25.511  1.00  0.00     0.001 A 
ATOM     20  C   UNL A   1      40.702  29.020  26.913  1.00  0.00     0.027 A 
ATOM     21  C   UNL A   1      41.122  28.577  25.650  1.00  0.00     0.002 A 
BRANCH  17  22
ATOM     22  C   UNL A   1      43.502  27.448  29.042  1.00  0.00     0.257 C 
ATOM     23  N   UNL A   1      43.483  26.162  29.540  1.00  0.00    -0.322 N 
ATOM     24  H   UNL A   1      43.920  26.062  30.417  1.00  0.00     0.170 HD
ATOM     25  O   UNL A   1      44.317  28.230  29.537  1.00  0.00    -0.269 OA
BRANCH  23  26
ATOM     26  C   UNL A   1      42.949  24.974  29.025  1.00  0.00     0.041 A 
ATOM     27  C   UNL A   1      41.579  22.092  26.186  1.00  0.00     0.044 C 
ATOM     28  C   UNL A   1      41.990  23.018  27.287  1.00  0.00    -0.051 A 
ATOM     29  C   UNL A   1      43.251  22.882  27.875  1.00  0.00     0.005 A 
ATOM     30  C   UNL A   1      41.151  24.050  27.713  1.00  0.00     0.005 A 
ATOM     31  C   UNL A   1      43.720  23.848  28.763  1.00  0.00     0.026 A 
ATOM     32  C   UNL A   1      41.613  24.988  28.635  1.00  0.00     0.026 A 
ENDBRANCH  23  26
ENDBRANCH  17  22
ENDBRANCH  13  16
ENDBRANCH   7  12
ENDBRANCH   4   6
ENDBRANCH   3   4
ENDBRANCH   2   3
ENDBRANCH   1   2
BRANCH   1  33
ATOM     33  O   UNL A   1      33.967  31.050  27.121  1.00  0.00    -0.374 OA
BRANCH  33  34
ATOM     34  C   UNL A   1      33.934  32.138  28.030  1.00  0.00     0.202 C 
BRANCH  34  35
ATOM     35  C   UNL A   1      35.191  33.049  28.358  1.00  0.00     0.261 C 
BRANCH  35  36
ATOM     36  O   UNL A   1      34.978  34.134  29.305  1.00  0.00    -0.460 OA
BRANCH  36  37
ATOM     37  C   UNL A   1      33.838  34.452  30.001  1.00  0.00     0.338 C 
ATOM     38  O   UNL A   1      32.774  34.802  29.499  1.00  0.00    -0.246 OA
BRANCH  37  39
ATOM     39  C   UNL A   1      34.182  34.374  31.492  1.00  0.00     0.060 A 
ATOM     40  C   UNL A   1      34.549  35.474  32.259  1.00  0.00     0.016 A 
ATOM     41  C   UNL A   1      34.668  33.175  31.948  1.00  0.00     0.016 A 
ATOM     42  C   UNL A   1      35.780  35.469  32.958  1.00  0.00     0.010 A 
ATOM     43  C   UNL A   1      35.956  33.193  32.456  1.00  0.00     0.010 A 
ATOM     44  C   UNL A   1      36.602  34.382  32.806  1.00  0.00    -0.014 A 
BRANCH  44  45
ATOM     45  C   UNL A   1      38.066  34.312  32.972  1.00  0.00     0.031 A 
ATOM     46  C   UNL A   1      38.840  34.044  31.728  1.00  0.00     0.074 A 
ATOM     47  C   UNL A   1      38.734  34.704  34.103  1.00  0.00     0.049 A 
ATOM     48  N   UNL A   1      40.087  33.736  31.700  1.00  0.00    -0.248 NA
ATOM     49  C   UNL A   1      38.246  34.037  30.385  1.00  0.00     0.031 C 
ATOM     50  C   UNL A   1      40.115  35.224  34.150  1.00  0.00     0.029 A 
ATOM     51  N   UNL A   1      38.353  34.801  35.441  1.00  0.00    -0.354 N 
ATOM     52  C   UNL A   1      40.502  33.836  30.391  1.00  0.00     0.074 A 
ATOM     53  C   UNL A   1      39.308  33.852  29.605  1.00  0.00     0.031 C 
ATOM     54  C   UNL A   1      40.508  35.407  35.421  1.00  0.00     0.029 A 
ATOM     55  C   UNL A   1      39.483  34.864  36.281  1.00  0.00     0.049 A 
ATOM     56  H   UNL A   1      37.420  34.822  35.757  1.00  0.00     0.167 HD
ATOM     57  C   UNL A   1      41.817  34.047  30.134  1.00  0.00     0.034 A 
ATOM     58  C   UNL A   1      39.748  33.928  37.248  1.00  0.00     0.034 A 
ATOM     59  C   UNL A   1      42.597  33.907  31.373  1.00  0.00     0.049 A 
ATOM     60  C   UNL A   1      40.837  32.951  36.838  1.00  0.00     0.074 A 
ATOM     61  C   UNL A   1      43.223  34.803  32.219  1.00  0.00     0.029 A 
ATOM     62  N   UNL A   1      42.497  32.711  32.083  1.00  0.00    -0.354 N 
ATOM     63  N   UNL A   1      41.594  33.102  35.784  1.00  0.00    -0.248 NA
ATOM     64  C   UNL A   1      41.167  31.724  37.562  1.00  0.00     0.031 C 
ATOM     65  C   UNL A   1      43.406  34.154  33.479  1.00  0.00     0.029 A 
ATOM     66  C   UNL A   1      42.948  32.847  33.387  1.00  0.00     0.049 A 
ATOM     67  H   UNL A   1      42.149  31.873  31.704  1.00  0.00     0.167 HD
ATOM     68  C   UNL A   1      42.279  31.947  35.528  1.00  0.00     0.074 A 
ATOM     69  C   UNL A   1      42.079  31.170  36.741  1.00  0.00     0.031 C 
ATOM     70  C   UNL A   1      42.868  31.704  34.310  1.00  0.00     0.034 A 
BRANCH  57  71
ATOM     71  C   UNL A   1      42.394  34.506  28.804  1.00  0.00     0.023 A 
ATOM     72  C   UNL A   1      41.906  35.732  28.308  1.00  0.00     0.012 A 
ATOM     73  C   UNL A   1      43.319  33.821  27.966  1.00  0.00     0.148 A 
ATOM     74  C   UNL A   1      42.310  36.257  27.075  1.00  0.00     0.002 A 
ATOM     75  C   UNL A   1      43.780  34.383  26.768  1.00  0.00     0.091 A 
ATOM     76  F   UNL A   1      43.701  32.575  28.254  1.00  0.00    -0.205 F 
ATOM     77  C   UNL A   1      43.263  35.596  26.314  1.00  0.00     0.022 A 
BRANCH  75  78
ATOM     78  S   UNL A   1      45.056  33.616  25.743  1.00  0.00     0.127 S 
ATOM     79  O   UNL A   1      44.418  32.362  25.340  1.00  0.00    -0.237 OA
ATOM     80  O   UNL A   1      45.214  34.588  24.660  1.00  0.00    -0.237 OA
ATOM     81  O   UNL A   1      46.232  33.462  26.590  1.00  0.00    -0.744 OA
ENDBRANCH  75  78
ENDBRANCH  57  71
BRANCH  58  82
ATOM     82  C   UNL A   1      38.564  33.659  38.109  1.00  0.00     0.023 A 
ATOM     83  C   UNL A   1      37.732  32.623  37.622  1.00  0.00     0.012 A 
ATOM     84  C   UNL A   1      38.618  33.912  39.485  1.00  0.00     0.148 A 
ATOM     85  C   UNL A   1      37.167  31.713  38.504  1.00  0.00     0.002 A 
ATOM     86  C   UNL A   1      38.049  32.981  40.348  1.00  0.00     0.091 A 
ATOM     87  F   UNL A   1      39.372  34.927  39.928  1.00  0.00    -0.205 F 
ATOM     88  C   UNL A   1      37.311  31.886  39.863  1.00  0.00     0.022 A 
BRANCH  86  89
ATOM     89  S   UNL A   1      38.817  32.632  41.926  1.00  0.00     0.127 S 
ATOM     90  O   UNL A   1      38.360  31.285  42.246  1.00  0.00    -0.237 OA
ATOM     91  O   UNL A   1      40.204  32.701  41.479  1.00  0.00    -0.237 OA
ATOM     92  O   UNL A   1      38.383  33.678  42.838  1.00  0.00    -0.744 OA
ENDBRANCH  86  89
ENDBRANCH  58  82
BRANCH  70  93
ATOM     93  C   UNL A   1      43.402  30.344  33.863  1.00  0.00     0.023 A 
ATOM     94  C   UNL A   1      42.555  29.277  33.506  1.00  0.00     0.012 A 
ATOM     95  C   UNL A   1      44.792  30.116  33.678  1.00  0.00     0.148 A 
ATOM     96  C   UNL A   1      43.047  28.028  33.112  1.00  0.00     0.002 A 
ATOM     97  C   UNL A   1      45.268  28.925  33.137  1.00  0.00     0.091 A 
ATOM     98  F   UNL A   1      45.684  31.041  34.058  1.00  0.00    -0.205 F 
ATOM     99  C   UNL A   1      44.405  27.856  32.908  1.00  0.00     0.022 A 
BRANCH  97 100
ATOM    100  S   UNL A   1      46.967  28.762  32.568  1.00  0.00     0.127 S 
ATOM    101  O   UNL A   1      47.096  29.911  31.675  1.00  0.00    -0.237 OA
ATOM    102  O   UNL A   1      47.721  28.874  33.818  1.00  0.00    -0.237 OA
ATOM    103  O   UNL A   1      47.042  27.449  31.942  1.00  0.00    -0.744 OA
ENDBRANCH  97 100
ENDBRANCH  70  93
ENDBRANCH  44  45
ENDBRANCH  37  39
ENDBRANCH  36  37
ENDBRANCH  35  36
ENDBRANCH  34  35
ENDBRANCH  33  34
ENDBRANCH   1  33
TORSDOF 21
ENDMDL
