MODEL 1
REMARK VINA RESULT:      -9.9      0.000      0.000
REMARK SMILES Cc1ncccc1C(=O)N1CC[C@@H](C(=O)OCCOCCOC(=O)c2ccc(-c3c4nc(c(-c5cccc(S(=O)(=O)[O-])c5F)c5ccc([nH]5)c(-c5cccc(S(=O)(=O)[O-])c5F)c5nc(c(-c6cccc(S(=O)(=O)[O-])c6F)c6ccc3[nH]6)C=C5)C=C4)cc2)C1
REMARK SMILES IDX 20 1 19 2 18 3 17 4 16 5 14 6 15 7 13 8 10 9 11 10 88 11
REMARK SMILES IDX 12 12 8 13 9 14 7 15 1 16 2 17 3 18 4 19 6 20 5 21 21 22
REMARK SMILES IDX 22 23 23 24 24 25 25 26 26 27 87 28 27 29 86 30 28 31 29 32
REMARK SMILES IDX 30 33 80 34 31 35 85 36 79 37 81 38 32 39 84 40 78 41 77 42
REMARK SMILES IDX 33 44 65 45 45 46 64 47 46 48 49 49 63 50 82 51 47 52 48 53
REMARK SMILES IDX 62 55 83 56 50 57 34 58 35 59 43 60 36 61 38 62 44 63 37 64
REMARK SMILES IDX 39 65 40 66 41 67 42 68 66 69 67 70 75 71 68 72 70 73 76 74
REMARK SMILES IDX 69 75 71 76 72 77 73 78 74 79 51 80 52 81 60 82 53 83 55 84
REMARK SMILES IDX 61 85 54 86 56 87 57 88 58 89 59 90
REMARK H PARENT 81 43 49 54
REMARK Flexibility Score: inf
ROOT
ATOM      1  C   UNL A   1      41.695  19.864  26.669  1.00  0.00     0.202 C 
ENDROOT
BRANCH   1   2
ATOM      2  O   UNL A   1      42.185  19.163  25.528  1.00  0.00    -0.374 OA
BRANCH   2   3
ATOM      3  C   UNL A   1      43.294  18.287  25.751  1.00  0.00     0.202 C 
BRANCH   3   4
ATOM      4  C   UNL A   1      44.628  18.737  25.146  1.00  0.00     0.261 C 
BRANCH   4   5
ATOM      5  O   UNL A   1      44.576  20.124  24.763  1.00  0.00    -0.463 OA
BRANCH   5   6
ATOM      6  C   UNL A   1      45.674  20.877  25.015  1.00  0.00     0.310 C 
ATOM      7  O   UNL A   1      46.814  20.602  24.658  1.00  0.00    -0.252 OA
BRANCH   6   8
ATOM      8  C   UNL A   1      45.344  22.163  25.733  1.00  0.00     0.120 C 
ATOM      9  N   UNL A   1      45.485  24.459  25.263  1.00  0.00    -0.338 N 
ATOM     10  C   UNL A   1      44.122  24.114  24.915  1.00  0.00     0.121 C 
ATOM     11  C   UNL A   1      46.303  23.269  25.302  1.00  0.00     0.135 C 
ATOM     12  C   UNL A   1      43.926  22.745  25.552  1.00  0.00     0.039 C 
BRANCH   9  13
ATOM     13  C   UNL A   1      46.058  25.706  25.370  1.00  0.00     0.255 C 
ATOM     14  O   UNL A   1      45.490  26.712  24.943  1.00  0.00    -0.269 OA
BRANCH  13  15
ATOM     15  C   UNL A   1      47.448  25.854  25.876  1.00  0.00     0.061 A 
ATOM     16  C   UNL A   1      46.903  25.230  28.305  1.00  0.00     0.067 C 
ATOM     17  C   UNL A   1      47.844  25.560  27.187  1.00  0.00     0.050 A 
ATOM     18  N   UNL A   1      49.155  25.524  27.561  1.00  0.00    -0.261 NA
ATOM     19  C   UNL A   1      50.094  25.728  26.615  1.00  0.00     0.111 A 
ATOM     20  C   UNL A   1      48.458  26.055  24.922  1.00  0.00     0.017 A 
ATOM     21  C   UNL A   1      49.798  25.990  25.293  1.00  0.00     0.021 A 
ENDBRANCH  13  15
ENDBRANCH   9  13
ENDBRANCH   6   8
ENDBRANCH   5   6
ENDBRANCH   4   5
ENDBRANCH   3   4
ENDBRANCH   2   3
ENDBRANCH   1   2
BRANCH   1  22
ATOM     22  C   UNL A   1      40.368  20.606  26.490  1.00  0.00     0.261 C 
BRANCH  22  23
ATOM     23  O   UNL A   1      40.509  22.017  26.734  1.00  0.00    -0.460 OA
BRANCH  23  24
ATOM     24  C   UNL A   1      39.410  22.754  26.451  1.00  0.00     0.338 C 
ATOM     25  O   UNL A   1      38.338  22.348  26.018  1.00  0.00    -0.246 OA
BRANCH  24  26
ATOM     26  C   UNL A   1      39.606  24.139  26.911  1.00  0.00     0.060 A 
ATOM     27  C   UNL A   1      40.158  25.051  26.001  1.00  0.00     0.016 A 
ATOM     28  C   UNL A   1      39.302  24.531  28.215  1.00  0.00     0.016 A 
ATOM     29  C   UNL A   1      40.438  26.354  26.403  1.00  0.00     0.010 A 
ATOM     30  C   UNL A   1      39.593  25.839  28.619  1.00  0.00     0.010 A 
ATOM     31  C   UNL A   1      40.183  26.748  27.723  1.00  0.00    -0.014 A 
BRANCH  31  32
ATOM     32  C   UNL A   1      40.611  28.090  28.188  1.00  0.00     0.031 A 
ATOM     33  C   UNL A   1      42.074  28.428  28.233  1.00  0.00     0.074 A 
ATOM     34  C   UNL A   1      39.694  28.993  28.583  1.00  0.00     0.049 A 
ATOM     35  N   UNL A   1      42.656  29.522  28.647  1.00  0.00    -0.248 NA
ATOM     36  C   UNL A   1      43.005  27.396  27.749  1.00  0.00     0.031 C 
ATOM     37  C   UNL A   1      38.248  28.779  28.584  1.00  0.00     0.029 A 
ATOM     38  N   UNL A   1      39.850  30.258  29.089  1.00  0.00    -0.354 N 
ATOM     39  C   UNL A   1      44.020  29.303  28.505  1.00  0.00     0.074 A 
ATOM     40  C   UNL A   1      44.180  27.967  27.971  1.00  0.00     0.031 C 
ATOM     41  C   UNL A   1      37.649  29.863  29.102  1.00  0.00     0.029 A 
ATOM     42  C   UNL A   1      38.669  30.832  29.495  1.00  0.00     0.049 A 
ATOM     43  H   UNL A   1      40.721  30.711  29.154  1.00  0.00     0.167 HD
ATOM     44  C   UNL A   1      45.046  30.143  28.784  1.00  0.00     0.034 A 
ATOM     45  C   UNL A   1      38.439  31.994  30.141  1.00  0.00     0.034 A 
ATOM     46  C   UNL A   1      44.881  31.476  29.300  1.00  0.00     0.049 A 
ATOM     47  C   UNL A   1      39.600  32.895  30.470  1.00  0.00     0.074 A 
ATOM     48  C   UNL A   1      45.855  32.426  29.551  1.00  0.00     0.029 A 
ATOM     49  N   UNL A   1      43.669  32.039  29.667  1.00  0.00    -0.354 N 
ATOM     50  N   UNL A   1      40.874  32.732  30.204  1.00  0.00    -0.248 NA
ATOM     51  C   UNL A   1      39.289  34.154  31.163  1.00  0.00     0.031 C 
ATOM     52  C   UNL A   1      45.235  33.551  30.105  1.00  0.00     0.029 A 
ATOM     53  C   UNL A   1      43.871  33.315  30.168  1.00  0.00     0.049 A 
ATOM     54  H   UNL A   1      42.793  31.599  29.584  1.00  0.00     0.167 HD
ATOM     55  C   UNL A   1      41.511  33.875  30.673  1.00  0.00     0.074 A 
ATOM     56  C   UNL A   1      40.480  34.735  31.216  1.00  0.00     0.031 C 
ATOM     57  C   UNL A   1      42.833  34.179  30.670  1.00  0.00     0.034 A 
BRANCH  44  58
ATOM     58  C   UNL A   1      46.445  29.652  28.521  1.00  0.00     0.023 A 
ATOM     59  C   UNL A   1      47.048  29.890  27.269  1.00  0.00     0.012 A 
ATOM     60  C   UNL A   1      47.186  29.011  29.533  1.00  0.00     0.148 A 
ATOM     61  C   UNL A   1      48.354  29.473  27.020  1.00  0.00     0.002 A 
ATOM     62  C   UNL A   1      48.501  28.637  29.292  1.00  0.00     0.091 A 
ATOM     63  F   UNL A   1      46.587  28.774  30.710  1.00  0.00    -0.205 F 
ATOM     64  C   UNL A   1      49.084  28.856  28.032  1.00  0.00     0.022 A 
BRANCH  62  65
ATOM     65  S   UNL A   1      49.548  27.907  30.556  1.00  0.00     0.127 S 
ATOM     66  O   UNL A   1      48.841  26.658  30.838  1.00  0.00    -0.237 OA
ATOM     67  O   UNL A   1      50.817  27.741  29.847  1.00  0.00    -0.237 OA
ATOM     68  O   UNL A   1      49.584  28.866  31.651  1.00  0.00    -0.744 OA
ENDBRANCH  62  65
ENDBRANCH  44  58
BRANCH  45  69
ATOM     69  C   UNL A   1      37.047  32.373  30.508  1.00  0.00     0.023 A 
ATOM     70  C   UNL A   1      36.583  32.148  31.818  1.00  0.00     0.012 A 
ATOM     71  C   UNL A   1      36.188  32.981  29.570  1.00  0.00     0.148 A 
ATOM     72  C   UNL A   1      35.281  32.498  32.180  1.00  0.00     0.002 A 
ATOM     73  C   UNL A   1      34.915  33.382  29.954  1.00  0.00     0.091 A 
ATOM     74  F   UNL A   1      36.643  33.170  28.323  1.00  0.00    -0.205 F 
ATOM     75  C   UNL A   1      34.452  33.124  31.253  1.00  0.00     0.022 A 
BRANCH  73  76
ATOM     76  S   UNL A   1      33.834  34.321  28.868  1.00  0.00     0.127 S 
ATOM     77  O   UNL A   1      32.799  34.772  29.794  1.00  0.00    -0.237 OA
ATOM     78  O   UNL A   1      34.732  35.370  28.385  1.00  0.00    -0.237 OA
ATOM     79  O   UNL A   1      33.400  33.384  27.840  1.00  0.00    -0.744 OA
ENDBRANCH  73  76
ENDBRANCH  45  69
BRANCH  57  80
ATOM     80  C   UNL A   1      43.249  35.505  31.255  1.00  0.00     0.023 A 
ATOM     81  C   UNL A   1      43.503  35.609  32.637  1.00  0.00     0.012 A 
ATOM     82  C   UNL A   1      43.461  36.625  30.427  1.00  0.00     0.148 A 
ATOM     83  C   UNL A   1      43.931  36.816  33.190  1.00  0.00     0.002 A 
ATOM     84  C   UNL A   1      43.935  37.810  30.978  1.00  0.00     0.091 A 
ATOM     85  F   UNL A   1      43.199  36.509  29.117  1.00  0.00    -0.205 F 
ATOM     86  C   UNL A   1      44.157  37.911  32.360  1.00  0.00     0.022 A 
BRANCH  84  87
ATOM     87  S   UNL A   1      44.344  39.245  29.977  1.00  0.00     0.127 S 
ATOM     88  O   UNL A   1      45.355  38.698  29.073  1.00  0.00    -0.237 OA
ATOM     89  O   UNL A   1      43.063  39.555  29.342  1.00  0.00    -0.237 OA
ATOM     90  O   UNL A   1      44.822  40.261  30.905  1.00  0.00    -0.744 OA
ENDBRANCH  84  87
ENDBRANCH  57  80
ENDBRANCH  31  32
ENDBRANCH  24  26
ENDBRANCH  23  24
ENDBRANCH  22  23
ENDBRANCH   1  22
TORSDOF 19
ENDMDL
MODEL 2
REMARK VINA RESULT:      -9.7      5.400     11.530
REMARK SMILES Cc1ncccc1C(=O)N1CC[C@@H](C(=O)OCCOCCOC(=O)c2ccc(-c3c4nc(c(-c5cccc(S(=O)(=O)[O-])c5F)c5ccc([nH]5)c(-c5cccc(S(=O)(=O)[O-])c5F)c5nc(c(-c6cccc(S(=O)(=O)[O-])c6F)c6ccc3[nH]6)C=C5)C=C4)cc2)C1
REMARK SMILES IDX 20 1 19 2 18 3 17 4 16 5 14 6 15 7 13 8 10 9 11 10 88 11
REMARK SMILES IDX 12 12 8 13 9 14 7 15 1 16 2 17 3 18 4 19 6 20 5 21 21 22
REMARK SMILES IDX 22 23 23 24 24 25 25 26 26 27 87 28 27 29 86 30 28 31 29 32
REMARK SMILES IDX 30 33 80 34 31 35 85 36 79 37 81 38 32 39 84 40 78 41 77 42
REMARK SMILES IDX 33 44 65 45 45 46 64 47 46 48 49 49 63 50 82 51 47 52 48 53
REMARK SMILES IDX 62 55 83 56 50 57 34 58 35 59 43 60 36 61 38 62 44 63 37 64
REMARK SMILES IDX 39 65 40 66 41 67 42 68 66 69 67 70 75 71 68 72 70 73 76 74
REMARK SMILES IDX 69 75 71 76 72 77 73 78 74 79 51 80 52 81 60 82 53 83 55 84
REMARK SMILES IDX 61 85 54 86 56 87 57 88 58 89 59 90
REMARK H PARENT 81 43 49 54
REMARK Flexibility Score: inf
ROOT
ATOM      1  C   UNL A   1      32.138  29.673  25.423  1.00  0.00     0.202 C 
ENDROOT
BRANCH   1   2
ATOM      2  O   UNL A   1      33.238  28.991  24.824  1.00  0.00    -0.374 OA
BRANCH   2   3
ATOM      3  C   UNL A   1      33.125  28.712  23.426  1.00  0.00     0.202 C 
BRANCH   3   4
ATOM      4  C   UNL A   1      31.745  28.956  22.809  1.00  0.00     0.261 C 
BRANCH   4   5
ATOM      5  O   UNL A   1      31.157  27.722  22.359  1.00  0.00    -0.463 OA
BRANCH   5   6
ATOM      6  C   UNL A   1      30.332  27.079  23.221  1.00  0.00     0.310 C 
ATOM      7  O   UNL A   1      29.329  27.565  23.730  1.00  0.00    -0.252 OA
BRANCH   6   8
ATOM      8  C   UNL A   1      30.733  25.641  23.444  1.00  0.00     0.120 C 
ATOM      9  N   UNL A   1      32.734  24.412  23.441  1.00  0.00    -0.338 N 
ATOM     10  C   UNL A   1      32.527  24.739  24.837  1.00  0.00     0.121 C 
ATOM     11  C   UNL A   1      31.960  25.300  22.603  1.00  0.00     0.135 C 
ATOM     12  C   UNL A   1      31.077  25.204  24.883  1.00  0.00     0.039 C 
BRANCH   9  13
ATOM     13  C   UNL A   1      33.647  23.544  22.885  1.00  0.00     0.255 C 
ATOM     14  O   UNL A   1      33.672  23.328  21.673  1.00  0.00    -0.269 OA
BRANCH  13  15
ATOM     15  C   UNL A   1      34.537  22.731  23.755  1.00  0.00     0.061 A 
ATOM     16  C   UNL A   1      32.771  20.969  24.354  1.00  0.00     0.067 C 
ATOM     17  C   UNL A   1      34.163  21.522  24.355  1.00  0.00     0.050 A 
ATOM     18  N   UNL A   1      35.062  20.713  24.984  1.00  0.00    -0.261 NA
ATOM     19  C   UNL A   1      36.360  21.074  24.977  1.00  0.00     0.111 A 
ATOM     20  C   UNL A   1      35.900  23.068  23.766  1.00  0.00     0.017 A 
ATOM     21  C   UNL A   1      36.826  22.230  24.381  1.00  0.00     0.021 A 
ENDBRANCH  13  15
ENDBRANCH   9  13
ENDBRANCH   6   8
ENDBRANCH   5   6
ENDBRANCH   4   5
ENDBRANCH   3   4
ENDBRANCH   2   3
ENDBRANCH   1   2
BRANCH   1  22
ATOM     22  C   UNL A   1      32.452  30.498  26.675  1.00  0.00     0.261 C 
BRANCH  22  23
ATOM     23  O   UNL A   1      33.591  29.979  27.383  1.00  0.00    -0.460 OA
BRANCH  23  24
ATOM     24  C   UNL A   1      34.516  30.906  27.726  1.00  0.00     0.338 C 
ATOM     25  O   UNL A   1      34.334  32.107  27.889  1.00  0.00    -0.246 OA
BRANCH  24  26
ATOM     26  C   UNL A   1      35.785  30.242  28.068  1.00  0.00     0.060 A 
ATOM     27  C   UNL A   1      35.864  29.597  29.309  1.00  0.00     0.016 A 
ATOM     28  C   UNL A   1      36.891  30.285  27.217  1.00  0.00     0.016 A 
ATOM     29  C   UNL A   1      37.062  29.018  29.719  1.00  0.00     0.010 A 
ATOM     30  C   UNL A   1      38.096  29.711  27.635  1.00  0.00     0.010 A 
ATOM     31  C   UNL A   1      38.193  29.096  28.897  1.00  0.00    -0.014 A 
BRANCH  31  32
ATOM     32  C   UNL A   1      39.501  28.604  29.393  1.00  0.00     0.031 A 
ATOM     33  C   UNL A   1      40.207  29.351  30.488  1.00  0.00     0.074 A 
ATOM     34  C   UNL A   1      40.060  27.505  28.853  1.00  0.00     0.049 A 
ATOM     35  N   UNL A   1      41.373  29.115  31.030  1.00  0.00    -0.248 NA
ATOM     36  C   UNL A   1      39.509  30.521  31.046  1.00  0.00     0.031 C 
ATOM     37  C   UNL A   1      39.470  26.699  27.786  1.00  0.00     0.029 A 
ATOM     38  N   UNL A   1      41.264  26.899  29.109  1.00  0.00    -0.354 N 
ATOM     39  C   UNL A   1      41.565  30.120  31.970  1.00  0.00     0.074 A 
ATOM     40  C   UNL A   1      40.396  30.973  31.921  1.00  0.00     0.031 C 
ATOM     41  C   UNL A   1      40.330  25.724  27.452  1.00  0.00     0.029 A 
ATOM     42  C   UNL A   1      41.541  25.855  28.261  1.00  0.00     0.049 A 
ATOM     43  H   UNL A   1      41.869  27.184  29.831  1.00  0.00     0.167 HD
ATOM     44  C   UNL A   1      42.614  30.309  32.806  1.00  0.00     0.034 A 
ATOM     45  C   UNL A   1      42.657  25.110  28.127  1.00  0.00     0.034 A 
ATOM     46  C   UNL A   1      43.767  29.448  32.862  1.00  0.00     0.049 A 
ATOM     47  C   UNL A   1      43.823  25.360  29.046  1.00  0.00     0.074 A 
ATOM     48  C   UNL A   1      44.849  29.518  33.721  1.00  0.00     0.029 A 
ATOM     49  N   UNL A   1      43.999  28.378  32.012  1.00  0.00    -0.354 N 
ATOM     50  N   UNL A   1      43.933  26.228  30.023  1.00  0.00    -0.248 NA
ATOM     51  C   UNL A   1      45.009  24.510  28.863  1.00  0.00     0.031 C 
ATOM     52  C   UNL A   1      45.754  28.512  33.366  1.00  0.00     0.029 A 
ATOM     53  C   UNL A   1      45.220  27.795  32.307  1.00  0.00     0.049 A 
ATOM     54  H   UNL A   1      43.386  28.076  31.303  1.00  0.00     0.167 HD
ATOM     55  C   UNL A   1      45.187  26.013  30.586  1.00  0.00     0.074 A 
ATOM     56  C   UNL A   1      45.787  24.914  29.859  1.00  0.00     0.031 C 
ATOM     57  C   UNL A   1      45.792  26.675  31.603  1.00  0.00     0.034 A 
BRANCH  44  58
ATOM     58  C   UNL A   1      42.561  31.484  33.745  1.00  0.00     0.023 A 
ATOM     59  C   UNL A   1      43.054  32.737  33.328  1.00  0.00     0.012 A 
ATOM     60  C   UNL A   1      41.967  31.364  35.017  1.00  0.00     0.148 A 
ATOM     61  C   UNL A   1      42.981  33.845  34.171  1.00  0.00     0.002 A 
ATOM     62  C   UNL A   1      41.860  32.481  35.835  1.00  0.00     0.091 A 
ATOM     63  F   UNL A   1      41.525  30.158  35.403  1.00  0.00    -0.205 F 
ATOM     64  C   UNL A   1      42.376  33.720  35.419  1.00  0.00     0.022 A 
BRANCH  62  65
ATOM     65  S   UNL A   1      41.028  32.440  37.426  1.00  0.00     0.127 S 
ATOM     66  O   UNL A   1      39.737  31.856  37.068  1.00  0.00    -0.237 OA
ATOM     67  O   UNL A   1      41.900  31.560  38.206  1.00  0.00    -0.237 OA
ATOM     68  O   UNL A   1      40.983  33.819  37.892  1.00  0.00    -0.744 OA
ENDBRANCH  62  65
ENDBRANCH  44  58
BRANCH  45  69
ATOM     69  C   UNL A   1      42.716  24.047  27.085  1.00  0.00     0.023 A 
ATOM     70  C   UNL A   1      43.422  24.278  25.890  1.00  0.00     0.012 A 
ATOM     71  C   UNL A   1      42.098  22.796  27.288  1.00  0.00     0.148 A 
ATOM     72  C   UNL A   1      43.489  23.293  24.903  1.00  0.00     0.002 A 
ATOM     73  C   UNL A   1      42.221  21.800  26.328  1.00  0.00     0.091 A 
ATOM     74  F   UNL A   1      41.416  22.602  28.426  1.00  0.00    -0.205 F 
ATOM     75  C   UNL A   1      42.900  22.052  25.126  1.00  0.00     0.022 A 
BRANCH  73  76
ATOM     76  S   UNL A   1      41.615  20.129  26.594  1.00  0.00     0.127 S 
ATOM     77  O   UNL A   1      40.173  20.345  26.687  1.00  0.00    -0.237 OA
ATOM     78  O   UNL A   1      42.062  19.451  25.378  1.00  0.00    -0.237 OA
ATOM     79  O   UNL A   1      42.266  19.664  27.812  1.00  0.00    -0.744 OA
ENDBRANCH  73  76
ENDBRANCH  45  69
BRANCH  57  80
ATOM     80  C   UNL A   1      47.172  26.225  32.009  1.00  0.00     0.023 A 
ATOM     81  C   UNL A   1      48.304  26.805  31.402  1.00  0.00     0.012 A 
ATOM     82  C   UNL A   1      47.349  25.284  33.043  1.00  0.00     0.148 A 
ATOM     83  C   UNL A   1      49.589  26.432  31.795  1.00  0.00     0.002 A 
ATOM     84  C   UNL A   1      48.632  24.954  33.464  1.00  0.00     0.091 A 
ATOM     85  F   UNL A   1      46.260  24.732  33.598  1.00  0.00    -0.205 F 
ATOM     86  C   UNL A   1      49.752  25.518  32.832  1.00  0.00     0.022 A 
BRANCH  84  87
ATOM     87  S   UNL A   1      48.942  23.857  34.852  1.00  0.00     0.127 S 
ATOM     88  O   UNL A   1      48.255  24.552  35.940  1.00  0.00    -0.237 OA
ATOM     89  O   UNL A   1      48.297  22.618  34.417  1.00  0.00    -0.237 OA
ATOM     90  O   UNL A   1      50.390  23.771  34.983  1.00  0.00    -0.744 OA
ENDBRANCH  84  87
ENDBRANCH  57  80
ENDBRANCH  31  32
ENDBRANCH  24  26
ENDBRANCH  23  24
ENDBRANCH  22  23
ENDBRANCH   1  22
TORSDOF 19
ENDMDL
MODEL 3
REMARK VINA RESULT:      -9.7      4.011      7.500
REMARK SMILES Cc1ncccc1C(=O)N1CC[C@@H](C(=O)OCCOCCOC(=O)c2ccc(-c3c4nc(c(-c5cccc(S(=O)(=O)[O-])c5F)c5ccc([nH]5)c(-c5cccc(S(=O)(=O)[O-])c5F)c5nc(c(-c6cccc(S(=O)(=O)[O-])c6F)c6ccc3[nH]6)C=C5)C=C4)cc2)C1
REMARK SMILES IDX 20 1 19 2 18 3 17 4 16 5 14 6 15 7 13 8 10 9 11 10 88 11
REMARK SMILES IDX 12 12 8 13 9 14 7 15 1 16 2 17 3 18 4 19 6 20 5 21 21 22
REMARK SMILES IDX 22 23 23 24 24 25 25 26 26 27 87 28 27 29 86 30 28 31 29 32
REMARK SMILES IDX 30 33 80 34 31 35 85 36 79 37 81 38 32 39 84 40 78 41 77 42
REMARK SMILES IDX 33 44 65 45 45 46 64 47 46 48 49 49 63 50 82 51 47 52 48 53
REMARK SMILES IDX 62 55 83 56 50 57 34 58 35 59 43 60 36 61 38 62 44 63 37 64
REMARK SMILES IDX 39 65 40 66 41 67 42 68 66 69 67 70 75 71 68 72 70 73 76 74
REMARK SMILES IDX 69 75 71 76 72 77 73 78 74 79 51 80 52 81 60 82 53 83 55 84
REMARK SMILES IDX 61 85 54 86 56 87 57 88 58 89 59 90
REMARK H PARENT 81 43 49 54
REMARK Flexibility Score: inf
ROOT
ATOM      1  C   UNL A   1      38.144  21.268  25.353  1.00  0.00     0.202 C 
ENDROOT
BRANCH   1   2
ATOM      2  O   UNL A   1      37.001  21.001  24.542  1.00  0.00    -0.374 OA
BRANCH   2   3
ATOM      3  C   UNL A   1      36.103  19.997  25.023  1.00  0.00     0.202 C 
BRANCH   3   4
ATOM      4  C   UNL A   1      34.632  20.182  24.639  1.00  0.00     0.261 C 
BRANCH   4   5
ATOM      5  O   UNL A   1      33.960  21.042  25.577  1.00  0.00    -0.463 OA
BRANCH   5   6
ATOM      6  C   UNL A   1      32.685  21.398  25.287  1.00  0.00     0.310 C 
ATOM      7  O   UNL A   1      31.709  20.664  25.388  1.00  0.00    -0.252 OA
BRANCH   6   8
ATOM      8  C   UNL A   1      32.564  22.849  24.889  1.00  0.00     0.120 C 
ATOM      9  N   UNL A   1      31.881  24.845  25.919  1.00  0.00    -0.338 N 
ATOM     10  C   UNL A   1      33.321  24.843  26.080  1.00  0.00     0.121 C 
ATOM     11  C   UNL A   1      31.411  23.508  25.641  1.00  0.00     0.135 C 
ATOM     12  C   UNL A   1      33.787  23.762  25.113  1.00  0.00     0.039 C 
BRANCH   9  13
ATOM     13  C   UNL A   1      30.989  25.865  26.162  1.00  0.00     0.255 C 
ATOM     14  O   UNL A   1      29.804  25.636  26.407  1.00  0.00    -0.269 OA
BRANCH  13  15
ATOM     15  C   UNL A   1      31.403  27.283  25.993  1.00  0.00     0.061 A 
ATOM     16  C   UNL A   1      30.794  27.431  23.504  1.00  0.00     0.067 C 
ATOM     17  C   UNL A   1      31.239  28.015  24.810  1.00  0.00     0.050 A 
ATOM     18  N   UNL A   1      31.452  29.361  24.752  1.00  0.00    -0.261 NA
ATOM     19  C   UNL A   1      31.780  30.004  25.890  1.00  0.00     0.111 A 
ATOM     20  C   UNL A   1      31.741  27.992  27.155  1.00  0.00     0.017 A 
ATOM     21  C   UNL A   1      31.930  29.371  27.107  1.00  0.00     0.021 A 
ENDBRANCH  13  15
ENDBRANCH   9  13
ENDBRANCH   6   8
ENDBRANCH   5   6
ENDBRANCH   4   5
ENDBRANCH   3   4
ENDBRANCH   2   3
ENDBRANCH   1   2
BRANCH   1  22
ATOM     22  C   UNL A   1      39.028  20.065  25.694  1.00  0.00     0.261 C 
BRANCH  22  23
ATOM     23  O   UNL A   1      40.406  20.445  25.853  1.00  0.00    -0.460 OA
BRANCH  23  24
ATOM     24  C   UNL A   1      40.824  20.539  27.138  1.00  0.00     0.338 C 
ATOM     25  O   UNL A   1      41.119  19.617  27.889  1.00  0.00    -0.246 OA
BRANCH  24  26
ATOM     26  C   UNL A   1      41.059  21.950  27.483  1.00  0.00     0.060 A 
ATOM     27  C   UNL A   1      40.518  22.924  26.633  1.00  0.00     0.016 A 
ATOM     28  C   UNL A   1      41.831  22.319  28.587  1.00  0.00     0.016 A 
ATOM     29  C   UNL A   1      40.773  24.273  26.867  1.00  0.00     0.010 A 
ATOM     30  C   UNL A   1      42.092  23.674  28.814  1.00  0.00     0.010 A 
ATOM     31  C   UNL A   1      41.585  24.655  27.943  1.00  0.00    -0.014 A 
BRANCH  31  32
ATOM     32  C   UNL A   1      41.970  26.077  28.107  1.00  0.00     0.031 A 
ATOM     33  C   UNL A   1      43.339  26.529  27.684  1.00  0.00     0.074 A 
ATOM     34  C   UNL A   1      41.105  26.954  28.648  1.00  0.00     0.049 A 
ATOM     35  N   UNL A   1      43.886  27.712  27.784  1.00  0.00    -0.248 NA
ATOM     36  C   UNL A   1      44.209  25.513  27.069  1.00  0.00     0.031 C 
ATOM     37  C   UNL A   1      39.751  26.633  29.097  1.00  0.00     0.029 A 
ATOM     38  N   UNL A   1      41.251  28.287  28.941  1.00  0.00    -0.354 N 
ATOM     39  C   UNL A   1      45.172  27.580  27.275  1.00  0.00     0.074 A 
ATOM     40  C   UNL A   1      45.326  26.198  26.871  1.00  0.00     0.031 C 
ATOM     41  C   UNL A   1      39.202  27.730  29.642  1.00  0.00     0.029 A 
ATOM     42  C   UNL A   1      40.174  28.821  29.607  1.00  0.00     0.049 A 
ATOM     43  H   UNL A   1      42.049  28.809  28.697  1.00  0.00     0.167 HD
ATOM     44  C   UNL A   1      46.132  28.526  27.145  1.00  0.00     0.034 A 
ATOM     45  C   UNL A   1      40.004  30.040  30.157  1.00  0.00     0.034 A 
ATOM     46  C   UNL A   1      45.968  29.902  27.533  1.00  0.00     0.049 A 
ATOM     47  C   UNL A   1      41.100  31.065  30.028  1.00  0.00     0.074 A 
ATOM     48  C   UNL A   1      46.859  30.949  27.379  1.00  0.00     0.029 A 
ATOM     49  N   UNL A   1      44.852  30.417  28.172  1.00  0.00    -0.354 N 
ATOM     50  N   UNL A   1      42.258  30.964  29.421  1.00  0.00    -0.248 NA
ATOM     51  C   UNL A   1      40.855  32.381  30.636  1.00  0.00     0.031 C 
ATOM     52  C   UNL A   1      46.295  32.091  27.959  1.00  0.00     0.029 A 
ATOM     53  C   UNL A   1      45.040  31.762  28.445  1.00  0.00     0.049 A 
ATOM     54  H   UNL A   1      44.043  29.904  28.399  1.00  0.00     0.167 HD
ATOM     55  C   UNL A   1      42.868  32.207  29.551  1.00  0.00     0.074 A 
ATOM     56  C   UNL A   1      41.940  33.053  30.272  1.00  0.00     0.031 C 
ATOM     57  C   UNL A   1      44.093  32.607  29.127  1.00  0.00     0.034 A 
BRANCH  44  58
ATOM     58  C   UNL A   1      47.448  28.112  26.541  1.00  0.00     0.023 A 
ATOM     59  C   UNL A   1      48.546  27.828  27.379  1.00  0.00     0.012 A 
ATOM     60  C   UNL A   1      47.580  27.943  25.149  1.00  0.00     0.148 A 
ATOM     61  C   UNL A   1      49.761  27.411  26.840  1.00  0.00     0.002 A 
ATOM     62  C   UNL A   1      48.781  27.485  24.622  1.00  0.00     0.091 A 
ATOM     63  F   UNL A   1      46.532  28.239  24.367  1.00  0.00    -0.205 F 
ATOM     64  C   UNL A   1      49.877  27.229  25.464  1.00  0.00     0.022 A 
BRANCH  62  65
ATOM     65  S   UNL A   1      49.004  27.146  22.872  1.00  0.00     0.127 S 
ATOM     66  O   UNL A   1      48.411  28.336  22.264  1.00  0.00    -0.237 OA
ATOM     67  O   UNL A   1      50.461  27.065  22.758  1.00  0.00    -0.237 OA
ATOM     68  O   UNL A   1      48.304  25.896  22.613  1.00  0.00    -0.744 OA
ENDBRANCH  62  65
ENDBRANCH  44  58
BRANCH  45  69
ATOM     69  C   UNL A   1      38.736  30.360  30.870  1.00  0.00     0.023 A 
ATOM     70  C   UNL A   1      38.558  29.940  32.201  1.00  0.00     0.012 A 
ATOM     71  C   UNL A   1      37.717  31.104  30.241  1.00  0.00     0.148 A 
ATOM     72  C   UNL A   1      37.377  30.231  32.886  1.00  0.00     0.002 A 
ATOM     73  C   UNL A   1      36.571  31.442  30.948  1.00  0.00     0.091 A 
ATOM     74  F   UNL A   1      37.899  31.479  28.967  1.00  0.00    -0.205 F 
ATOM     75  C   UNL A   1      36.390  30.991  32.264  1.00  0.00     0.022 A 
BRANCH  73  76
ATOM     76  S   UNL A   1      35.313  32.534  30.273  1.00  0.00     0.127 S 
ATOM     77  O   UNL A   1      36.099  33.714  29.922  1.00  0.00    -0.237 OA
ATOM     78  O   UNL A   1      34.820  31.758  29.136  1.00  0.00    -0.237 OA
ATOM     79  O   UNL A   1      34.338  32.717  31.340  1.00  0.00    -0.744 OA
ENDBRANCH  73  76
ENDBRANCH  45  69
BRANCH  57  80
ATOM     80  C   UNL A   1      44.503  34.029  29.412  1.00  0.00     0.023 A 
ATOM     81  C   UNL A   1      45.151  34.341  30.624  1.00  0.00     0.012 A 
ATOM     82  C   UNL A   1      44.315  35.041  28.450  1.00  0.00     0.148 A 
ATOM     83  C   UNL A   1      45.576  35.643  30.887  1.00  0.00     0.002 A 
ATOM     84  C   UNL A   1      44.785  36.325  28.698  1.00  0.00     0.091 A 
ATOM     85  F   UNL A   1      43.682  34.728  27.309  1.00  0.00    -0.205 F 
ATOM     86  C   UNL A   1      45.404  36.630  29.920  1.00  0.00     0.022 A 
BRANCH  84  87
ATOM     87  S   UNL A   1      44.693  37.641  27.478  1.00  0.00     0.127 S 
ATOM     88  O   UNL A   1      45.716  37.229  26.518  1.00  0.00    -0.237 OA
ATOM     89  O   UNL A   1      43.318  37.517  26.994  1.00  0.00    -0.237 OA
ATOM     90  O   UNL A   1      44.974  38.877  28.195  1.00  0.00    -0.744 OA
ENDBRANCH  84  87
ENDBRANCH  57  80
ENDBRANCH  31  32
ENDBRANCH  24  26
ENDBRANCH  23  24
ENDBRANCH  22  23
ENDBRANCH   1  22
TORSDOF 19
ENDMDL
