MODEL 1
REMARK VINA RESULT:     -11.1      0.000      0.000
REMARK SMILES COc1ccc(C(=O)N2CC[C@@H](C(=O)OCCOCCOC(=O)c3ccc(-c4c5nc(c(-c6cccc(S(=O)(=O)[O-])c6F)c6ccc([nH]6)c(-c6cccc(S(=O)(=O)[O-])c6F)c6nc(c(-c7cccc(S(=O)(=O)[O-])c7F)c7ccc4[nH]7)C=C6)C=C5)cc3)[C@H]2C)cc1O
REMARK SMILES IDX 18 1 17 2 16 3 15 4 13 5 14 6 12 7 9 8 10 9 87 10 11 11
REMARK SMILES IDX 88 12 7 13 8 14 6 15 3 16 4 17 90 18 5 19 89 20 2 21 1 22
REMARK SMILES IDX 91 23 19 25 20 26 21 27 22 28 23 29 24 30 25 31 86 32 26 33
REMARK SMILES IDX 85 34 27 35 28 36 29 37 79 38 30 39 84 40 78 41 80 42 31 43
REMARK SMILES IDX 83 44 77 45 76 46 32 48 64 49 44 50 63 51 45 52 48 53 62 54
REMARK SMILES IDX 81 55 46 56 47 57 61 59 82 60 49 61 33 62 34 63 42 64 35 65
REMARK SMILES IDX 37 66 43 67 36 68 38 69 39 70 40 71 41 72 65 73 66 74 74 75
REMARK SMILES IDX 67 76 69 77 75 78 68 79 70 80 71 81 72 82 73 83 50 84 51 85
REMARK SMILES IDX 59 86 52 87 54 88 60 89 53 90 55 91 56 92 57 93 58 94
REMARK H PARENT 91 24 80 47 48 58
REMARK Flexibility Score: inf
ROOT
ATOM      1  O   UNL A   1      32.443  28.710  24.303  1.00  0.00    -0.374 OA
ENDROOT
BRANCH   1   2
ATOM      2  C   UNL A   1      33.221  28.948  23.128  1.00  0.00     0.202 C 
BRANCH   2   3
ATOM      3  C   UNL A   1      33.645  27.703  22.342  1.00  0.00     0.261 C 
BRANCH   3   4
ATOM      4  O   UNL A   1      32.511  26.847  22.103  1.00  0.00    -0.463 OA
BRANCH   4   5
ATOM      5  C   UNL A   1      32.775  25.545  21.868  1.00  0.00     0.311 C 
ATOM      6  O   UNL A   1      33.349  25.119  20.872  1.00  0.00    -0.252 OA
BRANCH   5   7
ATOM      7  C   UNL A   1      32.287  24.623  22.963  1.00  0.00     0.123 C 
ATOM      8  N   UNL A   1      32.394  23.646  25.129  1.00  0.00    -0.335 N 
ATOM      9  C   UNL A   1      31.088  24.254  24.940  1.00  0.00     0.121 C 
ATOM     10  C   UNL A   1      33.240  23.856  23.920  1.00  0.00     0.096 C 
ATOM     11  C   UNL A   1      31.323  25.331  23.904  1.00  0.00     0.039 C 
ATOM     12  C   UNL A   1      34.573  24.520  24.237  1.00  0.00     0.032 C 
BRANCH   8  13
ATOM     13  C   UNL A   1      32.461  22.544  25.981  1.00  0.00     0.254 C 
ATOM     14  O   UNL A   1      32.189  22.635  27.179  1.00  0.00    -0.269 OA
BRANCH  13  15
ATOM     15  C   UNL A   1      33.013  21.257  25.468  1.00  0.00     0.043 A 
ATOM     16  C   UNL A   1      34.109  18.855  24.436  1.00  0.00     0.160 A 
ATOM     17  C   UNL A   1      34.934  19.869  24.947  1.00  0.00     0.051 A 
ATOM     18  C   UNL A   1      32.734  19.083  24.413  1.00  0.00     0.158 A 
ATOM     19  C   UNL A   1      34.395  21.051  25.475  1.00  0.00     0.018 A 
ATOM     20  C   UNL A   1      32.206  20.294  24.866  1.00  0.00     0.064 A 
BRANCH  16  21
ATOM     21  O   UNL A   1      34.806  17.762  24.011  1.00  0.00    -0.493 OA
ATOM     22  C   UNL A   1      34.767  16.571  24.785  1.00  0.00     0.278 C 
ENDBRANCH  16  21
BRANCH  18  23
ATOM     23  O   UNL A   1      31.801  18.183  23.989  1.00  0.00    -0.504 OA
ATOM     24  H   UNL A   1      32.048  17.295  23.822  1.00  0.00     0.293 HD
ENDBRANCH  18  23
ENDBRANCH  13  15
ENDBRANCH   8  13
ENDBRANCH   5   7
ENDBRANCH   4   5
ENDBRANCH   3   4
ENDBRANCH   2   3
ENDBRANCH   1   2
BRANCH   1  25
ATOM     25  C   UNL A   1      31.352  29.593  24.560  1.00  0.00     0.202 C 
BRANCH  25  26
ATOM     26  C   UNL A   1      31.435  30.447  25.836  1.00  0.00     0.261 C 
BRANCH  26  27
ATOM     27  O   UNL A   1      32.640  30.210  26.585  1.00  0.00    -0.460 OA
BRANCH  27  28
ATOM     28  C   UNL A   1      33.207  31.322  27.110  1.00  0.00     0.338 C 
ATOM     29  O   UNL A   1      32.652  32.391  27.322  1.00  0.00    -0.246 OA
BRANCH  28  30
ATOM     30  C   UNL A   1      34.574  31.030  27.593  1.00  0.00     0.060 A 
ATOM     31  C   UNL A   1      34.901  29.683  27.792  1.00  0.00     0.016 A 
ATOM     32  C   UNL A   1      35.498  32.031  27.902  1.00  0.00     0.016 A 
ATOM     33  C   UNL A   1      36.116  29.333  28.374  1.00  0.00     0.010 A 
ATOM     34  C   UNL A   1      36.722  31.677  28.488  1.00  0.00     0.010 A 
ATOM     35  C   UNL A   1      37.014  30.331  28.774  1.00  0.00    -0.014 A 
BRANCH  35  36
ATOM     36  C   UNL A   1      38.169  29.961  29.633  1.00  0.00     0.031 A 
ATOM     37  C   UNL A   1      39.214  29.019  29.089  1.00  0.00     0.074 A 
ATOM     38  C   UNL A   1      38.322  30.489  30.861  1.00  0.00     0.049 A 
ATOM     39  N   UNL A   1      40.313  28.588  29.650  1.00  0.00    -0.248 NA
ATOM     40  C   UNL A   1      38.988  28.497  27.732  1.00  0.00     0.031 C 
ATOM     41  C   UNL A   1      37.397  31.424  31.499  1.00  0.00     0.029 A 
ATOM     42  N   UNL A   1      39.313  30.305  31.794  1.00  0.00    -0.354 N 
ATOM     43  C   UNL A   1      40.897  27.726  28.728  1.00  0.00     0.074 A 
ATOM     44  C   UNL A   1      40.017  27.677  27.582  1.00  0.00     0.031 C 
ATOM     45  C   UNL A   1      37.858  31.725  32.724  1.00  0.00     0.029 A 
ATOM     46  C   UNL A   1      39.096  30.986  32.968  1.00  0.00     0.049 A 
ATOM     47  H   UNL A   1      40.103  29.741  31.636  1.00  0.00     0.167 HD
ATOM     48  C   UNL A   1      42.069  27.050  28.814  1.00  0.00     0.034 A 
ATOM     49  C   UNL A   1      39.806  30.999  34.115  1.00  0.00     0.034 A 
ATOM     50  C   UNL A   1      42.954  27.107  29.947  1.00  0.00     0.049 A 
ATOM     51  C   UNL A   1      41.084  30.205  34.203  1.00  0.00     0.074 A 
ATOM     52  C   UNL A   1      44.179  26.485  30.114  1.00  0.00     0.029 A 
ATOM     53  N   UNL A   1      42.704  27.814  31.113  1.00  0.00    -0.354 N 
ATOM     54  N   UNL A   1      41.671  29.475  33.286  1.00  0.00    -0.248 NA
ATOM     55  C   UNL A   1      41.816  30.266  35.478  1.00  0.00     0.031 C 
ATOM     56  C   UNL A   1      44.652  26.786  31.396  1.00  0.00     0.029 A 
ATOM     57  C   UNL A   1      43.743  27.633  32.011  1.00  0.00     0.049 A 
ATOM     58  H   UNL A   1      41.905  28.365  31.279  1.00  0.00     0.167 HD
ATOM     59  C   UNL A   1      42.859  29.028  33.856  1.00  0.00     0.074 A 
ATOM     60  C   UNL A   1      42.914  29.582  35.193  1.00  0.00     0.031 C 
ATOM     61  C   UNL A   1      43.814  28.225  33.322  1.00  0.00     0.034 A 
BRANCH  48  62
ATOM     62  C   UNL A   1      42.467  26.196  27.637  1.00  0.00     0.023 A 
ATOM     63  C   UNL A   1      43.274  26.739  26.616  1.00  0.00     0.012 A 
ATOM     64  C   UNL A   1      42.074  24.846  27.560  1.00  0.00     0.148 A 
ATOM     65  C   UNL A   1      43.645  25.966  25.516  1.00  0.00     0.002 A 
ATOM     66  C   UNL A   1      42.490  24.067  26.486  1.00  0.00     0.091 A 
ATOM     67  F   UNL A   1      41.290  24.351  28.529  1.00  0.00    -0.205 F 
ATOM     68  C   UNL A   1      43.262  24.629  25.456  1.00  0.00     0.022 A 
BRANCH  66  69
ATOM     69  S   UNL A   1      42.116  22.316  26.359  1.00  0.00     0.127 S 
ATOM     70  O   UNL A   1      42.649  21.807  27.621  1.00  0.00    -0.237 OA
ATOM     71  O   UNL A   1      40.656  22.319  26.270  1.00  0.00    -0.237 OA
ATOM     72  O   UNL A   1      42.796  21.847  25.160  1.00  0.00    -0.744 OA
ENDBRANCH  66  69
ENDBRANCH  48  62
BRANCH  49  73
ATOM     73  C   UNL A   1      39.346  31.826  35.267  1.00  0.00     0.023 A 
ATOM     74  C   UNL A   1      38.485  31.264  36.228  1.00  0.00     0.012 A 
ATOM     75  C   UNL A   1      39.763  33.163  35.415  1.00  0.00     0.148 A 
ATOM     76  C   UNL A   1      38.020  32.029  37.299  1.00  0.00     0.002 A 
ATOM     77  C   UNL A   1      39.344  33.900  36.515  1.00  0.00     0.091 A 
ATOM     78  F   UNL A   1      40.572  33.682  34.481  1.00  0.00    -0.205 F 
ATOM     79  C   UNL A   1      38.457  33.341  37.448  1.00  0.00     0.022 A 
BRANCH  77  80
ATOM     80  S   UNL A   1      39.952  35.555  36.855  1.00  0.00     0.127 S 
ATOM     81  O   UNL A   1      39.306  35.855  38.131  1.00  0.00    -0.237 OA
ATOM     82  O   UNL A   1      41.396  35.333  36.932  1.00  0.00    -0.237 OA
ATOM     83  O   UNL A   1      39.527  36.373  35.727  1.00  0.00    -0.744 OA
ENDBRANCH  77  80
ENDBRANCH  49  73
BRANCH  61  84
ATOM     84  C   UNL A   1      45.035  27.934  34.158  1.00  0.00     0.023 A 
ATOM     85  C   UNL A   1      46.193  28.727  34.025  1.00  0.00     0.012 A 
ATOM     86  C   UNL A   1      45.011  26.909  35.126  1.00  0.00     0.148 A 
ATOM     87  C   UNL A   1      47.319  28.478  34.811  1.00  0.00     0.002 A 
ATOM     88  C   UNL A   1      46.118  26.701  35.942  1.00  0.00     0.091 A 
ATOM     89  F   UNL A   1      43.909  26.153  35.229  1.00  0.00    -0.205 F 
ATOM     90  C   UNL A   1      47.277  27.475  35.776  1.00  0.00     0.022 A 
BRANCH  88  91
ATOM     91  S   UNL A   1      46.119  25.500  37.277  1.00  0.00     0.127 S 
ATOM     92  O   UNL A   1      46.300  24.245  36.548  1.00  0.00    -0.237 OA
ATOM     93  O   UNL A   1      47.276  25.917  38.069  1.00  0.00    -0.237 OA
ATOM     94  O   UNL A   1      44.838  25.648  37.955  1.00  0.00    -0.744 OA
ENDBRANCH  88  91
ENDBRANCH  61  84
ENDBRANCH  35  36
ENDBRANCH  28  30
ENDBRANCH  27  28
ENDBRANCH  26  27
ENDBRANCH  25  26
ENDBRANCH   1  25
TORSDOF 21
ENDMDL
MODEL 2
REMARK VINA RESULT:     -11.0      5.004      8.052
REMARK SMILES COc1ccc(C(=O)N2CC[C@@H](C(=O)OCCOCCOC(=O)c3ccc(-c4c5nc(c(-c6cccc(S(=O)(=O)[O-])c6F)c6ccc([nH]6)c(-c6cccc(S(=O)(=O)[O-])c6F)c6nc(c(-c7cccc(S(=O)(=O)[O-])c7F)c7ccc4[nH]7)C=C6)C=C5)cc3)[C@H]2C)cc1O
REMARK SMILES IDX 18 1 17 2 16 3 15 4 13 5 14 6 12 7 9 8 10 9 87 10 11 11
REMARK SMILES IDX 88 12 7 13 8 14 6 15 3 16 4 17 90 18 5 19 89 20 2 21 1 22
REMARK SMILES IDX 91 23 19 25 20 26 21 27 22 28 23 29 24 30 25 31 86 32 26 33
REMARK SMILES IDX 85 34 27 35 28 36 29 37 79 38 30 39 84 40 78 41 80 42 31 43
REMARK SMILES IDX 83 44 77 45 76 46 32 48 64 49 44 50 63 51 45 52 48 53 62 54
REMARK SMILES IDX 81 55 46 56 47 57 61 59 82 60 49 61 33 62 34 63 42 64 35 65
REMARK SMILES IDX 37 66 43 67 36 68 38 69 39 70 40 71 41 72 65 73 66 74 74 75
REMARK SMILES IDX 67 76 69 77 75 78 68 79 70 80 71 81 72 82 73 83 50 84 51 85
REMARK SMILES IDX 59 86 52 87 54 88 60 89 53 90 55 91 56 92 57 93 58 94
REMARK H PARENT 91 24 80 47 48 58
REMARK Flexibility Score: inf
ROOT
ATOM      1  O   UNL A   1      33.005  34.174  29.071  1.00  0.00    -0.374 OA
ENDROOT
BRANCH   1   2
ATOM      2  C   UNL A   1      32.841  33.238  28.004  1.00  0.00     0.202 C 
BRANCH   2   3
ATOM      3  C   UNL A   1      33.957  32.199  27.847  1.00  0.00     0.261 C 
BRANCH   3   4
ATOM      4  O   UNL A   1      33.659  31.297  26.764  1.00  0.00    -0.463 OA
BRANCH   4   5
ATOM      5  C   UNL A   1      33.649  29.981  27.059  1.00  0.00     0.311 C 
ATOM      6  O   UNL A   1      34.449  29.428  27.806  1.00  0.00    -0.252 OA
BRANCH   5   7
ATOM      7  C   UNL A   1      32.543  29.215  26.368  1.00  0.00     0.123 C 
ATOM      8  N   UNL A   1      31.707  27.554  24.884  1.00  0.00    -0.335 N 
ATOM      9  C   UNL A   1      31.145  27.344  26.207  1.00  0.00     0.121 C 
ATOM     10  C   UNL A   1      32.637  28.719  24.900  1.00  0.00     0.096 C 
ATOM     11  C   UNL A   1      32.154  27.967  27.147  1.00  0.00     0.039 C 
ATOM     12  C   UNL A   1      34.026  28.376  24.380  1.00  0.00     0.032 C 
BRANCH   8  13
ATOM     13  C   UNL A   1      30.933  27.152  23.797  1.00  0.00     0.254 C 
ATOM     14  O   UNL A   1      31.105  26.063  23.249  1.00  0.00    -0.269 OA
BRANCH  13  15
ATOM     15  C   UNL A   1      29.973  28.117  23.187  1.00  0.00     0.043 A 
ATOM     16  C   UNL A   1      28.185  30.014  22.074  1.00  0.00     0.160 A 
ATOM     17  C   UNL A   1      29.574  30.162  21.943  1.00  0.00     0.051 A 
ATOM     18  C   UNL A   1      27.711  28.927  22.804  1.00  0.00     0.158 A 
ATOM     19  C   UNL A   1      30.462  29.216  22.476  1.00  0.00     0.018 A 
ATOM     20  C   UNL A   1      28.599  28.031  23.403  1.00  0.00     0.064 A 
BRANCH  16  21
ATOM     21  O   UNL A   1      27.481  31.004  21.451  1.00  0.00    -0.493 OA
ATOM     22  C   UNL A   1      28.182  32.101  20.883  1.00  0.00     0.278 C 
ENDBRANCH  16  21
BRANCH  18  23
ATOM     23  O   UNL A   1      26.394  28.622  22.986  1.00  0.00    -0.504 OA
ATOM     24  H   UNL A   1      26.147  27.770  23.283  1.00  0.00     0.293 HD
ENDBRANCH  18  23
ENDBRANCH  13  15
ENDBRANCH   8  13
ENDBRANCH   5   7
ENDBRANCH   4   5
ENDBRANCH   3   4
ENDBRANCH   2   3
ENDBRANCH   1   2
BRANCH   1  25
ATOM     25  C   UNL A   1      34.298  34.274  29.666  1.00  0.00     0.202 C 
BRANCH  25  26
ATOM     26  C   UNL A   1      34.401  33.941  31.163  1.00  0.00     0.261 C 
BRANCH  26  27
ATOM     27  O   UNL A   1      34.480  32.526  31.412  1.00  0.00    -0.460 OA
BRANCH  27  28
ATOM     28  C   UNL A   1      35.481  32.154  32.244  1.00  0.00     0.338 C 
ATOM     29  O   UNL A   1      35.499  32.274  33.461  1.00  0.00    -0.246 OA
BRANCH  28  30
ATOM     30  C   UNL A   1      36.508  31.385  31.510  1.00  0.00     0.060 A 
ATOM     31  C   UNL A   1      37.506  30.768  32.275  1.00  0.00     0.016 A 
ATOM     32  C   UNL A   1      36.543  31.307  30.114  1.00  0.00     0.016 A 
ATOM     33  C   UNL A   1      38.583  30.144  31.653  1.00  0.00     0.010 A 
ATOM     34  C   UNL A   1      37.629  30.677  29.491  1.00  0.00     0.010 A 
ATOM     35  C   UNL A   1      38.679  30.139  30.255  1.00  0.00    -0.014 A 
BRANCH  35  36
ATOM     36  C   UNL A   1      39.955  29.716  29.621  1.00  0.00     0.031 A 
ATOM     37  C   UNL A   1      40.023  28.375  28.936  1.00  0.00     0.074 A 
ATOM     38  C   UNL A   1      41.027  30.529  29.606  1.00  0.00     0.049 A 
ATOM     39  N   UNL A   1      41.020  27.821  28.296  1.00  0.00    -0.248 NA
ATOM     40  C   UNL A   1      38.805  27.550  28.979  1.00  0.00     0.031 C 
ATOM     41  C   UNL A   1      41.089  31.857  30.213  1.00  0.00     0.029 A 
ATOM     42  N   UNL A   1      42.275  30.348  29.060  1.00  0.00    -0.354 N 
ATOM     43  C   UNL A   1      40.561  26.576  27.881  1.00  0.00     0.074 A 
ATOM     44  C   UNL A   1      39.204  26.446  28.365  1.00  0.00     0.031 C 
ATOM     45  C   UNL A   1      42.316  32.368  30.017  1.00  0.00     0.029 A 
ATOM     46  C   UNL A   1      43.134  31.396  29.293  1.00  0.00     0.049 A 
ATOM     47  H   UNL A   1      42.529  29.546  28.551  1.00  0.00     0.167 HD
ATOM     48  C   UNL A   1      41.198  25.631  27.147  1.00  0.00     0.034 A 
ATOM     49  C   UNL A   1      44.435  31.547  28.973  1.00  0.00     0.034 A 
ATOM     50  C   UNL A   1      42.543  25.763  26.653  1.00  0.00     0.049 A 
ATOM     51  C   UNL A   1      45.136  30.465  28.194  1.00  0.00     0.074 A 
ATOM     52  C   UNL A   1      43.263  24.875  25.872  1.00  0.00     0.029 A 
ATOM     53  N   UNL A   1      43.377  26.841  26.902  1.00  0.00    -0.354 N 
ATOM     54  N   UNL A   1      44.657  29.337  27.726  1.00  0.00    -0.248 NA
ATOM     55  C   UNL A   1      46.553  30.692  27.870  1.00  0.00     0.031 C 
ATOM     56  C   UNL A   1      44.546  25.401  25.682  1.00  0.00     0.029 A 
ATOM     57  C   UNL A   1      44.609  26.638  26.304  1.00  0.00     0.049 A 
ATOM     58  H   UNL A   1      43.129  27.637  27.427  1.00  0.00     0.167 HD
ATOM     59  C   UNL A   1      45.697  28.745  27.016  1.00  0.00     0.074 A 
ATOM     60  C   UNL A   1      46.828  29.645  27.105  1.00  0.00     0.031 C 
ATOM     61  C   UNL A   1      45.715  27.559  26.357  1.00  0.00     0.034 A 
BRANCH  48  62
ATOM     62  C   UNL A   1      40.436  24.370  26.824  1.00  0.00     0.023 A 
ATOM     63  C   UNL A   1      39.143  24.454  26.270  1.00  0.00     0.012 A 
ATOM     64  C   UNL A   1      41.015  23.104  27.035  1.00  0.00     0.148 A 
ATOM     65  C   UNL A   1      38.421  23.299  25.972  1.00  0.00     0.002 A 
ATOM     66  C   UNL A   1      40.310  21.957  26.688  1.00  0.00     0.091 A 
ATOM     67  F   UNL A   1      42.238  23.042  27.581  1.00  0.00    -0.205 F 
ATOM     68  C   UNL A   1      39.008  22.052  26.172  1.00  0.00     0.022 A 
BRANCH  66  69
ATOM     69  S   UNL A   1      41.010  20.310  26.833  1.00  0.00     0.127 S 
ATOM     70  O   UNL A   1      42.412  20.555  26.498  1.00  0.00    -0.237 OA
ATOM     71  O   UNL A   1      40.765  19.994  28.240  1.00  0.00    -0.237 OA
ATOM     72  O   UNL A   1      40.278  19.479  25.887  1.00  0.00    -0.744 OA
ENDBRANCH  66  69
ENDBRANCH  48  62
BRANCH  49  73
ATOM     73  C   UNL A   1      45.156  32.795  29.354  1.00  0.00     0.023 A 
ATOM     74  C   UNL A   1      45.850  32.853  30.578  1.00  0.00     0.012 A 
ATOM     75  C   UNL A   1      45.162  33.920  28.507  1.00  0.00     0.148 A 
ATOM     76  C   UNL A   1      46.508  34.020  30.967  1.00  0.00     0.002 A 
ATOM     77  C   UNL A   1      45.868  35.058  28.873  1.00  0.00     0.091 A 
ATOM     78  F   UNL A   1      44.484  33.848  27.353  1.00  0.00    -0.205 F 
ATOM     79  C   UNL A   1      46.527  35.117  30.112  1.00  0.00     0.022 A 
BRANCH  77  80
ATOM     80  S   UNL A   1      46.050  36.473  27.783  1.00  0.00     0.127 S 
ATOM     81  O   UNL A   1      44.854  37.250  28.098  1.00  0.00    -0.237 OA
ATOM     82  O   UNL A   1      47.306  37.055  28.256  1.00  0.00    -0.237 OA
ATOM     83  O   UNL A   1      46.109  35.928  26.434  1.00  0.00    -0.744 OA
ENDBRANCH  77  80
ENDBRANCH  49  73
BRANCH  61  84
ATOM     84  C   UNL A   1      46.980  27.180  25.627  1.00  0.00     0.023 A 
ATOM     85  C   UNL A   1      47.936  26.350  26.246  1.00  0.00     0.012 A 
ATOM     86  C   UNL A   1      47.190  27.598  24.297  1.00  0.00     0.148 A 
ATOM     87  C   UNL A   1      49.097  25.977  25.570  1.00  0.00     0.002 A 
ATOM     88  C   UNL A   1      48.325  27.178  23.611  1.00  0.00     0.091 A 
ATOM     89  F   UNL A   1      46.281  28.402  23.728  1.00  0.00    -0.205 F 
ATOM     90  C   UNL A   1      49.286  26.380  24.251  1.00  0.00     0.022 A 
BRANCH  88  91
ATOM     91  S   UNL A   1      48.603  27.567  21.879  1.00  0.00     0.127 S 
ATOM     92  O   UNL A   1      48.878  26.245  21.318  1.00  0.00    -0.237 OA
ATOM     93  O   UNL A   1      47.319  28.142  21.481  1.00  0.00    -0.237 OA
ATOM     94  O   UNL A   1      49.720  28.501  21.850  1.00  0.00    -0.744 OA
ENDBRANCH  88  91
ENDBRANCH  61  84
ENDBRANCH  35  36
ENDBRANCH  28  30
ENDBRANCH  27  28
ENDBRANCH  26  27
ENDBRANCH  25  26
ENDBRANCH   1  25
TORSDOF 21
ENDMDL
MODEL 3
REMARK VINA RESULT:     -10.9      1.680      2.284
REMARK SMILES COc1ccc(C(=O)N2CC[C@@H](C(=O)OCCOCCOC(=O)c3ccc(-c4c5nc(c(-c6cccc(S(=O)(=O)[O-])c6F)c6ccc([nH]6)c(-c6cccc(S(=O)(=O)[O-])c6F)c6nc(c(-c7cccc(S(=O)(=O)[O-])c7F)c7ccc4[nH]7)C=C6)C=C5)cc3)[C@H]2C)cc1O
REMARK SMILES IDX 18 1 17 2 16 3 15 4 13 5 14 6 12 7 9 8 10 9 87 10 11 11
REMARK SMILES IDX 88 12 7 13 8 14 6 15 3 16 4 17 90 18 5 19 89 20 2 21 1 22
REMARK SMILES IDX 91 23 19 25 20 26 21 27 22 28 23 29 24 30 25 31 86 32 26 33
REMARK SMILES IDX 85 34 27 35 28 36 29 37 79 38 30 39 84 40 78 41 80 42 31 43
REMARK SMILES IDX 83 44 77 45 76 46 32 48 64 49 44 50 63 51 45 52 48 53 62 54
REMARK SMILES IDX 81 55 46 56 47 57 61 59 82 60 49 61 33 62 34 63 42 64 35 65
REMARK SMILES IDX 37 66 43 67 36 68 38 69 39 70 40 71 41 72 65 73 66 74 74 75
REMARK SMILES IDX 67 76 69 77 75 78 68 79 70 80 71 81 72 82 73 83 50 84 51 85
REMARK SMILES IDX 59 86 52 87 54 88 60 89 53 90 55 91 56 92 57 93 58 94
REMARK H PARENT 91 24 80 47 48 58
REMARK Flexibility Score: inf
ROOT
ATOM      1  O   UNL A   1      31.492  28.973  25.418  1.00  0.00    -0.374 OA
ENDROOT
BRANCH   1   2
ATOM      2  C   UNL A   1      31.804  28.172  24.277  1.00  0.00     0.202 C 
BRANCH   2   3
ATOM      3  C   UNL A   1      31.452  26.685  24.386  1.00  0.00     0.261 C 
BRANCH   3   4
ATOM      4  O   UNL A   1      32.408  26.000  25.218  1.00  0.00    -0.463 OA
BRANCH   4   5
ATOM      5  C   UNL A   1      31.971  24.896  25.859  1.00  0.00     0.311 C 
ATOM      6  O   UNL A   1      31.324  24.904  26.900  1.00  0.00    -0.252 OA
BRANCH   5   7
ATOM      7  C   UNL A   1      32.359  23.606  25.171  1.00  0.00     0.123 C 
ATOM      8  N   UNL A   1      32.457  22.134  23.304  1.00  0.00    -0.335 N 
ATOM      9  C   UNL A   1      33.802  22.378  23.796  1.00  0.00     0.121 C 
ATOM     10  C   UNL A   1      31.467  22.904  24.111  1.00  0.00     0.096 C 
ATOM     11  C   UNL A   1      33.712  23.722  24.485  1.00  0.00     0.039 C 
ATOM     12  C   UNL A   1      30.578  23.800  23.260  1.00  0.00     0.032 C 
BRANCH   8  13
ATOM     13  C   UNL A   1      32.221  20.904  22.693  1.00  0.00     0.254 C 
ATOM     14  O   UNL A   1      31.647  20.821  21.607  1.00  0.00    -0.269 OA
BRANCH  13  15
ATOM     15  C   UNL A   1      32.538  19.648  23.433  1.00  0.00     0.043 A 
ATOM     16  C   UNL A   1      33.074  17.223  24.800  1.00  0.00     0.160 A 
ATOM     17  C   UNL A   1      33.029  17.272  23.399  1.00  0.00     0.051 A 
ATOM     18  C   UNL A   1      32.806  18.397  25.502  1.00  0.00     0.158 A 
ATOM     19  C   UNL A   1      32.783  18.472  22.718  1.00  0.00     0.018 A 
ATOM     20  C   UNL A   1      32.481  19.573  24.823  1.00  0.00     0.064 A 
BRANCH  16  21
ATOM     21  O   UNL A   1      33.374  15.983  25.283  1.00  0.00    -0.493 OA
ATOM     22  C   UNL A   1      32.318  15.125  25.693  1.00  0.00     0.278 C 
ENDBRANCH  16  21
BRANCH  18  23
ATOM     23  O   UNL A   1      32.852  18.523  26.859  1.00  0.00    -0.504 OA
ATOM     24  H   UNL A   1      32.841  19.373  27.251  1.00  0.00     0.293 HD
ENDBRANCH  18  23
ENDBRANCH  13  15
ENDBRANCH   8  13
ENDBRANCH   5   7
ENDBRANCH   4   5
ENDBRANCH   3   4
ENDBRANCH   2   3
ENDBRANCH   1   2
BRANCH   1  25
ATOM     25  C   UNL A   1      31.405  30.385  25.229  1.00  0.00     0.202 C 
BRANCH  25  26
ATOM     26  C   UNL A   1      31.598  31.266  26.473  1.00  0.00     0.261 C 
BRANCH  26  27
ATOM     27  O   UNL A   1      32.804  30.954  27.193  1.00  0.00    -0.460 OA
BRANCH  27  28
ATOM     28  C   UNL A   1      33.558  32.029  27.525  1.00  0.00     0.338 C 
ATOM     29  O   UNL A   1      33.176  33.188  27.609  1.00  0.00    -0.246 OA
BRANCH  28  30
ATOM     30  C   UNL A   1      34.900  31.602  27.976  1.00  0.00     0.060 A 
ATOM     31  C   UNL A   1      35.050  30.256  28.331  1.00  0.00     0.016 A 
ATOM     32  C   UNL A   1      35.972  32.489  28.110  1.00  0.00     0.016 A 
ATOM     33  C   UNL A   1      36.241  29.807  28.896  1.00  0.00     0.010 A 
ATOM     34  C   UNL A   1      37.170  32.035  28.677  1.00  0.00     0.010 A 
ATOM     35  C   UNL A   1      37.292  30.706  29.121  1.00  0.00    -0.014 A 
BRANCH  35  36
ATOM     36  C   UNL A   1      38.439  30.278  29.964  1.00  0.00     0.031 A 
ATOM     37  C   UNL A   1      39.428  29.287  29.407  1.00  0.00     0.074 A 
ATOM     38  C   UNL A   1      38.633  30.797  31.190  1.00  0.00     0.049 A 
ATOM     39  N   UNL A   1      40.512  28.801  29.954  1.00  0.00    -0.248 NA
ATOM     40  C   UNL A   1      39.159  28.777  28.053  1.00  0.00     0.031 C 
ATOM     41  C   UNL A   1      37.763  31.776  31.840  1.00  0.00     0.029 A 
ATOM     42  N   UNL A   1      39.626  30.565  32.110  1.00  0.00    -0.354 N 
ATOM     43  C   UNL A   1      41.042  27.912  29.025  1.00  0.00     0.074 A 
ATOM     44  C   UNL A   1      40.145  27.907  27.890  1.00  0.00     0.031 C 
ATOM     45  C   UNL A   1      38.255  32.054  33.059  1.00  0.00     0.029 A 
ATOM     46  C   UNL A   1      39.457  31.254  33.288  1.00  0.00     0.049 A 
ATOM     47  H   UNL A   1      40.385  29.962  31.942  1.00  0.00     0.167 HD
ATOM     48  C   UNL A   1      42.179  27.179  29.096  1.00  0.00     0.034 A 
ATOM     49  C   UNL A   1      40.182  31.232  34.425  1.00  0.00     0.034 A 
ATOM     50  C   UNL A   1      43.081  27.192  30.218  1.00  0.00     0.049 A 
ATOM     51  C   UNL A   1      41.420  30.376  34.497  1.00  0.00     0.074 A 
ATOM     52  C   UNL A   1      44.276  26.510  30.369  1.00  0.00     0.029 A 
ATOM     53  N   UNL A   1      42.881  27.909  31.386  1.00  0.00    -0.354 N 
ATOM     54  N   UNL A   1      41.959  29.618  33.572  1.00  0.00    -0.248 NA
ATOM     55  C   UNL A   1      42.171  30.399  35.762  1.00  0.00     0.031 C 
ATOM     56  C   UNL A   1      44.779  26.786  31.645  1.00  0.00     0.029 A 
ATOM     57  C   UNL A   1      43.921  27.677  32.271  1.00  0.00     0.049 A 
ATOM     58  H   UNL A   1      42.112  28.499  31.562  1.00  0.00     0.167 HD
ATOM     59  C   UNL A   1      43.130  29.113  34.127  1.00  0.00     0.074 A 
ATOM     60  C   UNL A   1      43.230  29.662  35.463  1.00  0.00     0.031 C 
ATOM     61  C   UNL A   1      44.038  28.264  33.581  1.00  0.00     0.034 A 
BRANCH  48  62
ATOM     62  C   UNL A   1      42.520  26.307  27.913  1.00  0.00     0.023 A 
ATOM     63  C   UNL A   1      43.382  26.791  26.909  1.00  0.00     0.012 A 
ATOM     64  C   UNL A   1      42.016  24.996  27.816  1.00  0.00     0.148 A 
ATOM     65  C   UNL A   1      43.702  26.002  25.805  1.00  0.00     0.002 A 
ATOM     66  C   UNL A   1      42.379  24.196  26.738  1.00  0.00     0.091 A 
ATOM     67  F   UNL A   1      41.181  24.559  28.769  1.00  0.00    -0.205 F 
ATOM     68  C   UNL A   1      43.209  24.702  25.725  1.00  0.00     0.022 A 
BRANCH  66  69
ATOM     69  S   UNL A   1      41.860  22.484  26.586  1.00  0.00     0.127 S 
ATOM     70  O   UNL A   1      40.431  22.582  26.879  1.00  0.00    -0.237 OA
ATOM     71  O   UNL A   1      42.177  22.190  25.189  1.00  0.00    -0.237 OA
ATOM     72  O   UNL A   1      42.648  21.738  27.558  1.00  0.00    -0.744 OA
ENDBRANCH  66  69
ENDBRANCH  48  62
BRANCH  49  73
ATOM     73  C   UNL A   1      39.778  32.080  35.583  1.00  0.00     0.023 A 
ATOM     74  C   UNL A   1      40.325  33.370  35.727  1.00  0.00     0.012 A 
ATOM     75  C   UNL A   1      38.852  31.616  36.536  1.00  0.00     0.148 A 
ATOM     76  C   UNL A   1      39.982  34.169  36.818  1.00  0.00     0.002 A 
ATOM     77  C   UNL A   1      38.470  32.438  37.587  1.00  0.00     0.091 A 
ATOM     78  F   UNL A   1      38.355  30.380  36.387  1.00  0.00    -0.205 F 
ATOM     79  C   UNL A   1      39.048  33.709  37.741  1.00  0.00     0.022 A 
BRANCH  77  80
ATOM     80  S   UNL A   1      37.185  31.980  38.754  1.00  0.00     0.127 S 
ATOM     81  O   UNL A   1      37.786  32.365  40.029  1.00  0.00    -0.237 OA
ATOM     82  O   UNL A   1      36.071  32.822  38.318  1.00  0.00    -0.237 OA
ATOM     83  O   UNL A   1      36.971  30.552  38.566  1.00  0.00    -0.744 OA
ENDBRANCH  77  80
ENDBRANCH  49  73
BRANCH  61  84
ATOM     84  C   UNL A   1      45.254  27.913  34.401  1.00  0.00     0.023 A 
ATOM     85  C   UNL A   1      46.410  28.718  34.340  1.00  0.00     0.012 A 
ATOM     86  C   UNL A   1      45.227  26.815  35.285  1.00  0.00     0.148 A 
ATOM     87  C   UNL A   1      47.530  28.412  35.112  1.00  0.00     0.002 A 
ATOM     88  C   UNL A   1      46.328  26.548  36.092  1.00  0.00     0.091 A 
ATOM     89  F   UNL A   1      44.127  26.049  35.320  1.00  0.00    -0.205 F 
ATOM     90  C   UNL A   1      47.486  27.336  35.995  1.00  0.00     0.022 A 
BRANCH  88  91
ATOM     91  S   UNL A   1      46.324  25.245  37.328  1.00  0.00     0.127 S 
ATOM     92  O   UNL A   1      47.497  25.592  38.130  1.00  0.00    -0.237 OA
ATOM     93  O   UNL A   1      45.042  25.459  37.999  1.00  0.00    -0.237 OA
ATOM     94  O   UNL A   1      46.420  23.991  36.593  1.00  0.00    -0.744 OA
ENDBRANCH  88  91
ENDBRANCH  61  84
ENDBRANCH  35  36
ENDBRANCH  28  30
ENDBRANCH  27  28
ENDBRANCH  26  27
ENDBRANCH  25  26
ENDBRANCH   1  25
TORSDOF 21
ENDMDL
