MODEL 1
REMARK VINA RESULT:      -9.5      0.000      0.000
REMARK SMILES C[C@H](c1cccc(-c2cc(C(=O)OCCOCCOC(=O)c3ccc(-c4c5nc(c(-c6cccc(S(=O)(=O)[O-])c6F)c6ccc([nH]6)c(-c6cccc(S(=O)(=O)[O-])c6F)c6nc(c(-c7cccc(S(=O)(=O)[O-])c7F)c7ccc4[nH]7)C=C6)C=C5)cc3)cc(S(=O)(=O)N3CCOCC3)c2)c1)[NH+](C)C
REMARK SMILES IDX 16 1 15 2 14 3 13 4 11 5 12 6 10 7 8 8 9 9 96 10 86 11 85 12
REMARK SMILES IDX 7 13 3 14 4 15 97 16 5 17 6 18 2 19 1 20 98 21 99 22 100 23
REMARK SMILES IDX 87 25 88 26 89 27 90 28 91 29 95 30 92 31 94 32 93 33 17 34
REMARK SMILES IDX 18 35 19 36 20 37 21 38 22 39 23 40 84 41 24 42 83 43 25 44
REMARK SMILES IDX 26 45 27 46 77 47 28 48 82 49 76 50 78 51 29 52 81 53 75 54
REMARK SMILES IDX 74 55 30 57 62 58 42 59 61 60 43 61 46 62 60 63 79 64 44 65
REMARK SMILES IDX 45 66 59 68 80 69 47 70 31 71 32 72 40 73 33 74 35 75 41 76
REMARK SMILES IDX 34 77 36 78 37 79 38 80 39 81 63 82 64 83 72 84 65 85 67 86
REMARK SMILES IDX 73 87 66 88 68 89 69 90 70 91 71 92 48 93 49 94 57 95 50 96
REMARK SMILES IDX 52 97 58 98 51 99 53 100 54 101 55 102 56 103
REMARK H PARENT 98 24 78 56 46 67
REMARK Flexibility Score: inf
ROOT
ATOM      1  O   UNL A   1      35.179  33.454  32.124  1.00  0.00    -0.374 OA
ENDROOT
BRANCH   1   2
ATOM      2  C   UNL A   1      35.526  33.907  30.812  1.00  0.00     0.202 C 
BRANCH   2   3
ATOM      3  C   UNL A   1      34.367  34.332  29.903  1.00  0.00     0.261 C 
BRANCH   3   4
ATOM      4  O   UNL A   1      34.557  33.827  28.573  1.00  0.00    -0.460 OA
BRANCH   4   5
ATOM      5  C   UNL A   1      33.504  33.157  28.051  1.00  0.00     0.338 C 
ATOM      6  O   UNL A   1      32.441  33.623  27.676  1.00  0.00    -0.246 OA
BRANCH   5   7
ATOM      7  C   UNL A   1      33.930  31.772  27.741  1.00  0.00     0.062 A 
ATOM      8  C   UNL A   1      35.569  30.040  28.185  1.00  0.00    -0.016 A 
ATOM      9  C   UNL A   1      35.150  31.358  28.316  1.00  0.00     0.024 A 
ATOM     10  C   UNL A   1      34.754  29.171  27.463  1.00  0.00     0.030 A 
ATOM     11  C   UNL A   1      33.560  29.557  26.875  1.00  0.00     0.084 A 
ATOM     12  C   UNL A   1      33.125  30.874  27.020  1.00  0.00     0.037 A 
BRANCH   8  13
ATOM     13  C   UNL A   1      36.797  29.499  28.767  1.00  0.00    -0.018 A 
ATOM     14  C   UNL A   1      39.005  28.471  28.443  1.00  0.00     0.010 A 
ATOM     15  C   UNL A   1      39.035  28.166  29.813  1.00  0.00     0.010 A 
ATOM     16  C   UNL A   1      37.864  29.118  27.935  1.00  0.00     0.018 A 
ATOM     17  C   UNL A   1      37.982  28.535  30.652  1.00  0.00     0.001 A 
ATOM     18  C   UNL A   1      36.876  29.210  30.136  1.00  0.00     0.009 A 
BRANCH  14  19
ATOM     19  C   UNL A   1      40.189  28.198  27.513  1.00  0.00     0.211 C 
ATOM     20  C   UNL A   1      41.298  29.244  27.720  1.00  0.00     0.081 C 
BRANCH  19  21
ATOM     21  N   UNL A   1      40.630  26.783  27.486  1.00  0.00    -0.334 N 
ATOM     22  C   UNL A   1      40.862  26.319  26.115  1.00  0.00     0.333 C 
ATOM     23  C   UNL A   1      41.803  26.486  28.307  1.00  0.00     0.333 C 
ATOM     24  H   UNL A   1      39.852  26.273  27.904  1.00  0.00     0.348 HD
ENDBRANCH  19  21
ENDBRANCH  14  19
ENDBRANCH   8  13
BRANCH  11  25
ATOM     25  S   UNL A   1      32.591  28.374  25.959  1.00  0.00     0.243 S 
ATOM     26  O   UNL A   1      32.376  27.265  26.857  1.00  0.00    -0.207 OA
ATOM     27  O   UNL A   1      31.503  29.131  25.376  1.00  0.00    -0.207 OA
BRANCH  25  28
ATOM     28  N   UNL A   1      33.562  27.837  24.694  1.00  0.00    -0.193 NA
ATOM     29  C   UNL A   1      34.082  28.732  23.639  1.00  0.00     0.131 C 
ATOM     30  C   UNL A   1      33.844  26.410  24.451  1.00  0.00     0.131 C 
ATOM     31  C   UNL A   1      33.653  28.255  22.243  1.00  0.00     0.177 C 
ATOM     32  C   UNL A   1      33.369  26.003  23.050  1.00  0.00     0.177 C 
ATOM     33  O   UNL A   1      33.899  26.858  22.024  1.00  0.00    -0.379 OA
ENDBRANCH  25  28
ENDBRANCH  11  25
ENDBRANCH   5   7
ENDBRANCH   4   5
ENDBRANCH   3   4
ENDBRANCH   2   3
ENDBRANCH   1   2
BRANCH   1  34
ATOM     34  C   UNL A   1      34.922  34.460  33.105  1.00  0.00     0.202 C 
BRANCH  34  35
ATOM     35  C   UNL A   1      35.493  34.235  34.510  1.00  0.00     0.261 C 
BRANCH  35  36
ATOM     36  O   UNL A   1      36.921  34.075  34.490  1.00  0.00    -0.460 OA
BRANCH  36  37
ATOM     37  C   UNL A   1      37.401  33.163  35.370  1.00  0.00     0.338 C 
ATOM     38  O   UNL A   1      36.965  32.915  36.482  1.00  0.00    -0.246 OA
BRANCH  37  39
ATOM     39  C   UNL A   1      38.429  32.334  34.713  1.00  0.00     0.060 A 
ATOM     40  C   UNL A   1      39.760  32.532  35.102  1.00  0.00     0.016 A 
ATOM     41  C   UNL A   1      38.111  31.427  33.702  1.00  0.00     0.016 A 
ATOM     42  C   UNL A   1      40.787  31.859  34.445  1.00  0.00     0.010 A 
ATOM     43  C   UNL A   1      39.145  30.759  33.037  1.00  0.00     0.010 A 
ATOM     44  C   UNL A   1      40.487  31.000  33.380  1.00  0.00    -0.014 A 
BRANCH  44  45
ATOM     45  C   UNL A   1      41.588  30.462  32.545  1.00  0.00     0.031 A 
ATOM     46  C   UNL A   1      42.208  29.142  32.914  1.00  0.00     0.074 A 
ATOM     47  C   UNL A   1      42.022  31.136  31.466  1.00  0.00     0.049 A 
ATOM     48  N   UNL A   1      43.194  28.502  32.341  1.00  0.00    -0.248 NA
ATOM     49  C   UNL A   1      41.646  28.452  34.087  1.00  0.00     0.031 C 
ATOM     50  C   UNL A   1      41.495  32.420  31.005  1.00  0.00     0.029 A 
ATOM     51  N   UNL A   1      43.024  30.844  30.576  1.00  0.00    -0.354 N 
ATOM     52  C   UNL A   1      43.394  27.354  33.100  1.00  0.00     0.074 A 
ATOM     53  C   UNL A   1      42.433  27.390  34.182  1.00  0.00     0.031 C 
ATOM     54  C   UNL A   1      42.197  32.820  29.932  1.00  0.00     0.029 A 
ATOM     55  C   UNL A   1      43.241  31.836  29.649  1.00  0.00     0.049 A 
ATOM     56  H   UNL A   1      43.538  30.005  30.598  1.00  0.00     0.167 HD
ATOM     57  C   UNL A   1      44.287  26.356  32.907  1.00  0.00     0.034 A 
ATOM     58  C   UNL A   1      44.191  31.950  28.700  1.00  0.00     0.034 A 
ATOM     59  C   UNL A   1      45.230  26.317  31.822  1.00  0.00     0.049 A 
ATOM     60  C   UNL A   1      45.192  30.837  28.524  1.00  0.00     0.074 A 
ATOM     61  C   UNL A   1      46.141  25.323  31.510  1.00  0.00     0.029 A 
ATOM     62  N   UNL A   1      45.397  27.322  30.882  1.00  0.00    -0.354 N 
ATOM     63  N   UNL A   1      45.292  29.705  29.178  1.00  0.00    -0.248 NA
ATOM     64  C   UNL A   1      46.191  31.004  27.458  1.00  0.00     0.031 C 
ATOM     65  C   UNL A   1      46.888  25.747  30.406  1.00  0.00     0.029 A 
ATOM     66  C   UNL A   1      46.410  26.983  30.001  1.00  0.00     0.049 A 
ATOM     67  H   UNL A   1      44.873  28.154  30.847  1.00  0.00     0.167 HD
ATOM     68  C   UNL A   1      46.337  29.009  28.577  1.00  0.00     0.074 A 
ATOM     69  C   UNL A   1      46.824  29.841  27.495  1.00  0.00     0.031 C 
ATOM     70  C   UNL A   1      46.852  27.796  28.897  1.00  0.00     0.034 A 
BRANCH  57  71
ATOM     71  C   UNL A   1      44.282  25.210  33.887  1.00  0.00     0.023 A 
ATOM     72  C   UNL A   1      43.534  24.049  33.608  1.00  0.00     0.012 A 
ATOM     73  C   UNL A   1      45.066  25.263  35.058  1.00  0.00     0.148 A 
ATOM     74  C   UNL A   1      43.539  22.971  34.493  1.00  0.00     0.002 A 
ATOM     75  C   UNL A   1      45.103  24.166  35.911  1.00  0.00     0.091 A 
ATOM     76  F   UNL A   1      45.753  26.384  35.317  1.00  0.00    -0.205 F 
ATOM     77  C   UNL A   1      44.331  23.026  35.637  1.00  0.00     0.022 A 
BRANCH  75  78
ATOM     78  S   UNL A   1      46.153  24.106  37.366  1.00  0.00     0.127 S 
ATOM     79  O   UNL A   1      45.762  25.329  38.064  1.00  0.00    -0.237 OA
ATOM     80  O   UNL A   1      45.712  22.869  38.010  1.00  0.00    -0.237 OA
ATOM     81  O   UNL A   1      47.524  24.081  36.874  1.00  0.00    -0.744 OA
ENDBRANCH  75  78
ENDBRANCH  57  71
BRANCH  58  82
ATOM     82  C   UNL A   1      44.229  33.155  27.824  1.00  0.00     0.023 A 
ATOM     83  C   UNL A   1      43.734  33.076  26.508  1.00  0.00     0.012 A 
ATOM     84  C   UNL A   1      44.747  34.378  28.291  1.00  0.00     0.148 A 
ATOM     85  C   UNL A   1      43.786  34.184  25.661  1.00  0.00     0.002 A 
ATOM     86  C   UNL A   1      44.743  35.493  27.462  1.00  0.00     0.091 A 
ATOM     87  F   UNL A   1      45.226  34.427  29.542  1.00  0.00    -0.205 F 
ATOM     88  C   UNL A   1      44.281  35.394  26.140  1.00  0.00     0.022 A 
BRANCH  86  89
ATOM     89  S   UNL A   1      45.245  37.121  28.030  1.00  0.00     0.127 S 
ATOM     90  O   UNL A   1      46.680  36.938  28.230  1.00  0.00    -0.237 OA
ATOM     91  O   UNL A   1      44.883  37.960  26.887  1.00  0.00    -0.237 OA
ATOM     92  O   UNL A   1      44.467  37.376  29.233  1.00  0.00    -0.744 OA
ENDBRANCH  86  89
ENDBRANCH  58  82
BRANCH  70  93
ATOM     93  C   UNL A   1      47.971  27.259  28.040  1.00  0.00     0.023 A 
ATOM     94  C   UNL A   1      47.680  26.520  26.876  1.00  0.00     0.012 A 
ATOM     95  C   UNL A   1      49.314  27.553  28.353  1.00  0.00     0.148 A 
ATOM     96  C   UNL A   1      48.707  26.049  26.060  1.00  0.00     0.002 A 
ATOM     97  C   UNL A   1      50.330  27.128  27.505  1.00  0.00     0.091 A 
ATOM     98  F   UNL A   1      49.573  28.246  29.471  1.00  0.00    -0.205 F 
ATOM     99  C   UNL A   1      50.030  26.363  26.367  1.00  0.00     0.022 A 
BRANCH  97 100
ATOM    100  S   UNL A   1      52.051  27.570  27.764  1.00  0.00     0.127 S 
ATOM    101  O   UNL A   1      52.607  27.400  26.422  1.00  0.00    -0.237 OA
ATOM    102  O   UNL A   1      51.950  28.959  28.210  1.00  0.00    -0.237 OA
ATOM    103  O   UNL A   1      52.558  26.645  28.770  1.00  0.00    -0.744 OA
ENDBRANCH  97 100
ENDBRANCH  70  93
ENDBRANCH  44  45
ENDBRANCH  37  39
ENDBRANCH  36  37
ENDBRANCH  35  36
ENDBRANCH  34  35
ENDBRANCH   1  34
TORSDOF 22
ENDMDL
MODEL 2
REMARK VINA RESULT:      -9.3      4.746      8.270
REMARK SMILES C[C@H](c1cccc(-c2cc(C(=O)OCCOCCOC(=O)c3ccc(-c4c5nc(c(-c6cccc(S(=O)(=O)[O-])c6F)c6ccc([nH]6)c(-c6cccc(S(=O)(=O)[O-])c6F)c6nc(c(-c7cccc(S(=O)(=O)[O-])c7F)c7ccc4[nH]7)C=C6)C=C5)cc3)cc(S(=O)(=O)N3CCOCC3)c2)c1)[NH+](C)C
REMARK SMILES IDX 16 1 15 2 14 3 13 4 11 5 12 6 10 7 8 8 9 9 96 10 86 11 85 12
REMARK SMILES IDX 7 13 3 14 4 15 97 16 5 17 6 18 2 19 1 20 98 21 99 22 100 23
REMARK SMILES IDX 87 25 88 26 89 27 90 28 91 29 95 30 92 31 94 32 93 33 17 34
REMARK SMILES IDX 18 35 19 36 20 37 21 38 22 39 23 40 84 41 24 42 83 43 25 44
REMARK SMILES IDX 26 45 27 46 77 47 28 48 82 49 76 50 78 51 29 52 81 53 75 54
REMARK SMILES IDX 74 55 30 57 62 58 42 59 61 60 43 61 46 62 60 63 79 64 44 65
REMARK SMILES IDX 45 66 59 68 80 69 47 70 31 71 32 72 40 73 33 74 35 75 41 76
REMARK SMILES IDX 34 77 36 78 37 79 38 80 39 81 63 82 64 83 72 84 65 85 67 86
REMARK SMILES IDX 73 87 66 88 68 89 69 90 70 91 71 92 48 93 49 94 57 95 50 96
REMARK SMILES IDX 52 97 58 98 51 99 53 100 54 101 55 102 56 103
REMARK H PARENT 98 24 78 56 46 67
REMARK Flexibility Score: inf
ROOT
ATOM      1  O   UNL A   1      34.959  29.075  27.737  1.00  0.00    -0.374 OA
ENDROOT
BRANCH   1   2
ATOM      2  C   UNL A   1      34.745  29.288  26.339  1.00  0.00     0.202 C 
BRANCH   2   3
ATOM      3  C   UNL A   1      33.765  28.339  25.641  1.00  0.00     0.261 C 
BRANCH   3   4
ATOM      4  O   UNL A   1      34.157  26.972  25.839  1.00  0.00    -0.460 OA
BRANCH   4   5
ATOM      5  C   UNL A   1      33.142  26.078  25.884  1.00  0.00     0.338 C 
ATOM      6  O   UNL A   1      31.946  26.316  25.908  1.00  0.00    -0.246 OA
BRANCH   5   7
ATOM      7  C   UNL A   1      33.689  24.727  25.623  1.00  0.00     0.062 A 
ATOM      8  C   UNL A   1      35.636  23.292  25.799  1.00  0.00    -0.016 A 
ATOM      9  C   UNL A   1      35.062  24.553  25.893  1.00  0.00     0.024 A 
ATOM     10  C   UNL A   1      34.814  22.233  25.418  1.00  0.00     0.030 A 
ATOM     11  C   UNL A   1      33.466  22.380  25.133  1.00  0.00     0.084 A 
ATOM     12  C   UNL A   1      32.881  23.641  25.245  1.00  0.00     0.037 A 
BRANCH   8  13
ATOM     13  C   UNL A   1      37.040  22.996  26.087  1.00  0.00    -0.018 A 
ATOM     14  C   UNL A   1      39.243  23.776  26.847  1.00  0.00     0.010 A 
ATOM     15  C   UNL A   1      39.802  22.584  26.362  1.00  0.00     0.010 A 
ATOM     16  C   UNL A   1      37.861  23.974  26.677  1.00  0.00     0.018 A 
ATOM     17  C   UNL A   1      39.002  21.605  25.770  1.00  0.00     0.001 A 
ATOM     18  C   UNL A   1      37.627  21.804  25.646  1.00  0.00     0.009 A 
BRANCH  14  19
ATOM     19  C   UNL A   1      40.061  24.819  27.612  1.00  0.00     0.211 C 
ATOM     20  C   UNL A   1      41.555  24.452  27.602  1.00  0.00     0.081 C 
BRANCH  19  21
ATOM     21  N   UNL A   1      39.736  26.223  27.267  1.00  0.00    -0.334 N 
ATOM     22  C   UNL A   1      39.293  26.976  28.445  1.00  0.00     0.333 C 
ATOM     23  C   UNL A   1      40.804  26.957  26.591  1.00  0.00     0.333 C 
ATOM     24  H   UNL A   1      38.974  26.142  26.595  1.00  0.00     0.348 HD
ENDBRANCH  19  21
ENDBRANCH  14  19
ENDBRANCH   8  13
BRANCH  11  25
ATOM     25  S   UNL A   1      32.498  20.967  24.643  1.00  0.00     0.243 S 
ATOM     26  O   UNL A   1      31.263  21.061  25.382  1.00  0.00    -0.207 OA
ATOM     27  O   UNL A   1      32.543  20.949  23.195  1.00  0.00    -0.207 OA
BRANCH  25  28
ATOM     28  N   UNL A   1      33.326  19.606  25.186  1.00  0.00    -0.193 NA
ATOM     29  C   UNL A   1      34.634  19.186  24.641  1.00  0.00     0.131 C 
ATOM     30  C   UNL A   1      32.744  18.643  26.138  1.00  0.00     0.131 C 
ATOM     31  C   UNL A   1      34.575  17.751  24.096  1.00  0.00     0.177 C 
ATOM     32  C   UNL A   1      32.697  17.240  25.517  1.00  0.00     0.177 C 
ATOM     33  O   UNL A   1      33.977  16.823  25.013  1.00  0.00    -0.379 OA
ENDBRANCH  25  28
ENDBRANCH  11  25
ENDBRANCH   5   7
ENDBRANCH   4   5
ENDBRANCH   3   4
ENDBRANCH   2   3
ENDBRANCH   1   2
BRANCH   1  34
ATOM     34  C   UNL A   1      35.621  30.118  28.453  1.00  0.00     0.202 C 
BRANCH  34  35
ATOM     35  C   UNL A   1      36.874  29.739  29.250  1.00  0.00     0.261 C 
BRANCH  35  36
ATOM     36  O   UNL A   1      36.547  29.141  30.515  1.00  0.00    -0.460 OA
BRANCH  36  37
ATOM     37  C   UNL A   1      36.931  29.859  31.597  1.00  0.00     0.338 C 
ATOM     38  O   UNL A   1      36.261  30.670  32.217  1.00  0.00    -0.246 OA
BRANCH  37  39
ATOM     39  C   UNL A   1      38.240  29.375  32.076  1.00  0.00     0.060 A 
ATOM     40  C   UNL A   1      39.274  30.313  32.180  1.00  0.00     0.016 A 
ATOM     41  C   UNL A   1      38.469  28.028  32.361  1.00  0.00     0.016 A 
ATOM     42  C   UNL A   1      40.559  29.900  32.521  1.00  0.00     0.010 A 
ATOM     43  C   UNL A   1      39.763  27.614  32.695  1.00  0.00     0.010 A 
ATOM     44  C   UNL A   1      40.820  28.542  32.740  1.00  0.00    -0.014 A 
BRANCH  44  45
ATOM     45  C   UNL A   1      42.222  28.081  32.883  1.00  0.00     0.031 A 
ATOM     46  C   UNL A   1      42.997  27.704  31.649  1.00  0.00     0.074 A 
ATOM     47  C   UNL A   1      42.799  28.009  34.094  1.00  0.00     0.049 A 
ATOM     48  N   UNL A   1      44.220  27.254  31.546  1.00  0.00    -0.248 NA
ATOM     49  C   UNL A   1      42.301  27.852  30.361  1.00  0.00     0.031 C 
ATOM     50  C   UNL A   1      42.152  28.353  35.359  1.00  0.00     0.029 A 
ATOM     51  N   UNL A   1      44.056  27.597  34.460  1.00  0.00    -0.354 N 
ATOM     52  C   UNL A   1      44.429  27.031  30.190  1.00  0.00     0.074 A 
ATOM     53  C   UNL A   1      43.203  27.386  29.509  1.00  0.00     0.031 C 
ATOM     54  C   UNL A   1      43.008  28.112  36.367  1.00  0.00     0.029 A 
ATOM     55  C   UNL A   1      44.251  27.570  35.820  1.00  0.00     0.049 A 
ATOM     56  H   UNL A   1      44.752  27.346  33.810  1.00  0.00     0.167 HD
ATOM     57  C   UNL A   1      45.545  26.583  29.567  1.00  0.00     0.034 A 
ATOM     58  C   UNL A   1      45.300  27.130  36.542  1.00  0.00     0.034 A 
ATOM     59  C   UNL A   1      46.767  26.246  30.247  1.00  0.00     0.049 A 
ATOM     60  C   UNL A   1      46.519  26.609  35.826  1.00  0.00     0.074 A 
ATOM     61  C   UNL A   1      47.969  25.833  29.700  1.00  0.00     0.029 A 
ATOM     62  N   UNL A   1      46.938  26.264  31.623  1.00  0.00    -0.354 N 
ATOM     63  N   UNL A   1      46.743  26.514  34.537  1.00  0.00    -0.248 NA
ATOM     64  C   UNL A   1      47.643  26.165  36.663  1.00  0.00     0.031 C 
ATOM     65  C   UNL A   1      48.854  25.561  30.748  1.00  0.00     0.029 A 
ATOM     66  C   UNL A   1      48.220  25.851  31.946  1.00  0.00     0.049 A 
ATOM     67  H   UNL A   1      46.250  26.530  32.274  1.00  0.00     0.167 HD
ATOM     68  C   UNL A   1      48.044  26.038  34.409  1.00  0.00     0.074 A 
ATOM     69  C   UNL A   1      48.564  25.883  35.753  1.00  0.00     0.031 C 
ATOM     70  C   UNL A   1      48.742  25.748  33.284  1.00  0.00     0.034 A 
BRANCH  57  71
ATOM     71  C   UNL A   1      45.503  26.441  28.067  1.00  0.00     0.023 A 
ATOM     72  C   UNL A   1      45.699  27.571  27.248  1.00  0.00     0.012 A 
ATOM     73  C   UNL A   1      45.325  25.176  27.470  1.00  0.00     0.148 A 
ATOM     74  C   UNL A   1      45.687  27.451  25.859  1.00  0.00     0.002 A 
ATOM     75  C   UNL A   1      45.362  25.058  26.086  1.00  0.00     0.091 A 
ATOM     76  F   UNL A   1      45.119  24.118  28.265  1.00  0.00    -0.205 F 
ATOM     77  C   UNL A   1      45.530  26.195  25.279  1.00  0.00     0.022 A 
BRANCH  75  78
ATOM     78  S   UNL A   1      45.251  23.475  25.246  1.00  0.00     0.127 S 
ATOM     79  O   UNL A   1      43.804  23.299  25.138  1.00  0.00    -0.237 OA
ATOM     80  O   UNL A   1      45.927  23.753  23.978  1.00  0.00    -0.237 OA
ATOM     81  O   UNL A   1      45.933  22.514  26.102  1.00  0.00    -0.744 OA
ENDBRANCH  75  78
ENDBRANCH  57  71
BRANCH  58  82
ATOM     82  C   UNL A   1      45.256  27.184  38.031  1.00  0.00     0.023 A 
ATOM     83  C   UNL A   1      44.794  26.069  38.756  1.00  0.00     0.012 A 
ATOM     84  C   UNL A   1      45.674  28.333  38.730  1.00  0.00     0.148 A 
ATOM     85  C   UNL A   1      44.717  26.108  40.149  1.00  0.00     0.002 A 
ATOM     86  C   UNL A   1      45.650  28.345  40.118  1.00  0.00     0.091 A 
ATOM     87  F   UNL A   1      46.097  29.388  38.020  1.00  0.00    -0.205 F 
ATOM     88  C   UNL A   1      45.154  27.241  40.830  1.00  0.00     0.022 A 
BRANCH  86  89
ATOM     89  S   UNL A   1      46.305  29.710  41.084  1.00  0.00     0.127 S 
ATOM     90  O   UNL A   1      45.678  30.860  40.441  1.00  0.00    -0.237 OA
ATOM     91  O   UNL A   1      45.800  29.398  42.422  1.00  0.00    -0.237 OA
ATOM     92  O   UNL A   1      47.753  29.625  40.954  1.00  0.00    -0.744 OA
ENDBRANCH  86  89
ENDBRANCH  58  82
BRANCH  70  93
ATOM     93  C   UNL A   1      50.168  25.280  33.442  1.00  0.00     0.023 A 
ATOM     94  C   UNL A   1      51.205  26.217  33.620  1.00  0.00     0.012 A 
ATOM     95  C   UNL A   1      50.467  23.903  33.486  1.00  0.00     0.148 A 
ATOM     96  C   UNL A   1      52.521  25.793  33.801  1.00  0.00     0.002 A 
ATOM     97  C   UNL A   1      51.771  23.486  33.721  1.00  0.00     0.091 A 
ATOM     98  F   UNL A   1      49.469  23.027  33.300  1.00  0.00    -0.205 F 
ATOM     99  C   UNL A   1      52.802  24.429  33.864  1.00  0.00     0.022 A 
BRANCH  97 100
ATOM    100  S   UNL A   1      52.211  21.756  33.918  1.00  0.00     0.127 S 
ATOM    101  O   UNL A   1      51.204  21.301  34.878  1.00  0.00    -0.237 OA
ATOM    102  O   UNL A   1      52.038  21.237  32.562  1.00  0.00    -0.237 OA
ATOM    103  O   UNL A   1      53.584  21.741  34.403  1.00  0.00    -0.744 OA
ENDBRANCH  97 100
ENDBRANCH  70  93
ENDBRANCH  44  45
ENDBRANCH  37  39
ENDBRANCH  36  37
ENDBRANCH  35  36
ENDBRANCH  34  35
ENDBRANCH   1  34
TORSDOF 22
ENDMDL
MODEL 3
REMARK VINA RESULT:      -8.8      4.660     10.349
REMARK SMILES C[C@H](c1cccc(-c2cc(C(=O)OCCOCCOC(=O)c3ccc(-c4c5nc(c(-c6cccc(S(=O)(=O)[O-])c6F)c6ccc([nH]6)c(-c6cccc(S(=O)(=O)[O-])c6F)c6nc(c(-c7cccc(S(=O)(=O)[O-])c7F)c7ccc4[nH]7)C=C6)C=C5)cc3)cc(S(=O)(=O)N3CCOCC3)c2)c1)[NH+](C)C
REMARK SMILES IDX 16 1 15 2 14 3 13 4 11 5 12 6 10 7 8 8 9 9 96 10 86 11 85 12
REMARK SMILES IDX 7 13 3 14 4 15 97 16 5 17 6 18 2 19 1 20 98 21 99 22 100 23
REMARK SMILES IDX 87 25 88 26 89 27 90 28 91 29 95 30 92 31 94 32 93 33 17 34
REMARK SMILES IDX 18 35 19 36 20 37 21 38 22 39 23 40 84 41 24 42 83 43 25 44
REMARK SMILES IDX 26 45 27 46 77 47 28 48 82 49 76 50 78 51 29 52 81 53 75 54
REMARK SMILES IDX 74 55 30 57 62 58 42 59 61 60 43 61 46 62 60 63 79 64 44 65
REMARK SMILES IDX 45 66 59 68 80 69 47 70 31 71 32 72 40 73 33 74 35 75 41 76
REMARK SMILES IDX 34 77 36 78 37 79 38 80 39 81 63 82 64 83 72 84 65 85 67 86
REMARK SMILES IDX 73 87 66 88 68 89 69 90 70 91 71 92 48 93 49 94 57 95 50 96
REMARK SMILES IDX 52 97 58 98 51 99 53 100 54 101 55 102 56 103
REMARK H PARENT 98 24 78 56 46 67
REMARK Flexibility Score: inf
ROOT
ATOM      1  O   UNL A   1      38.011  19.902  24.614  1.00  0.00    -0.374 OA
ENDROOT
BRANCH   1   2
ATOM      2  C   UNL A   1      36.819  19.191  24.960  1.00  0.00     0.202 C 
BRANCH   2   3
ATOM      3  C   UNL A   1      35.490  19.909  24.697  1.00  0.00     0.261 C 
BRANCH   3   4
ATOM      4  O   UNL A   1      34.395  18.982  24.749  1.00  0.00    -0.460 OA
BRANCH   4   5
ATOM      5  C   UNL A   1      33.356  19.266  23.930  1.00  0.00     0.338 C 
ATOM      6  O   UNL A   1      32.733  18.489  23.228  1.00  0.00    -0.246 OA
BRANCH   5   7
ATOM      7  C   UNL A   1      32.894  20.645  24.213  1.00  0.00     0.062 A 
ATOM      8  C   UNL A   1      32.570  22.870  23.304  1.00  0.00    -0.016 A 
ATOM      9  C   UNL A   1      33.083  21.585  23.179  1.00  0.00     0.024 A 
ATOM     10  C   UNL A   1      31.889  23.184  24.478  1.00  0.00     0.030 A 
ATOM     11  C   UNL A   1      31.702  22.283  25.515  1.00  0.00     0.084 A 
ATOM     12  C   UNL A   1      32.199  20.986  25.387  1.00  0.00     0.037 A 
BRANCH   8  13
ATOM     13  C   UNL A   1      32.682  23.910  22.281  1.00  0.00    -0.018 A 
ATOM     14  C   UNL A   1      32.315  26.243  21.602  1.00  0.00     0.010 A 
ATOM     15  C   UNL A   1      32.576  25.869  20.275  1.00  0.00     0.010 A 
ATOM     16  C   UNL A   1      32.349  25.241  22.588  1.00  0.00     0.018 A 
ATOM     17  C   UNL A   1      32.905  24.552  19.952  1.00  0.00     0.001 A 
ATOM     18  C   UNL A   1      32.972  23.580  20.951  1.00  0.00     0.009 A 
BRANCH  14  19
ATOM     19  C   UNL A   1      32.074  27.696  22.016  1.00  0.00     0.211 C 
ATOM     20  C   UNL A   1      30.570  27.970  22.188  1.00  0.00     0.081 C 
BRANCH  19  21
ATOM     21  N   UNL A   1      32.949  28.171  23.114  1.00  0.00    -0.334 N 
ATOM     22  C   UNL A   1      34.285  28.523  22.621  1.00  0.00     0.333 C 
ATOM     23  C   UNL A   1      32.410  29.281  23.898  1.00  0.00     0.333 C 
ATOM     24  H   UNL A   1      33.006  27.374  23.747  1.00  0.00     0.348 HD
ENDBRANCH  19  21
ENDBRANCH  14  19
ENDBRANCH   8  13
BRANCH  11  25
ATOM     25  S   UNL A   1      30.826  22.782  26.984  1.00  0.00     0.243 S 
ATOM     26  O   UNL A   1      29.514  22.192  26.877  1.00  0.00    -0.207 OA
ATOM     27  O   UNL A   1      31.723  22.499  28.086  1.00  0.00    -0.207 OA
BRANCH  25  28
ATOM     28  N   UNL A   1      30.654  24.453  26.896  1.00  0.00    -0.193 NA
ATOM     29  C   UNL A   1      29.454  25.113  26.340  1.00  0.00     0.131 C 
ATOM     30  C   UNL A   1      31.745  25.388  27.223  1.00  0.00     0.131 C 
ATOM     31  C   UNL A   1      29.821  26.051  25.180  1.00  0.00     0.177 C 
ATOM     32  C   UNL A   1      32.071  26.274  26.013  1.00  0.00     0.177 C 
ATOM     33  O   UNL A   1      30.907  26.937  25.492  1.00  0.00    -0.379 OA
ENDBRANCH  25  28
ENDBRANCH  11  25
ENDBRANCH   5   7
ENDBRANCH   4   5
ENDBRANCH   3   4
ENDBRANCH   2   3
ENDBRANCH   1   2
BRANCH   1  34
ATOM     34  C   UNL A   1      38.854  20.306  25.694  1.00  0.00     0.202 C 
BRANCH  34  35
ATOM     35  C   UNL A   1      39.891  19.294  26.195  1.00  0.00     0.261 C 
BRANCH  35  36
ATOM     36  O   UNL A   1      41.071  19.283  25.376  1.00  0.00    -0.460 OA
BRANCH  36  37
ATOM     37  C   UNL A   1      42.230  19.476  26.050  1.00  0.00     0.338 C 
ATOM     38  O   UNL A   1      43.149  18.682  26.175  1.00  0.00    -0.246 OA
BRANCH  37  39
ATOM     39  C   UNL A   1      42.336  20.888  26.462  1.00  0.00     0.060 A 
ATOM     40  C   UNL A   1      42.358  21.854  25.448  1.00  0.00     0.016 A 
ATOM     41  C   UNL A   1      42.468  21.259  27.801  1.00  0.00     0.016 A 
ATOM     42  C   UNL A   1      42.565  23.194  25.765  1.00  0.00     0.010 A 
ATOM     43  C   UNL A   1      42.684  22.605  28.116  1.00  0.00     0.010 A 
ATOM     44  C   UNL A   1      42.771  23.571  27.098  1.00  0.00    -0.014 A 
BRANCH  44  45
ATOM     45  C   UNL A   1      43.208  24.954  27.406  1.00  0.00     0.031 A 
ATOM     46  C   UNL A   1      42.217  25.920  27.997  1.00  0.00     0.074 A 
ATOM     47  C   UNL A   1      44.474  25.340  27.172  1.00  0.00     0.049 A 
ATOM     48  N   UNL A   1      42.379  27.178  28.318  1.00  0.00    -0.248 NA
ATOM     49  C   UNL A   1      40.864  25.403  28.258  1.00  0.00     0.031 C 
ATOM     50  C   UNL A   1      45.524  24.493  26.609  1.00  0.00     0.029 A 
ATOM     51  N   UNL A   1      45.084  26.555  27.356  1.00  0.00    -0.354 N 
ATOM     52  C   UNL A   1      41.143  27.611  28.784  1.00  0.00     0.074 A 
ATOM     53  C   UNL A   1      40.238  26.485  28.696  1.00  0.00     0.031 C 
ATOM     54  C   UNL A   1      46.644  25.222  26.469  1.00  0.00     0.029 A 
ATOM     55  C   UNL A   1      46.381  26.593  26.902  1.00  0.00     0.049 A 
ATOM     56  H   UNL A   1      44.636  27.327  27.774  1.00  0.00     0.167 HD
ATOM     57  C   UNL A   1      40.796  28.832  29.255  1.00  0.00     0.034 A 
ATOM     58  C   UNL A   1      47.247  27.623  26.819  1.00  0.00     0.034 A 
ATOM     59  C   UNL A   1      41.703  29.944  29.356  1.00  0.00     0.049 A 
ATOM     60  C   UNL A   1      46.826  28.979  27.324  1.00  0.00     0.074 A 
ATOM     61  C   UNL A   1      41.461  31.207  29.868  1.00  0.00     0.029 A 
ATOM     62  N   UNL A   1      43.018  29.935  28.919  1.00  0.00    -0.354 N 
ATOM     63  N   UNL A   1      45.691  29.342  27.870  1.00  0.00    -0.248 NA
ATOM     64  C   UNL A   1      47.819  30.060  27.231  1.00  0.00     0.031 C 
ATOM     65  C   UNL A   1      42.619  31.974  29.702  1.00  0.00     0.029 A 
ATOM     66  C   UNL A   1      43.597  31.175  29.132  1.00  0.00     0.049 A 
ATOM     67  H   UNL A   1      43.474  29.161  28.517  1.00  0.00     0.167 HD
ATOM     68  C   UNL A   1      45.846  30.680  28.221  1.00  0.00     0.074 A 
ATOM     69  C   UNL A   1      47.194  31.055  27.842  1.00  0.00     0.031 C 
ATOM     70  C   UNL A   1      44.954  31.523  28.796  1.00  0.00     0.034 A 
BRANCH  57  71
ATOM     71  C   UNL A   1      39.373  29.031  29.712  1.00  0.00     0.023 A 
ATOM     72  C   UNL A   1      38.992  28.645  31.013  1.00  0.00     0.012 A 
ATOM     73  C   UNL A   1      38.429  29.653  28.871  1.00  0.00     0.148 A 
ATOM     74  C   UNL A   1      37.686  28.844  31.458  1.00  0.00     0.002 A 
ATOM     75  C   UNL A   1      37.142  29.891  29.339  1.00  0.00     0.091 A 
ATOM     76  F   UNL A   1      38.805  29.993  27.630  1.00  0.00    -0.205 F 
ATOM     77  C   UNL A   1      36.765  29.476  30.626  1.00  0.00     0.022 A 
BRANCH  75  78
ATOM     78  S   UNL A   1      35.908  30.771  28.375  1.00  0.00     0.127 S 
ATOM     79  O   UNL A   1      35.475  29.737  27.436  1.00  0.00    -0.237 OA
ATOM     80  O   UNL A   1      34.918  31.122  29.394  1.00  0.00    -0.237 OA
ATOM     81  O   UNL A   1      36.596  31.906  27.778  1.00  0.00    -0.744 OA
ENDBRANCH  75  78
ENDBRANCH  57  71
BRANCH  58  82
ATOM     82  C   UNL A   1      48.609  27.408  26.256  1.00  0.00     0.023 A 
ATOM     83  C   UNL A   1      49.658  27.001  27.102  1.00  0.00     0.012 A 
ATOM     84  C   UNL A   1      48.868  27.599  24.885  1.00  0.00     0.148 A 
ATOM     85  C   UNL A   1      50.948  26.822  26.601  1.00  0.00     0.002 A 
ATOM     86  C   UNL A   1      50.141  27.363  24.381  1.00  0.00     0.091 A 
ATOM     87  F   UNL A   1      47.859  28.000  24.099  1.00  0.00    -0.205 F 
ATOM     88  C   UNL A   1      51.188  26.993  25.240  1.00  0.00     0.022 A 
BRANCH  86  89
ATOM     89  S   UNL A   1      50.515  27.439  22.626  1.00  0.00     0.127 S 
ATOM     90  O   UNL A   1      50.334  28.859  22.342  1.00  0.00    -0.237 OA
ATOM     91  O   UNL A   1      51.903  26.975  22.597  1.00  0.00    -0.237 OA
ATOM     92  O   UNL A   1      49.567  26.540  21.982  1.00  0.00    -0.744 OA
ENDBRANCH  86  89
ENDBRANCH  58  82
BRANCH  70  93
ATOM     93  C   UNL A   1      45.410  32.927  29.105  1.00  0.00     0.023 A 
ATOM     94  C   UNL A   1      46.133  33.193  30.285  1.00  0.00     0.012 A 
ATOM     95  C   UNL A   1      45.184  33.970  28.184  1.00  0.00     0.148 A 
ATOM     96  C   UNL A   1      46.588  34.481  30.562  1.00  0.00     0.002 A 
ATOM     97  C   UNL A   1      45.689  35.239  28.440  1.00  0.00     0.091 A 
ATOM     98  F   UNL A   1      44.483  33.701  27.073  1.00  0.00    -0.205 F 
ATOM     99  C   UNL A   1      46.378  35.501  29.634  1.00  0.00     0.022 A 
BRANCH  97 100
ATOM    100  S   UNL A   1      45.554  36.587  27.260  1.00  0.00     0.127 S 
ATOM    101  O   UNL A   1      44.135  36.534  26.909  1.00  0.00    -0.237 OA
ATOM    102  O   UNL A   1      45.939  37.744  28.068  1.00  0.00    -0.237 OA
ATOM    103  O   UNL A   1      46.476  36.270  26.177  1.00  0.00    -0.744 OA
ENDBRANCH  97 100
ENDBRANCH  70  93
ENDBRANCH  44  45
ENDBRANCH  37  39
ENDBRANCH  36  37
ENDBRANCH  35  36
ENDBRANCH  34  35
ENDBRANCH   1  34
TORSDOF 22
ENDMDL
