MODEL 1
REMARK VINA RESULT:     -11.1      0.000      0.000
REMARK SMILES N#Cc1cc(-c2cncc(C(=O)OCCOCCOC(=O)c3ccc(-c4c5nc(c(-c6cccc(S(=O)(=O)[O-])c6F)c6ccc([nH]6)c(-c6cccc(S(=O)(=O)[O-])c6F)c6nc(c(-c7cccc(S(=O)(=O)[O-])c7F)c7ccc4[nH]7)C=C6)C=C5)cc3)c2)ccc1Cl
REMARK SMILES IDX 17 1 16 2 15 3 14 4 13 5 11 6 12 7 10 8 6 9 7 10 85 11 8 12
REMARK SMILES IDX 9 13 5 14 3 15 4 16 88 17 87 18 89 19 86 20 2 21 1 22 18 23
REMARK SMILES IDX 19 24 20 25 21 26 22 27 23 28 84 29 24 30 83 31 25 32 26 33
REMARK SMILES IDX 27 34 77 35 28 36 82 37 76 38 78 39 29 40 81 41 75 42 74 43
REMARK SMILES IDX 30 45 62 46 42 47 61 48 43 49 46 50 60 51 79 52 44 53 45 54
REMARK SMILES IDX 59 56 80 57 47 58 31 59 32 60 40 61 33 62 35 63 41 64 34 65
REMARK SMILES IDX 36 66 37 67 38 68 39 69 63 70 64 71 72 72 65 73 67 74 73 75
REMARK SMILES IDX 66 76 68 77 69 78 70 79 71 80 48 81 49 82 57 83 50 84 52 85
REMARK SMILES IDX 58 86 51 87 53 88 54 89 55 90 56 91
REMARK H PARENT 78 44 46 55
REMARK Flexibility Score: inf
ROOT
ATOM      1  C   UNL A   1      37.699  19.938  24.904  1.00  0.00     0.202 C 
ENDROOT
BRANCH   1   2
ATOM      2  O   UNL A   1      37.077  21.127  25.386  1.00  0.00    -0.374 OA
BRANCH   2   3
ATOM      3  C   UNL A   1      35.944  21.635  24.687  1.00  0.00     0.202 C 
BRANCH   3   4
ATOM      4  C   UNL A   1      34.557  21.507  25.327  1.00  0.00     0.261 C 
BRANCH   4   5
ATOM      5  O   UNL A   1      33.493  21.669  24.378  1.00  0.00    -0.460 OA
BRANCH   5   6
ATOM      6  C   UNL A   1      32.259  21.394  24.867  1.00  0.00     0.339 C 
ATOM      7  O   UNL A   1      31.793  20.295  25.115  1.00  0.00    -0.246 OA
BRANCH   6   8
ATOM      8  C   UNL A   1      31.588  22.643  25.264  1.00  0.00     0.079 A 
ATOM      9  C   UNL A   1      30.817  24.913  24.916  1.00  0.00     0.001 A 
ATOM     10  C   UNL A   1      30.282  24.835  26.208  1.00  0.00     0.119 A 
ATOM     11  C   UNL A   1      31.514  23.782  24.460  1.00  0.00     0.027 A 
ATOM     12  N   UNL A   1      30.377  23.762  27.030  1.00  0.00    -0.263 NA
ATOM     13  C   UNL A   1      31.014  22.682  26.527  1.00  0.00     0.126 A 
BRANCH   9  14
ATOM     14  C   UNL A   1      30.587  26.091  24.064  1.00  0.00    -0.015 A 
ATOM     15  C   UNL A   1      29.077  27.845  23.243  1.00  0.00     0.071 A 
ATOM     16  C   UNL A   1      29.306  26.668  23.976  1.00  0.00     0.029 A 
ATOM     17  C   UNL A   1      30.139  28.449  22.567  1.00  0.00     0.058 A 
ATOM     18  C   UNL A   1      31.413  27.882  22.627  1.00  0.00     0.022 A 
ATOM     19  Cl  UNL A   1      29.948  29.911  21.669  1.00  0.00    -0.083 Cl
ATOM     20  C   UNL A   1      31.635  26.716  23.369  1.00  0.00     0.010 A 
BRANCH  15  21
ATOM     21  C   UNL A   1      27.764  28.422  23.268  1.00  0.00     0.101 C 
ATOM     22  N   UNL A   1      26.686  28.842  23.242  1.00  0.00    -0.192 NA
ENDBRANCH  15  21
ENDBRANCH   9  14
ENDBRANCH   6   8
ENDBRANCH   5   6
ENDBRANCH   4   5
ENDBRANCH   3   4
ENDBRANCH   2   3
ENDBRANCH   1   2
BRANCH   1  23
ATOM     23  C   UNL A   1      39.033  19.480  25.509  1.00  0.00     0.261 C 
BRANCH  23  24
ATOM     24  O   UNL A   1      39.966  20.547  25.734  1.00  0.00    -0.460 OA
BRANCH  24  25
ATOM     25  C   UNL A   1      40.467  20.588  26.994  1.00  0.00     0.338 C 
ATOM     26  O   UNL A   1      40.848  19.646  27.668  1.00  0.00    -0.246 OA
BRANCH  25  27
ATOM     27  C   UNL A   1      40.679  21.989  27.397  1.00  0.00     0.060 A 
ATOM     28  C   UNL A   1      39.963  22.982  26.716  1.00  0.00     0.016 A 
ATOM     29  C   UNL A   1      41.621  22.327  28.370  1.00  0.00     0.016 A 
ATOM     30  C   UNL A   1      40.220  24.325  26.973  1.00  0.00     0.010 A 
ATOM     31  C   UNL A   1      41.880  23.676  28.621  1.00  0.00     0.010 A 
ATOM     32  C   UNL A   1      41.210  24.680  27.898  1.00  0.00    -0.014 A 
BRANCH  32  33
ATOM     33  C   UNL A   1      41.630  26.097  28.023  1.00  0.00     0.031 A 
ATOM     34  C   UNL A   1      42.926  26.537  27.403  1.00  0.00     0.074 A 
ATOM     35  C   UNL A   1      40.863  26.978  28.688  1.00  0.00     0.049 A 
ATOM     36  N   UNL A   1      43.500  27.711  27.429  1.00  0.00    -0.248 NA
ATOM     37  C   UNL A   1      43.680  25.514  26.660  1.00  0.00     0.031 C 
ATOM     38  C   UNL A   1      39.578  26.675  29.315  1.00  0.00     0.029 A 
ATOM     39  N   UNL A   1      41.068  28.307  28.959  1.00  0.00    -0.354 N 
ATOM     40  C   UNL A   1      44.698  27.563  26.740  1.00  0.00     0.074 A 
ATOM     41  C   UNL A   1      44.777  26.178  26.328  1.00  0.00     0.031 C 
ATOM     42  C   UNL A   1      39.112  27.785  29.910  1.00  0.00     0.029 A 
ATOM     43  C   UNL A   1      40.084  28.863  29.739  1.00  0.00     0.049 A 
ATOM     44  H   UNL A   1      41.845  28.812  28.628  1.00  0.00     0.167 HD
ATOM     45  C   UNL A   1      45.640  28.497  26.462  1.00  0.00     0.034 A 
ATOM     46  C   UNL A   1      39.989  30.096  30.273  1.00  0.00     0.034 A 
ATOM     47  C   UNL A   1      45.555  29.871  26.879  1.00  0.00     0.049 A 
ATOM     48  C   UNL A   1      41.078  31.100  30.007  1.00  0.00     0.074 A 
ATOM     49  C   UNL A   1      46.437  30.906  26.620  1.00  0.00     0.029 A 
ATOM     50  N   UNL A   1      44.545  30.400  27.669  1.00  0.00    -0.354 N 
ATOM     51  N   UNL A   1      42.159  30.973  29.277  1.00  0.00    -0.248 NA
ATOM     52  C   UNL A   1      40.918  32.427  30.619  1.00  0.00     0.031 C 
ATOM     53  C   UNL A   1      45.988  32.044  27.299  1.00  0.00     0.029 A 
ATOM     54  C   UNL A   1      44.791  31.738  27.927  1.00  0.00     0.049 A 
ATOM     55  H   UNL A   1      43.765  29.897  27.997  1.00  0.00     0.167 HD
ATOM     56  C   UNL A   1      42.784  32.216  29.301  1.00  0.00     0.074 A 
ATOM     57  C   UNL A   1      41.953  33.083  30.112  1.00  0.00     0.031 C 
ATOM     58  C   UNL A   1      43.942  32.602  28.708  1.00  0.00     0.034 A 
BRANCH  45  59
ATOM     59  C   UNL A   1      46.848  28.049  25.677  1.00  0.00     0.023 A 
ATOM     60  C   UNL A   1      46.807  28.023  24.267  1.00  0.00     0.012 A 
ATOM     61  C   UNL A   1      48.033  27.663  26.336  1.00  0.00     0.148 A 
ATOM     62  C   UNL A   1      47.898  27.562  23.530  1.00  0.00     0.002 A 
ATOM     63  C   UNL A   1      49.135  27.258  25.593  1.00  0.00     0.091 A 
ATOM     64  F   UNL A   1      48.054  27.679  27.676  1.00  0.00    -0.205 F 
ATOM     65  C   UNL A   1      49.063  27.187  24.193  1.00  0.00     0.022 A 
BRANCH  63  66
ATOM     66  S   UNL A   1      50.709  26.834  26.347  1.00  0.00     0.127 S 
ATOM     67  O   UNL A   1      51.557  26.642  25.171  1.00  0.00    -0.237 OA
ATOM     68  O   UNL A   1      51.009  28.034  27.127  1.00  0.00    -0.237 OA
ATOM     69  O   UNL A   1      50.465  25.637  27.142  1.00  0.00    -0.744 OA
ENDBRANCH  63  66
ENDBRANCH  45  59
BRANCH  46  70
ATOM     70  C   UNL A   1      38.794  30.463  31.083  1.00  0.00     0.023 A 
ATOM     71  C   UNL A   1      38.780  30.177  32.461  1.00  0.00     0.012 A 
ATOM     72  C   UNL A   1      37.690  31.114  30.503  1.00  0.00     0.148 A 
ATOM     73  C   UNL A   1      37.673  30.508  33.244  1.00  0.00     0.002 A 
ATOM     74  C   UNL A   1      36.615  31.491  31.298  1.00  0.00     0.091 A 
ATOM     75  F   UNL A   1      37.725  31.372  29.188  1.00  0.00    -0.205 F 
ATOM     76  C   UNL A   1      36.596  31.174  32.664  1.00  0.00     0.022 A 
BRANCH  74  77
ATOM     77  S   UNL A   1      35.239  32.457  30.668  1.00  0.00     0.127 S 
ATOM     78  O   UNL A   1      34.317  32.437  31.801  1.00  0.00    -0.237 OA
ATOM     79  O   UNL A   1      35.879  33.748  30.413  1.00  0.00    -0.237 OA
ATOM     80  O   UNL A   1      34.781  31.760  29.474  1.00  0.00    -0.744 OA
ENDBRANCH  74  77
ENDBRANCH  46  70
BRANCH  58  81
ATOM     81  C   UNL A   1      44.358  34.045  28.858  1.00  0.00     0.023 A 
ATOM     82  C   UNL A   1      43.845  35.032  27.994  1.00  0.00     0.012 A 
ATOM     83  C   UNL A   1      45.220  34.429  29.907  1.00  0.00     0.148 A 
ATOM     84  C   UNL A   1      44.214  36.369  28.145  1.00  0.00     0.002 A 
ATOM     85  C   UNL A   1      45.537  35.768  30.086  1.00  0.00     0.091 A 
ATOM     86  F   UNL A   1      45.711  33.474  30.711  1.00  0.00    -0.205 F 
ATOM     87  C   UNL A   1      45.048  36.739  29.197  1.00  0.00     0.022 A 
BRANCH  85  88
ATOM     88  S   UNL A   1      46.523  36.351  31.471  1.00  0.00     0.127 S 
ATOM     89  O   UNL A   1      47.728  35.532  31.342  1.00  0.00    -0.237 OA
ATOM     90  O   UNL A   1      46.707  37.765  31.143  1.00  0.00    -0.237 OA
ATOM     91  O   UNL A   1      45.728  36.103  32.666  1.00  0.00    -0.744 OA
ENDBRANCH  85  88
ENDBRANCH  58  81
ENDBRANCH  32  33
ENDBRANCH  25  27
ENDBRANCH  24  25
ENDBRANCH  23  24
ENDBRANCH   1  23
TORSDOF 19
ENDMDL
MODEL 2
REMARK VINA RESULT:     -11.0      1.595      7.954
REMARK SMILES N#Cc1cc(-c2cncc(C(=O)OCCOCCOC(=O)c3ccc(-c4c5nc(c(-c6cccc(S(=O)(=O)[O-])c6F)c6ccc([nH]6)c(-c6cccc(S(=O)(=O)[O-])c6F)c6nc(c(-c7cccc(S(=O)(=O)[O-])c7F)c7ccc4[nH]7)C=C6)C=C5)cc3)c2)ccc1Cl
REMARK SMILES IDX 17 1 16 2 15 3 14 4 13 5 11 6 12 7 10 8 6 9 7 10 85 11 8 12
REMARK SMILES IDX 9 13 5 14 3 15 4 16 88 17 87 18 89 19 86 20 2 21 1 22 18 23
REMARK SMILES IDX 19 24 20 25 21 26 22 27 23 28 84 29 24 30 83 31 25 32 26 33
REMARK SMILES IDX 27 34 77 35 28 36 82 37 76 38 78 39 29 40 81 41 75 42 74 43
REMARK SMILES IDX 30 45 62 46 42 47 61 48 43 49 46 50 60 51 79 52 44 53 45 54
REMARK SMILES IDX 59 56 80 57 47 58 31 59 32 60 40 61 33 62 35 63 41 64 34 65
REMARK SMILES IDX 36 66 37 67 38 68 39 69 63 70 64 71 72 72 65 73 67 74 73 75
REMARK SMILES IDX 66 76 68 77 69 78 70 79 71 80 48 81 49 82 57 83 50 84 52 85
REMARK SMILES IDX 58 86 51 87 53 88 54 89 55 90 56 91
REMARK H PARENT 78 44 46 55
REMARK Flexibility Score: inf
ROOT
ATOM      1  C   UNL A   1      35.771  20.315  25.002  1.00  0.00     0.202 C 
ENDROOT
BRANCH   1   2
ATOM      2  O   UNL A   1      35.216  21.627  24.956  1.00  0.00    -0.374 OA
BRANCH   2   3
ATOM      3  C   UNL A   1      35.100  22.360  26.173  1.00  0.00     0.202 C 
BRANCH   3   4
ATOM      4  C   UNL A   1      33.830  22.201  27.017  1.00  0.00     0.261 C 
BRANCH   4   5
ATOM      5  O   UNL A   1      32.660  21.975  26.218  1.00  0.00    -0.460 OA
BRANCH   5   6
ATOM      6  C   UNL A   1      31.696  22.917  26.356  1.00  0.00     0.339 C 
ATOM      7  O   UNL A   1      31.033  23.153  27.352  1.00  0.00    -0.246 OA
BRANCH   6   8
ATOM      8  C   UNL A   1      31.676  23.791  25.171  1.00  0.00     0.079 A 
ATOM      9  C   UNL A   1      31.290  25.878  24.004  1.00  0.00     0.001 A 
ATOM     10  C   UNL A   1      31.741  25.217  22.854  1.00  0.00     0.119 A 
ATOM     11  C   UNL A   1      31.234  25.116  25.182  1.00  0.00     0.027 A 
ATOM     12  N   UNL A   1      32.131  23.920  22.801  1.00  0.00    -0.263 NA
ATOM     13  C   UNL A   1      32.106  23.242  23.970  1.00  0.00     0.126 A 
BRANCH   9  14
ATOM     14  C   UNL A   1      30.970  27.314  23.982  1.00  0.00    -0.015 A 
ATOM     15  C   UNL A   1      29.731  29.190  22.992  1.00  0.00     0.071 A 
ATOM     16  C   UNL A   1      30.127  27.842  22.985  1.00  0.00     0.029 A 
ATOM     17  C   UNL A   1      30.199  30.036  24.000  1.00  0.00     0.058 A 
ATOM     18  C   UNL A   1      31.050  29.537  24.987  1.00  0.00     0.022 A 
ATOM     19  Cl  UNL A   1      29.737  31.697  24.097  1.00  0.00    -0.083 Cl
ATOM     20  C   UNL A   1      31.429  28.189  24.979  1.00  0.00     0.010 A 
BRANCH  15  21
ATOM     21  C   UNL A   1      28.804  29.637  21.993  1.00  0.00     0.101 C 
ATOM     22  N   UNL A   1      28.045  30.052  21.225  1.00  0.00    -0.192 NA
ENDBRANCH  15  21
ENDBRANCH   9  14
ENDBRANCH   6   8
ENDBRANCH   5   6
ENDBRANCH   4   5
ENDBRANCH   3   4
ENDBRANCH   2   3
ENDBRANCH   1   2
BRANCH   1  23
ATOM     23  C   UNL A   1      37.261  20.110  24.691  1.00  0.00     0.261 C 
BRANCH  23  24
ATOM     24  O   UNL A   1      38.086  21.232  25.035  1.00  0.00    -0.460 OA
BRANCH  24  25
ATOM     25  C   UNL A   1      39.074  20.943  25.920  1.00  0.00     0.338 C 
ATOM     26  O   UNL A   1      39.598  19.859  26.111  1.00  0.00    -0.246 OA
BRANCH  25  27
ATOM     27  C   UNL A   1      39.587  22.189  26.515  1.00  0.00     0.060 A 
ATOM     28  C   UNL A   1      39.077  23.402  26.034  1.00  0.00     0.016 A 
ATOM     29  C   UNL A   1      40.604  22.169  27.469  1.00  0.00     0.016 A 
ATOM     30  C   UNL A   1      39.617  24.607  26.474  1.00  0.00     0.010 A 
ATOM     31  C   UNL A   1      41.147  23.380  27.904  1.00  0.00     0.010 A 
ATOM     32  C   UNL A   1      40.684  24.601  27.381  1.00  0.00    -0.014 A 
BRANCH  32  33
ATOM     33  C   UNL A   1      41.396  25.864  27.691  1.00  0.00     0.031 A 
ATOM     34  C   UNL A   1      40.677  26.946  28.448  1.00  0.00     0.074 A 
ATOM     35  C   UNL A   1      42.669  26.044  27.298  1.00  0.00     0.049 A 
ATOM     36  N   UNL A   1      41.093  28.138  28.786  1.00  0.00    -0.248 NA
ATOM     37  C   UNL A   1      39.300  26.646  28.874  1.00  0.00     0.031 C 
ATOM     38  C   UNL A   1      43.476  25.063  26.575  1.00  0.00     0.029 A 
ATOM     39  N   UNL A   1      43.496  27.129  27.437  1.00  0.00    -0.354 N 
ATOM     40  C   UNL A   1      40.023  28.745  29.432  1.00  0.00     0.074 A 
ATOM     41  C   UNL A   1      38.931  27.796  29.416  1.00  0.00     0.031 C 
ATOM     42  C   UNL A   1      44.683  25.595  26.324  1.00  0.00     0.029 A 
ATOM     43  C   UNL A   1      44.719  26.964  26.831  1.00  0.00     0.049 A 
ATOM     44  H   UNL A   1      43.240  27.945  27.924  1.00  0.00     0.167 HD
ATOM     45  C   UNL A   1      39.959  29.974  29.998  1.00  0.00     0.034 A 
ATOM     46  C   UNL A   1      45.741  27.829  26.684  1.00  0.00     0.034 A 
ATOM     47  C   UNL A   1      41.048  30.914  30.004  1.00  0.00     0.049 A 
ATOM     48  C   UNL A   1      45.624  29.213  27.264  1.00  0.00     0.074 A 
ATOM     49  C   UNL A   1      41.099  32.171  30.582  1.00  0.00     0.029 A 
ATOM     50  N   UNL A   1      42.271  30.715  29.380  1.00  0.00    -0.354 N 
ATOM     51  N   UNL A   1      44.642  29.741  27.952  1.00  0.00    -0.248 NA
ATOM     52  C   UNL A   1      46.771  30.110  27.068  1.00  0.00     0.031 C 
ATOM     53  C   UNL A   1      42.331  32.751  30.258  1.00  0.00     0.029 A 
ATOM     54  C   UNL A   1      43.074  31.832  29.536  1.00  0.00     0.049 A 
ATOM     55  H   UNL A   1      42.531  29.896  28.897  1.00  0.00     0.167 HD
ATOM     56  C   UNL A   1      45.070  31.015  28.313  1.00  0.00     0.074 A 
ATOM     57  C   UNL A   1      46.406  31.172  27.774  1.00  0.00     0.031 C 
ATOM     58  C   UNL A   1      44.416  31.967  29.025  1.00  0.00     0.034 A 
BRANCH  45  59
ATOM     59  C   UNL A   1      38.655  30.371  30.647  1.00  0.00     0.023 A 
ATOM     60  C   UNL A   1      38.390  30.007  31.984  1.00  0.00     0.012 A 
ATOM     61  C   UNL A   1      37.693  31.114  29.935  1.00  0.00     0.148 A 
ATOM     62  C   UNL A   1      37.168  30.321  32.580  1.00  0.00     0.002 A 
ATOM     63  C   UNL A   1      36.500  31.472  30.553  1.00  0.00     0.091 A 
ATOM     64  F   UNL A   1      37.950  31.441  28.661  1.00  0.00    -0.205 F 
ATOM     65  C   UNL A   1      36.228  31.058  31.867  1.00  0.00     0.022 A 
BRANCH  63  66
ATOM     66  S   UNL A   1      35.259  32.491  29.749  1.00  0.00     0.127 S 
ATOM     67  O   UNL A   1      34.677  31.548  28.795  1.00  0.00    -0.237 OA
ATOM     68  O   UNL A   1      34.385  32.847  30.866  1.00  0.00    -0.237 OA
ATOM     69  O   UNL A   1      35.980  33.611  29.159  1.00  0.00    -0.744 OA
ENDBRANCH  63  66
ENDBRANCH  45  59
BRANCH  46  70
ATOM     70  C   UNL A   1      46.983  27.395  25.988  1.00  0.00     0.023 A 
ATOM     71  C   UNL A   1      47.158  27.709  24.627  1.00  0.00     0.012 A 
ATOM     72  C   UNL A   1      47.999  26.701  26.671  1.00  0.00     0.148 A 
ATOM     73  C   UNL A   1      48.312  27.314  23.949  1.00  0.00     0.002 A 
ATOM     74  C   UNL A   1      49.170  26.359  26.006  1.00  0.00     0.091 A 
ATOM     75  F   UNL A   1      47.808  26.410  27.966  1.00  0.00    -0.205 F 
ATOM     76  C   UNL A   1      49.321  26.648  24.641  1.00  0.00     0.022 A 
BRANCH  74  77
ATOM     77  S   UNL A   1      50.572  25.610  26.839  1.00  0.00     0.127 S 
ATOM     78  O   UNL A   1      51.453  25.296  25.717  1.00  0.00    -0.237 OA
ATOM     79  O   UNL A   1      51.026  26.707  27.694  1.00  0.00    -0.237 OA
ATOM     80  O   UNL A   1      50.037  24.462  27.558  1.00  0.00    -0.744 OA
ENDBRANCH  74  77
ENDBRANCH  46  70
BRANCH  58  81
ATOM     81  C   UNL A   1      45.152  33.251  29.319  1.00  0.00     0.023 A 
ATOM     82  C   UNL A   1      46.027  33.337  30.420  1.00  0.00     0.012 A 
ATOM     83  C   UNL A   1      45.017  34.359  28.458  1.00  0.00     0.148 A 
ATOM     84  C   UNL A   1      46.724  34.518  30.681  1.00  0.00     0.002 A 
ATOM     85  C   UNL A   1      45.757  35.511  28.691  1.00  0.00     0.091 A 
ATOM     86  F   UNL A   1      44.167  34.265  27.425  1.00  0.00    -0.205 F 
ATOM     87  C   UNL A   1      46.599  35.598  29.811  1.00  0.00     0.022 A 
BRANCH  85  88
ATOM     88  S   UNL A   1      45.736  36.916  27.572  1.00  0.00     0.127 S 
ATOM     89  O   UNL A   1      45.748  36.256  26.266  1.00  0.00    -0.237 OA
ATOM     90  O   UNL A   1      44.471  37.565  27.916  1.00  0.00    -0.237 OA
ATOM     91  O   UNL A   1      46.925  37.698  27.882  1.00  0.00    -0.744 OA
ENDBRANCH  85  88
ENDBRANCH  58  81
ENDBRANCH  32  33
ENDBRANCH  25  27
ENDBRANCH  24  25
ENDBRANCH  23  24
ENDBRANCH   1  23
TORSDOF 19
ENDMDL
MODEL 3
REMARK VINA RESULT:     -11.0      2.048      2.787
REMARK SMILES N#Cc1cc(-c2cncc(C(=O)OCCOCCOC(=O)c3ccc(-c4c5nc(c(-c6cccc(S(=O)(=O)[O-])c6F)c6ccc([nH]6)c(-c6cccc(S(=O)(=O)[O-])c6F)c6nc(c(-c7cccc(S(=O)(=O)[O-])c7F)c7ccc4[nH]7)C=C6)C=C5)cc3)c2)ccc1Cl
REMARK SMILES IDX 17 1 16 2 15 3 14 4 13 5 11 6 12 7 10 8 6 9 7 10 85 11 8 12
REMARK SMILES IDX 9 13 5 14 3 15 4 16 88 17 87 18 89 19 86 20 2 21 1 22 18 23
REMARK SMILES IDX 19 24 20 25 21 26 22 27 23 28 84 29 24 30 83 31 25 32 26 33
REMARK SMILES IDX 27 34 77 35 28 36 82 37 76 38 78 39 29 40 81 41 75 42 74 43
REMARK SMILES IDX 30 45 62 46 42 47 61 48 43 49 46 50 60 51 79 52 44 53 45 54
REMARK SMILES IDX 59 56 80 57 47 58 31 59 32 60 40 61 33 62 35 63 41 64 34 65
REMARK SMILES IDX 36 66 37 67 38 68 39 69 63 70 64 71 72 72 65 73 67 74 73 75
REMARK SMILES IDX 66 76 68 77 69 78 70 79 71 80 48 81 49 82 57 83 50 84 52 85
REMARK SMILES IDX 58 86 51 87 53 88 54 89 55 90 56 91
REMARK H PARENT 78 44 46 55
REMARK Flexibility Score: inf
ROOT
ATOM      1  C   UNL A   1      36.157  20.108  24.914  1.00  0.00     0.202 C 
ENDROOT
BRANCH   1   2
ATOM      2  O   UNL A   1      34.733  20.060  24.923  1.00  0.00    -0.374 OA
BRANCH   2   3
ATOM      3  C   UNL A   1      34.020  21.117  25.559  1.00  0.00     0.202 C 
BRANCH   3   4
ATOM      4  C   UNL A   1      33.134  22.033  24.707  1.00  0.00     0.261 C 
BRANCH   4   5
ATOM      5  O   UNL A   1      33.615  22.174  23.362  1.00  0.00    -0.460 OA
BRANCH   5   6
ATOM      6  C   UNL A   1      34.418  23.246  23.163  1.00  0.00     0.339 C 
ATOM      7  O   UNL A   1      35.624  23.240  22.981  1.00  0.00    -0.246 OA
BRANCH   6   8
ATOM      8  C   UNL A   1      33.602  24.460  22.993  1.00  0.00     0.079 A 
ATOM      9  C   UNL A   1      32.699  26.598  23.685  1.00  0.00     0.001 A 
ATOM     10  C   UNL A   1      32.042  26.621  22.449  1.00  0.00     0.119 A 
ATOM     11  C   UNL A   1      33.474  25.459  23.960  1.00  0.00     0.027 A 
ATOM     12  N   UNL A   1      32.108  25.646  21.510  1.00  0.00    -0.263 NA
ATOM     13  C   UNL A   1      32.905  24.594  21.800  1.00  0.00     0.126 A 
BRANCH   9  14
ATOM     14  C   UNL A   1      32.636  27.745  24.605  1.00  0.00    -0.015 A 
ATOM     15  C   UNL A   1      33.677  29.101  26.369  1.00  0.00     0.071 A 
ATOM     16  C   UNL A   1      33.665  27.966  25.541  1.00  0.00     0.029 A 
ATOM     17  C   UNL A   1      32.635  30.026  26.279  1.00  0.00     0.058 A 
ATOM     18  C   UNL A   1      31.596  29.816  25.370  1.00  0.00     0.022 A 
ATOM     19  Cl  UNL A   1      32.590  31.460  27.238  1.00  0.00    -0.083 Cl
ATOM     20  C   UNL A   1      31.599  28.689  24.541  1.00  0.00     0.010 A 
BRANCH  15  21
ATOM     21  C   UNL A   1      34.800  29.303  27.238  1.00  0.00     0.101 C 
ATOM     22  N   UNL A   1      35.681  29.417  27.979  1.00  0.00    -0.192 NA
ENDBRANCH  15  21
ENDBRANCH   9  14
ENDBRANCH   6   8
ENDBRANCH   5   6
ENDBRANCH   4   5
ENDBRANCH   3   4
ENDBRANCH   2   3
ENDBRANCH   1   2
BRANCH   1  23
ATOM     23  C   UNL A   1      36.886  21.171  25.749  1.00  0.00     0.261 C 
BRANCH  23  24
ATOM     24  O   UNL A   1      38.142  21.586  25.194  1.00  0.00    -0.460 OA
BRANCH  24  25
ATOM     25  C   UNL A   1      39.203  21.386  26.016  1.00  0.00     0.338 C 
ATOM     26  O   UNL A   1      39.835  20.353  26.166  1.00  0.00    -0.246 OA
BRANCH  25  27
ATOM     27  C   UNL A   1      39.636  22.671  26.590  1.00  0.00     0.060 A 
ATOM     28  C   UNL A   1      39.099  23.845  26.044  1.00  0.00     0.016 A 
ATOM     29  C   UNL A   1      40.607  22.727  27.590  1.00  0.00     0.016 A 
ATOM     30  C   UNL A   1      39.568  25.085  26.466  1.00  0.00     0.010 A 
ATOM     31  C   UNL A   1      41.078  23.973  28.007  1.00  0.00     0.010 A 
ATOM     32  C   UNL A   1      40.590  25.155  27.420  1.00  0.00    -0.014 A 
BRANCH  32  33
ATOM     33  C   UNL A   1      41.233  26.458  27.719  1.00  0.00     0.031 A 
ATOM     34  C   UNL A   1      42.644  26.703  27.263  1.00  0.00     0.074 A 
ATOM     35  C   UNL A   1      40.565  27.409  28.394  1.00  0.00     0.049 A 
ATOM     36  N   UNL A   1      43.408  27.747  27.455  1.00  0.00    -0.248 NA
ATOM     37  C   UNL A   1      43.284  25.622  26.496  1.00  0.00     0.031 C 
ATOM     38  C   UNL A   1      39.188  27.296  28.872  1.00  0.00     0.029 A 
ATOM     39  N   UNL A   1      40.968  28.652  28.811  1.00  0.00    -0.354 N 
ATOM     40  C   UNL A   1      44.627  27.439  26.865  1.00  0.00     0.074 A 
ATOM     41  C   UNL A   1      44.508  26.100  26.330  1.00  0.00     0.031 C 
ATOM     42  C   UNL A   1      38.861  28.421  29.527  1.00  0.00     0.029 A 
ATOM     43  C   UNL A   1      40.017  29.315  29.549  1.00  0.00     0.049 A 
ATOM     44  H   UNL A   1      41.851  29.032  28.601  1.00  0.00     0.167 HD
ATOM     45  C   UNL A   1      45.741  28.205  26.764  1.00  0.00     0.034 A 
ATOM     46  C   UNL A   1      40.081  30.498  30.189  1.00  0.00     0.034 A 
ATOM     47  C   UNL A   1      45.852  29.534  27.303  1.00  0.00     0.049 A 
ATOM     48  C   UNL A   1      41.350  31.305  30.121  1.00  0.00     0.074 A 
ATOM     49  C   UNL A   1      46.922  30.409  27.225  1.00  0.00     0.029 A 
ATOM     50  N   UNL A   1      44.871  30.173  28.046  1.00  0.00    -0.354 N 
ATOM     51  N   UNL A   1      42.464  31.042  29.482  1.00  0.00    -0.248 NA
ATOM     52  C   UNL A   1      41.359  32.586  30.841  1.00  0.00     0.031 C 
ATOM     53  C   UNL A   1      46.607  31.552  27.969  1.00  0.00     0.029 A 
ATOM     54  C   UNL A   1      45.316  31.419  28.454  1.00  0.00     0.049 A 
ATOM     55  H   UNL A   1      43.985  29.796  28.253  1.00  0.00     0.167 HD
ATOM     56  C   UNL A   1      43.289  32.144  29.682  1.00  0.00     0.074 A 
ATOM     57  C   UNL A   1      42.539  33.081  30.494  1.00  0.00     0.031 C 
ATOM     58  C   UNL A   1      44.552  32.360  29.235  1.00  0.00     0.034 A 
BRANCH  45  59
ATOM     59  C   UNL A   1      46.930  27.609  26.051  1.00  0.00     0.023 A 
ATOM     60  C   UNL A   1      47.052  27.733  24.651  1.00  0.00     0.012 A 
ATOM     61  C   UNL A   1      47.935  26.932  26.770  1.00  0.00     0.148 A 
ATOM     62  C   UNL A   1      48.118  27.142  23.972  1.00  0.00     0.002 A 
ATOM     63  C   UNL A   1      49.024  26.393  26.093  1.00  0.00     0.091 A 
ATOM     64  F   UNL A   1      47.800  26.807  28.097  1.00  0.00    -0.205 F 
ATOM     65  C   UNL A   1      49.106  26.479  24.694  1.00  0.00     0.022 A 
BRANCH  63  66
ATOM     66  S   UNL A   1      50.390  25.592  26.939  1.00  0.00     0.127 S 
ATOM     67  O   UNL A   1      51.279  25.270  25.823  1.00  0.00    -0.237 OA
ATOM     68  O   UNL A   1      50.875  26.658  27.816  1.00  0.00    -0.237 OA
ATOM     69  O   UNL A   1      49.818  24.446  27.633  1.00  0.00    -0.744 OA
ENDBRANCH  63  66
ENDBRANCH  45  59
BRANCH  46  70
ATOM     70  C   UNL A   1      38.890  31.010  30.921  1.00  0.00     0.023 A 
ATOM     71  C   UNL A   1      38.791  30.805  32.310  1.00  0.00     0.012 A 
ATOM     72  C   UNL A   1      37.873  31.720  30.254  1.00  0.00     0.148 A 
ATOM     73  C   UNL A   1      37.684  31.274  33.019  1.00  0.00     0.002 A 
ATOM     74  C   UNL A   1      36.802  32.231  30.975  1.00  0.00     0.091 A 
ATOM     75  F   UNL A   1      37.987  31.898  28.931  1.00  0.00    -0.205 F 
ATOM     76  C   UNL A   1      36.696  31.994  32.354  1.00  0.00     0.022 A 
BRANCH  74  77
ATOM     77  S   UNL A   1      35.544  33.273  30.230  1.00  0.00     0.127 S 
ATOM     78  O   UNL A   1      34.563  32.285  29.787  1.00  0.00    -0.237 OA
ATOM     79  O   UNL A   1      35.127  34.091  31.370  1.00  0.00    -0.237 OA
ATOM     80  O   UNL A   1      36.218  34.008  29.169  1.00  0.00    -0.744 OA
ENDBRANCH  74  77
ENDBRANCH  46  70
BRANCH  58  81
ATOM     81  C   UNL A   1      45.194  33.686  29.561  1.00  0.00     0.023 A 
ATOM     82  C   UNL A   1      45.974  33.835  30.725  1.00  0.00     0.012 A 
ATOM     83  C   UNL A   1      45.070  34.772  28.671  1.00  0.00     0.148 A 
ATOM     84  C   UNL A   1      46.584  35.056  31.018  1.00  0.00     0.002 A 
ATOM     85  C   UNL A   1      45.728  35.965  28.939  1.00  0.00     0.091 A 
ATOM     86  F   UNL A   1      44.311  34.616  27.576  1.00  0.00    -0.205 F 
ATOM     87  C   UNL A   1      46.472  36.114  30.120  1.00  0.00     0.022 A 
BRANCH  85  88
ATOM     88  S   UNL A   1      45.723  37.350  27.795  1.00  0.00     0.127 S 
ATOM     89  O   UNL A   1      44.377  37.889  27.988  1.00  0.00    -0.237 OA
ATOM     90  O   UNL A   1      46.798  38.189  28.324  1.00  0.00    -0.237 OA
ATOM     91  O   UNL A   1      45.983  36.787  26.477  1.00  0.00    -0.744 OA
ENDBRANCH  85  88
ENDBRANCH  58  81
ENDBRANCH  32  33
ENDBRANCH  25  27
ENDBRANCH  24  25
ENDBRANCH  23  24
ENDBRANCH   1  23
TORSDOF 19
ENDMDL
