MODEL 1
REMARK VINA RESULT:     -11.6      0.000      0.000
REMARK SMILES [NH3+][C@]1(C(=O)OCCOCCOC(=O)c2ccc(-c3c4nc(c(-c5cccc(S(=O)(=O)[O-])c5F)c5ccc([nH]5)c(-c5cccc(S(=O)(=O)[O-])c5F)c5nc(c(-c6cccc(S(=O)(=O)[O-])c6F)c6ccc3[nH]6)C=C5)C=C4)cc2)CC[C@@H]([NH+]2CCC(C(F)(F)F)CC2)C1
REMARK SMILES IDX 9 1 8 2 7 3 6 4 5 5 3 6 4 7 2 8 77 9 90 10 78 11 79 12 1 13
REMARK SMILES IDX 80 17 81 18 89 19 82 21 88 22 83 23 84 24 85 25 86 26 87 27
REMARK SMILES IDX 10 28 11 29 12 30 13 31 14 32 15 33 76 34 16 35 75 36 17 37
REMARK SMILES IDX 18 38 19 39 69 40 20 41 74 42 68 43 70 44 21 45 73 46 67 47
REMARK SMILES IDX 66 48 22 50 54 51 34 52 53 53 35 54 38 55 52 56 71 57 36 58
REMARK SMILES IDX 37 59 51 61 72 62 39 63 23 64 24 65 32 66 25 67 27 68 33 69
REMARK SMILES IDX 26 70 28 71 29 72 30 73 31 74 55 75 56 76 64 77 57 78 59 79
REMARK SMILES IDX 65 80 58 81 60 82 61 83 62 84 63 85 40 86 41 87 49 88 42 89
REMARK SMILES IDX 44 90 50 91 43 92 45 93 46 94 47 95 48 96
REMARK H PARENT 1 14 1 15 1 16 80 20 70 49 38 60
REMARK Flexibility Score: inf
ROOT
ATOM      1  C   UNL A   1      35.603  20.787  25.264  1.00  0.00     0.202 C 
ENDROOT
BRANCH   1   2
ATOM      2  O   UNL A   1      35.364  21.837  26.199  1.00  0.00    -0.374 OA
BRANCH   2   3
ATOM      3  C   UNL A   1      34.326  21.619  27.160  1.00  0.00     0.202 C 
BRANCH   3   4
ATOM      4  C   UNL A   1      32.962  22.231  26.818  1.00  0.00     0.261 C 
BRANCH   4   5
ATOM      5  O   UNL A   1      33.098  23.606  26.413  1.00  0.00    -0.459 OA
BRANCH   5   6
ATOM      6  C   UNL A   1      32.551  23.935  25.218  1.00  0.00     0.368 C 
ATOM      7  O   UNL A   1      31.393  23.693  24.885  1.00  0.00    -0.245 OA
BRANCH   6   8
ATOM      8  C   UNL A   1      33.509  24.750  24.312  1.00  0.00     0.198 C 
ATOM      9  C   UNL A   1      33.342  24.587  22.795  1.00  0.00     0.087 C 
ATOM     10  C   UNL A   1      33.279  26.244  24.600  1.00  0.00     0.145 C 
ATOM     11  C   UNL A   1      33.652  25.966  22.227  1.00  0.00     0.072 C 
ATOM     12  C   UNL A   1      33.072  26.955  23.250  1.00  0.00     0.191 C 
BRANCH   8  13
ATOM     13  N   UNL A   1      34.914  24.416  24.686  1.00  0.00    -0.343 N 
ATOM     14  H   UNL A   1      34.959  23.449  25.011  1.00  0.00     0.345 HD
ATOM     15  H   UNL A   1      35.226  25.039  25.430  1.00  0.00     0.345 HD
ATOM     16  H   UNL A   1      35.519  24.529  23.872  1.00  0.00     0.345 HD
ENDBRANCH   8  13
BRANCH  12  17
ATOM     17  N   UNL A   1      31.708  27.453  22.977  1.00  0.00    -0.332 N 
ATOM     18  C   UNL A   1      30.649  27.007  23.887  1.00  0.00     0.263 C 
ATOM     19  C   UNL A   1      31.683  28.907  22.760  1.00  0.00     0.263 C 
ATOM     20  H   UNL A   1      31.462  26.990  22.102  1.00  0.00     0.348 HD
ATOM     21  C   UNL A   1      29.264  27.458  23.413  1.00  0.00     0.074 C 
ATOM     22  C   UNL A   1      30.329  29.392  22.257  1.00  0.00     0.074 C 
ATOM     23  C   UNL A   1      29.214  28.972  23.219  1.00  0.00     0.106 C 
BRANCH  23  24
ATOM     24  C   UNL A   1      27.863  29.432  22.709  1.00  0.00     0.392 C 
ATOM     25  F   UNL A   1      26.913  28.515  22.966  1.00  0.00    -0.171 F 
ATOM     26  F   UNL A   1      27.500  30.580  23.331  1.00  0.00    -0.171 F 
ATOM     27  F   UNL A   1      27.885  29.677  21.384  1.00  0.00    -0.171 F 
ENDBRANCH  23  24
ENDBRANCH  12  17
ENDBRANCH   6   8
ENDBRANCH   5   6
ENDBRANCH   4   5
ENDBRANCH   3   4
ENDBRANCH   2   3
ENDBRANCH   1   2
BRANCH   1  28
ATOM     28  C   UNL A   1      37.062  20.389  25.029  1.00  0.00     0.261 C 
BRANCH  28  29
ATOM     29  O   UNL A   1      37.945  21.513  25.174  1.00  0.00    -0.460 OA
BRANCH  29  30
ATOM     30  C   UNL A   1      39.053  21.253  25.905  1.00  0.00     0.338 C 
ATOM     31  O   UNL A   1      39.713  20.221  25.900  1.00  0.00    -0.246 OA
BRANCH  30  32
ATOM     32  C   UNL A   1      39.492  22.467  26.616  1.00  0.00     0.060 A 
ATOM     33  C   UNL A   1      38.847  23.665  26.285  1.00  0.00     0.016 A 
ATOM     34  C   UNL A   1      40.547  22.456  27.532  1.00  0.00     0.016 A 
ATOM     35  C   UNL A   1      39.303  24.869  26.812  1.00  0.00     0.010 A 
ATOM     36  C   UNL A   1      41.006  23.668  28.057  1.00  0.00     0.010 A 
ATOM     37  C   UNL A   1      40.415  24.882  27.662  1.00  0.00    -0.014 A 
BRANCH  37  38
ATOM     38  C   UNL A   1      41.049  26.179  27.996  1.00  0.00     0.031 A 
ATOM     39  C   UNL A   1      42.463  26.433  27.548  1.00  0.00     0.074 A 
ATOM     40  C   UNL A   1      40.362  27.130  28.653  1.00  0.00     0.049 A 
ATOM     41  N   UNL A   1      43.202  27.500  27.708  1.00  0.00    -0.248 NA
ATOM     42  C   UNL A   1      43.133  25.342  26.821  1.00  0.00     0.031 C 
ATOM     43  C   UNL A   1      38.984  27.002  29.128  1.00  0.00     0.029 A 
ATOM     44  N   UNL A   1      40.737  28.390  29.043  1.00  0.00    -0.354 N 
ATOM     45  C   UNL A   1      44.425  27.205  27.115  1.00  0.00     0.074 A 
ATOM     46  C   UNL A   1      44.338  25.851  26.614  1.00  0.00     0.031 C 
ATOM     47  C   UNL A   1      38.637  28.133  29.765  1.00  0.00     0.029 A 
ATOM     48  C   UNL A   1      39.770  29.056  29.756  1.00  0.00     0.049 A 
ATOM     49  H   UNL A   1      41.616  28.780  28.832  1.00  0.00     0.167 HD
ATOM     50  C   UNL A   1      45.514  27.998  26.979  1.00  0.00     0.034 A 
ATOM     51  C   UNL A   1      39.803  30.269  30.344  1.00  0.00     0.034 A 
ATOM     52  C   UNL A   1      45.593  29.349  27.464  1.00  0.00     0.049 A 
ATOM     53  C   UNL A   1      41.041  31.116  30.207  1.00  0.00     0.074 A 
ATOM     54  C   UNL A   1      46.643  30.242  27.356  1.00  0.00     0.029 A 
ATOM     55  N   UNL A   1      44.583  30.000  28.154  1.00  0.00    -0.354 N 
ATOM     56  N   UNL A   1      42.148  30.864  29.550  1.00  0.00    -0.248 NA
ATOM     57  C   UNL A   1      41.022  32.432  30.865  1.00  0.00     0.031 C 
ATOM     58  C   UNL A   1      46.274  31.430  27.996  1.00  0.00     0.029 A 
ATOM     59  C   UNL A   1      44.985  31.283  28.484  1.00  0.00     0.049 A 
ATOM     60  H   UNL A   1      43.708  29.608  28.377  1.00  0.00     0.167 HD
ATOM     61  C   UNL A   1      42.937  32.003  29.680  1.00  0.00     0.074 A 
ATOM     62  C   UNL A   1      42.172  32.952  30.463  1.00  0.00     0.031 C 
ATOM     63  C   UNL A   1      44.187  32.237  29.210  1.00  0.00     0.034 A 
BRANCH  50  64
ATOM     64  C   UNL A   1      46.697  27.435  26.238  1.00  0.00     0.023 A 
ATOM     65  C   UNL A   1      46.782  27.601  24.840  1.00  0.00     0.012 A 
ATOM     66  C   UNL A   1      47.748  26.792  26.922  1.00  0.00     0.148 A 
ATOM     67  C   UNL A   1      47.877  27.111  24.130  1.00  0.00     0.002 A 
ATOM     68  C   UNL A   1      48.856  26.342  26.213  1.00  0.00     0.091 A 
ATOM     69  F   UNL A   1      47.638  26.622  28.247  1.00  0.00    -0.205 F 
ATOM     70  C   UNL A   1      48.918  26.492  24.817  1.00  0.00     0.022 A 
BRANCH  68  71
ATOM     71  S   UNL A   1      50.279  25.594  27.013  1.00  0.00     0.127 S 
ATOM     72  O   UNL A   1      49.704  24.359  27.544  1.00  0.00    -0.237 OA
ATOM     73  O   UNL A   1      51.200  25.405  25.891  1.00  0.00    -0.237 OA
ATOM     74  O   UNL A   1      50.728  26.554  28.012  1.00  0.00    -0.744 OA
ENDBRANCH  68  71
ENDBRANCH  50  64
BRANCH  51  75
ATOM     75  C   UNL A   1      38.613  30.776  31.084  1.00  0.00     0.023 A 
ATOM     76  C   UNL A   1      38.540  30.609  32.481  1.00  0.00     0.012 A 
ATOM     77  C   UNL A   1      37.557  31.420  30.414  1.00  0.00     0.148 A 
ATOM     78  C   UNL A   1      37.420  31.044  33.191  1.00  0.00     0.002 A 
ATOM     79  C   UNL A   1      36.469  31.899  31.134  1.00  0.00     0.091 A 
ATOM     80  F   UNL A   1      37.633  31.550  29.081  1.00  0.00    -0.205 F 
ATOM     81  C   UNL A   1      36.390  31.698  32.521  1.00  0.00     0.022 A 
BRANCH  79  82
ATOM     82  S   UNL A   1      35.164  32.862  30.363  1.00  0.00     0.127 S 
ATOM     83  O   UNL A   1      35.901  34.020  29.864  1.00  0.00    -0.237 OA
ATOM     84  O   UNL A   1      34.680  31.946  29.329  1.00  0.00    -0.237 OA
ATOM     85  O   UNL A   1      34.202  33.126  31.425  1.00  0.00    -0.744 OA
ENDBRANCH  79  82
ENDBRANCH  51  75
BRANCH  63  86
ATOM     86  C   UNL A   1      44.797  33.585  29.489  1.00  0.00     0.023 A 
ATOM     87  C   UNL A   1      45.546  33.785  30.666  1.00  0.00     0.012 A 
ATOM     88  C   UNL A   1      44.687  34.633  28.552  1.00  0.00     0.148 A 
ATOM     89  C   UNL A   1      46.146  35.016  30.923  1.00  0.00     0.002 A 
ATOM     90  C   UNL A   1      45.330  35.841  28.792  1.00  0.00     0.091 A 
ATOM     91  F   UNL A   1      43.956  34.429  27.447  1.00  0.00    -0.205 F 
ATOM     92  C   UNL A   1      46.049  36.040  29.982  1.00  0.00     0.022 A 
BRANCH  90  93
ATOM     93  S   UNL A   1      45.336  37.179  27.594  1.00  0.00     0.127 S 
ATOM     94  O   UNL A   1      46.093  38.211  28.301  1.00  0.00    -0.237 OA
ATOM     95  O   UNL A   1      46.037  36.578  26.458  1.00  0.00    -0.237 OA
ATOM     96  O   UNL A   1      43.936  37.493  27.338  1.00  0.00    -0.744 OA
ENDBRANCH  90  93
ENDBRANCH  63  86
ENDBRANCH  37  38
ENDBRANCH  30  32
ENDBRANCH  29  30
ENDBRANCH  28  29
ENDBRANCH   1  28
TORSDOF 20
ENDMDL
MODEL 2
REMARK VINA RESULT:     -11.5      5.039     10.004
REMARK SMILES [NH3+][C@]1(C(=O)OCCOCCOC(=O)c2ccc(-c3c4nc(c(-c5cccc(S(=O)(=O)[O-])c5F)c5ccc([nH]5)c(-c5cccc(S(=O)(=O)[O-])c5F)c5nc(c(-c6cccc(S(=O)(=O)[O-])c6F)c6ccc3[nH]6)C=C5)C=C4)cc2)CC[C@@H]([NH+]2CCC(C(F)(F)F)CC2)C1
REMARK SMILES IDX 9 1 8 2 7 3 6 4 5 5 3 6 4 7 2 8 77 9 90 10 78 11 79 12 1 13
REMARK SMILES IDX 80 17 81 18 89 19 82 21 88 22 83 23 84 24 85 25 86 26 87 27
REMARK SMILES IDX 10 28 11 29 12 30 13 31 14 32 15 33 76 34 16 35 75 36 17 37
REMARK SMILES IDX 18 38 19 39 69 40 20 41 74 42 68 43 70 44 21 45 73 46 67 47
REMARK SMILES IDX 66 48 22 50 54 51 34 52 53 53 35 54 38 55 52 56 71 57 36 58
REMARK SMILES IDX 37 59 51 61 72 62 39 63 23 64 24 65 32 66 25 67 27 68 33 69
REMARK SMILES IDX 26 70 28 71 29 72 30 73 31 74 55 75 56 76 64 77 57 78 59 79
REMARK SMILES IDX 65 80 58 81 60 82 61 83 62 84 63 85 40 86 41 87 49 88 42 89
REMARK SMILES IDX 44 90 50 91 43 92 45 93 46 94 47 95 48 96
REMARK H PARENT 1 14 1 15 1 16 80 20 70 49 38 60
REMARK Flexibility Score: inf
ROOT
ATOM      1  C   UNL A   1      31.410  31.498  26.169  1.00  0.00     0.202 C 
ENDROOT
BRANCH   1   2
ATOM      2  O   UNL A   1      32.306  30.389  26.205  1.00  0.00    -0.374 OA
BRANCH   2   3
ATOM      3  C   UNL A   1      32.184  29.429  25.151  1.00  0.00     0.202 C 
BRANCH   3   4
ATOM      4  C   UNL A   1      33.496  28.800  24.667  1.00  0.00     0.261 C 
BRANCH   4   5
ATOM      5  O   UNL A   1      33.268  27.496  24.102  1.00  0.00    -0.459 OA
BRANCH   5   6
ATOM      6  C   UNL A   1      33.245  26.460  24.977  1.00  0.00     0.368 C 
ATOM      7  O   UNL A   1      34.150  26.182  25.759  1.00  0.00    -0.245 OA
BRANCH   6   8
ATOM      8  C   UNL A   1      31.901  25.687  24.971  1.00  0.00     0.198 C 
ATOM      9  C   UNL A   1      30.836  26.133  25.982  1.00  0.00     0.087 C 
ATOM     10  C   UNL A   1      31.260  25.861  23.583  1.00  0.00     0.145 C 
ATOM     11  C   UNL A   1      29.513  25.935  25.253  1.00  0.00     0.072 C 
ATOM     12  C   UNL A   1      29.803  26.316  23.793  1.00  0.00     0.191 C 
BRANCH   8  13
ATOM     13  N   UNL A   1      32.187  24.237  25.172  1.00  0.00    -0.343 N 
ATOM     14  H   UNL A   1      32.750  23.890  24.395  1.00  0.00     0.345 HD
ATOM     15  H   UNL A   1      31.308  23.720  25.212  1.00  0.00     0.345 HD
ATOM     16  H   UNL A   1      32.697  24.109  26.046  1.00  0.00     0.345 HD
ENDBRANCH   8  13
BRANCH  12  17
ATOM     17  N   UNL A   1      29.493  27.708  23.406  1.00  0.00    -0.332 N 
ATOM     18  C   UNL A   1      30.275  28.276  22.306  1.00  0.00     0.263 C 
ATOM     19  C   UNL A   1      28.049  27.926  23.237  1.00  0.00     0.263 C 
ATOM     20  H   UNL A   1      29.809  28.249  24.211  1.00  0.00     0.348 HD
ATOM     21  C   UNL A   1      29.973  29.764  22.102  1.00  0.00     0.074 C 
ATOM     22  C   UNL A   1      27.703  29.399  23.063  1.00  0.00     0.074 C 
ATOM     23  C   UNL A   1      28.480  30.000  21.888  1.00  0.00     0.106 C 
BRANCH  23  24
ATOM     24  C   UNL A   1      28.157  31.472  21.727  1.00  0.00     0.392 C 
ATOM     25  F   UNL A   1      27.594  31.715  20.531  1.00  0.00    -0.171 F 
ATOM     26  F   UNL A   1      27.274  31.859  22.680  1.00  0.00    -0.171 F 
ATOM     27  F   UNL A   1      29.257  32.242  21.856  1.00  0.00    -0.171 F 
ENDBRANCH  23  24
ENDBRANCH  12  17
ENDBRANCH   6   8
ENDBRANCH   5   6
ENDBRANCH   4   5
ENDBRANCH   3   4
ENDBRANCH   2   3
ENDBRANCH   1   2
BRANCH   1  28
ATOM     28  C   UNL A   1      31.866  32.777  26.875  1.00  0.00     0.261 C 
BRANCH  28  29
ATOM     29  O   UNL A   1      32.832  32.499  27.901  1.00  0.00    -0.460 OA
BRANCH  29  30
ATOM     30  C   UNL A   1      33.823  33.415  27.990  1.00  0.00     0.338 C 
ATOM     31  O   UNL A   1      33.700  34.634  27.992  1.00  0.00    -0.246 OA
BRANCH  30  32
ATOM     32  C   UNL A   1      35.110  32.751  28.264  1.00  0.00     0.060 A 
ATOM     33  C   UNL A   1      35.071  31.377  28.530  1.00  0.00     0.016 A 
ATOM     34  C   UNL A   1      36.315  33.455  28.329  1.00  0.00     0.016 A 
ATOM     35  C   UNL A   1      36.225  30.713  28.933  1.00  0.00     0.010 A 
ATOM     36  C   UNL A   1      37.473  32.787  28.740  1.00  0.00     0.010 A 
ATOM     37  C   UNL A   1      37.421  31.425  29.088  1.00  0.00    -0.014 A 
BRANCH  37  38
ATOM     38  C   UNL A   1      38.563  30.773  29.770  1.00  0.00     0.031 A 
ATOM     39  C   UNL A   1      38.912  31.196  31.171  1.00  0.00     0.074 A 
ATOM     40  C   UNL A   1      39.253  29.789  29.164  1.00  0.00     0.049 A 
ATOM     41  N   UNL A   1      39.850  30.746  31.962  1.00  0.00    -0.248 NA
ATOM     42  C   UNL A   1      38.092  32.268  31.761  1.00  0.00     0.031 C 
ATOM     43  C   UNL A   1      39.001  29.287  27.814  1.00  0.00     0.029 A 
ATOM     44  N   UNL A   1      40.316  29.045  29.608  1.00  0.00    -0.354 N 
ATOM     45  C   UNL A   1      39.744  31.485  33.134  1.00  0.00     0.074 A 
ATOM     46  C   UNL A   1      38.667  32.431  32.943  1.00  0.00     0.031 C 
ATOM     47  C   UNL A   1      39.901  28.329  27.531  1.00  0.00     0.029 A 
ATOM     48  C   UNL A   1      40.799  28.162  28.672  1.00  0.00     0.049 A 
ATOM     49  H   UNL A   1      40.697  29.134  30.512  1.00  0.00     0.167 HD
ATOM     50  C   UNL A   1      40.462  31.372  34.277  1.00  0.00     0.034 A 
ATOM     51  C   UNL A   1      41.853  27.324  28.728  1.00  0.00     0.034 A 
ATOM     52  C   UNL A   1      41.522  30.420  34.470  1.00  0.00     0.049 A 
ATOM     53  C   UNL A   1      42.658  27.244  30.000  1.00  0.00     0.074 A 
ATOM     54  C   UNL A   1      42.295  30.211  35.598  1.00  0.00     0.029 A 
ATOM     55  N   UNL A   1      41.962  29.522  33.511  1.00  0.00    -0.354 N 
ATOM     56  N   UNL A   1      42.475  27.873  31.136  1.00  0.00    -0.248 NA
ATOM     57  C   UNL A   1      43.795  26.311  30.008  1.00  0.00     0.031 C 
ATOM     58  C   UNL A   1      43.215  29.196  35.314  1.00  0.00     0.029 A 
ATOM     59  C   UNL A   1      43.000  28.759  34.017  1.00  0.00     0.049 A 
ATOM     60  H   UNL A   1      41.591  29.440  32.603  1.00  0.00     0.167 HD
ATOM     61  C   UNL A   1      43.445  27.382  32.004  1.00  0.00     0.074 A 
ATOM     62  C   UNL A   1      44.200  26.391  31.267  1.00  0.00     0.031 C 
ATOM     63  C   UNL A   1      43.700  27.732  33.289  1.00  0.00     0.034 A 
BRANCH  50  64
ATOM     64  C   UNL A   1      40.095  32.276  35.423  1.00  0.00     0.023 A 
ATOM     65  C   UNL A   1      40.736  33.526  35.551  1.00  0.00     0.012 A 
ATOM     66  C   UNL A   1      39.085  31.921  36.339  1.00  0.00     0.148 A 
ATOM     67  C   UNL A   1      40.400  34.395  36.588  1.00  0.00     0.002 A 
ATOM     68  C   UNL A   1      38.726  32.810  37.346  1.00  0.00     0.091 A 
ATOM     69  F   UNL A   1      38.505  30.719  36.215  1.00  0.00    -0.205 F 
ATOM     70  C   UNL A   1      39.388  34.042  37.478  1.00  0.00     0.022 A 
BRANCH  68  71
ATOM     71  S   UNL A   1      37.390  32.478  38.499  1.00  0.00     0.127 S 
ATOM     72  O   UNL A   1      37.779  33.298  39.645  1.00  0.00    -0.237 OA
ATOM     73  O   UNL A   1      36.222  32.969  37.766  1.00  0.00    -0.237 OA
ATOM     74  O   UNL A   1      37.403  31.040  38.726  1.00  0.00    -0.744 OA
ENDBRANCH  68  71
ENDBRANCH  50  64
BRANCH  51  75
ATOM     75  C   UNL A   1      42.189  26.462  27.560  1.00  0.00     0.023 A 
ATOM     76  C   UNL A   1      42.899  27.010  26.474  1.00  0.00     0.012 A 
ATOM     77  C   UNL A   1      41.810  25.108  27.520  1.00  0.00     0.148 A 
ATOM     78  C   UNL A   1      43.196  26.232  25.354  1.00  0.00     0.002 A 
ATOM     79  C   UNL A   1      42.155  24.325  26.425  1.00  0.00     0.091 A 
ATOM     80  F   UNL A   1      41.115  24.610  28.552  1.00  0.00    -0.205 F 
ATOM     81  C   UNL A   1      42.833  24.888  25.333  1.00  0.00     0.022 A 
BRANCH  79  82
ATOM     82  S   UNL A   1      41.836  22.558  26.378  1.00  0.00     0.127 S 
ATOM     83  O   UNL A   1      42.495  22.168  25.134  1.00  0.00    -0.237 OA
ATOM     84  O   UNL A   1      42.499  22.097  27.598  1.00  0.00    -0.237 OA
ATOM     85  O   UNL A   1      40.385  22.429  26.399  1.00  0.00    -0.744 OA
ENDBRANCH  79  82
ENDBRANCH  51  75
BRANCH  63  86
ATOM     86  C   UNL A   1      44.815  27.012  34.001  1.00  0.00     0.023 A 
ATOM     87  C   UNL A   1      46.135  27.493  33.902  1.00  0.00     0.012 A 
ATOM     88  C   UNL A   1      44.542  25.900  34.824  1.00  0.00     0.148 A 
ATOM     89  C   UNL A   1      47.173  26.858  34.582  1.00  0.00     0.002 A 
ATOM     90  C   UNL A   1      45.575  25.303  35.539  1.00  0.00     0.091 A 
ATOM     91  F   UNL A   1      43.283  25.447  34.892  1.00  0.00    -0.205 F 
ATOM     92  C   UNL A   1      46.892  25.772  35.409  1.00  0.00     0.022 A 
BRANCH  90  93
ATOM     93  S   UNL A   1      45.288  23.961  36.697  1.00  0.00     0.127 S 
ATOM     94  O   UNL A   1      44.338  24.567  37.628  1.00  0.00    -0.237 OA
ATOM     95  O   UNL A   1      44.721  22.922  35.836  1.00  0.00    -0.237 OA
ATOM     96  O   UNL A   1      46.592  23.632  37.258  1.00  0.00    -0.744 OA
ENDBRANCH  90  93
ENDBRANCH  63  86
ENDBRANCH  37  38
ENDBRANCH  30  32
ENDBRANCH  29  30
ENDBRANCH  28  29
ENDBRANCH   1  28
TORSDOF 20
ENDMDL
MODEL 3
REMARK VINA RESULT:     -11.5      2.860      4.069
REMARK SMILES [NH3+][C@]1(C(=O)OCCOCCOC(=O)c2ccc(-c3c4nc(c(-c5cccc(S(=O)(=O)[O-])c5F)c5ccc([nH]5)c(-c5cccc(S(=O)(=O)[O-])c5F)c5nc(c(-c6cccc(S(=O)(=O)[O-])c6F)c6ccc3[nH]6)C=C5)C=C4)cc2)CC[C@@H]([NH+]2CCC(C(F)(F)F)CC2)C1
REMARK SMILES IDX 9 1 8 2 7 3 6 4 5 5 3 6 4 7 2 8 77 9 90 10 78 11 79 12 1 13
REMARK SMILES IDX 80 17 81 18 89 19 82 21 88 22 83 23 84 24 85 25 86 26 87 27
REMARK SMILES IDX 10 28 11 29 12 30 13 31 14 32 15 33 76 34 16 35 75 36 17 37
REMARK SMILES IDX 18 38 19 39 69 40 20 41 74 42 68 43 70 44 21 45 73 46 67 47
REMARK SMILES IDX 66 48 22 50 54 51 34 52 53 53 35 54 38 55 52 56 71 57 36 58
REMARK SMILES IDX 37 59 51 61 72 62 39 63 23 64 24 65 32 66 25 67 27 68 33 69
REMARK SMILES IDX 26 70 28 71 29 72 30 73 31 74 55 75 56 76 64 77 57 78 59 79
REMARK SMILES IDX 65 80 58 81 60 82 61 83 62 84 63 85 40 86 41 87 49 88 42 89
REMARK SMILES IDX 44 90 50 91 43 92 45 93 46 94 47 95 48 96
REMARK H PARENT 1 14 1 15 1 16 80 20 70 49 38 60
REMARK Flexibility Score: inf
ROOT
ATOM      1  C   UNL A   1      35.890  21.074  25.220  1.00  0.00     0.202 C 
ENDROOT
BRANCH   1   2
ATOM      2  O   UNL A   1      35.711  21.718  26.479  1.00  0.00    -0.374 OA
BRANCH   2   3
ATOM      3  C   UNL A   1      35.026  22.974  26.468  1.00  0.00     0.202 C 
BRANCH   3   4
ATOM      4  C   UNL A   1      33.705  23.020  27.245  1.00  0.00     0.261 C 
BRANCH   4   5
ATOM      5  O   UNL A   1      32.602  23.331  26.374  1.00  0.00    -0.459 OA
BRANCH   5   6
ATOM      6  C   UNL A   1      32.719  24.465  25.641  1.00  0.00     0.368 C 
ATOM      7  O   UNL A   1      33.064  25.556  26.086  1.00  0.00    -0.245 OA
BRANCH   6   8
ATOM      8  C   UNL A   1      32.460  24.242  24.129  1.00  0.00     0.198 C 
ATOM      9  C   UNL A   1      33.670  23.865  23.263  1.00  0.00     0.087 C 
ATOM     10  C   UNL A   1      31.464  23.079  23.984  1.00  0.00     0.145 C 
ATOM     11  C   UNL A   1      33.108  22.906  22.220  1.00  0.00     0.072 C 
ATOM     12  C   UNL A   1      32.052  22.080  22.970  1.00  0.00     0.191 C 
BRANCH   8  13
ATOM     13  N   UNL A   1      31.825  25.470  23.569  1.00  0.00    -0.343 N 
ATOM     14  H   UNL A   1      31.020  25.208  22.998  1.00  0.00     0.345 HD
ATOM     15  H   UNL A   1      32.501  25.971  22.993  1.00  0.00     0.345 HD
ATOM     16  H   UNL A   1      31.518  26.072  24.333  1.00  0.00     0.345 HD
ENDBRANCH   8  13
BRANCH  12  17
ATOM     17  N   UNL A   1      32.503  20.784  23.518  1.00  0.00    -0.332 N 
ATOM     18  C   UNL A   1      32.202  20.524  24.928  1.00  0.00     0.263 C 
ATOM     19  C   UNL A   1      32.132  19.657  22.649  1.00  0.00     0.263 C 
ATOM     20  H   UNL A   1      33.519  20.873  23.517  1.00  0.00     0.348 HD
ATOM     21  C   UNL A   1      32.853  19.227  25.418  1.00  0.00     0.074 C 
ATOM     22  C   UNL A   1      32.786  18.352  23.086  1.00  0.00     0.074 C 
ATOM     23  C   UNL A   1      32.446  18.041  24.546  1.00  0.00     0.106 C 
BRANCH  23  24
ATOM     24  C   UNL A   1      33.115  16.756  24.991  1.00  0.00     0.392 C 
ATOM     25  F   UNL A   1      33.088  15.834  24.013  1.00  0.00    -0.171 F 
ATOM     26  F   UNL A   1      34.415  16.992  25.293  1.00  0.00    -0.171 F 
ATOM     27  F   UNL A   1      32.528  16.242  26.091  1.00  0.00    -0.171 F 
ENDBRANCH  23  24
ENDBRANCH  12  17
ENDBRANCH   6   8
ENDBRANCH   5   6
ENDBRANCH   4   5
ENDBRANCH   3   4
ENDBRANCH   2   3
ENDBRANCH   1   2
BRANCH   1  28
ATOM     28  C   UNL A   1      37.222  20.356  24.994  1.00  0.00     0.261 C 
BRANCH  28  29
ATOM     29  O   UNL A   1      38.328  21.273  25.026  1.00  0.00    -0.460 OA
BRANCH  29  30
ATOM     30  C   UNL A   1      39.252  20.991  25.973  1.00  0.00     0.338 C 
ATOM     31  O   UNL A   1      39.803  19.913  26.165  1.00  0.00    -0.246 OA
BRANCH  30  32
ATOM     32  C   UNL A   1      39.662  22.222  26.670  1.00  0.00     0.060 A 
ATOM     33  C   UNL A   1      38.994  23.403  26.320  1.00  0.00     0.016 A 
ATOM     34  C   UNL A   1      40.713  22.245  27.590  1.00  0.00     0.016 A 
ATOM     35  C   UNL A   1      39.422  24.623  26.832  1.00  0.00     0.010 A 
ATOM     36  C   UNL A   1      41.145  23.473  28.101  1.00  0.00     0.010 A 
ATOM     37  C   UNL A   1      40.530  24.670  27.688  1.00  0.00    -0.014 A 
BRANCH  37  38
ATOM     38  C   UNL A   1      41.136  25.984  28.008  1.00  0.00     0.031 A 
ATOM     39  C   UNL A   1      42.544  26.263  27.559  1.00  0.00     0.074 A 
ATOM     40  C   UNL A   1      40.427  26.927  28.652  1.00  0.00     0.049 A 
ATOM     41  N   UNL A   1      43.261  27.347  27.707  1.00  0.00    -0.248 NA
ATOM     42  C   UNL A   1      43.239  25.178  26.846  1.00  0.00     0.031 C 
ATOM     43  C   UNL A   1      39.051  26.776  29.126  1.00  0.00     0.029 A 
ATOM     44  N   UNL A   1      40.774  28.199  29.028  1.00  0.00    -0.354 N 
ATOM     45  C   UNL A   1      44.490  27.071  27.121  1.00  0.00     0.074 A 
ATOM     46  C   UNL A   1      44.434  25.710  26.636  1.00  0.00     0.031 C 
ATOM     47  C   UNL A   1      38.678  27.907  29.749  1.00  0.00     0.029 A 
ATOM     48  C   UNL A   1      39.791  28.854  29.731  1.00  0.00     0.049 A 
ATOM     49  H   UNL A   1      41.645  28.606  28.814  1.00  0.00     0.167 HD
ATOM     50  C   UNL A   1      45.563  27.886  26.977  1.00  0.00     0.034 A 
ATOM     51  C   UNL A   1      39.797  30.074  30.305  1.00  0.00     0.034 A 
ATOM     52  C   UNL A   1      45.611  29.244  27.446  1.00  0.00     0.049 A 
ATOM     53  C   UNL A   1      41.017  30.946  30.160  1.00  0.00     0.074 A 
ATOM     54  C   UNL A   1      46.643  30.158  27.330  1.00  0.00     0.029 A 
ATOM     55  N   UNL A   1      44.586  29.881  28.127  1.00  0.00    -0.354 N 
ATOM     56  N   UNL A   1      42.130  30.709  29.508  1.00  0.00    -0.248 NA
ATOM     57  C   UNL A   1      40.968  32.268  30.802  1.00  0.00     0.031 C 
ATOM     58  C   UNL A   1      46.246  31.345  27.955  1.00  0.00     0.029 A 
ATOM     59  C   UNL A   1      44.960  31.176  28.442  1.00  0.00     0.049 A 
ATOM     60  H   UNL A   1      43.720  29.473  28.353  1.00  0.00     0.167 HD
ATOM     61  C   UNL A   1      42.894  31.866  29.626  1.00  0.00     0.074 A 
ATOM     62  C   UNL A   1      42.108  32.808  30.396  1.00  0.00     0.031 C 
ATOM     63  C   UNL A   1      44.140  32.121  29.156  1.00  0.00     0.034 A 
BRANCH  50  64
ATOM     64  C   UNL A   1      46.759  27.339  26.245  1.00  0.00     0.023 A 
ATOM     65  C   UNL A   1      46.848  27.500  24.847  1.00  0.00     0.012 A 
ATOM     66  C   UNL A   1      47.817  26.717  26.937  1.00  0.00     0.148 A 
ATOM     67  C   UNL A   1      47.955  27.026  24.144  1.00  0.00     0.002 A 
ATOM     68  C   UNL A   1      48.936  26.284  26.236  1.00  0.00     0.091 A 
ATOM     69  F   UNL A   1      47.703  26.552  28.262  1.00  0.00    -0.205 F 
ATOM     70  C   UNL A   1      49.003  26.428  24.841  1.00  0.00     0.022 A 
BRANCH  68  71
ATOM     71  S   UNL A   1      50.368  25.564  27.048  1.00  0.00     0.127 S 
ATOM     72  O   UNL A   1      50.656  26.562  28.077  1.00  0.00    -0.237 OA
ATOM     73  O   UNL A   1      49.831  24.301  27.556  1.00  0.00    -0.237 OA
ATOM     74  O   UNL A   1      51.385  25.420  26.015  1.00  0.00    -0.744 OA
ENDBRANCH  68  71
ENDBRANCH  50  64
BRANCH  51  75
ATOM     75  C   UNL A   1      38.595  30.564  31.037  1.00  0.00     0.023 A 
ATOM     76  C   UNL A   1      38.483  30.334  32.421  1.00  0.00     0.012 A 
ATOM     77  C   UNL A   1      37.566  31.253  30.370  1.00  0.00     0.148 A 
ATOM     78  C   UNL A   1      37.351  30.752  33.122  1.00  0.00     0.002 A 
ATOM     79  C   UNL A   1      36.466  31.715  31.083  1.00  0.00     0.091 A 
ATOM     80  F   UNL A   1      37.679  31.443  29.047  1.00  0.00    -0.205 F 
ATOM     81  C   UNL A   1      36.348  31.451  32.456  1.00  0.00     0.022 A 
BRANCH  79  82
ATOM     82  S   UNL A   1      35.195  32.731  30.324  1.00  0.00     0.127 S 
ATOM     83  O   UNL A   1      34.246  32.894  31.422  1.00  0.00    -0.237 OA
ATOM     84  O   UNL A   1      35.942  33.939  29.970  1.00  0.00    -0.237 OA
ATOM     85  O   UNL A   1      34.722  31.963  29.180  1.00  0.00    -0.744 OA
ENDBRANCH  79  82
ENDBRANCH  51  75
BRANCH  63  86
ATOM     86  C   UNL A   1      44.721  33.485  29.420  1.00  0.00     0.023 A 
ATOM     87  C   UNL A   1      45.465  33.714  30.594  1.00  0.00     0.012 A 
ATOM     88  C   UNL A   1      44.588  34.520  28.472  1.00  0.00     0.148 A 
ATOM     89  C   UNL A   1      46.038  34.962  30.838  1.00  0.00     0.002 A 
ATOM     90  C   UNL A   1      45.204  35.745  28.698  1.00  0.00     0.091 A 
ATOM     91  F   UNL A   1      43.861  34.289  27.369  1.00  0.00    -0.205 F 
ATOM     92  C   UNL A   1      45.919  35.973  29.886  1.00  0.00     0.022 A 
BRANCH  90  93
ATOM     93  S   UNL A   1      45.180  37.070  27.486  1.00  0.00     0.127 S 
ATOM     94  O   UNL A   1      45.877  38.140  28.198  1.00  0.00    -0.237 OA
ATOM     95  O   UNL A   1      45.932  36.487  26.373  1.00  0.00    -0.237 OA
ATOM     96  O   UNL A   1      43.775  37.321  27.195  1.00  0.00    -0.744 OA
ENDBRANCH  90  93
ENDBRANCH  63  86
ENDBRANCH  37  38
ENDBRANCH  30  32
ENDBRANCH  29  30
ENDBRANCH  28  29
ENDBRANCH   1  28
TORSDOF 20
ENDMDL
