MODEL 1
REMARK VINA RESULT:     -11.8      0.000      0.000
REMARK SMILES Cc1ccc2cc(C[N@H+]3CC[NH2+][C@H](C(=O)OCCOCCOC(=O)c4ccc(-c5c6nc(c(-c7cccc(S(=O)(=O)[O-])c7F)c7ccc([nH]7)c(-c7cccc(S(=O)(=O)[O-])c7F)c7nc(c(-c8cccc(S(=O)(=O)[O-])c8F)c8ccc5[nH]8)C=C7)C=C6)cc4)C3)c(N3CCOCC3)nc2c1
REMARK SMILES IDX 19 1 18 2 17 3 16 4 14 5 15 6 13 7 9 8 10 9 88 10 11 12
REMARK SMILES IDX 12 13 8 16 7 17 1 18 2 19 3 20 98 21 4 22 97 23 5 24 96 25
REMARK SMILES IDX 6 26 89 27 90 28 91 29 95 30 92 31 94 32 93 33 20 34 21 35
REMARK SMILES IDX 22 36 23 37 24 38 25 39 26 40 87 41 27 42 86 43 28 44 29 45
REMARK SMILES IDX 30 46 80 47 31 48 85 49 79 50 81 51 32 52 84 53 78 54 77 55
REMARK SMILES IDX 33 57 65 58 45 59 64 60 46 61 49 62 63 63 82 64 47 65 48 66
REMARK SMILES IDX 62 68 83 69 50 70 34 71 35 72 43 73 36 74 38 75 44 76 37 77
REMARK SMILES IDX 39 78 40 79 41 80 42 81 66 82 67 83 75 84 68 85 70 86 76 87
REMARK SMILES IDX 69 88 71 89 72 90 73 91 74 92 51 93 52 94 60 95 53 96 55 97
REMARK SMILES IDX 61 98 54 99 56 100 57 101 58 102 59 103
REMARK H PARENT 9 11 12 14 12 15 81 56 49 67
REMARK Flexibility Score: inf
ROOT
ATOM      1  O   UNL A   1      37.500  22.199  25.637  1.00  0.00    -0.374 OA
ENDROOT
BRANCH   1   2
ATOM      2  C   UNL A   1      36.860  22.902  24.570  1.00  0.00     0.202 C 
BRANCH   2   3
ATOM      3  C   UNL A   1      35.348  23.154  24.694  1.00  0.00     0.261 C 
BRANCH   3   4
ATOM      4  O   UNL A   1      35.025  24.128  25.701  1.00  0.00    -0.459 OA
BRANCH   4   5
ATOM      5  C   UNL A   1      33.789  24.013  26.268  1.00  0.00     0.371 C 
ATOM      6  O   UNL A   1      33.457  23.125  27.045  1.00  0.00    -0.245 OA
BRANCH   5   7
ATOM      7  C   UNL A   1      32.874  25.181  25.860  1.00  0.00     0.348 C 
ATOM      8  N   UNL A   1      32.821  27.740  26.161  1.00  0.00    -0.321 N 
ATOM      9  C   UNL A   1      31.475  27.553  26.715  1.00  0.00     0.324 C 
ATOM     10  C   UNL A   1      33.612  26.507  26.207  1.00  0.00     0.341 C 
ATOM     11  H   UNL A   1      33.287  28.373  26.811  1.00  0.00     0.348 HD
ATOM     12  C   UNL A   1      30.760  26.255  26.269  1.00  0.00     0.323 C 
ATOM     13  N   UNL A   1      31.558  25.046  26.533  1.00  0.00    -0.325 N 
ATOM     14  H   UNL A   1      31.070  24.228  26.169  1.00  0.00     0.347 HD
ATOM     15  H   UNL A   1      31.695  24.934  27.538  1.00  0.00     0.347 HD
BRANCH   8  16
ATOM     16  C   UNL A   1      32.947  28.579  24.964  1.00  0.00     0.303 C 
BRANCH  16  17
ATOM     17  C   UNL A   1      31.693  28.888  24.178  1.00  0.00     0.049 A 
ATOM     18  C   UNL A   1      27.639  32.394  20.606  1.00  0.00     0.044 C 
ATOM     19  C   UNL A   1      28.343  31.642  21.696  1.00  0.00    -0.049 A 
ATOM     20  C   UNL A   1      28.326  32.141  22.997  1.00  0.00     0.004 A 
ATOM     21  C   UNL A   1      29.026  30.439  21.439  1.00  0.00     0.032 A 
ATOM     22  C   UNL A   1      29.081  31.517  23.982  1.00  0.00     0.010 A 
ATOM     23  C   UNL A   1      29.802  29.805  22.408  1.00  0.00     0.073 A 
ATOM     24  C   UNL A   1      29.901  30.426  23.662  1.00  0.00     0.001 A 
ATOM     25  N   UNL A   1      30.453  28.655  22.134  1.00  0.00    -0.230 NA
ATOM     26  C   UNL A   1      30.893  29.974  24.535  1.00  0.00     0.023 A 
ATOM     27  C   UNL A   1      31.325  28.157  23.039  1.00  0.00     0.138 A 
BRANCH  27  28
ATOM     28  N   UNL A   1      31.860  26.896  22.824  1.00  0.00    -0.352 N 
ATOM     29  C   UNL A   1      30.902  25.808  22.575  1.00  0.00     0.146 C 
ATOM     30  C   UNL A   1      33.087  26.763  22.036  1.00  0.00     0.146 C 
ATOM     31  C   UNL A   1      31.592  24.477  22.906  1.00  0.00     0.181 C 
ATOM     32  C   UNL A   1      33.707  25.386  22.356  1.00  0.00     0.181 C 
ATOM     33  O   UNL A   1      32.784  24.303  22.120  1.00  0.00    -0.378 OA
ENDBRANCH  27  28
ENDBRANCH  16  17
ENDBRANCH   8  16
ENDBRANCH   5   7
ENDBRANCH   4   5
ENDBRANCH   3   4
ENDBRANCH   2   3
ENDBRANCH   1   2
BRANCH   1  34
ATOM     34  C   UNL A   1      38.226  21.023  25.305  1.00  0.00     0.202 C 
BRANCH  34  35
ATOM     35  C   UNL A   1      39.441  20.663  26.164  1.00  0.00     0.261 C 
BRANCH  35  36
ATOM     36  O   UNL A   1      40.202  19.560  25.678  1.00  0.00    -0.460 OA
BRANCH  36  37
ATOM     37  C   UNL A   1      41.491  19.524  26.088  1.00  0.00     0.338 C 
ATOM     38  O   UNL A   1      42.214  18.549  26.199  1.00  0.00    -0.246 OA
BRANCH  37  39
ATOM     39  C   UNL A   1      41.872  20.895  26.450  1.00  0.00     0.060 A 
ATOM     40  C   UNL A   1      41.945  21.852  25.438  1.00  0.00     0.016 A 
ATOM     41  C   UNL A   1      42.156  21.224  27.779  1.00  0.00     0.016 A 
ATOM     42  C   UNL A   1      42.336  23.152  25.757  1.00  0.00     0.010 A 
ATOM     43  C   UNL A   1      42.530  22.530  28.097  1.00  0.00     0.010 A 
ATOM     44  C   UNL A   1      42.629  23.499  27.087  1.00  0.00    -0.014 A 
BRANCH  44  45
ATOM     45  C   UNL A   1      42.974  24.896  27.432  1.00  0.00     0.031 A 
ATOM     46  C   UNL A   1      44.358  25.424  27.206  1.00  0.00     0.074 A 
ATOM     47  C   UNL A   1      42.026  25.679  27.979  1.00  0.00     0.049 A 
ATOM     48  N   UNL A   1      44.830  26.618  27.454  1.00  0.00    -0.248 NA
ATOM     49  C   UNL A   1      45.343  24.493  26.634  1.00  0.00     0.031 C 
ATOM     50  C   UNL A   1      40.655  25.255  28.268  1.00  0.00     0.029 A 
ATOM     51  N   UNL A   1      42.069  26.984  28.394  1.00  0.00    -0.354 N 
ATOM     52  C   UNL A   1      46.165  26.585  27.075  1.00  0.00     0.074 A 
ATOM     53  C   UNL A   1      46.436  25.244  26.600  1.00  0.00     0.031 C 
ATOM     54  C   UNL A   1      39.983  26.285  28.804  1.00  0.00     0.029 A 
ATOM     55  C   UNL A   1      40.881  27.432  28.915  1.00  0.00     0.049 A 
ATOM     56  H   UNL A   1      42.875  27.545  28.326  1.00  0.00     0.167 HD
ATOM     57  C   UNL A   1      47.073  27.589  27.096  1.00  0.00     0.034 A 
ATOM     58  C   UNL A   1      40.546  28.635  29.423  1.00  0.00     0.034 A 
ATOM     59  C   UNL A   1      46.790  28.924  27.553  1.00  0.00     0.049 A 
ATOM     60  C   UNL A   1      41.571  29.731  29.444  1.00  0.00     0.074 A 
ATOM     61  C   UNL A   1      47.638  30.017  27.590  1.00  0.00     0.029 A 
ATOM     62  N   UNL A   1      45.568  29.347  28.053  1.00  0.00    -0.354 N 
ATOM     63  N   UNL A   1      42.806  29.705  29.007  1.00  0.00    -0.248 NA
ATOM     64  C   UNL A   1      41.154  31.025  30.003  1.00  0.00     0.031 C 
ATOM     65  C   UNL A   1      46.928  31.102  28.115  1.00  0.00     0.029 A 
ATOM     66  C   UNL A   1      45.637  30.686  28.398  1.00  0.00     0.049 A 
ATOM     67  H   UNL A   1      44.770  28.779  28.149  1.00  0.00     0.167 HD
ATOM     68  C   UNL A   1      43.312  30.980  29.219  1.00  0.00     0.074 A 
ATOM     69  C   UNL A   1      42.244  31.759  29.816  1.00  0.00     0.031 C 
ATOM     70  C   UNL A   1      44.553  31.457  28.954  1.00  0.00     0.034 A 
BRANCH  57  71
ATOM     71  C   UNL A   1      48.443  27.303  26.547  1.00  0.00     0.023 A 
ATOM     72  C   UNL A   1      49.414  26.739  27.399  1.00  0.00     0.012 A 
ATOM     73  C   UNL A   1      48.754  27.524  25.192  1.00  0.00     0.148 A 
ATOM     74  C   UNL A   1      50.680  26.415  26.916  1.00  0.00     0.002 A 
ATOM     75  C   UNL A   1      50.012  27.173  24.711  1.00  0.00     0.091 A 
ATOM     76  F   UNL A   1      47.822  28.078  24.404  1.00  0.00    -0.205 F 
ATOM     77  C   UNL A   1      50.976  26.624  25.572  1.00  0.00     0.022 A 
BRANCH  75  78
ATOM     78  S   UNL A   1      50.478  27.358  22.985  1.00  0.00     0.127 S 
ATOM     79  O   UNL A   1      50.491  28.812  22.839  1.00  0.00    -0.237 OA
ATOM     80  O   UNL A   1      51.800  26.731  22.955  1.00  0.00    -0.237 OA
ATOM     81  O   UNL A   1      49.456  26.662  22.216  1.00  0.00    -0.744 OA
ENDBRANCH  75  78
ENDBRANCH  57  71
BRANCH  58  82
ATOM     82  C   UNL A   1      39.143  28.859  29.860  1.00  0.00     0.023 A 
ATOM     83  C   UNL A   1      38.819  28.683  31.218  1.00  0.00     0.012 A 
ATOM     84  C   UNL A   1      38.172  29.364  28.974  1.00  0.00     0.148 A 
ATOM     85  C   UNL A   1      37.549  29.014  31.690  1.00  0.00     0.002 A 
ATOM     86  C   UNL A   1      36.922  29.727  29.458  1.00  0.00     0.091 A 
ATOM     87  F   UNL A   1      38.514  29.528  27.688  1.00  0.00    -0.205 F 
ATOM     88  C   UNL A   1      36.605  29.545  30.815  1.00  0.00     0.022 A 
BRANCH  86  89
ATOM     89  S   UNL A   1      35.675  30.519  28.437  1.00  0.00     0.127 S 
ATOM     90  O   UNL A   1      34.906  31.268  29.428  1.00  0.00    -0.237 OA
ATOM     91  O   UNL A   1      36.499  31.338  27.547  1.00  0.00    -0.237 OA
ATOM     92  O   UNL A   1      34.952  29.438  27.779  1.00  0.00    -0.744 OA
ENDBRANCH  86  89
ENDBRANCH  58  82
BRANCH  70  93
ATOM     93  C   UNL A   1      44.845  32.891  29.299  1.00  0.00     0.023 A 
ATOM     94  C   UNL A   1      45.369  33.201  30.567  1.00  0.00     0.012 A 
ATOM     95  C   UNL A   1      44.720  33.904  28.328  1.00  0.00     0.148 A 
ATOM     96  C   UNL A   1      45.763  34.504  30.870  1.00  0.00     0.002 A 
ATOM     97  C   UNL A   1      45.144  35.194  28.625  1.00  0.00     0.091 A 
ATOM     98  F   UNL A   1      44.209  33.582  27.132  1.00  0.00    -0.205 F 
ATOM     99  C   UNL A   1      45.662  35.496  29.896  1.00  0.00     0.022 A 
BRANCH  97 100
ATOM    100  S   UNL A   1      45.123  36.524  27.418  1.00  0.00     0.127 S 
ATOM    101  O   UNL A   1      43.695  36.641  27.129  1.00  0.00    -0.237 OA
ATOM    102  O   UNL A   1      45.686  37.639  28.179  1.00  0.00    -0.237 OA
ATOM    103  O   UNL A   1      45.945  36.071  26.304  1.00  0.00    -0.744 OA
ENDBRANCH  97 100
ENDBRANCH  70  93
ENDBRANCH  44  45
ENDBRANCH  37  39
ENDBRANCH  36  37
ENDBRANCH  35  36
ENDBRANCH  34  35
ENDBRANCH   1  34
TORSDOF 20
ENDMDL
MODEL 2
REMARK VINA RESULT:     -11.7      2.499      4.890
REMARK SMILES Cc1ccc2cc(C[N@H+]3CC[NH2+][C@H](C(=O)OCCOCCOC(=O)c4ccc(-c5c6nc(c(-c7cccc(S(=O)(=O)[O-])c7F)c7ccc([nH]7)c(-c7cccc(S(=O)(=O)[O-])c7F)c7nc(c(-c8cccc(S(=O)(=O)[O-])c8F)c8ccc5[nH]8)C=C7)C=C6)cc4)C3)c(N3CCOCC3)nc2c1
REMARK SMILES IDX 19 1 18 2 17 3 16 4 14 5 15 6 13 7 9 8 10 9 88 10 11 12
REMARK SMILES IDX 12 13 8 16 7 17 1 18 2 19 3 20 98 21 4 22 97 23 5 24 96 25
REMARK SMILES IDX 6 26 89 27 90 28 91 29 95 30 92 31 94 32 93 33 20 34 21 35
REMARK SMILES IDX 22 36 23 37 24 38 25 39 26 40 87 41 27 42 86 43 28 44 29 45
REMARK SMILES IDX 30 46 80 47 31 48 85 49 79 50 81 51 32 52 84 53 78 54 77 55
REMARK SMILES IDX 33 57 65 58 45 59 64 60 46 61 49 62 63 63 82 64 47 65 48 66
REMARK SMILES IDX 62 68 83 69 50 70 34 71 35 72 43 73 36 74 38 75 44 76 37 77
REMARK SMILES IDX 39 78 40 79 41 80 42 81 66 82 67 83 75 84 68 85 70 86 76 87
REMARK SMILES IDX 69 88 71 89 72 90 73 91 74 92 51 93 52 94 60 95 53 96 55 97
REMARK SMILES IDX 61 98 54 99 56 100 57 101 58 102 59 103
REMARK H PARENT 9 11 12 14 12 15 81 56 49 67
REMARK Flexibility Score: inf
ROOT
ATOM      1  O   UNL A   1      37.719  19.821  25.007  1.00  0.00    -0.374 OA
ENDROOT
BRANCH   1   2
ATOM      2  C   UNL A   1      36.578  20.641  24.743  1.00  0.00     0.202 C 
BRANCH   2   3
ATOM      3  C   UNL A   1      36.274  21.774  25.739  1.00  0.00     0.261 C 
BRANCH   3   4
ATOM      4  O   UNL A   1      36.613  23.073  25.225  1.00  0.00    -0.459 OA
BRANCH   4   5
ATOM      5  C   UNL A   1      36.206  23.335  23.948  1.00  0.00     0.371 C 
ATOM      6  O   UNL A   1      36.935  23.299  22.963  1.00  0.00    -0.245 OA
BRANCH   5   7
ATOM      7  C   UNL A   1      34.696  23.622  23.888  1.00  0.00     0.348 C 
ATOM      8  N   UNL A   1      32.749  23.185  22.258  1.00  0.00    -0.321 N 
ATOM      9  C   UNL A   1      32.500  24.630  22.316  1.00  0.00     0.324 C 
ATOM     10  C   UNL A   1      34.112  22.843  22.673  1.00  0.00     0.341 C 
ATOM     11  H   UNL A   1      32.712  22.952  21.266  1.00  0.00     0.348 HD
ATOM     12  C   UNL A   1      33.033  25.335  23.586  1.00  0.00     0.323 C 
ATOM     13  N   UNL A   1      34.466  25.086  23.816  1.00  0.00    -0.325 N 
ATOM     14  H   UNL A   1      34.753  25.521  24.692  1.00  0.00     0.347 HD
ATOM     15  H   UNL A   1      35.013  25.483  23.051  1.00  0.00     0.347 HD
BRANCH   8  16
ATOM     16  C   UNL A   1      31.667  22.296  22.697  1.00  0.00     0.303 C 
BRANCH  16  17
ATOM     17  C   UNL A   1      32.038  21.068  23.497  1.00  0.00     0.049 A 
ATOM     18  C   UNL A   1      35.451  15.855  25.129  1.00  0.00     0.044 C 
ATOM     19  C   UNL A   1      34.421  16.825  24.631  1.00  0.00    -0.049 A 
ATOM     20  C   UNL A   1      33.717  16.540  23.462  1.00  0.00     0.004 A 
ATOM     21  C   UNL A   1      34.146  18.023  25.315  1.00  0.00     0.032 A 
ATOM     22  C   UNL A   1      32.856  17.492  22.930  1.00  0.00     0.010 A 
ATOM     23  C   UNL A   1      33.298  18.998  24.792  1.00  0.00     0.073 A 
ATOM     24  C   UNL A   1      32.736  18.754  23.531  1.00  0.00     0.001 A 
ATOM     25  N   UNL A   1      33.056  20.142  25.466  1.00  0.00    -0.230 NA
ATOM     26  C   UNL A   1      32.133  19.825  22.868  1.00  0.00     0.023 A 
ATOM     27  C   UNL A   1      32.364  21.133  24.859  1.00  0.00     0.138 A 
BRANCH  27  28
ATOM     28  N   UNL A   1      31.977  22.231  25.611  1.00  0.00    -0.352 N 
ATOM     29  C   UNL A   1      30.544  22.343  25.923  1.00  0.00     0.146 C 
ATOM     30  C   UNL A   1      32.833  22.686  26.709  1.00  0.00     0.146 C 
ATOM     31  C   UNL A   1      30.238  23.813  26.248  1.00  0.00     0.181 C 
ATOM     32  C   UNL A   1      32.445  24.143  27.039  1.00  0.00     0.181 C 
ATOM     33  O   UNL A   1      31.042  24.277  27.346  1.00  0.00    -0.378 OA
ENDBRANCH  27  28
ENDBRANCH  16  17
ENDBRANCH   8  16
ENDBRANCH   5   7
ENDBRANCH   4   5
ENDBRANCH   3   4
ENDBRANCH   2   3
ENDBRANCH   1   2
BRANCH   1  34
ATOM     34  C   UNL A   1      38.920  20.475  25.395  1.00  0.00     0.202 C 
BRANCH  34  35
ATOM     35  C   UNL A   1      39.945  19.673  26.201  1.00  0.00     0.261 C 
BRANCH  35  36
ATOM     36  O   UNL A   1      41.089  19.260  25.456  1.00  0.00    -0.460 OA
BRANCH  36  37
ATOM     37  C   UNL A   1      42.262  19.305  26.131  1.00  0.00     0.338 C 
ATOM     38  O   UNL A   1      42.958  18.369  26.484  1.00  0.00    -0.246 OA
BRANCH  37  39
ATOM     39  C   UNL A   1      42.538  20.715  26.432  1.00  0.00     0.060 A 
ATOM     40  C   UNL A   1      42.554  21.117  27.768  1.00  0.00     0.016 A 
ATOM     41  C   UNL A   1      42.776  21.627  25.399  1.00  0.00     0.016 A 
ATOM     42  C   UNL A   1      42.784  22.458  28.073  1.00  0.00     0.010 A 
ATOM     43  C   UNL A   1      43.022  22.965  25.709  1.00  0.00     0.010 A 
ATOM     44  C   UNL A   1      43.019  23.389  27.047  1.00  0.00    -0.014 A 
BRANCH  44  45
ATOM     45  C   UNL A   1      43.333  24.797  27.377  1.00  0.00     0.031 A 
ATOM     46  C   UNL A   1      44.712  25.346  27.169  1.00  0.00     0.074 A 
ATOM     47  C   UNL A   1      42.361  25.571  27.894  1.00  0.00     0.049 A 
ATOM     48  N   UNL A   1      45.158  26.552  27.406  1.00  0.00    -0.248 NA
ATOM     49  C   UNL A   1      45.723  24.424  26.629  1.00  0.00     0.031 C 
ATOM     50  C   UNL A   1      40.993  25.127  28.164  1.00  0.00     0.029 A 
ATOM     51  N   UNL A   1      42.374  26.883  28.290  1.00  0.00    -0.354 N 
ATOM     52  C   UNL A   1      46.501  26.536  27.053  1.00  0.00     0.074 A 
ATOM     53  C   UNL A   1      46.804  25.194  26.605  1.00  0.00     0.031 C 
ATOM     54  C   UNL A   1      40.293  26.154  28.670  1.00  0.00     0.029 A 
ATOM     55  C   UNL A   1      41.168  27.318  28.781  1.00  0.00     0.049 A 
ATOM     56  H   UNL A   1      43.171  27.457  28.228  1.00  0.00     0.167 HD
ATOM     57  C   UNL A   1      47.390  27.557  27.076  1.00  0.00     0.034 A 
ATOM     58  C   UNL A   1      40.803  28.522  29.263  1.00  0.00     0.034 A 
ATOM     59  C   UNL A   1      47.076  28.893  27.507  1.00  0.00     0.049 A 
ATOM     60  C   UNL A   1      41.808  29.636  29.287  1.00  0.00     0.074 A 
ATOM     61  C   UNL A   1      47.903  30.001  27.542  1.00  0.00     0.029 A 
ATOM     62  N   UNL A   1      45.837  29.303  27.977  1.00  0.00    -0.354 N 
ATOM     63  N   UNL A   1      43.051  29.626  28.874  1.00  0.00    -0.248 NA
ATOM     64  C   UNL A   1      41.358  30.931  29.818  1.00  0.00     0.031 C 
ATOM     65  C   UNL A   1      47.165  31.082  28.038  1.00  0.00     0.029 A 
ATOM     66  C   UNL A   1      45.875  30.647  28.303  1.00  0.00     0.049 A 
ATOM     67  H   UNL A   1      45.047  28.722  28.067  1.00  0.00     0.167 HD
ATOM     68  C   UNL A   1      43.531  30.913  29.076  1.00  0.00     0.074 A 
ATOM     69  C   UNL A   1      42.438  31.682  29.640  1.00  0.00     0.031 C 
ATOM     70  C   UNL A   1      44.768  31.407  28.827  1.00  0.00     0.034 A 
BRANCH  57  71
ATOM     71  C   UNL A   1      48.775  27.287  26.557  1.00  0.00     0.023 A 
ATOM     72  C   UNL A   1      49.719  26.687  27.416  1.00  0.00     0.012 A 
ATOM     73  C   UNL A   1      49.127  27.558  25.221  1.00  0.00     0.148 A 
ATOM     74  C   UNL A   1      50.998  26.378  26.958  1.00  0.00     0.002 A 
ATOM     75  C   UNL A   1      50.397  27.222  24.765  1.00  0.00     0.091 A 
ATOM     76  F   UNL A   1      48.220  28.145  24.428  1.00  0.00    -0.205 F 
ATOM     77  C   UNL A   1      51.334  26.637  25.632  1.00  0.00     0.022 A 
BRANCH  75  78
ATOM     78  S   UNL A   1      50.916  27.470  23.062  1.00  0.00     0.127 S 
ATOM     79  O   UNL A   1      52.229  26.827  23.059  1.00  0.00    -0.237 OA
ATOM     80  O   UNL A   1      49.883  26.750  22.317  1.00  0.00    -0.237 OA
ATOM     81  O   UNL A   1      50.926  28.910  22.851  1.00  0.00    -0.744 OA
ENDBRANCH  75  78
ENDBRANCH  57  71
BRANCH  58  82
ATOM     82  C   UNL A   1      39.388  28.728  29.671  1.00  0.00     0.023 A 
ATOM     83  C   UNL A   1      39.010  28.420  30.991  1.00  0.00     0.012 A 
ATOM     84  C   UNL A   1      38.460  29.340  28.808  1.00  0.00     0.148 A 
ATOM     85  C   UNL A   1      37.728  28.726  31.449  1.00  0.00     0.002 A 
ATOM     86  C   UNL A   1      37.198  29.677  29.281  1.00  0.00     0.091 A 
ATOM     87  F   UNL A   1      38.852  29.629  27.558  1.00  0.00    -0.205 F 
ATOM     88  C   UNL A   1      36.827  29.363  30.600  1.00  0.00     0.022 A 
BRANCH  86  89
ATOM     89  S   UNL A   1      36.003  30.594  28.303  1.00  0.00     0.127 S 
ATOM     90  O   UNL A   1      34.969  30.889  29.292  1.00  0.00    -0.237 OA
ATOM     91  O   UNL A   1      36.795  31.748  27.877  1.00  0.00    -0.237 OA
ATOM     92  O   UNL A   1      35.596  29.700  27.228  1.00  0.00    -0.744 OA
ENDBRANCH  86  89
ENDBRANCH  58  82
BRANCH  70  93
ATOM     93  C   UNL A   1      45.028  32.852  29.154  1.00  0.00     0.023 A 
ATOM     94  C   UNL A   1      45.568  33.186  30.410  1.00  0.00     0.012 A 
ATOM     95  C   UNL A   1      44.859  33.853  28.178  1.00  0.00     0.148 A 
ATOM     96  C   UNL A   1      45.933  34.501  30.695  1.00  0.00     0.002 A 
ATOM     97  C   UNL A   1      45.254  35.156  28.457  1.00  0.00     0.091 A 
ATOM     98  F   UNL A   1      44.333  33.507  26.994  1.00  0.00    -0.205 F 
ATOM     99  C   UNL A   1      45.788  35.482  29.716  1.00  0.00     0.022 A 
BRANCH  97 100
ATOM    100  S   UNL A   1      45.175  36.475  27.240  1.00  0.00     0.127 S 
ATOM    101  O   UNL A   1      43.742  36.534  26.959  1.00  0.00    -0.237 OA
ATOM    102  O   UNL A   1      45.699  37.617  27.990  1.00  0.00    -0.237 OA
ATOM    103  O   UNL A   1      46.007  36.046  26.124  1.00  0.00    -0.744 OA
ENDBRANCH  97 100
ENDBRANCH  70  93
ENDBRANCH  44  45
ENDBRANCH  37  39
ENDBRANCH  36  37
ENDBRANCH  35  36
ENDBRANCH  34  35
ENDBRANCH   1  34
TORSDOF 20
ENDMDL
MODEL 3
REMARK VINA RESULT:     -11.6      6.803     11.930
REMARK SMILES Cc1ccc2cc(C[N@H+]3CC[NH2+][C@H](C(=O)OCCOCCOC(=O)c4ccc(-c5c6nc(c(-c7cccc(S(=O)(=O)[O-])c7F)c7ccc([nH]7)c(-c7cccc(S(=O)(=O)[O-])c7F)c7nc(c(-c8cccc(S(=O)(=O)[O-])c8F)c8ccc5[nH]8)C=C7)C=C6)cc4)C3)c(N3CCOCC3)nc2c1
REMARK SMILES IDX 19 1 18 2 17 3 16 4 14 5 15 6 13 7 9 8 10 9 88 10 11 12
REMARK SMILES IDX 12 13 8 16 7 17 1 18 2 19 3 20 98 21 4 22 97 23 5 24 96 25
REMARK SMILES IDX 6 26 89 27 90 28 91 29 95 30 92 31 94 32 93 33 20 34 21 35
REMARK SMILES IDX 22 36 23 37 24 38 25 39 26 40 87 41 27 42 86 43 28 44 29 45
REMARK SMILES IDX 30 46 80 47 31 48 85 49 79 50 81 51 32 52 84 53 78 54 77 55
REMARK SMILES IDX 33 57 65 58 45 59 64 60 46 61 49 62 63 63 82 64 47 65 48 66
REMARK SMILES IDX 62 68 83 69 50 70 34 71 35 72 43 73 36 74 38 75 44 76 37 77
REMARK SMILES IDX 39 78 40 79 41 80 42 81 66 82 67 83 75 84 68 85 70 86 76 87
REMARK SMILES IDX 69 88 71 89 72 90 73 91 74 92 51 93 52 94 60 95 53 96 55 97
REMARK SMILES IDX 61 98 54 99 56 100 57 101 58 102 59 103
REMARK H PARENT 9 11 12 14 12 15 81 56 49 67
REMARK Flexibility Score: inf
ROOT
ATOM      1  O   UNL A   1      34.564  34.654  27.973  1.00  0.00    -0.374 OA
ENDROOT
BRANCH   1   2
ATOM      2  C   UNL A   1      35.662  34.296  28.816  1.00  0.00     0.202 C 
BRANCH   2   3
ATOM      3  C   UNL A   1      36.332  32.934  28.566  1.00  0.00     0.261 C 
BRANCH   3   4
ATOM      4  O   UNL A   1      35.457  31.825  28.831  1.00  0.00    -0.459 OA
BRANCH   4   5
ATOM      5  C   UNL A   1      35.584  30.751  27.998  1.00  0.00     0.371 C 
ATOM      6  O   UNL A   1      36.652  30.297  27.602  1.00  0.00    -0.245 OA
BRANCH   5   7
ATOM      7  C   UNL A   1      34.215  30.135  27.664  1.00  0.00     0.348 C 
ATOM      8  N   UNL A   1      33.245  28.503  25.921  1.00  0.00    -0.321 N 
ATOM      9  C   UNL A   1      32.272  29.558  25.613  1.00  0.00     0.324 C 
ATOM     10  C   UNL A   1      34.438  29.032  26.589  1.00  0.00     0.341 C 
ATOM     11  H   UNL A   1      33.577  28.179  25.012  1.00  0.00     0.348 HD
ATOM     12  C   UNL A   1      32.032  30.578  26.752  1.00  0.00     0.323 C 
ATOM     13  N   UNL A   1      33.278  31.201  27.230  1.00  0.00    -0.325 N 
ATOM     14  H   UNL A   1      33.073  31.818  28.015  1.00  0.00     0.347 HD
ATOM     15  H   UNL A   1      33.702  31.746  26.478  1.00  0.00     0.347 HD
BRANCH   8  16
ATOM     16  C   UNL A   1      32.721  27.218  26.395  1.00  0.00     0.303 C 
BRANCH  16  17
ATOM     17  C   UNL A   1      33.081  25.973  25.616  1.00  0.00     0.049 A 
ATOM     18  C   UNL A   1      34.153  19.702  24.612  1.00  0.00     0.044 C 
ATOM     19  C   UNL A   1      34.262  21.182  24.828  1.00  0.00    -0.049 A 
ATOM     20  C   UNL A   1      35.313  21.691  25.588  1.00  0.00     0.004 A 
ATOM     21  C   UNL A   1      33.323  22.077  24.282  1.00  0.00     0.032 A 
ATOM     22  C   UNL A   1      35.345  23.046  25.897  1.00  0.00     0.010 A 
ATOM     23  C   UNL A   1      33.328  23.437  24.590  1.00  0.00     0.073 A 
ATOM     24  C   UNL A   1      34.299  23.889  25.495  1.00  0.00     0.001 A 
ATOM     25  N   UNL A   1      32.412  24.273  24.058  1.00  0.00    -0.230 NA
ATOM     26  C   UNL A   1      34.139  25.166  26.038  1.00  0.00     0.023 A 
ATOM     27  C   UNL A   1      32.342  25.547  24.504  1.00  0.00     0.138 A 
BRANCH  27  28
ATOM     28  N   UNL A   1      31.517  26.441  23.838  1.00  0.00    -0.352 N 
ATOM     29  C   UNL A   1      32.076  27.087  22.641  1.00  0.00     0.146 C 
ATOM     30  C   UNL A   1      30.091  26.136  23.704  1.00  0.00     0.146 C 
ATOM     31  C   UNL A   1      31.290  28.380  22.383  1.00  0.00     0.181 C 
ATOM     32  C   UNL A   1      29.354  27.454  23.383  1.00  0.00     0.181 C 
ATOM     33  O   UNL A   1      29.887  28.107  22.213  1.00  0.00    -0.378 OA
ENDBRANCH  27  28
ENDBRANCH  16  17
ENDBRANCH   8  16
ENDBRANCH   5   7
ENDBRANCH   4   5
ENDBRANCH   3   4
ENDBRANCH   2   3
ENDBRANCH   1   2
BRANCH   1  34
ATOM     34  C   UNL A   1      33.264  34.630  28.547  1.00  0.00     0.202 C 
BRANCH  34  35
ATOM     35  C   UNL A   1      32.956  35.626  29.668  1.00  0.00     0.261 C 
BRANCH  35  36
ATOM     36  O   UNL A   1      32.489  35.030  30.876  1.00  0.00    -0.460 OA
BRANCH  36  37
ATOM     37  C   UNL A   1      32.897  35.639  32.014  1.00  0.00     0.338 C 
ATOM     38  O   UNL A   1      32.403  36.611  32.560  1.00  0.00    -0.246 OA
BRANCH  37  39
ATOM     39  C   UNL A   1      34.112  34.952  32.465  1.00  0.00     0.060 A 
ATOM     40  C   UNL A   1      33.977  33.740  33.142  1.00  0.00     0.016 A 
ATOM     41  C   UNL A   1      35.373  35.506  32.220  1.00  0.00     0.016 A 
ATOM     42  C   UNL A   1      35.118  33.087  33.606  1.00  0.00     0.010 A 
ATOM     43  C   UNL A   1      36.513  34.842  32.671  1.00  0.00     0.010 A 
ATOM     44  C   UNL A   1      36.392  33.633  33.373  1.00  0.00    -0.014 A 
BRANCH  44  45
ATOM     45  C   UNL A   1      37.604  32.902  33.804  1.00  0.00     0.031 A 
ATOM     46  C   UNL A   1      38.343  33.304  35.045  1.00  0.00     0.074 A 
ATOM     47  C   UNL A   1      38.048  31.883  33.046  1.00  0.00     0.049 A 
ATOM     48  N   UNL A   1      39.420  32.776  35.564  1.00  0.00    -0.248 NA
ATOM     49  C   UNL A   1      37.809  34.448  35.798  1.00  0.00     0.031 C 
ATOM     50  C   UNL A   1      37.420  31.429  31.804  1.00  0.00     0.029 A 
ATOM     51  N   UNL A   1      39.127  31.053  33.200  1.00  0.00    -0.354 N 
ATOM     52  C   UNL A   1      39.700  33.523  36.700  1.00  0.00     0.074 A 
ATOM     53  C   UNL A   1      38.690  34.557  36.784  1.00  0.00     0.031 C 
ATOM     54  C   UNL A   1      38.119  30.393  31.315  1.00  0.00     0.029 A 
ATOM     55  C   UNL A   1      39.254  30.127  32.195  1.00  0.00     0.049 A 
ATOM     56  H   UNL A   1      39.752  31.116  33.959  1.00  0.00     0.167 HD
ATOM     57  C   UNL A   1      40.692  33.344  37.604  1.00  0.00     0.034 A 
ATOM     58  C   UNL A   1      40.177  29.164  32.003  1.00  0.00     0.034 A 
ATOM     59  C   UNL A   1      41.681  32.302  37.522  1.00  0.00     0.049 A 
ATOM     60  C   UNL A   1      41.273  28.990  33.013  1.00  0.00     0.074 A 
ATOM     61  C   UNL A   1      42.711  32.025  38.403  1.00  0.00     0.029 A 
ATOM     62  N   UNL A   1      41.764  31.368  36.501  1.00  0.00    -0.354 N 
ATOM     63  N   UNL A   1      41.475  29.654  34.125  1.00  0.00    -0.248 NA
ATOM     64  C   UNL A   1      42.251  27.922  32.760  1.00  0.00     0.031 C 
ATOM     65  C   UNL A   1      43.421  30.923  37.912  1.00  0.00     0.029 A 
ATOM     66  C   UNL A   1      42.826  30.510  36.730  1.00  0.00     0.049 A 
ATOM     67  H   UNL A   1      41.157  31.322  35.726  1.00  0.00     0.167 HD
ATOM     68  C   UNL A   1      42.591  29.078  34.716  1.00  0.00     0.074 A 
ATOM     69  C   UNL A   1      43.017  28.000  33.843  1.00  0.00     0.031 C 
ATOM     70  C   UNL A   1      43.212  29.419  35.871  1.00  0.00     0.034 A 
BRANCH  57  71
ATOM     71  C   UNL A   1      40.719  34.255  38.800  1.00  0.00     0.023 A 
ATOM     72  C   UNL A   1      41.624  35.336  38.813  1.00  0.00     0.012 A 
ATOM     73  C   UNL A   1      39.820  34.090  39.871  1.00  0.00     0.148 A 
ATOM     74  C   UNL A   1      41.646  36.230  39.881  1.00  0.00     0.002 A 
ATOM     75  C   UNL A   1      39.831  35.003  40.921  1.00  0.00     0.091 A 
ATOM     76  F   UNL A   1      38.981  33.046  39.847  1.00  0.00    -0.205 F 
ATOM     77  C   UNL A   1      40.746  36.069  40.930  1.00  0.00     0.022 A 
BRANCH  75  78
ATOM     78  S   UNL A   1      38.680  34.913  42.298  1.00  0.00     0.127 S 
ATOM     79  O   UNL A   1      39.074  36.080  43.086  1.00  0.00    -0.237 OA
ATOM     80  O   UNL A   1      37.386  35.039  41.628  1.00  0.00    -0.237 OA
ATOM     81  O   UNL A   1      38.913  33.624  42.934  1.00  0.00    -0.744 OA
ENDBRANCH  75  78
ENDBRANCH  57  71
BRANCH  58  82
ATOM     82  C   UNL A   1      40.023  28.250  30.841  1.00  0.00     0.023 A 
ATOM     83  C   UNL A   1      39.070  27.217  30.911  1.00  0.00     0.012 A 
ATOM     84  C   UNL A   1      40.715  28.475  29.635  1.00  0.00     0.148 A 
ATOM     85  C   UNL A   1      38.801  26.425  29.795  1.00  0.00     0.002 A 
ATOM     86  C   UNL A   1      40.415  27.708  28.517  1.00  0.00     0.091 A 
ATOM     87  F   UNL A   1      41.611  29.472  29.597  1.00  0.00    -0.205 F 
ATOM     88  C   UNL A   1      39.464  26.677  28.597  1.00  0.00     0.022 A 
BRANCH  86  89
ATOM     89  S   UNL A   1      41.133  28.022  26.901  1.00  0.00     0.127 S 
ATOM     90  O   UNL A   1      42.546  28.192  27.227  1.00  0.00    -0.237 OA
ATOM     91  O   UNL A   1      40.809  26.784  26.189  1.00  0.00    -0.237 OA
ATOM     92  O   UNL A   1      40.466  29.213  26.392  1.00  0.00    -0.744 OA
ENDBRANCH  86  89
ENDBRANCH  58  82
BRANCH  70  93
ATOM     93  C   UNL A   1      44.424  28.628  36.279  1.00  0.00     0.023 A 
ATOM     94  C   UNL A   1      45.705  29.117  35.962  1.00  0.00     0.012 A 
ATOM     95  C   UNL A   1      44.296  27.477  37.081  1.00  0.00     0.148 A 
ATOM     96  C   UNL A   1      46.846  28.469  36.433  1.00  0.00     0.002 A 
ATOM     97  C   UNL A   1      45.436  26.854  37.574  1.00  0.00     0.091 A 
ATOM     98  F   UNL A   1      43.064  27.027  37.360  1.00  0.00    -0.205 F 
ATOM     99  C   UNL A   1      46.711  27.347  37.248  1.00  0.00     0.022 A 
BRANCH  97 100
ATOM    100  S   UNL A   1      45.368  25.447  38.689  1.00  0.00     0.127 S 
ATOM    101  O   UNL A   1      46.787  25.178  38.915  1.00  0.00    -0.237 OA
ATOM    102  O   UNL A   1      44.659  26.002  39.842  1.00  0.00    -0.237 OA
ATOM    103  O   UNL A   1      44.645  24.401  37.976  1.00  0.00    -0.744 OA
ENDBRANCH  97 100
ENDBRANCH  70  93
ENDBRANCH  44  45
ENDBRANCH  37  39
ENDBRANCH  36  37
ENDBRANCH  35  36
ENDBRANCH  34  35
ENDBRANCH   1  34
TORSDOF 20
ENDMDL
