MODEL 1
REMARK VINA RESULT:     -11.7      0.000      0.000
REMARK SMILES Cc1ccccc1NC(=O)NC[C@@H]1CC[C@@H](C(=O)OCCOCCOC(=O)c2ccc(-c3c4nc(c(-c5cccc(S(=O)(=O)[O-])c5F)c5ccc([nH]5)c(-c5cccc(S(=O)(=O)[O-])c5F)c5nc(c(-c6cccc(S(=O)(=O)[O-])c6F)c6ccc3[nH]6)C=C5)C=C4)cc2)O1
REMARK SMILES IDX 22 1 21 2 20 3 19 4 17 5 18 6 16 7 13 8 14 9 91 10 15 11
REMARK SMILES IDX 12 12 11 13 8 14 9 15 10 17 7 19 1 20 2 21 3 22 4 23 6 24
REMARK SMILES IDX 5 25 23 26 24 27 25 28 26 29 27 30 28 31 29 32 90 33 30 34
REMARK SMILES IDX 89 35 31 36 32 37 33 38 83 39 34 40 88 41 82 42 84 43 35 44
REMARK SMILES IDX 87 45 81 46 80 47 36 49 68 50 48 51 67 52 49 53 52 54 66 55
REMARK SMILES IDX 85 56 50 57 51 58 65 60 86 61 53 62 37 63 38 64 46 65 39 66
REMARK SMILES IDX 41 67 47 68 40 69 42 70 43 71 44 72 45 73 69 74 70 75 78 76
REMARK SMILES IDX 71 77 73 78 79 79 72 80 74 81 75 82 76 83 77 84 54 85 55 86
REMARK SMILES IDX 63 87 56 88 58 89 64 90 57 91 59 92 60 93 61 94 62 95
REMARK H PARENT 8 16 11 18 84 48 52 59
REMARK Flexibility Score: inf
ROOT
ATOM      1  O   UNL A   1      31.758  30.303  25.486  1.00  0.00    -0.374 OA
ENDROOT
BRANCH   1   2
ATOM      2  C   UNL A   1      32.664  29.336  25.005  1.00  0.00     0.202 C 
BRANCH   2   3
ATOM      3  C   UNL A   1      31.895  28.480  24.034  1.00  0.00     0.261 C 
BRANCH   3   4
ATOM      4  O   UNL A   1      30.856  27.694  24.671  1.00  0.00    -0.461 OA
BRANCH   4   5
ATOM      5  C   UNL A   1      31.141  26.817  25.693  1.00  0.00     0.335 C 
ATOM      6  O   UNL A   1      30.889  26.960  26.884  1.00  0.00    -0.249 OA
BRANCH   5   7
ATOM      7  C   UNL A   1      31.772  25.554  25.128  1.00  0.00     0.228 C 
ATOM      8  C   UNL A   1      31.670  23.570  26.361  1.00  0.00     0.138 C 
ATOM      9  C   UNL A   1      31.022  23.315  25.015  1.00  0.00     0.037 C 
ATOM     10  O   UNL A   1      32.448  24.755  26.130  1.00  0.00    -0.361 OA
ATOM     11  C   UNL A   1      30.676  24.683  24.544  1.00  0.00     0.047 C 
BRANCH   8  12
ATOM     12  C   UNL A   1      32.537  22.396  26.866  1.00  0.00     0.149 C 
BRANCH  12  13
ATOM     13  N   UNL A   1      32.219  21.139  26.183  1.00  0.00    -0.335 N 
ATOM     14  N   UNL A   1      34.117  20.290  24.965  1.00  0.00    -0.308 N 
ATOM     15  C   UNL A   1      32.875  20.213  25.477  1.00  0.00     0.319 C 
ATOM     16  H   UNL A   1      34.449  19.398  24.711  1.00  0.00     0.171 HD
ATOM     17  O   UNL A   1      32.295  19.131  25.314  1.00  0.00    -0.249 OA
ATOM     18  H   UNL A   1      31.264  20.917  26.267  1.00  0.00     0.165 HD
BRANCH  14  19
ATOM     19  C   UNL A   1      35.075  21.280  24.690  1.00  0.00     0.045 A 
ATOM     20  C   UNL A   1      37.050  19.647  24.911  1.00  0.00     0.046 C 
ATOM     21  C   UNL A   1      36.455  21.022  24.789  1.00  0.00    -0.027 A 
ATOM     22  C   UNL A   1      37.377  22.087  24.656  1.00  0.00     0.005 A 
ATOM     23  C   UNL A   1      36.951  23.380  24.388  1.00  0.00     0.000 A 
ATOM     24  C   UNL A   1      34.708  22.528  24.231  1.00  0.00     0.026 A 
ATOM     25  C   UNL A   1      35.613  23.591  24.132  1.00  0.00     0.002 A 
ENDBRANCH  14  19
ENDBRANCH  12  13
ENDBRANCH   8  12
ENDBRANCH   5   7
ENDBRANCH   4   5
ENDBRANCH   3   4
ENDBRANCH   2   3
ENDBRANCH   1   2
BRANCH   1  26
ATOM     26  C   UNL A   1      31.836  30.671  26.842  1.00  0.00     0.202 C 
BRANCH  26  27
ATOM     27  C   UNL A   1      33.041  31.564  27.138  1.00  0.00     0.261 C 
BRANCH  27  28
ATOM     28  O   UNL A   1      33.963  30.883  28.014  1.00  0.00    -0.460 OA
BRANCH  28  29
ATOM     29  C   UNL A   1      35.247  31.345  27.982  1.00  0.00     0.338 C 
ATOM     30  O   UNL A   1      35.575  32.411  27.487  1.00  0.00    -0.246 OA
BRANCH  29  31
ATOM     31  C   UNL A   1      36.190  30.267  28.407  1.00  0.00     0.060 A 
ATOM     32  C   UNL A   1      36.359  29.967  29.771  1.00  0.00     0.016 A 
ATOM     33  C   UNL A   1      37.115  29.795  27.483  1.00  0.00     0.016 A 
ATOM     34  C   UNL A   1      37.549  29.375  30.224  1.00  0.00     0.010 A 
ATOM     35  C   UNL A   1      38.319  29.309  27.948  1.00  0.00     0.010 A 
ATOM     36  C   UNL A   1      38.578  29.152  29.324  1.00  0.00    -0.014 A 
BRANCH  36  37
ATOM     37  C   UNL A   1      39.951  28.728  29.638  1.00  0.00     0.031 A 
ATOM     38  C   UNL A   1      40.262  27.311  29.345  1.00  0.00     0.074 A 
ATOM     39  C   UNL A   1      40.978  29.609  29.773  1.00  0.00     0.049 A 
ATOM     40  N   UNL A   1      41.441  26.807  29.388  1.00  0.00    -0.248 NA
ATOM     41  C   UNL A   1      39.241  26.323  28.992  1.00  0.00     0.031 C 
ATOM     42  C   UNL A   1      42.334  29.465  29.222  1.00  0.00     0.029 A 
ATOM     43  N   UNL A   1      41.033  30.867  30.373  1.00  0.00    -0.354 N 
ATOM     44  C   UNL A   1      41.395  25.600  28.737  1.00  0.00     0.074 A 
ATOM     45  C   UNL A   1      39.996  25.282  28.637  1.00  0.00     0.031 C 
ATOM     46  C   UNL A   1      43.121  30.460  29.661  1.00  0.00     0.029 A 
ATOM     47  C   UNL A   1      42.368  31.187  30.660  1.00  0.00     0.049 A 
ATOM     48  H   UNL A   1      40.256  31.440  30.564  1.00  0.00     0.167 HD
ATOM     49  C   UNL A   1      42.563  25.107  28.248  1.00  0.00     0.034 A 
ATOM     50  C   UNL A   1      42.749  31.486  31.933  1.00  0.00     0.034 A 
ATOM     51  C   UNL A   1      43.706  25.886  28.778  1.00  0.00     0.049 A 
ATOM     52  C   UNL A   1      43.681  30.413  32.431  1.00  0.00     0.074 A 
ATOM     53  C   UNL A   1      44.580  26.809  28.230  1.00  0.00     0.029 A 
ATOM     54  N   UNL A   1      43.866  25.980  30.163  1.00  0.00    -0.354 N 
ATOM     55  N   UNL A   1      43.884  29.309  31.766  1.00  0.00    -0.248 NA
ATOM     56  C   UNL A   1      44.511  30.487  33.625  1.00  0.00     0.031 C 
ATOM     57  C   UNL A   1      45.199  27.517  29.307  1.00  0.00     0.029 A 
ATOM     58  C   UNL A   1      44.741  26.998  30.510  1.00  0.00     0.049 A 
ATOM     59  H   UNL A   1      43.413  25.395  30.813  1.00  0.00     0.167 HD
ATOM     60  C   UNL A   1      44.781  28.515  32.397  1.00  0.00     0.074 A 
ATOM     61  C   UNL A   1      45.174  29.315  33.550  1.00  0.00     0.031 C 
ATOM     62  C   UNL A   1      45.070  27.265  31.920  1.00  0.00     0.034 A 
BRANCH  49  63
ATOM     63  C   UNL A   1      42.702  24.030  27.181  1.00  0.00     0.023 A 
ATOM     64  C   UNL A   1      43.316  24.417  25.970  1.00  0.00     0.012 A 
ATOM     65  C   UNL A   1      42.216  22.694  27.224  1.00  0.00     0.148 A 
ATOM     66  C   UNL A   1      43.441  23.552  24.875  1.00  0.00     0.002 A 
ATOM     67  C   UNL A   1      42.392  21.811  26.153  1.00  0.00     0.091 A 
ATOM     68  F   UNL A   1      41.506  22.267  28.270  1.00  0.00    -0.205 F 
ATOM     69  C   UNL A   1      42.993  22.243  24.970  1.00  0.00     0.022 A 
BRANCH  67  70
ATOM     70  S   UNL A   1      41.875  20.080  26.208  1.00  0.00     0.127 S 
ATOM     71  O   UNL A   1      40.431  20.183  26.004  1.00  0.00    -0.237 OA
ATOM     72  O   UNL A   1      42.605  19.501  25.080  1.00  0.00    -0.237 OA
ATOM     73  O   UNL A   1      42.276  19.568  27.512  1.00  0.00    -0.744 OA
ENDBRANCH  67  70
ENDBRANCH  49  63
BRANCH  50  74
ATOM     74  C   UNL A   1      41.680  32.262  32.643  1.00  0.00     0.023 A 
ATOM     75  C   UNL A   1      41.299  33.481  32.015  1.00  0.00     0.012 A 
ATOM     76  C   UNL A   1      40.737  31.608  33.459  1.00  0.00     0.148 A 
ATOM     77  C   UNL A   1      39.976  33.932  32.050  1.00  0.00     0.002 A 
ATOM     78  C   UNL A   1      39.412  32.054  33.471  1.00  0.00     0.091 A 
ATOM     79  F   UNL A   1      41.121  30.511  34.124  1.00  0.00    -0.205 F 
ATOM     80  C   UNL A   1      39.023  33.187  32.734  1.00  0.00     0.022 A 
BRANCH  78  81
ATOM     81  S   UNL A   1      38.098  31.126  34.278  1.00  0.00     0.127 S 
ATOM     82  O   UNL A   1      38.440  31.297  35.687  1.00  0.00    -0.237 OA
ATOM     83  O   UNL A   1      36.896  31.847  33.853  1.00  0.00    -0.237 OA
ATOM     84  O   UNL A   1      38.202  29.772  33.755  1.00  0.00    -0.744 OA
ENDBRANCH  78  81
ENDBRANCH  50  74
BRANCH  62  85
ATOM     85  C   UNL A   1      45.696  26.176  32.762  1.00  0.00     0.023 A 
ATOM     86  C   UNL A   1      47.092  26.043  32.888  1.00  0.00     0.012 A 
ATOM     87  C   UNL A   1      44.904  25.349  33.597  1.00  0.00     0.148 A 
ATOM     88  C   UNL A   1      47.678  25.091  33.725  1.00  0.00     0.002 A 
ATOM     89  C   UNL A   1      45.492  24.505  34.530  1.00  0.00     0.091 A 
ATOM     90  F   UNL A   1      43.569  25.357  33.485  1.00  0.00    -0.205 F 
ATOM     91  C   UNL A   1      46.877  24.339  34.567  1.00  0.00     0.022 A 
BRANCH  89  92
ATOM     92  S   UNL A   1      44.524  23.732  35.831  1.00  0.00     0.127 S 
ATOM     93  O   UNL A   1      45.544  22.973  36.550  1.00  0.00    -0.237 OA
ATOM     94  O   UNL A   1      44.001  24.892  36.554  1.00  0.00    -0.237 OA
ATOM     95  O   UNL A   1      43.506  22.949  35.145  1.00  0.00    -0.744 OA
ENDBRANCH  89  92
ENDBRANCH  62  85
ENDBRANCH  36  37
ENDBRANCH  29  31
ENDBRANCH  28  29
ENDBRANCH  27  28
ENDBRANCH  26  27
ENDBRANCH   1  26
TORSDOF 20
ENDMDL
MODEL 2
REMARK VINA RESULT:     -11.4      2.785      3.744
REMARK SMILES Cc1ccccc1NC(=O)NC[C@@H]1CC[C@@H](C(=O)OCCOCCOC(=O)c2ccc(-c3c4nc(c(-c5cccc(S(=O)(=O)[O-])c5F)c5ccc([nH]5)c(-c5cccc(S(=O)(=O)[O-])c5F)c5nc(c(-c6cccc(S(=O)(=O)[O-])c6F)c6ccc3[nH]6)C=C5)C=C4)cc2)O1
REMARK SMILES IDX 22 1 21 2 20 3 19 4 17 5 18 6 16 7 13 8 14 9 91 10 15 11
REMARK SMILES IDX 12 12 11 13 8 14 9 15 10 17 7 19 1 20 2 21 3 22 4 23 6 24
REMARK SMILES IDX 5 25 23 26 24 27 25 28 26 29 27 30 28 31 29 32 90 33 30 34
REMARK SMILES IDX 89 35 31 36 32 37 33 38 83 39 34 40 88 41 82 42 84 43 35 44
REMARK SMILES IDX 87 45 81 46 80 47 36 49 68 50 48 51 67 52 49 53 52 54 66 55
REMARK SMILES IDX 85 56 50 57 51 58 65 60 86 61 53 62 37 63 38 64 46 65 39 66
REMARK SMILES IDX 41 67 47 68 40 69 42 70 43 71 44 72 45 73 69 74 70 75 78 76
REMARK SMILES IDX 71 77 73 78 79 79 72 80 74 81 75 82 76 83 77 84 54 85 55 86
REMARK SMILES IDX 63 87 56 88 58 89 64 90 57 91 59 92 60 93 61 94 62 95
REMARK H PARENT 8 16 11 18 84 48 52 59
REMARK Flexibility Score: inf
ROOT
ATOM      1  O   UNL A   1      33.964  29.776  27.655  1.00  0.00    -0.374 OA
ENDROOT
BRANCH   1   2
ATOM      2  C   UNL A   1      34.060  28.967  26.505  1.00  0.00     0.202 C 
BRANCH   2   3
ATOM      3  C   UNL A   1      33.213  27.751  26.770  1.00  0.00     0.261 C 
BRANCH   3   4
ATOM      4  O   UNL A   1      32.436  27.340  25.616  1.00  0.00    -0.461 OA
BRANCH   4   5
ATOM      5  C   UNL A   1      31.697  26.179  25.620  1.00  0.00     0.335 C 
ATOM      6  O   UNL A   1      31.048  25.717  26.552  1.00  0.00    -0.249 OA
BRANCH   5   7
ATOM      7  C   UNL A   1      31.727  25.543  24.239  1.00  0.00     0.228 C 
ATOM      8  C   UNL A   1      31.910  23.220  24.049  1.00  0.00     0.138 C 
ATOM      9  C   UNL A   1      30.641  23.647  23.337  1.00  0.00     0.037 C 
ATOM     10  O   UNL A   1      32.661  24.440  24.137  1.00  0.00    -0.361 OA
ATOM     11  C   UNL A   1      30.353  24.978  23.935  1.00  0.00     0.047 C 
BRANCH   8  12
ATOM     12  C   UNL A   1      32.691  22.110  23.314  1.00  0.00     0.149 C 
BRANCH  12  13
ATOM     13  N   UNL A   1      32.470  20.789  23.910  1.00  0.00    -0.335 N 
ATOM     14  N   UNL A   1      34.036  20.351  25.690  1.00  0.00    -0.308 N 
ATOM     15  C   UNL A   1      32.948  20.087  24.943  1.00  0.00     0.319 C 
ATOM     16  H   UNL A   1      34.024  19.830  26.526  1.00  0.00     0.171 HD
ATOM     17  O   UNL A   1      32.285  19.102  25.293  1.00  0.00    -0.249 OA
ATOM     18  H   UNL A   1      31.786  20.282  23.417  1.00  0.00     0.165 HD
BRANCH  14  19
ATOM     19  C   UNL A   1      35.183  21.158  25.617  1.00  0.00     0.045 A 
ATOM     20  C   UNL A   1      34.167  23.004  27.091  1.00  0.00     0.046 C 
ATOM     21  C   UNL A   1      35.211  22.456  26.159  1.00  0.00    -0.027 A 
ATOM     22  C   UNL A   1      36.332  23.288  25.926  1.00  0.00     0.005 A 
ATOM     23  C   UNL A   1      37.428  22.836  25.205  1.00  0.00     0.000 A 
ATOM     24  C   UNL A   1      36.363  20.683  25.082  1.00  0.00     0.026 A 
ATOM     25  C   UNL A   1      37.460  21.513  24.819  1.00  0.00     0.002 A 
ENDBRANCH  14  19
ENDBRANCH  12  13
ENDBRANCH   8  12
ENDBRANCH   5   7
ENDBRANCH   4   5
ENDBRANCH   3   4
ENDBRANCH   2   3
ENDBRANCH   1   2
BRANCH   1  26
ATOM     26  C   UNL A   1      34.582  31.040  27.633  1.00  0.00     0.202 C 
BRANCH  26  27
ATOM     27  C   UNL A   1      33.572  32.187  27.653  1.00  0.00     0.261 C 
BRANCH  27  28
ATOM     28  O   UNL A   1      34.243  33.438  27.910  1.00  0.00    -0.460 OA
BRANCH  28  29
ATOM     29  C   UNL A   1      34.158  33.892  29.195  1.00  0.00     0.338 C 
ATOM     30  O   UNL A   1      33.201  34.505  29.639  1.00  0.00    -0.246 OA
BRANCH  29  31
ATOM     31  C   UNL A   1      35.478  33.746  29.879  1.00  0.00     0.060 A 
ATOM     32  C   UNL A   1      36.674  33.901  29.155  1.00  0.00     0.016 A 
ATOM     33  C   UNL A   1      35.511  33.152  31.135  1.00  0.00     0.016 A 
ATOM     34  C   UNL A   1      37.856  33.284  29.599  1.00  0.00     0.010 A 
ATOM     35  C   UNL A   1      36.648  32.466  31.509  1.00  0.00     0.010 A 
ATOM     36  C   UNL A   1      37.813  32.468  30.718  1.00  0.00    -0.014 A 
BRANCH  36  37
ATOM     37  C   UNL A   1      38.886  31.595  31.216  1.00  0.00     0.031 A 
ATOM     38  C   UNL A   1      39.029  30.299  30.514  1.00  0.00     0.074 A 
ATOM     39  C   UNL A   1      39.935  32.063  31.945  1.00  0.00     0.049 A 
ATOM     40  N   UNL A   1      40.007  29.487  30.688  1.00  0.00    -0.248 NA
ATOM     41  C   UNL A   1      38.044  29.796  29.554  1.00  0.00     0.031 C 
ATOM     42  C   UNL A   1      41.350  31.702  31.774  1.00  0.00     0.029 A 
ATOM     43  N   UNL A   1      39.991  33.018  32.959  1.00  0.00    -0.354 N 
ATOM     44  C   UNL A   1      39.986  28.591  29.650  1.00  0.00     0.074 A 
ATOM     45  C   UNL A   1      38.682  28.733  29.059  1.00  0.00     0.031 C 
ATOM     46  C   UNL A   1      42.091  32.254  32.749  1.00  0.00     0.029 A 
ATOM     47  C   UNL A   1      41.169  32.841  33.699  1.00  0.00     0.049 A 
ATOM     48  H   UNL A   1      39.311  33.708  33.128  1.00  0.00     0.167 HD
ATOM     49  C   UNL A   1      41.146  27.948  29.353  1.00  0.00     0.034 A 
ATOM     50  C   UNL A   1      41.117  32.632  35.043  1.00  0.00     0.034 A 
ATOM     51  C   UNL A   1      42.141  28.174  30.426  1.00  0.00     0.049 A 
ATOM     52  C   UNL A   1      41.606  31.239  35.342  1.00  0.00     0.074 A 
ATOM     53  C   UNL A   1      43.300  28.924  30.523  1.00  0.00     0.029 A 
ATOM     54  N   UNL A   1      41.810  27.808  31.734  1.00  0.00    -0.354 N 
ATOM     55  N   UNL A   1      41.837  30.369  34.398  1.00  0.00    -0.248 NA
ATOM     56  C   UNL A   1      41.954  30.717  36.656  1.00  0.00     0.031 C 
ATOM     57  C   UNL A   1      43.608  29.076  31.911  1.00  0.00     0.029 A 
ATOM     58  C   UNL A   1      42.668  28.383  32.660  1.00  0.00     0.049 A 
ATOM     59  H   UNL A   1      41.060  27.215  31.969  1.00  0.00     0.167 HD
ATOM     60  C   UNL A   1      42.295  29.201  34.908  1.00  0.00     0.074 A 
ATOM     61  C   UNL A   1      42.385  29.480  36.336  1.00  0.00     0.031 C 
ATOM     62  C   UNL A   1      42.512  28.118  34.100  1.00  0.00     0.034 A 
BRANCH  49  63
ATOM     63  C   UNL A   1      41.466  27.238  28.045  1.00  0.00     0.023 A 
ATOM     64  C   UNL A   1      41.468  28.036  26.879  1.00  0.00     0.012 A 
ATOM     65  C   UNL A   1      41.685  25.849  27.840  1.00  0.00     0.148 A 
ATOM     66  C   UNL A   1      41.669  27.503  25.599  1.00  0.00     0.002 A 
ATOM     67  C   UNL A   1      41.946  25.324  26.569  1.00  0.00     0.091 A 
ATOM     68  F   UNL A   1      41.575  24.990  28.854  1.00  0.00    -0.205 F 
ATOM     69  C   UNL A   1      41.924  26.149  25.443  1.00  0.00     0.022 A 
BRANCH  67  70
ATOM     70  S   UNL A   1      42.326  23.581  26.281  1.00  0.00     0.127 S 
ATOM     71  O   UNL A   1      43.279  23.292  27.352  1.00  0.00    -0.237 OA
ATOM     72  O   UNL A   1      41.018  22.945  26.448  1.00  0.00    -0.237 OA
ATOM     73  O   UNL A   1      42.872  23.491  24.933  1.00  0.00    -0.744 OA
ENDBRANCH  67  70
ENDBRANCH  49  63
BRANCH  50  74
ATOM     74  C   UNL A   1      40.018  33.438  35.668  1.00  0.00     0.023 A 
ATOM     75  C   UNL A   1      38.794  32.741  35.866  1.00  0.00     0.012 A 
ATOM     76  C   UNL A   1      40.314  34.524  36.516  1.00  0.00     0.148 A 
ATOM     77  C   UNL A   1      37.986  32.996  36.979  1.00  0.00     0.002 A 
ATOM     78  C   UNL A   1      39.512  34.758  37.637  1.00  0.00     0.091 A 
ATOM     79  F   UNL A   1      41.420  35.239  36.274  1.00  0.00    -0.205 F 
ATOM     80  C   UNL A   1      38.376  33.968  37.892  1.00  0.00     0.022 A 
BRANCH  78  81
ATOM     81  S   UNL A   1      39.966  35.953  38.903  1.00  0.00     0.127 S 
ATOM     82  O   UNL A   1      38.768  35.965  39.738  1.00  0.00    -0.237 OA
ATOM     83  O   UNL A   1      41.134  35.325  39.526  1.00  0.00    -0.237 OA
ATOM     84  O   UNL A   1      40.258  37.185  38.186  1.00  0.00    -0.744 OA
ENDBRANCH  78  81
ENDBRANCH  50  74
BRANCH  62  85
ATOM     85  C   UNL A   1      42.596  26.699  34.614  1.00  0.00     0.023 A 
ATOM     86  C   UNL A   1      41.525  26.091  35.298  1.00  0.00     0.012 A 
ATOM     87  C   UNL A   1      43.691  25.862  34.281  1.00  0.00     0.148 A 
ATOM     88  C   UNL A   1      41.564  24.756  35.707  1.00  0.00     0.002 A 
ATOM     89  C   UNL A   1      43.662  24.503  34.565  1.00  0.00     0.091 A 
ATOM     90  F   UNL A   1      44.783  26.377  33.701  1.00  0.00    -0.205 F 
ATOM     91  C   UNL A   1      42.622  23.954  35.317  1.00  0.00     0.022 A 
BRANCH  89  92
ATOM     92  S   UNL A   1      44.854  23.372  33.839  1.00  0.00     0.127 S 
ATOM     93  O   UNL A   1      44.658  23.609  32.412  1.00  0.00    -0.237 OA
ATOM     94  O   UNL A   1      46.119  23.875  34.375  1.00  0.00    -0.237 OA
ATOM     95  O   UNL A   1      44.483  22.051  34.327  1.00  0.00    -0.744 OA
ENDBRANCH  89  92
ENDBRANCH  62  85
ENDBRANCH  36  37
ENDBRANCH  29  31
ENDBRANCH  28  29
ENDBRANCH  27  28
ENDBRANCH  26  27
ENDBRANCH   1  26
TORSDOF 20
ENDMDL
MODEL 3
REMARK VINA RESULT:     -11.1      4.682      7.794
REMARK SMILES Cc1ccccc1NC(=O)NC[C@@H]1CC[C@@H](C(=O)OCCOCCOC(=O)c2ccc(-c3c4nc(c(-c5cccc(S(=O)(=O)[O-])c5F)c5ccc([nH]5)c(-c5cccc(S(=O)(=O)[O-])c5F)c5nc(c(-c6cccc(S(=O)(=O)[O-])c6F)c6ccc3[nH]6)C=C5)C=C4)cc2)O1
REMARK SMILES IDX 22 1 21 2 20 3 19 4 17 5 18 6 16 7 13 8 14 9 91 10 15 11
REMARK SMILES IDX 12 12 11 13 8 14 9 15 10 17 7 19 1 20 2 21 3 22 4 23 6 24
REMARK SMILES IDX 5 25 23 26 24 27 25 28 26 29 27 30 28 31 29 32 90 33 30 34
REMARK SMILES IDX 89 35 31 36 32 37 33 38 83 39 34 40 88 41 82 42 84 43 35 44
REMARK SMILES IDX 87 45 81 46 80 47 36 49 68 50 48 51 67 52 49 53 52 54 66 55
REMARK SMILES IDX 85 56 50 57 51 58 65 60 86 61 53 62 37 63 38 64 46 65 39 66
REMARK SMILES IDX 41 67 47 68 40 69 42 70 43 71 44 72 45 73 69 74 70 75 78 76
REMARK SMILES IDX 71 77 73 78 79 79 72 80 74 81 75 82 76 83 77 84 54 85 55 86
REMARK SMILES IDX 63 87 56 88 58 89 64 90 57 91 59 92 60 93 61 94 62 95
REMARK H PARENT 8 16 11 18 84 48 52 59
REMARK Flexibility Score: inf
ROOT
ATOM      1  O   UNL A   1      36.966  22.197  24.406  1.00  0.00    -0.374 OA
ENDROOT
BRANCH   1   2
ATOM      2  C   UNL A   1      36.773  23.572  24.648  1.00  0.00     0.202 C 
BRANCH   2   3
ATOM      3  C   UNL A   1      35.301  23.832  24.467  1.00  0.00     0.261 C 
BRANCH   3   4
ATOM      4  O   UNL A   1      34.953  24.193  23.106  1.00  0.00    -0.461 OA
BRANCH   4   5
ATOM      5  C   UNL A   1      33.763  23.799  22.536  1.00  0.00     0.335 C 
ATOM      6  O   UNL A   1      33.589  23.385  21.396  1.00  0.00    -0.249 OA
BRANCH   5   7
ATOM      7  C   UNL A   1      32.648  23.877  23.567  1.00  0.00     0.228 C 
ATOM      8  C   UNL A   1      30.929  25.436  23.283  1.00  0.00     0.138 C 
ATOM      9  C   UNL A   1      30.301  24.058  23.359  1.00  0.00     0.037 C 
ATOM     10  O   UNL A   1      32.229  25.233  23.857  1.00  0.00    -0.361 OA
ATOM     11  C   UNL A   1      31.432  23.153  23.022  1.00  0.00     0.047 C 
BRANCH   8  12
ATOM     12  C   UNL A   1      30.129  26.526  24.028  1.00  0.00     0.149 C 
BRANCH  12  13
ATOM     13  N   UNL A   1      29.768  27.645  23.152  1.00  0.00    -0.335 N 
ATOM     14  N   UNL A   1      31.320  29.475  23.373  1.00  0.00    -0.308 N 
ATOM     15  C   UNL A   1      30.292  28.823  22.800  1.00  0.00     0.319 C 
ATOM     16  H   UNL A   1      31.661  30.185  22.781  1.00  0.00     0.171 HD
ATOM     17  O   UNL A   1      29.812  29.360  21.793  1.00  0.00    -0.249 OA
ATOM     18  H   UNL A   1      28.908  27.485  22.702  1.00  0.00     0.165 HD
BRANCH  14  19
ATOM     19  C   UNL A   1      32.045  29.433  24.575  1.00  0.00     0.045 A 
ATOM     20  C   UNL A   1      34.053  28.238  23.501  1.00  0.00     0.046 C 
ATOM     21  C   UNL A   1      33.267  28.743  24.679  1.00  0.00    -0.027 A 
ATOM     22  C   UNL A   1      33.883  28.596  25.945  1.00  0.00     0.005 A 
ATOM     23  C   UNL A   1      33.327  29.154  27.086  1.00  0.00     0.000 A 
ATOM     24  C   UNL A   1      31.632  30.135  25.689  1.00  0.00     0.026 A 
ATOM     25  C   UNL A   1      32.219  29.964  26.949  1.00  0.00     0.002 A 
ENDBRANCH  14  19
ENDBRANCH  12  13
ENDBRANCH   8  12
ENDBRANCH   5   7
ENDBRANCH   4   5
ENDBRANCH   3   4
ENDBRANCH   2   3
ENDBRANCH   1   2
BRANCH   1  26
ATOM     26  C   UNL A   1      37.847  21.491  25.246  1.00  0.00     0.202 C 
BRANCH  26  27
ATOM     27  C   UNL A   1      38.647  22.416  26.164  1.00  0.00     0.261 C 
BRANCH  27  28
ATOM     28  O   UNL A   1      39.619  21.656  26.912  1.00  0.00    -0.460 OA
BRANCH  28  29
ATOM     29  C   UNL A   1      40.910  21.778  26.483  1.00  0.00     0.338 C 
ATOM     30  O   UNL A   1      41.439  21.015  25.691  1.00  0.00    -0.246 OA
BRANCH  29  31
ATOM     31  C   UNL A   1      41.626  22.805  27.297  1.00  0.00     0.060 A 
ATOM     32  C   UNL A   1      41.916  24.069  26.752  1.00  0.00     0.016 A 
ATOM     33  C   UNL A   1      42.270  22.398  28.459  1.00  0.00     0.016 A 
ATOM     34  C   UNL A   1      42.988  24.827  27.251  1.00  0.00     0.010 A 
ATOM     35  C   UNL A   1      43.381  23.100  28.876  1.00  0.00     0.010 A 
ATOM     36  C   UNL A   1      43.794  24.288  28.240  1.00  0.00    -0.014 A 
BRANCH  36  37
ATOM     37  C   UNL A   1      45.060  24.839  28.746  1.00  0.00     0.031 A 
ATOM     38  C   UNL A   1      46.226  24.686  27.846  1.00  0.00     0.074 A 
ATOM     39  C   UNL A   1      45.111  25.779  29.728  1.00  0.00     0.049 A 
ATOM     40  N   UNL A   1      47.363  25.250  28.035  1.00  0.00    -0.248 NA
ATOM     41  C   UNL A   1      46.206  23.848  26.646  1.00  0.00     0.031 C 
ATOM     42  C   UNL A   1      45.961  26.978  29.749  1.00  0.00     0.029 A 
ATOM     43  N   UNL A   1      44.368  25.919  30.900  1.00  0.00    -0.354 N 
ATOM     44  C   UNL A   1      48.062  25.167  26.857  1.00  0.00     0.074 A 
ATOM     45  C   UNL A   1      47.369  24.175  26.080  1.00  0.00     0.031 C 
ATOM     46  C   UNL A   1      45.845  27.609  30.929  1.00  0.00     0.029 A 
ATOM     47  C   UNL A   1      45.062  26.750  31.792  1.00  0.00     0.049 A 
ATOM     48  H   UNL A   1      43.495  25.501  31.073  1.00  0.00     0.167 HD
ATOM     49  C   UNL A   1      49.060  26.067  26.657  1.00  0.00     0.034 A 
ATOM     50  C   UNL A   1      45.384  26.309  33.040  1.00  0.00     0.034 A 
ATOM     51  C   UNL A   1      49.351  26.793  27.915  1.00  0.00     0.049 A 
ATOM     52  C   UNL A   1      46.882  26.198  33.149  1.00  0.00     0.074 A 
ATOM     53  C   UNL A   1      49.114  28.081  28.362  1.00  0.00     0.029 A 
ATOM     54  N   UNL A   1      49.707  26.053  29.047  1.00  0.00    -0.354 N 
ATOM     55  N   UNL A   1      47.663  26.331  32.113  1.00  0.00    -0.248 NA
ATOM     56  C   UNL A   1      47.639  26.019  34.380  1.00  0.00     0.031 C 
ATOM     57  C   UNL A   1      49.246  28.082  29.785  1.00  0.00     0.029 A 
ATOM     58  C   UNL A   1      49.609  26.809  30.205  1.00  0.00     0.049 A 
ATOM     59  H   UNL A   1      49.992  25.111  29.025  1.00  0.00     0.167 HD
ATOM     60  C   UNL A   1      48.966  26.219  32.464  1.00  0.00     0.074 A 
ATOM     61  C   UNL A   1      48.904  26.057  33.910  1.00  0.00     0.031 C 
ATOM     62  C   UNL A   1      49.953  26.233  31.515  1.00  0.00     0.034 A 
BRANCH  49  63
ATOM     63  C   UNL A   1      49.688  26.423  25.317  1.00  0.00     0.023 A 
ATOM     64  C   UNL A   1      51.098  26.398  25.254  1.00  0.00     0.012 A 
ATOM     65  C   UNL A   1      49.028  26.857  24.135  1.00  0.00     0.148 A 
ATOM     66  C   UNL A   1      51.811  26.776  24.109  1.00  0.00     0.002 A 
ATOM     67  C   UNL A   1      49.736  27.179  22.971  1.00  0.00     0.091 A 
ATOM     68  F   UNL A   1      47.707  27.042  24.127  1.00  0.00    -0.205 F 
ATOM     69  C   UNL A   1      51.131  27.153  22.961  1.00  0.00     0.022 A 
BRANCH  67  70
ATOM     70  S   UNL A   1      48.928  27.641  21.422  1.00  0.00     0.127 S 
ATOM     71  O   UNL A   1      50.051  28.128  20.622  1.00  0.00    -0.237 OA
ATOM     72  O   UNL A   1      48.371  26.366  20.969  1.00  0.00    -0.237 OA
ATOM     73  O   UNL A   1      47.931  28.649  21.758  1.00  0.00    -0.744 OA
ENDBRANCH  67  70
ENDBRANCH  49  63
BRANCH  50  74
ATOM     74  C   UNL A   1      44.295  25.444  33.599  1.00  0.00     0.023 A 
ATOM     75  C   UNL A   1      44.628  24.067  33.739  1.00  0.00     0.012 A 
ATOM     76  C   UNL A   1      43.312  25.983  34.452  1.00  0.00     0.148 A 
ATOM     77  C   UNL A   1      44.138  23.308  34.806  1.00  0.00     0.002 A 
ATOM     78  C   UNL A   1      42.843  25.223  35.527  1.00  0.00     0.091 A 
ATOM     79  F   UNL A   1      42.930  27.252  34.262  1.00  0.00    -0.205 F 
ATOM     80  C   UNL A   1      43.288  23.904  35.730  1.00  0.00     0.022 A 
BRANCH  78  81
ATOM     81  S   UNL A   1      41.788  25.924  36.805  1.00  0.00     0.127 S 
ATOM     82  O   UNL A   1      42.772  26.374  37.785  1.00  0.00    -0.237 OA
ATOM     83  O   UNL A   1      41.104  27.005  36.091  1.00  0.00    -0.237 OA
ATOM     84  O   UNL A   1      40.916  24.838  37.226  1.00  0.00    -0.744 OA
ENDBRANCH  78  81
ENDBRANCH  50  74
BRANCH  62  85
ATOM     85  C   UNL A   1      51.345  25.694  31.754  1.00  0.00     0.023 A 
ATOM     86  C   UNL A   1      52.476  26.532  31.768  1.00  0.00     0.012 A 
ATOM     87  C   UNL A   1      51.552  24.346  32.143  1.00  0.00     0.148 A 
ATOM     88  C   UNL A   1      53.755  26.055  32.065  1.00  0.00     0.002 A 
ATOM     89  C   UNL A   1      52.798  23.911  32.575  1.00  0.00     0.091 A 
ATOM     90  F   UNL A   1      50.545  23.464  32.083  1.00  0.00    -0.205 F 
ATOM     91  C   UNL A   1      53.912  24.748  32.495  1.00  0.00     0.022 A 
BRANCH  89  92
ATOM     92  S   UNL A   1      52.999  22.333  33.409  1.00  0.00     0.127 S 
ATOM     93  O   UNL A   1      52.106  22.485  34.553  1.00  0.00    -0.237 OA
ATOM     94  O   UNL A   1      52.535  21.388  32.391  1.00  0.00    -0.237 OA
ATOM     95  O   UNL A   1      54.420  22.232  33.712  1.00  0.00    -0.744 OA
ENDBRANCH  89  92
ENDBRANCH  62  85
ENDBRANCH  36  37
ENDBRANCH  29  31
ENDBRANCH  28  29
ENDBRANCH  27  28
ENDBRANCH  26  27
ENDBRANCH   1  26
TORSDOF 20
ENDMDL
