MODEL 1
REMARK VINA RESULT:     -11.2      0.000      0.000
REMARK SMILES O=C(OCCOCCOC(=O)c1ccc(-c2ccn(C(F)F)c(=O)c2)cc1O)c1ccc(-c2c3nc(c(-c4cccc(S(=O)(=O)[O-])c4F)c4ccc([nH]4)c(-c4cccc(S(=O)(=O)[O-])c4F)c4nc(c(-c5cccc(S(=O)(=O)[O-])c5F)c5ccc2[nH]5)C=C4)C=C3)cc1
REMARK SMILES IDX 5 1 4 2 3 3 2 4 1 5 29 6 30 7 91 8 31 9 90 10 32 11 33 12
REMARK SMILES IDX 34 13 84 14 35 15 89 16 83 17 85 18 36 19 88 20 82 21 81 22
REMARK SMILES IDX 37 24 69 25 49 26 68 27 50 28 53 29 67 30 86 31 51 32 52 33
REMARK SMILES IDX 66 35 87 36 54 37 38 38 39 39 47 40 40 41 42 42 48 43 41 44
REMARK SMILES IDX 43 45 44 46 45 47 46 48 70 49 71 50 79 51 72 52 74 53 80 54
REMARK SMILES IDX 73 55 75 56 76 57 77 58 78 59 55 60 56 61 64 62 57 63 59 64
REMARK SMILES IDX 65 65 58 66 60 67 61 68 62 69 63 70 6 71 7 72 8 73 9 74
REMARK SMILES IDX 10 75 11 76 12 77 13 78 27 79 14 80 26 81 15 82 28 83 16 85
REMARK SMILES IDX 17 86 25 87 18 88 23 89 19 90 24 91 20 92 21 93 22 94
REMARK H PARENT 85 23 53 34 28 84
REMARK Flexibility Score: inf
ROOT
ATOM      1  C   UNL A   1      31.803  31.317  26.864  1.00  0.00     0.202 C 
ENDROOT
BRANCH   1   2
ATOM      2  C   UNL A   1      31.849  32.843  26.771  1.00  0.00     0.261 C 
BRANCH   2   3
ATOM      3  O   UNL A   1      32.622  33.404  27.840  1.00  0.00    -0.460 OA
BRANCH   3   4
ATOM      4  C   UNL A   1      33.928  33.754  27.860  1.00  0.00     0.338 C 
ATOM      5  O   UNL A   1      34.256  34.733  27.187  1.00  0.00    -0.246 OA
BRANCH   4   6
ATOM      6  C   UNL A   1      35.021  33.017  28.585  1.00  0.00     0.060 A 
ATOM      7  C   UNL A   1      36.339  33.434  28.311  1.00  0.00     0.016 A 
ATOM      8  C   UNL A   1      34.866  31.907  29.421  1.00  0.00     0.016 A 
ATOM      9  C   UNL A   1      37.445  32.747  28.819  1.00  0.00     0.010 A 
ATOM     10  C   UNL A   1      35.958  31.196  29.906  1.00  0.00     0.010 A 
ATOM     11  C   UNL A   1      37.252  31.612  29.610  1.00  0.00    -0.014 A 
BRANCH  11  12
ATOM     12  C   UNL A   1      38.351  30.939  30.317  1.00  0.00     0.031 A 
ATOM     13  C   UNL A   1      38.800  31.400  31.669  1.00  0.00     0.074 A 
ATOM     14  C   UNL A   1      39.042  30.032  29.604  1.00  0.00     0.049 A 
ATOM     15  N   UNL A   1      39.787  30.948  32.394  1.00  0.00    -0.248 NA
ATOM     16  C   UNL A   1      38.067  32.520  32.286  1.00  0.00     0.031 C 
ATOM     17  C   UNL A   1      38.728  29.635  28.226  1.00  0.00     0.029 A 
ATOM     18  N   UNL A   1      40.171  29.323  29.905  1.00  0.00    -0.354 N 
ATOM     19  C   UNL A   1      39.796  31.717  33.551  1.00  0.00     0.074 A 
ATOM     20  C   UNL A   1      38.728  32.684  33.427  1.00  0.00     0.031 C 
ATOM     21  C   UNL A   1      39.653  28.766  27.795  1.00  0.00     0.029 A 
ATOM     22  C   UNL A   1      40.616  28.544  28.865  1.00  0.00     0.049 A 
ATOM     23  H   UNL A   1      40.619  29.366  30.780  1.00  0.00     0.167 HD
ATOM     24  C   UNL A   1      40.616  31.593  34.620  1.00  0.00     0.034 A 
ATOM     25  C   UNL A   1      41.680  27.725  28.793  1.00  0.00     0.034 A 
ATOM     26  C   UNL A   1      41.668  30.614  34.697  1.00  0.00     0.049 A 
ATOM     27  C   UNL A   1      42.529  27.569  30.017  1.00  0.00     0.074 A 
ATOM     28  C   UNL A   1      42.509  30.339  35.761  1.00  0.00     0.029 A 
ATOM     29  N   UNL A   1      42.027  29.759  33.668  1.00  0.00    -0.354 N 
ATOM     30  N   UNL A   1      42.429  28.193  31.165  1.00  0.00    -0.248 NA
ATOM     31  C   UNL A   1      43.597  26.565  29.961  1.00  0.00     0.031 C 
ATOM     32  C   UNL A   1      43.382  29.320  35.370  1.00  0.00     0.029 A 
ATOM     33  C   UNL A   1      43.069  28.945  34.073  1.00  0.00     0.049 A 
ATOM     34  H   UNL A   1      41.603  29.733  32.780  1.00  0.00     0.167 HD
ATOM     35  C   UNL A   1      43.388  27.625  31.989  1.00  0.00     0.074 A 
ATOM     36  C   UNL A   1      44.063  26.609  31.203  1.00  0.00     0.031 C 
ATOM     37  C   UNL A   1      43.682  27.914  33.278  1.00  0.00     0.034 A 
BRANCH  24  38
ATOM     38  C   UNL A   1      40.375  32.445  35.839  1.00  0.00     0.023 A 
ATOM     39  C   UNL A   1      41.037  33.686  35.930  1.00  0.00     0.012 A 
ATOM     40  C   UNL A   1      39.367  32.126  36.772  1.00  0.00     0.148 A 
ATOM     41  C   UNL A   1      40.692  34.604  36.921  1.00  0.00     0.002 A 
ATOM     42  C   UNL A   1      39.010  33.059  37.741  1.00  0.00     0.091 A 
ATOM     43  F   UNL A   1      38.749  30.943  36.663  1.00  0.00    -0.205 F 
ATOM     44  C   UNL A   1      39.671  34.297  37.816  1.00  0.00     0.022 A 
BRANCH  42  45
ATOM     45  S   UNL A   1      37.667  32.797  38.907  1.00  0.00     0.127 S 
ATOM     46  O   UNL A   1      37.861  33.910  39.838  1.00  0.00    -0.237 OA
ATOM     47  O   UNL A   1      36.490  32.920  38.050  1.00  0.00    -0.237 OA
ATOM     48  O   UNL A   1      37.881  31.477  39.482  1.00  0.00    -0.744 OA
ENDBRANCH  42  45
ENDBRANCH  24  38
BRANCH  25  49
ATOM     49  C   UNL A   1      41.878  26.899  27.576  1.00  0.00     0.023 A 
ATOM     50  C   UNL A   1      42.460  27.499  26.442  1.00  0.00     0.012 A 
ATOM     51  C   UNL A   1      41.598  25.520  27.563  1.00  0.00     0.148 A 
ATOM     52  C   UNL A   1      42.746  26.741  25.308  1.00  0.00     0.002 A 
ATOM     53  C   UNL A   1      41.917  24.764  26.441  1.00  0.00     0.091 A 
ATOM     54  F   UNL A   1      41.054  24.973  28.659  1.00  0.00    -0.205 F 
ATOM     55  C   UNL A   1      42.484  25.374  25.310  1.00  0.00     0.022 A 
BRANCH  53  56
ATOM     56  S   UNL A   1      41.712  22.979  26.386  1.00  0.00     0.127 S 
ATOM     57  O   UNL A   1      40.258  22.847  26.416  1.00  0.00    -0.237 OA
ATOM     58  O   UNL A   1      42.336  22.641  25.107  1.00  0.00    -0.237 OA
ATOM     59  O   UNL A   1      42.418  22.466  27.552  1.00  0.00    -0.744 OA
ENDBRANCH  53  56
ENDBRANCH  25  49
BRANCH  37  60
ATOM     60  C   UNL A   1      44.745  27.094  33.943  1.00  0.00     0.023 A 
ATOM     61  C   UNL A   1      46.083  27.527  33.913  1.00  0.00     0.012 A 
ATOM     62  C   UNL A   1      44.391  25.952  34.688  1.00  0.00     0.148 A 
ATOM     63  C   UNL A   1      47.063  26.822  34.609  1.00  0.00     0.002 A 
ATOM     64  C   UNL A   1      45.366  25.278  35.407  1.00  0.00     0.091 A 
ATOM     65  F   UNL A   1      43.109  25.560  34.685  1.00  0.00    -0.205 F 
ATOM     66  C   UNL A   1      46.703  25.707  35.363  1.00  0.00     0.022 A 
BRANCH  64  67
ATOM     67  S   UNL A   1      44.987  23.878  36.466  1.00  0.00     0.127 S 
ATOM     68  O   UNL A   1      46.324  23.416  36.836  1.00  0.00    -0.237 OA
ATOM     69  O   UNL A   1      44.237  24.509  37.552  1.00  0.00    -0.237 OA
ATOM     70  O   UNL A   1      44.215  22.950  35.651  1.00  0.00    -0.744 OA
ENDBRANCH  64  67
ENDBRANCH  37  60
ENDBRANCH  11  12
ENDBRANCH   4   6
ENDBRANCH   3   4
ENDBRANCH   2   3
ENDBRANCH   1   2
BRANCH   1  71
ATOM     71  O   UNL A   1      31.331  30.679  25.681  1.00  0.00    -0.374 OA
BRANCH  71  72
ATOM     72  C   UNL A   1      32.188  29.681  25.116  1.00  0.00     0.202 C 
BRANCH  72  73
ATOM     73  C   UNL A   1      31.557  28.304  25.301  1.00  0.00     0.261 C 
BRANCH  73  74
ATOM     74  O   UNL A   1      32.516  27.333  24.874  1.00  0.00    -0.460 OA
BRANCH  74  75
ATOM     75  C   UNL A   1      33.404  26.945  25.817  1.00  0.00     0.341 C 
ATOM     76  O   UNL A   1      33.888  27.619  26.712  1.00  0.00    -0.246 OA
BRANCH  75  77
ATOM     77  C   UNL A   1      33.537  25.478  25.760  1.00  0.00     0.101 A 
ATOM     78  C   UNL A   1      34.705  24.960  25.175  1.00  0.00     0.020 A 
ATOM     79  C   UNL A   1      32.563  24.611  26.260  1.00  0.00     0.130 A 
ATOM     80  C   UNL A   1      34.882  23.583  25.053  1.00  0.00     0.010 A 
ATOM     81  C   UNL A   1      32.733  23.238  26.133  1.00  0.00     0.055 A 
ATOM     82  C   UNL A   1      33.872  22.726  25.490  1.00  0.00    -0.014 A 
BRANCH  79  83
ATOM     83  O   UNL A   1      31.404  25.090  26.801  1.00  0.00    -0.507 OA
ATOM     84  H   UNL A   1      31.274  25.063  27.728  1.00  0.00     0.293 HD
ENDBRANCH  79  83
BRANCH  82  85
ATOM     85  C   UNL A   1      33.829  21.328  25.042  1.00  0.00    -0.011 A 
ATOM     86  C   UNL A   1      32.554  20.764  24.649  1.00  0.00     0.027 A 
ATOM     87  C   UNL A   1      34.931  20.562  25.023  1.00  0.00     0.080 A 
ATOM     88  C   UNL A   1      32.449  19.472  24.339  1.00  0.00     0.095 A 
ATOM     89  C   UNL A   1      34.829  19.116  24.658  1.00  0.00     0.255 A 
ATOM     90  N   UNL A   1      33.556  18.651  24.357  1.00  0.00    -0.258 N 
ATOM     91  O   UNL A   1      35.850  18.435  24.668  1.00  0.00    -0.269 OA
BRANCH  90  92
ATOM     92  C   UNL A   1      33.409  17.248  24.079  1.00  0.00     0.451 C 
ATOM     93  F   UNL A   1      32.495  16.672  24.895  1.00  0.00    -0.185 F 
ATOM     94  F   UNL A   1      33.019  17.047  22.797  1.00  0.00    -0.185 F 
ENDBRANCH  90  92
ENDBRANCH  82  85
ENDBRANCH  75  77
ENDBRANCH  74  75
ENDBRANCH  73  74
ENDBRANCH  72  73
ENDBRANCH  71  72
ENDBRANCH   1  71
TORSDOF 20
ENDMDL
MODEL 2
REMARK VINA RESULT:     -11.1      1.443      7.698
REMARK SMILES O=C(OCCOCCOC(=O)c1ccc(-c2ccn(C(F)F)c(=O)c2)cc1O)c1ccc(-c2c3nc(c(-c4cccc(S(=O)(=O)[O-])c4F)c4ccc([nH]4)c(-c4cccc(S(=O)(=O)[O-])c4F)c4nc(c(-c5cccc(S(=O)(=O)[O-])c5F)c5ccc2[nH]5)C=C4)C=C3)cc1
REMARK SMILES IDX 5 1 4 2 3 3 2 4 1 5 29 6 30 7 91 8 31 9 90 10 32 11 33 12
REMARK SMILES IDX 34 13 84 14 35 15 89 16 83 17 85 18 36 19 88 20 82 21 81 22
REMARK SMILES IDX 37 24 69 25 49 26 68 27 50 28 53 29 67 30 86 31 51 32 52 33
REMARK SMILES IDX 66 35 87 36 54 37 38 38 39 39 47 40 40 41 42 42 48 43 41 44
REMARK SMILES IDX 43 45 44 46 45 47 46 48 70 49 71 50 79 51 72 52 74 53 80 54
REMARK SMILES IDX 73 55 75 56 76 57 77 58 78 59 55 60 56 61 64 62 57 63 59 64
REMARK SMILES IDX 65 65 58 66 60 67 61 68 62 69 63 70 6 71 7 72 8 73 9 74
REMARK SMILES IDX 10 75 11 76 12 77 13 78 27 79 14 80 26 81 15 82 28 83 16 85
REMARK SMILES IDX 17 86 25 87 18 88 23 89 19 90 24 91 20 92 21 93 22 94
REMARK H PARENT 85 23 53 34 28 84
REMARK Flexibility Score: inf
ROOT
ATOM      1  C   UNL A   1      31.893  30.148  26.953  1.00  0.00     0.202 C 
ENDROOT
BRANCH   1   2
ATOM      2  C   UNL A   1      32.671  31.371  26.463  1.00  0.00     0.261 C 
BRANCH   2   3
ATOM      3  O   UNL A   1      32.652  32.422  27.437  1.00  0.00    -0.460 OA
BRANCH   3   4
ATOM      4  C   UNL A   1      33.686  33.082  28.005  1.00  0.00     0.338 C 
ATOM      5  O   UNL A   1      33.642  34.314  27.987  1.00  0.00    -0.246 OA
BRANCH   4   6
ATOM      6  C   UNL A   1      34.911  32.444  28.603  1.00  0.00     0.060 A 
ATOM      7  C   UNL A   1      36.135  33.092  28.349  1.00  0.00     0.016 A 
ATOM      8  C   UNL A   1      34.965  31.231  29.296  1.00  0.00     0.016 A 
ATOM      9  C   UNL A   1      37.356  32.530  28.737  1.00  0.00     0.010 A 
ATOM     10  C   UNL A   1      36.173  30.647  29.659  1.00  0.00     0.010 A 
ATOM     11  C   UNL A   1      37.373  31.293  29.384  1.00  0.00    -0.014 A 
BRANCH  11  12
ATOM     12  C   UNL A   1      38.592  30.720  29.971  1.00  0.00     0.031 A 
ATOM     13  C   UNL A   1      39.337  29.615  29.287  1.00  0.00     0.074 A 
ATOM     14  C   UNL A   1      38.879  31.105  31.228  1.00  0.00     0.049 A 
ATOM     15  N   UNL A   1      40.393  28.970  29.703  1.00  0.00    -0.248 NA
ATOM     16  C   UNL A   1      38.830  29.159  27.981  1.00  0.00     0.031 C 
ATOM     17  C   UNL A   1      38.107  32.089  31.998  1.00  0.00     0.029 A 
ATOM     18  N   UNL A   1      39.848  30.688  32.097  1.00  0.00    -0.354 N 
ATOM     19  C   UNL A   1      40.685  28.037  28.715  1.00  0.00     0.074 A 
ATOM     20  C   UNL A   1      39.680  28.182  27.685  1.00  0.00     0.031 C 
ATOM     21  C   UNL A   1      38.623  32.186  33.232  1.00  0.00     0.029 A 
ATOM     22  C   UNL A   1      39.758  31.279  33.334  1.00  0.00     0.049 A 
ATOM     23  H   UNL A   1      40.540  30.031  31.860  1.00  0.00     0.167 HD
ATOM     24  C   UNL A   1      41.717  27.164  28.682  1.00  0.00     0.034 A 
ATOM     25  C   UNL A   1      40.524  31.116  34.427  1.00  0.00     0.034 A 
ATOM     26  C   UNL A   1      42.693  27.055  29.734  1.00  0.00     0.049 A 
ATOM     27  C   UNL A   1      41.695  30.187  34.330  1.00  0.00     0.074 A 
ATOM     28  C   UNL A   1      43.829  26.267  29.775  1.00  0.00     0.029 A 
ATOM     29  N   UNL A   1      42.640  27.749  30.933  1.00  0.00    -0.354 N 
ATOM     30  N   UNL A   1      42.050  29.422  33.327  1.00  0.00    -0.248 NA
ATOM     31  C   UNL A   1      42.598  30.133  35.485  1.00  0.00     0.031 C 
ATOM     32  C   UNL A   1      44.460  26.480  31.003  1.00  0.00     0.029 A 
ATOM     33  C   UNL A   1      43.730  27.418  31.716  1.00  0.00     0.049 A 
ATOM     34  H   UNL A   1      41.933  28.384  31.188  1.00  0.00     0.167 HD
ATOM     35  C   UNL A   1      43.246  28.833  33.704  1.00  0.00     0.074 A 
ATOM     36  C   UNL A   1      43.550  29.326  35.035  1.00  0.00     0.031 C 
ATOM     37  C   UNL A   1      44.023  27.966  33.015  1.00  0.00     0.034 A 
BRANCH  24  38
ATOM     38  C   UNL A   1      41.934  26.322  27.451  1.00  0.00     0.023 A 
ATOM     39  C   UNL A   1      42.642  26.886  26.370  1.00  0.00     0.012 A 
ATOM     40  C   UNL A   1      41.631  24.946  27.439  1.00  0.00     0.148 A 
ATOM     41  C   UNL A   1      43.057  26.093  25.302  1.00  0.00     0.002 A 
ATOM     42  C   UNL A   1      42.072  24.155  26.381  1.00  0.00     0.091 A 
ATOM     43  F   UNL A   1      40.961  24.431  28.479  1.00  0.00    -0.205 F 
ATOM     44  C   UNL A   1      42.785  24.727  25.314  1.00  0.00     0.022 A 
BRANCH  42  45
ATOM     45  S   UNL A   1      41.832  22.375  26.320  1.00  0.00     0.127 S 
ATOM     46  O   UNL A   1      40.391  22.277  26.083  1.00  0.00    -0.237 OA
ATOM     47  O   UNL A   1      42.663  21.993  25.180  1.00  0.00    -0.237 OA
ATOM     48  O   UNL A   1      42.275  21.862  27.609  1.00  0.00    -0.744 OA
ENDBRANCH  42  45
ENDBRANCH  24  38
BRANCH  25  49
ATOM     49  C   UNL A   1      40.281  31.970  35.616  1.00  0.00     0.023 A 
ATOM     50  C   UNL A   1      41.119  33.083  35.828  1.00  0.00     0.012 A 
ATOM     51  C   UNL A   1      39.181  31.758  36.467  1.00  0.00     0.148 A 
ATOM     52  C   UNL A   1      40.874  33.963  36.880  1.00  0.00     0.002 A 
ATOM     53  C   UNL A   1      38.923  32.659  37.495  1.00  0.00     0.091 A 
ATOM     54  F   UNL A   1      38.395  30.698  36.237  1.00  0.00    -0.205 F 
ATOM     55  C   UNL A   1      39.773  33.758  37.707  1.00  0.00     0.022 A 
BRANCH  53  56
ATOM     56  S   UNL A   1      37.473  32.537  38.548  1.00  0.00     0.127 S 
ATOM     57  O   UNL A   1      37.835  33.418  39.655  1.00  0.00    -0.237 OA
ATOM     58  O   UNL A   1      36.418  33.048  37.673  1.00  0.00    -0.237 OA
ATOM     59  O   UNL A   1      37.345  31.124  38.880  1.00  0.00    -0.744 OA
ENDBRANCH  53  56
ENDBRANCH  25  49
BRANCH  37  60
ATOM     60  C   UNL A   1      45.304  27.527  33.657  1.00  0.00     0.023 A 
ATOM     61  C   UNL A   1      46.465  28.306  33.504  1.00  0.00     0.012 A 
ATOM     62  C   UNL A   1      45.319  26.398  34.500  1.00  0.00     0.148 A 
ATOM     63  C   UNL A   1      47.636  27.957  34.173  1.00  0.00     0.002 A 
ATOM     64  C   UNL A   1      46.478  26.080  35.192  1.00  0.00     0.091 A 
ATOM     65  F   UNL A   1      44.199  25.672  34.614  1.00  0.00    -0.205 F 
ATOM     66  C   UNL A   1      47.639  26.854  35.025  1.00  0.00     0.022 A 
BRANCH  64  67
ATOM     67  S   UNL A   1      46.556  24.725  36.366  1.00  0.00     0.127 S 
ATOM     68  O   UNL A   1      47.564  25.207  37.309  1.00  0.00    -0.237 OA
ATOM     69  O   UNL A   1      45.192  24.696  36.893  1.00  0.00    -0.237 OA
ATOM     70  O   UNL A   1      46.939  23.546  35.601  1.00  0.00    -0.744 OA
ENDBRANCH  64  67
ENDBRANCH  37  60
ENDBRANCH  11  12
ENDBRANCH   4   6
ENDBRANCH   3   4
ENDBRANCH   2   3
ENDBRANCH   1   2
BRANCH   1  71
ATOM     71  O   UNL A   1      32.128  28.968  26.190  1.00  0.00    -0.374 OA
BRANCH  71  72
ATOM     72  C   UNL A   1      33.013  29.103  25.073  1.00  0.00     0.202 C 
BRANCH  72  73
ATOM     73  C   UNL A   1      32.250  28.821  23.782  1.00  0.00     0.261 C 
BRANCH  73  74
ATOM     74  O   UNL A   1      32.470  27.448  23.445  1.00  0.00    -0.460 OA
BRANCH  74  75
ATOM     75  C   UNL A   1      31.475  26.860  22.743  1.00  0.00     0.341 C 
ATOM     76  O   UNL A   1      30.629  27.398  22.048  1.00  0.00    -0.246 OA
BRANCH  75  77
ATOM     77  C   UNL A   1      31.702  25.403  22.743  1.00  0.00     0.101 A 
ATOM     78  C   UNL A   1      30.701  24.596  23.311  1.00  0.00     0.020 A 
ATOM     79  C   UNL A   1      32.849  24.817  22.204  1.00  0.00     0.130 A 
ATOM     80  C   UNL A   1      30.863  23.214  23.379  1.00  0.00     0.010 A 
ATOM     81  C   UNL A   1      33.017  23.439  22.277  1.00  0.00     0.055 A 
ATOM     82  C   UNL A   1      32.045  22.644  22.903  1.00  0.00    -0.014 A 
BRANCH  79  83
ATOM     83  O   UNL A   1      33.851  25.582  21.678  1.00  0.00    -0.507 OA
ATOM     84  H   UNL A   1      33.642  26.328  21.151  1.00  0.00     0.293 HD
ENDBRANCH  79  83
BRANCH  82  85
ATOM     85  C   UNL A   1      32.430  21.281  23.295  1.00  0.00    -0.011 A 
ATOM     86  C   UNL A   1      33.233  21.104  24.488  1.00  0.00     0.027 A 
ATOM     87  C   UNL A   1      32.084  20.214  22.559  1.00  0.00     0.080 A 
ATOM     88  C   UNL A   1      33.697  19.899  24.821  1.00  0.00     0.095 A 
ATOM     89  C   UNL A   1      32.581  18.855  22.935  1.00  0.00     0.255 A 
ATOM     90  N   UNL A   1      33.396  18.792  24.056  1.00  0.00    -0.258 N 
ATOM     91  O   UNL A   1      32.266  17.900  22.232  1.00  0.00    -0.269 OA
BRANCH  90  92
ATOM     92  C   UNL A   1      33.957  17.513  24.401  1.00  0.00     0.451 C 
ATOM     93  F   UNL A   1      35.309  17.557  24.439  1.00  0.00    -0.185 F 
ATOM     94  F   UNL A   1      33.512  17.101  25.613  1.00  0.00    -0.185 F 
ENDBRANCH  90  92
ENDBRANCH  82  85
ENDBRANCH  75  77
ENDBRANCH  74  75
ENDBRANCH  73  74
ENDBRANCH  72  73
ENDBRANCH  71  72
ENDBRANCH   1  71
TORSDOF 20
ENDMDL
MODEL 3
REMARK VINA RESULT:     -11.1      5.693      9.234
REMARK SMILES O=C(OCCOCCOC(=O)c1ccc(-c2ccn(C(F)F)c(=O)c2)cc1O)c1ccc(-c2c3nc(c(-c4cccc(S(=O)(=O)[O-])c4F)c4ccc([nH]4)c(-c4cccc(S(=O)(=O)[O-])c4F)c4nc(c(-c5cccc(S(=O)(=O)[O-])c5F)c5ccc2[nH]5)C=C4)C=C3)cc1
REMARK SMILES IDX 5 1 4 2 3 3 2 4 1 5 29 6 30 7 91 8 31 9 90 10 32 11 33 12
REMARK SMILES IDX 34 13 84 14 35 15 89 16 83 17 85 18 36 19 88 20 82 21 81 22
REMARK SMILES IDX 37 24 69 25 49 26 68 27 50 28 53 29 67 30 86 31 51 32 52 33
REMARK SMILES IDX 66 35 87 36 54 37 38 38 39 39 47 40 40 41 42 42 48 43 41 44
REMARK SMILES IDX 43 45 44 46 45 47 46 48 70 49 71 50 79 51 72 52 74 53 80 54
REMARK SMILES IDX 73 55 75 56 76 57 77 58 78 59 55 60 56 61 64 62 57 63 59 64
REMARK SMILES IDX 65 65 58 66 60 67 61 68 62 69 63 70 6 71 7 72 8 73 9 74
REMARK SMILES IDX 10 75 11 76 12 77 13 78 27 79 14 80 26 81 15 82 28 83 16 85
REMARK SMILES IDX 17 86 25 87 18 88 23 89 19 90 24 91 20 92 21 93 22 94
REMARK H PARENT 85 23 53 34 28 84
REMARK Flexibility Score: inf
ROOT
ATOM      1  C   UNL A   1      38.144  21.246  25.542  1.00  0.00     0.202 C 
ENDROOT
BRANCH   1   2
ATOM      2  C   UNL A   1      38.689  19.871  25.152  1.00  0.00     0.261 C 
BRANCH   2   3
ATOM      3  O   UNL A   1      39.703  19.436  26.065  1.00  0.00    -0.460 OA
BRANCH   3   4
ATOM      4  C   UNL A   1      40.975  19.874  26.205  1.00  0.00     0.338 C 
ATOM      5  O   UNL A   1      41.871  19.034  26.105  1.00  0.00    -0.246 OA
BRANCH   4   6
ATOM      6  C   UNL A   1      41.385  21.286  26.528  1.00  0.00     0.060 A 
ATOM      7  C   UNL A   1      41.492  21.602  27.897  1.00  0.00     0.016 A 
ATOM      8  C   UNL A   1      41.573  22.329  25.617  1.00  0.00     0.016 A 
ATOM      9  C   UNL A   1      41.736  22.909  28.329  1.00  0.00     0.010 A 
ATOM     10  C   UNL A   1      41.784  23.638  26.035  1.00  0.00     0.010 A 
ATOM     11  C   UNL A   1      41.870  23.935  27.391  1.00  0.00    -0.014 A 
BRANCH  11  12
ATOM     12  C   UNL A   1      42.294  25.294  27.754  1.00  0.00     0.031 A 
ATOM     13  C   UNL A   1      41.324  26.281  28.329  1.00  0.00     0.074 A 
ATOM     14  C   UNL A   1      43.530  25.651  27.362  1.00  0.00     0.049 A 
ATOM     15  N   UNL A   1      41.531  27.530  28.646  1.00  0.00    -0.248 NA
ATOM     16  C   UNL A   1      39.943  25.823  28.562  1.00  0.00     0.031 C 
ATOM     17  C   UNL A   1      44.479  24.765  26.676  1.00  0.00     0.029 A 
ATOM     18  N   UNL A   1      44.184  26.849  27.429  1.00  0.00    -0.354 N 
ATOM     19  C   UNL A   1      40.317  28.010  29.122  1.00  0.00     0.074 A 
ATOM     20  C   UNL A   1      39.366  26.924  29.031  1.00  0.00     0.031 C 
ATOM     21  C   UNL A   1      45.586  25.456  26.370  1.00  0.00     0.029 A 
ATOM     22  C   UNL A   1      45.425  26.824  26.841  1.00  0.00     0.049 A 
ATOM     23  H   UNL A   1      43.802  27.650  27.856  1.00  0.00     0.167 HD
ATOM     24  C   UNL A   1      40.048  29.243  29.608  1.00  0.00     0.034 A 
ATOM     25  C   UNL A   1      46.340  27.801  26.714  1.00  0.00     0.034 A 
ATOM     26  C   UNL A   1      41.029  30.295  29.676  1.00  0.00     0.049 A 
ATOM     27  C   UNL A   1      46.031  29.135  27.319  1.00  0.00     0.074 A 
ATOM     28  C   UNL A   1      40.896  31.559  30.224  1.00  0.00     0.029 A 
ATOM     29  N   UNL A   1      42.317  30.206  29.173  1.00  0.00    -0.354 N 
ATOM     30  N   UNL A   1      44.928  29.529  27.908  1.00  0.00    -0.248 NA
ATOM     31  C   UNL A   1      47.099  30.141  27.293  1.00  0.00     0.031 C 
ATOM     32  C   UNL A   1      42.105  32.236  30.046  1.00  0.00     0.029 A 
ATOM     33  C   UNL A   1      42.997  31.386  29.409  1.00  0.00     0.049 A 
ATOM     34  H   UNL A   1      42.693  29.419  28.718  1.00  0.00     0.167 HD
ATOM     35  C   UNL A   1      45.183  30.810  28.370  1.00  0.00     0.074 A 
ATOM     36  C   UNL A   1      46.545  31.128  27.985  1.00  0.00     0.031 C 
ATOM     37  C   UNL A   1      44.367  31.647  29.052  1.00  0.00     0.034 A 
BRANCH  24  38
ATOM     38  C   UNL A   1      38.692  29.526  30.201  1.00  0.00     0.023 A 
ATOM     39  C   UNL A   1      38.434  29.094  31.517  1.00  0.00     0.012 A 
ATOM     40  C   UNL A   1      37.769  30.373  29.555  1.00  0.00     0.148 A 
ATOM     41  C   UNL A   1      37.287  29.512  32.190  1.00  0.00     0.002 A 
ATOM     42  C   UNL A   1      36.639  30.807  30.242  1.00  0.00     0.091 A 
ATOM     43  F   UNL A   1      38.037  30.774  28.305  1.00  0.00    -0.205 F 
ATOM     44  C   UNL A   1      36.397  30.378  31.559  1.00  0.00     0.022 A 
BRANCH  42  45
ATOM     45  S   UNL A   1      35.457  31.972  29.551  1.00  0.00     0.127 S 
ATOM     46  O   UNL A   1      36.327  33.082  29.162  1.00  0.00    -0.237 OA
ATOM     47  O   UNL A   1      34.900  31.215  28.432  1.00  0.00    -0.237 OA
ATOM     48  O   UNL A   1      34.517  32.279  30.620  1.00  0.00    -0.744 OA
ENDBRANCH  42  45
ENDBRANCH  24  38
BRANCH  25  49
ATOM     49  C   UNL A   1      47.666  27.479  26.130  1.00  0.00     0.023 A 
ATOM     50  C   UNL A   1      48.649  26.911  26.963  1.00  0.00     0.012 A 
ATOM     51  C   UNL A   1      47.926  27.629  24.755  1.00  0.00     0.148 A 
ATOM     52  C   UNL A   1      49.877  26.510  26.440  1.00  0.00     0.002 A 
ATOM     53  C   UNL A   1      49.140  27.196  24.233  1.00  0.00     0.091 A 
ATOM     54  F   UNL A   1      46.970  28.163  23.982  1.00  0.00    -0.205 F 
ATOM     55  C   UNL A   1      50.119  26.644  25.076  1.00  0.00     0.022 A 
BRANCH  53  56
ATOM     56  S   UNL A   1      49.506  27.232  22.474  1.00  0.00     0.127 S 
ATOM     57  O   UNL A   1      50.905  26.814  22.454  1.00  0.00    -0.237 OA
ATOM     58  O   UNL A   1      48.561  26.248  21.948  1.00  0.00    -0.237 OA
ATOM     59  O   UNL A   1      49.248  28.601  22.047  1.00  0.00    -0.744 OA
ENDBRANCH  53  56
ENDBRANCH  25  49
BRANCH  37  60
ATOM     60  C   UNL A   1      44.932  32.970  29.474  1.00  0.00     0.023 A 
ATOM     61  C   UNL A   1      45.608  33.080  30.703  1.00  0.00     0.012 A 
ATOM     62  C   UNL A   1      44.881  34.070  28.597  1.00  0.00     0.148 A 
ATOM     63  C   UNL A   1      46.218  34.280  31.060  1.00  0.00     0.002 A 
ATOM     64  C   UNL A   1      45.523  35.249  28.944  1.00  0.00     0.091 A 
ATOM     65  F   UNL A   1      44.218  33.934  27.440  1.00  0.00    -0.205 F 
ATOM     66  C   UNL A   1      46.186  35.359  30.178  1.00  0.00     0.022 A 
BRANCH  64  67
ATOM     67  S   UNL A   1      45.599  36.664  27.842  1.00  0.00     0.127 S 
ATOM     68  O   UNL A   1      44.245  36.683  27.291  1.00  0.00    -0.237 OA
ATOM     69  O   UNL A   1      45.897  37.758  28.766  1.00  0.00    -0.237 OA
ATOM     70  O   UNL A   1      46.654  36.375  26.880  1.00  0.00    -0.744 OA
ENDBRANCH  64  67
ENDBRANCH  37  60
ENDBRANCH  11  12
ENDBRANCH   4   6
ENDBRANCH   3   4
ENDBRANCH   2   3
ENDBRANCH   1   2
BRANCH   1  71
ATOM     71  O   UNL A   1      36.760  21.246  25.880  1.00  0.00    -0.374 OA
BRANCH  71  72
ATOM     72  C   UNL A   1      35.841  21.220  24.783  1.00  0.00     0.202 C 
BRANCH  72  73
ATOM     73  C   UNL A   1      34.849  20.077  24.977  1.00  0.00     0.261 C 
BRANCH  73  74
ATOM     74  O   UNL A   1      33.858  20.524  25.906  1.00  0.00    -0.460 OA
BRANCH  74  75
ATOM     75  C   UNL A   1      32.637  20.768  25.376  1.00  0.00     0.341 C 
ATOM     76  O   UNL A   1      31.803  19.955  25.013  1.00  0.00    -0.246 OA
BRANCH  75  77
ATOM     77  C   UNL A   1      32.345  22.205  25.518  1.00  0.00     0.101 A 
ATOM     78  C   UNL A   1      32.121  22.936  24.339  1.00  0.00     0.020 A 
ATOM     79  C   UNL A   1      32.280  22.844  26.758  1.00  0.00     0.130 A 
ATOM     80  C   UNL A   1      31.876  24.307  24.394  1.00  0.00     0.010 A 
ATOM     81  C   UNL A   1      32.042  24.212  26.817  1.00  0.00     0.055 A 
ATOM     82  C   UNL A   1      31.884  24.950  25.632  1.00  0.00    -0.014 A 
BRANCH  79  83
ATOM     83  O   UNL A   1      32.527  22.163  27.916  1.00  0.00    -0.507 OA
ATOM     84  H   UNL A   1      32.114  22.430  28.714  1.00  0.00     0.293 HD
ENDBRANCH  79  83
BRANCH  82  85
ATOM     85  C   UNL A   1      32.020  26.410  25.717  1.00  0.00    -0.011 A 
ATOM     86  C   UNL A   1      31.579  27.079  26.925  1.00  0.00     0.027 A 
ATOM     87  C   UNL A   1      32.508  27.131  24.696  1.00  0.00     0.080 A 
ATOM     88  C   UNL A   1      31.582  28.409  27.004  1.00  0.00     0.095 A 
ATOM     89  C   UNL A   1      32.535  28.623  24.782  1.00  0.00     0.255 A 
ATOM     90  N   UNL A   1      32.034  29.177  25.952  1.00  0.00    -0.258 N 
ATOM     91  O   UNL A   1      32.968  29.258  23.824  1.00  0.00    -0.269 OA
BRANCH  90  92
ATOM     92  C   UNL A   1      31.972  30.611  26.036  1.00  0.00     0.451 C 
ATOM     93  F   UNL A   1      30.910  31.104  25.355  1.00  0.00    -0.185 F 
ATOM     94  F   UNL A   1      31.872  31.016  27.326  1.00  0.00    -0.185 F 
ENDBRANCH  90  92
ENDBRANCH  82  85
ENDBRANCH  75  77
ENDBRANCH  74  75
ENDBRANCH  73  74
ENDBRANCH  72  73
ENDBRANCH  71  72
ENDBRANCH   1  71
TORSDOF 20
ENDMDL
