MODEL 1
REMARK VINA RESULT:     -11.6      0.000      0.000
REMARK SMILES C[C@H]1[C@@H](C(=O)OCCOCCOC(=O)c2ccc(-c3c4nc(c(-c5cccc(S(=O)(=O)[O-])c5F)c5ccc([nH]5)c(-c5cccc(S(=O)(=O)[O-])c5F)c5nc(c(-c6cccc(S(=O)(=O)[O-])c6F)c6ccc3[nH]6)C=C5)C=C4)cc2)CCN1C(=O)N[C@@H]1CC[N@H+]2CCCC[C@H]12
REMARK SMILES IDX 10 1 9 2 8 3 7 4 6 5 4 6 5 7 3 8 1 9 2 10 80 11 78 12 79 13
REMARK SMILES IDX 81 14 82 15 83 16 84 18 85 19 92 20 86 21 87 22 91 23 88 24
REMARK SMILES IDX 90 26 89 27 11 28 12 29 13 30 14 31 15 32 16 33 77 34 17 35
REMARK SMILES IDX 76 36 18 37 19 38 20 39 70 40 21 41 75 42 69 43 71 44 22 45
REMARK SMILES IDX 74 46 68 47 67 48 23 50 55 51 35 52 54 53 36 54 39 55 53 56
REMARK SMILES IDX 72 57 37 58 38 59 52 61 73 62 40 63 24 64 25 65 33 66 26 67
REMARK SMILES IDX 28 68 34 69 27 70 29 71 30 72 31 73 32 74 56 75 57 76 65 77
REMARK SMILES IDX 58 78 60 79 66 80 59 81 61 82 62 83 63 84 64 85 41 86 42 87
REMARK SMILES IDX 50 88 43 89 45 90 51 91 44 92 46 93 47 94 48 95 49 96
REMARK H PARENT 83 17 87 25 71 49 39 60
REMARK Flexibility Score: inf
ROOT
ATOM      1  C   UNL A   1      31.827  29.488  25.599  1.00  0.00     0.202 C 
ENDROOT
BRANCH   1   2
ATOM      2  O   UNL A   1      32.386  29.272  24.310  1.00  0.00    -0.374 OA
BRANCH   2   3
ATOM      3  C   UNL A   1      31.475  28.908  23.263  1.00  0.00     0.202 C 
BRANCH   3   4
ATOM      4  C   UNL A   1      31.625  27.497  22.678  1.00  0.00     0.261 C 
BRANCH   4   5
ATOM      5  O   UNL A   1      32.988  27.053  22.826  1.00  0.00    -0.463 OA
BRANCH   5   6
ATOM      6  C   UNL A   1      33.285  25.805  22.368  1.00  0.00     0.311 C 
ATOM      7  O   UNL A   1      33.248  25.454  21.197  1.00  0.00    -0.252 OA
BRANCH   6   8
ATOM      8  C   UNL A   1      33.739  24.931  23.522  1.00  0.00     0.123 C 
ATOM      9  C   UNL A   1      31.327  23.903  23.419  1.00  0.00     0.032 C 
ATOM     10  C   UNL A   1      32.650  24.033  24.168  1.00  0.00     0.098 C 
ATOM     11  N   UNL A   1      32.422  24.571  25.505  1.00  0.00    -0.321 N 
ATOM     12  C   UNL A   1      34.251  25.791  24.676  1.00  0.00     0.039 C 
ATOM     13  C   UNL A   1      33.059  25.873  25.613  1.00  0.00     0.122 C 
BRANCH  11  14
ATOM     14  C   UNL A   1      31.621  24.125  26.514  1.00  0.00     0.318 C 
ATOM     15  O   UNL A   1      30.548  24.682  26.768  1.00  0.00    -0.249 OA
ATOM     16  N   UNL A   1      31.918  23.055  27.280  1.00  0.00    -0.329 N 
ATOM     17  H   UNL A   1      31.141  22.771  27.815  1.00  0.00     0.165 HD
BRANCH  16  18
ATOM     18  C   UNL A   1      33.080  22.199  27.534  1.00  0.00     0.147 C 
ATOM     19  C   UNL A   1      34.405  22.984  27.432  1.00  0.00     0.092 C 
ATOM     20  C   UNL A   1      33.273  21.068  26.493  1.00  0.00     0.207 C 
ATOM     21  C   UNL A   1      35.303  22.183  26.498  1.00  0.00     0.264 C 
ATOM     22  N   UNL A   1      34.330  21.577  25.603  1.00  0.00    -0.331 N 
ATOM     23  C   UNL A   1      32.078  20.630  25.655  1.00  0.00     0.067 C 
ATOM     24  C   UNL A   1      34.871  20.516  24.760  1.00  0.00     0.262 C 
ATOM     25  H   UNL A   1      33.991  22.265  24.929  1.00  0.00     0.348 HD
ATOM     26  C   UNL A   1      32.520  19.530  24.684  1.00  0.00     0.012 C 
ATOM     27  C   UNL A   1      33.753  19.952  23.876  1.00  0.00     0.062 C 
ENDBRANCH  16  18
ENDBRANCH  11  14
ENDBRANCH   6   8
ENDBRANCH   5   6
ENDBRANCH   4   5
ENDBRANCH   3   4
ENDBRANCH   2   3
ENDBRANCH   1   2
BRANCH   1  28
ATOM     28  C   UNL A   1      31.839  30.901  26.186  1.00  0.00     0.261 C 
BRANCH  28  29
ATOM     29  O   UNL A   1      32.490  30.943  27.453  1.00  0.00    -0.460 OA
BRANCH  29  30
ATOM     30  C   UNL A   1      33.267  32.040  27.595  1.00  0.00     0.338 C 
ATOM     31  O   UNL A   1      32.900  33.206  27.660  1.00  0.00    -0.246 OA
BRANCH  30  32
ATOM     32  C   UNL A   1      34.646  31.621  27.855  1.00  0.00     0.060 A 
ATOM     33  C   UNL A   1      34.868  30.247  27.990  1.00  0.00     0.016 A 
ATOM     34  C   UNL A   1      35.682  32.545  28.012  1.00  0.00     0.016 A 
ATOM     35  C   UNL A   1      36.117  29.791  28.375  1.00  0.00     0.010 A 
ATOM     36  C   UNL A   1      36.938  32.086  28.404  1.00  0.00     0.010 A 
ATOM     37  C   UNL A   1      37.135  30.715  28.646  1.00  0.00    -0.014 A 
BRANCH  37  38
ATOM     38  C   UNL A   1      38.317  30.240  29.390  1.00  0.00     0.031 A 
ATOM     39  C   UNL A   1      38.495  30.692  30.812  1.00  0.00     0.074 A 
ATOM     40  C   UNL A   1      39.161  29.359  28.829  1.00  0.00     0.049 A 
ATOM     41  N   UNL A   1      39.407  30.346  31.680  1.00  0.00    -0.248 NA
ATOM     42  C   UNL A   1      37.513  31.664  31.327  1.00  0.00     0.031 C 
ATOM     43  C   UNL A   1      39.064  28.852  27.460  1.00  0.00     0.029 A 
ATOM     44  N   UNL A   1      40.267  28.739  29.344  1.00  0.00    -0.354 N 
ATOM     45  C   UNL A   1      39.127  31.073  32.830  1.00  0.00     0.074 A 
ATOM     46  C   UNL A   1      37.972  31.896  32.546  1.00  0.00     0.031 C 
ATOM     47  C   UNL A   1      40.082  28.003  27.240  1.00  0.00     0.029 A 
ATOM     48  C   UNL A   1      40.907  27.925  28.443  1.00  0.00     0.049 A 
ATOM     49  H   UNL A   1      40.573  28.865  30.272  1.00  0.00     0.167 HD
ATOM     50  C   UNL A   1      39.763  31.041  34.025  1.00  0.00     0.034 A 
ATOM     51  C   UNL A   1      42.039  27.210  28.578  1.00  0.00     0.034 A 
ATOM     52  C   UNL A   1      40.898  30.205  34.299  1.00  0.00     0.049 A 
ATOM     53  C   UNL A   1      42.735  27.203  29.913  1.00  0.00     0.074 A 
ATOM     54  C   UNL A   1      41.599  30.065  35.482  1.00  0.00     0.029 A 
ATOM     55  N   UNL A   1      41.507  29.374  33.371  1.00  0.00    -0.354 N 
ATOM     56  N   UNL A   1      42.398  27.812  31.025  1.00  0.00    -0.248 NA
ATOM     57  C   UNL A   1      43.944  26.375  30.024  1.00  0.00     0.031 C 
ATOM     58  C   UNL A   1      42.654  29.175  35.259  1.00  0.00     0.029 A 
ATOM     59  C   UNL A   1      42.584  28.727  33.949  1.00  0.00     0.049 A 
ATOM     60  H   UNL A   1      41.216  29.261  32.437  1.00  0.00     0.167 HD
ATOM     61  C   UNL A   1      43.328  27.413  31.978  1.00  0.00     0.074 A 
ATOM     62  C   UNL A   1      44.228  26.491  31.314  1.00  0.00     0.031 C 
ATOM     63  C   UNL A   1      43.439  27.780  33.278  1.00  0.00     0.034 A 
BRANCH  50  64
ATOM     64  C   UNL A   1      39.237  31.932  35.120  1.00  0.00     0.023 A 
ATOM     65  C   UNL A   1      38.233  31.461  35.992  1.00  0.00     0.012 A 
ATOM     66  C   UNL A   1      39.764  33.224  35.308  1.00  0.00     0.148 A 
ATOM     67  C   UNL A   1      37.740  32.273  37.013  1.00  0.00     0.002 A 
ATOM     68  C   UNL A   1      39.301  34.009  36.357  1.00  0.00     0.091 A 
ATOM     69  F   UNL A   1      40.696  33.665  34.452  1.00  0.00    -0.205 F 
ATOM     70  C   UNL A   1      38.282  33.542  37.202  1.00  0.00     0.022 A 
BRANCH  68  71
ATOM     71  S   UNL A   1      39.988  35.627  36.731  1.00  0.00     0.127 S 
ATOM     72  O   UNL A   1      39.311  35.952  37.985  1.00  0.00    -0.237 OA
ATOM     73  O   UNL A   1      41.414  35.329  36.867  1.00  0.00    -0.237 OA
ATOM     74  O   UNL A   1      39.649  36.480  35.600  1.00  0.00    -0.744 OA
ENDBRANCH  68  71
ENDBRANCH  50  64
BRANCH  51  75
ATOM     75  C   UNL A   1      42.561  26.417  27.431  1.00  0.00     0.023 A 
ATOM     76  C   UNL A   1      43.448  27.013  26.513  1.00  0.00     0.012 A 
ATOM     77  C   UNL A   1      42.196  25.069  27.258  1.00  0.00     0.148 A 
ATOM     78  C   UNL A   1      43.932  26.288  25.423  1.00  0.00     0.002 A 
ATOM     79  C   UNL A   1      42.728  24.337  26.204  1.00  0.00     0.091 A 
ATOM     80  F   UNL A   1      41.341  24.526  28.136  1.00  0.00    -0.205 F 
ATOM     81  C   UNL A   1      43.581  24.950  25.274  1.00  0.00     0.022 A 
BRANCH  79  82
ATOM     82  S   UNL A   1      42.434  22.575  26.013  1.00  0.00     0.127 S 
ATOM     83  O   UNL A   1      43.090  22.032  27.198  1.00  0.00    -0.237 OA
ATOM     84  O   UNL A   1      40.972  22.512  26.031  1.00  0.00    -0.237 OA
ATOM     85  O   UNL A   1      43.033  22.212  24.735  1.00  0.00    -0.744 OA
ENDBRANCH  79  82
ENDBRANCH  51  75
BRANCH  63  86
ATOM     86  C   UNL A   1      44.545  27.148  34.085  1.00  0.00     0.023 A 
ATOM     87  C   UNL A   1      45.824  27.739  34.115  1.00  0.00     0.012 A 
ATOM     88  C   UNL A   1      44.296  25.995  34.854  1.00  0.00     0.148 A 
ATOM     89  C   UNL A   1      46.851  27.163  34.860  1.00  0.00     0.002 A 
ATOM     90  C   UNL A   1      45.311  25.459  35.638  1.00  0.00     0.091 A 
ATOM     91  F   UNL A   1      43.078  25.437  34.800  1.00  0.00    -0.205 F 
ATOM     92  C   UNL A   1      46.593  26.031  35.629  1.00  0.00     0.022 A 
BRANCH  90  93
ATOM     93  S   UNL A   1      45.037  24.066  36.738  1.00  0.00     0.127 S 
ATOM     94  O   UNL A   1      43.809  24.465  37.425  1.00  0.00    -0.237 OA
ATOM     95  O   UNL A   1      44.877  22.955  35.799  1.00  0.00    -0.237 OA
ATOM     96  O   UNL A   1      46.226  23.978  37.576  1.00  0.00    -0.744 OA
ENDBRANCH  90  93
ENDBRANCH  63  86
ENDBRANCH  37  38
ENDBRANCH  30  32
ENDBRANCH  29  30
ENDBRANCH  28  29
ENDBRANCH   1  28
TORSDOF 19
ENDMDL
MODEL 2
REMARK VINA RESULT:     -11.4      4.594     10.153
REMARK SMILES C[C@H]1[C@@H](C(=O)OCCOCCOC(=O)c2ccc(-c3c4nc(c(-c5cccc(S(=O)(=O)[O-])c5F)c5ccc([nH]5)c(-c5cccc(S(=O)(=O)[O-])c5F)c5nc(c(-c6cccc(S(=O)(=O)[O-])c6F)c6ccc3[nH]6)C=C5)C=C4)cc2)CCN1C(=O)N[C@@H]1CC[N@H+]2CCCC[C@H]12
REMARK SMILES IDX 10 1 9 2 8 3 7 4 6 5 4 6 5 7 3 8 1 9 2 10 80 11 78 12 79 13
REMARK SMILES IDX 81 14 82 15 83 16 84 18 85 19 92 20 86 21 87 22 91 23 88 24
REMARK SMILES IDX 90 26 89 27 11 28 12 29 13 30 14 31 15 32 16 33 77 34 17 35
REMARK SMILES IDX 76 36 18 37 19 38 20 39 70 40 21 41 75 42 69 43 71 44 22 45
REMARK SMILES IDX 74 46 68 47 67 48 23 50 55 51 35 52 54 53 36 54 39 55 53 56
REMARK SMILES IDX 72 57 37 58 38 59 52 61 73 62 40 63 24 64 25 65 33 66 26 67
REMARK SMILES IDX 28 68 34 69 27 70 29 71 30 72 31 73 32 74 56 75 57 76 65 77
REMARK SMILES IDX 58 78 60 79 66 80 59 81 61 82 62 83 63 84 64 85 41 86 42 87
REMARK SMILES IDX 50 88 43 89 45 90 51 91 44 92 46 93 47 94 48 95 49 96
REMARK H PARENT 83 17 87 25 71 49 39 60
REMARK Flexibility Score: inf
ROOT
ATOM      1  C   UNL A   1      35.930  20.708  25.361  1.00  0.00     0.202 C 
ENDROOT
BRANCH   1   2
ATOM      2  O   UNL A   1      34.894  19.834  24.934  1.00  0.00    -0.374 OA
BRANCH   2   3
ATOM      3  C   UNL A   1      33.582  20.398  24.813  1.00  0.00     0.202 C 
BRANCH   3   4
ATOM      4  C   UNL A   1      33.108  21.297  25.964  1.00  0.00     0.261 C 
BRANCH   4   5
ATOM      5  O   UNL A   1      33.150  22.677  25.550  1.00  0.00    -0.463 OA
BRANCH   5   6
ATOM      6  C   UNL A   1      32.383  23.556  26.253  1.00  0.00     0.311 C 
ATOM      7  O   UNL A   1      31.629  23.262  27.170  1.00  0.00    -0.252 OA
BRANCH   6   8
ATOM      8  C   UNL A   1      32.659  24.970  25.776  1.00  0.00     0.123 C 
ATOM      9  C   UNL A   1      31.024  24.399  23.803  1.00  0.00     0.032 C 
ATOM     10  C   UNL A   1      32.053  25.356  24.400  1.00  0.00     0.098 C 
ATOM     11  N   UNL A   1      33.182  25.514  23.489  1.00  0.00    -0.321 N 
ATOM     12  C   UNL A   1      34.161  25.193  25.602  1.00  0.00     0.039 C 
ATOM     13  C   UNL A   1      34.381  24.979  24.115  1.00  0.00     0.122 C 
BRANCH  11  14
ATOM     14  C   UNL A   1      33.220  25.908  22.185  1.00  0.00     0.318 C 
ATOM     15  O   UNL A   1      33.211  25.079  21.269  1.00  0.00    -0.249 OA
ATOM     16  N   UNL A   1      33.245  27.201  21.800  1.00  0.00    -0.329 N 
ATOM     17  H   UNL A   1      33.072  27.291  20.835  1.00  0.00     0.165 HD
BRANCH  16  18
ATOM     18  C   UNL A   1      33.458  28.509  22.427  1.00  0.00     0.147 C 
ATOM     19  C   UNL A   1      34.059  28.377  23.843  1.00  0.00     0.092 C 
ATOM     20  C   UNL A   1      32.158  29.309  22.681  1.00  0.00     0.207 C 
ATOM     21  C   UNL A   1      33.182  29.223  24.756  1.00  0.00     0.264 C 
ATOM     22  N   UNL A   1      31.883  29.101  24.114  1.00  0.00    -0.331 N 
ATOM     23  C   UNL A   1      30.911  28.961  21.875  1.00  0.00     0.067 C 
ATOM     24  C   UNL A   1      30.882  30.042  24.604  1.00  0.00     0.262 C 
ATOM     25  H   UNL A   1      31.471  28.190  24.316  1.00  0.00     0.348 HD
ATOM     26  C   UNL A   1      29.754  29.860  22.324  1.00  0.00     0.012 C 
ATOM     27  C   UNL A   1      29.568  29.825  23.846  1.00  0.00     0.062 C 
ENDBRANCH  16  18
ENDBRANCH  11  14
ENDBRANCH   6   8
ENDBRANCH   5   6
ENDBRANCH   4   5
ENDBRANCH   3   4
ENDBRANCH   2   3
ENDBRANCH   1   2
BRANCH   1  28
ATOM     28  C   UNL A   1      37.350  20.491  24.834  1.00  0.00     0.261 C 
BRANCH  28  29
ATOM     29  O   UNL A   1      38.198  21.599  25.122  1.00  0.00    -0.460 OA
BRANCH  29  30
ATOM     30  C   UNL A   1      39.225  21.262  25.934  1.00  0.00     0.338 C 
ATOM     31  O   UNL A   1      39.853  20.211  25.940  1.00  0.00    -0.246 OA
BRANCH  30  32
ATOM     32  C   UNL A   1      39.625  22.434  26.716  1.00  0.00     0.060 A 
ATOM     33  C   UNL A   1      38.962  23.632  26.431  1.00  0.00     0.016 A 
ATOM     34  C   UNL A   1      40.650  22.377  27.663  1.00  0.00     0.016 A 
ATOM     35  C   UNL A   1      39.384  24.806  27.029  1.00  0.00     0.010 A 
ATOM     36  C   UNL A   1      41.078  23.560  28.262  1.00  0.00     0.010 A 
ATOM     37  C   UNL A   1      40.485  24.781  27.895  1.00  0.00    -0.014 A 
BRANCH  37  38
ATOM     38  C   UNL A   1      41.131  26.066  28.226  1.00  0.00     0.031 A 
ATOM     39  C   UNL A   1      42.515  26.325  27.701  1.00  0.00     0.074 A 
ATOM     40  C   UNL A   1      40.458  27.006  28.908  1.00  0.00     0.049 A 
ATOM     41  N   UNL A   1      43.246  27.403  27.796  1.00  0.00    -0.248 NA
ATOM     42  C   UNL A   1      43.164  25.223  26.968  1.00  0.00     0.031 C 
ATOM     43  C   UNL A   1      39.107  26.852  29.448  1.00  0.00     0.029 A 
ATOM     44  N   UNL A   1      40.825  28.276  29.265  1.00  0.00    -0.354 N 
ATOM     45  C   UNL A   1      44.445  27.102  27.162  1.00  0.00     0.074 A 
ATOM     46  C   UNL A   1      44.355  25.735  26.702  1.00  0.00     0.031 C 
ATOM     47  C   UNL A   1      38.762  27.986  30.081  1.00  0.00     0.029 A 
ATOM     48  C   UNL A   1      39.873  28.932  30.005  1.00  0.00     0.049 A 
ATOM     49  H   UNL A   1      41.688  28.679  29.014  1.00  0.00     0.167 HD
ATOM     50  C   UNL A   1      45.518  27.903  26.962  1.00  0.00     0.034 A 
ATOM     51  C   UNL A   1      39.908  30.155  30.566  1.00  0.00     0.034 A 
ATOM     52  C   UNL A   1      45.586  29.267  27.408  1.00  0.00     0.049 A 
ATOM     53  C   UNL A   1      41.119  31.020  30.340  1.00  0.00     0.074 A 
ATOM     54  C   UNL A   1      46.607  30.181  27.230  1.00  0.00     0.029 A 
ATOM     55  N   UNL A   1      44.595  29.909  28.135  1.00  0.00    -0.354 N 
ATOM     56  N   UNL A   1      42.203  30.762  29.647  1.00  0.00    -0.248 NA
ATOM     57  C   UNL A   1      41.094  32.362  30.937  1.00  0.00     0.031 C 
ATOM     58  C   UNL A   1      46.248  31.367  27.880  1.00  0.00     0.029 A 
ATOM     59  C   UNL A   1      44.983  31.204  28.425  1.00  0.00     0.049 A 
ATOM     60  H   UNL A   1      43.739  29.502  28.405  1.00  0.00     0.167 HD
ATOM     61  C   UNL A   1      42.971  31.920  29.692  1.00  0.00     0.074 A 
ATOM     62  C   UNL A   1      42.214  32.887  30.462  1.00  0.00     0.031 C 
ATOM     63  C   UNL A   1      44.193  32.162  29.157  1.00  0.00     0.034 A 
BRANCH  50  64
ATOM     64  C   UNL A   1      46.695  27.323  26.223  1.00  0.00     0.023 A 
ATOM     65  C   UNL A   1      46.762  27.417  24.817  1.00  0.00     0.012 A 
ATOM     66  C   UNL A   1      47.754  26.715  26.926  1.00  0.00     0.148 A 
ATOM     67  C   UNL A   1      47.848  26.887  24.121  1.00  0.00     0.002 A 
ATOM     68  C   UNL A   1      48.854  26.232  26.229  1.00  0.00     0.091 A 
ATOM     69  F   UNL A   1      47.658  26.609  28.259  1.00  0.00    -0.205 F 
ATOM     70  C   UNL A   1      48.898  26.305  24.827  1.00  0.00     0.022 A 
BRANCH  68  71
ATOM     71  S   UNL A   1      50.291  25.536  27.051  1.00  0.00     0.127 S 
ATOM     72  O   UNL A   1      49.743  24.302  27.611  1.00  0.00    -0.237 OA
ATOM     73  O   UNL A   1      51.218  25.342  25.936  1.00  0.00    -0.237 OA
ATOM     74  O   UNL A   1      50.716  26.528  28.029  1.00  0.00    -0.744 OA
ENDBRANCH  68  71
ENDBRANCH  50  64
BRANCH  51  75
ATOM     75  C   UNL A   1      38.748  30.642  31.362  1.00  0.00     0.023 A 
ATOM     76  C   UNL A   1      38.760  30.522  32.765  1.00  0.00     0.012 A 
ATOM     77  C   UNL A   1      37.641  31.243  30.733  1.00  0.00     0.148 A 
ATOM     78  C   UNL A   1      37.673  30.959  33.524  1.00  0.00     0.002 A 
ATOM     79  C   UNL A   1      36.588  31.728  31.499  1.00  0.00     0.091 A 
ATOM     80  F   UNL A   1      37.644  31.336  29.396  1.00  0.00    -0.205 F 
ATOM     81  C   UNL A   1      36.594  31.569  32.893  1.00  0.00     0.022 A 
BRANCH  79  82
ATOM     82  S   UNL A   1      35.221  32.645  30.781  1.00  0.00     0.127 S 
ATOM     83  O   UNL A   1      35.799  33.977  30.634  1.00  0.00    -0.237 OA
ATOM     84  O   UNL A   1      35.001  31.923  29.528  1.00  0.00    -0.237 OA
ATOM     85  O   UNL A   1      34.126  32.532  31.737  1.00  0.00    -0.744 OA
ENDBRANCH  79  82
ENDBRANCH  51  75
BRANCH  63  86
ATOM     86  C   UNL A   1      44.770  33.542  29.345  1.00  0.00     0.023 A 
ATOM     87  C   UNL A   1      45.429  33.876  30.545  1.00  0.00     0.012 A 
ATOM     88  C   UNL A   1      44.702  34.491  28.306  1.00  0.00     0.148 A 
ATOM     89  C   UNL A   1      45.968  35.147  30.727  1.00  0.00     0.002 A 
ATOM     90  C   UNL A   1      45.291  35.738  28.473  1.00  0.00     0.091 A 
ATOM     91  F   UNL A   1      44.057  34.162  27.178  1.00  0.00    -0.205 F 
ATOM     92  C   UNL A   1      45.909  36.074  29.689  1.00  0.00     0.022 A 
BRANCH  90  93
ATOM     93  S   UNL A   1      45.353  36.953  27.153  1.00  0.00     0.127 S 
ATOM     94  O   UNL A   1      43.935  37.258  26.961  1.00  0.00    -0.237 OA
ATOM     95  O   UNL A   1      46.132  38.032  27.760  1.00  0.00    -0.237 OA
ATOM     96  O   UNL A   1      46.010  36.294  26.032  1.00  0.00    -0.744 OA
ENDBRANCH  90  93
ENDBRANCH  63  86
ENDBRANCH  37  38
ENDBRANCH  30  32
ENDBRANCH  29  30
ENDBRANCH  28  29
ENDBRANCH   1  28
TORSDOF 19
ENDMDL
MODEL 3
REMARK VINA RESULT:     -11.4      1.687      2.554
REMARK SMILES C[C@H]1[C@@H](C(=O)OCCOCCOC(=O)c2ccc(-c3c4nc(c(-c5cccc(S(=O)(=O)[O-])c5F)c5ccc([nH]5)c(-c5cccc(S(=O)(=O)[O-])c5F)c5nc(c(-c6cccc(S(=O)(=O)[O-])c6F)c6ccc3[nH]6)C=C5)C=C4)cc2)CCN1C(=O)N[C@@H]1CC[N@H+]2CCCC[C@H]12
REMARK SMILES IDX 10 1 9 2 8 3 7 4 6 5 4 6 5 7 3 8 1 9 2 10 80 11 78 12 79 13
REMARK SMILES IDX 81 14 82 15 83 16 84 18 85 19 92 20 86 21 87 22 91 23 88 24
REMARK SMILES IDX 90 26 89 27 11 28 12 29 13 30 14 31 15 32 16 33 77 34 17 35
REMARK SMILES IDX 76 36 18 37 19 38 20 39 70 40 21 41 75 42 69 43 71 44 22 45
REMARK SMILES IDX 74 46 68 47 67 48 23 50 55 51 35 52 54 53 36 54 39 55 53 56
REMARK SMILES IDX 72 57 37 58 38 59 52 61 73 62 40 63 24 64 25 65 33 66 26 67
REMARK SMILES IDX 28 68 34 69 27 70 29 71 30 72 31 73 32 74 56 75 57 76 65 77
REMARK SMILES IDX 58 78 60 79 66 80 59 81 61 82 62 83 63 84 64 85 41 86 42 87
REMARK SMILES IDX 50 88 43 89 45 90 51 91 44 92 46 93 47 94 48 95 49 96
REMARK H PARENT 83 17 87 25 71 49 39 60
REMARK Flexibility Score: inf
ROOT
ATOM      1  C   UNL A   1      31.763  32.162  26.583  1.00  0.00     0.202 C 
ENDROOT
BRANCH   1   2
ATOM      2  O   UNL A   1      31.757  30.863  27.161  1.00  0.00    -0.374 OA
BRANCH   2   3
ATOM      3  C   UNL A   1      32.975  30.111  27.073  1.00  0.00     0.202 C 
BRANCH   3   4
ATOM      4  C   UNL A   1      33.000  28.954  26.065  1.00  0.00     0.261 C 
BRANCH   4   5
ATOM      5  O   UNL A   1      32.860  29.473  24.727  1.00  0.00    -0.463 OA
BRANCH   5   6
ATOM      6  C   UNL A   1      31.699  29.191  24.074  1.00  0.00     0.311 C 
ATOM      7  O   UNL A   1      30.576  29.332  24.535  1.00  0.00    -0.252 OA
BRANCH   6   8
ATOM      8  C   UNL A   1      32.005  28.743  22.657  1.00  0.00     0.123 C 
ATOM      9  C   UNL A   1      30.762  26.527  23.311  1.00  0.00     0.032 C 
ATOM     10  C   UNL A   1      31.637  27.276  22.310  1.00  0.00     0.098 C 
ATOM     11  N   UNL A   1      32.902  26.574  22.121  1.00  0.00    -0.321 N 
ATOM     12  C   UNL A   1      33.506  28.830  22.381  1.00  0.00     0.039 C 
ATOM     13  C   UNL A   1      33.990  27.409  22.604  1.00  0.00     0.122 C 
BRANCH  11  14
ATOM     14  C   UNL A   1      33.154  25.289  21.742  1.00  0.00     0.318 C 
ATOM     15  O   UNL A   1      33.120  24.959  20.552  1.00  0.00    -0.249 OA
ATOM     16  N   UNL A   1      33.474  24.307  22.610  1.00  0.00    -0.329 N 
ATOM     17  H   UNL A   1      33.809  23.509  22.141  1.00  0.00     0.165 HD
BRANCH  16  18
ATOM     18  C   UNL A   1      33.461  24.104  24.061  1.00  0.00     0.147 C 
ATOM     19  C   UNL A   1      34.809  24.490  24.708  1.00  0.00     0.092 C 
ATOM     20  C   UNL A   1      33.286  22.628  24.493  1.00  0.00     0.207 C 
ATOM     21  C   UNL A   1      35.218  23.306  25.575  1.00  0.00     0.264 C 
ATOM     22  N   UNL A   1      34.650  22.190  24.835  1.00  0.00    -0.331 N 
ATOM     23  C   UNL A   1      32.675  21.641  23.504  1.00  0.00     0.067 C 
ATOM     24  C   UNL A   1      34.635  20.930  25.571  1.00  0.00     0.262 C 
ATOM     25  H   UNL A   1      35.222  21.979  24.017  1.00  0.00     0.348 HD
ATOM     26  C   UNL A   1      32.635  20.249  24.142  1.00  0.00     0.012 C 
ATOM     27  C   UNL A   1      34.006  19.840  24.696  1.00  0.00     0.062 C 
ENDBRANCH  16  18
ENDBRANCH  11  14
ENDBRANCH   6   8
ENDBRANCH   5   6
ENDBRANCH   4   5
ENDBRANCH   3   4
ENDBRANCH   2   3
ENDBRANCH   1   2
BRANCH   1  28
ATOM     28  C   UNL A   1      32.018  33.374  27.483  1.00  0.00     0.261 C 
BRANCH  28  29
ATOM     29  O   UNL A   1      33.396  33.732  27.511  1.00  0.00    -0.460 OA
BRANCH  29  30
ATOM     30  C   UNL A   1      33.876  33.827  28.771  1.00  0.00     0.338 C 
ATOM     31  O   UNL A   1      33.334  34.354  29.734  1.00  0.00    -0.246 OA
BRANCH  30  32
ATOM     32  C   UNL A   1      35.096  33.025  28.883  1.00  0.00     0.060 A 
ATOM     33  C   UNL A   1      34.969  31.773  29.491  1.00  0.00     0.016 A 
ATOM     34  C   UNL A   1      36.337  33.502  28.451  1.00  0.00     0.016 A 
ATOM     35  C   UNL A   1      36.101  31.023  29.756  1.00  0.00     0.010 A 
ATOM     36  C   UNL A   1      37.477  32.749  28.722  1.00  0.00     0.010 A 
ATOM     37  C   UNL A   1      37.362  31.540  29.431  1.00  0.00    -0.014 A 
BRANCH  37  38
ATOM     38  C   UNL A   1      38.546  30.904  30.040  1.00  0.00     0.031 A 
ATOM     39  C   UNL A   1      38.916  31.283  31.447  1.00  0.00     0.074 A 
ATOM     40  C   UNL A   1      39.219  29.951  29.376  1.00  0.00     0.049 A 
ATOM     41  N   UNL A   1      39.860  30.803  32.210  1.00  0.00    -0.248 NA
ATOM     42  C   UNL A   1      38.113  32.344  32.081  1.00  0.00     0.031 C 
ATOM     43  C   UNL A   1      38.928  29.507  28.013  1.00  0.00     0.029 A 
ATOM     44  N   UNL A   1      40.288  29.188  29.762  1.00  0.00    -0.354 N 
ATOM     45  C   UNL A   1      39.783  31.517  33.399  1.00  0.00     0.074 A 
ATOM     46  C   UNL A   1      38.714  32.478  33.253  1.00  0.00     0.031 C 
ATOM     47  C   UNL A   1      39.811  28.553  27.671  1.00  0.00     0.029 A 
ATOM     48  C   UNL A   1      40.734  28.337  28.782  1.00  0.00     0.049 A 
ATOM     49  H   UNL A   1      40.697  29.245  30.657  1.00  0.00     0.167 HD
ATOM     50  C   UNL A   1      40.525  31.369  34.522  1.00  0.00     0.034 A 
ATOM     51  C   UNL A   1      41.780  27.490  28.786  1.00  0.00     0.034 A 
ATOM     52  C   UNL A   1      41.573  30.396  34.660  1.00  0.00     0.049 A 
ATOM     53  C   UNL A   1      42.598  27.355  30.042  1.00  0.00     0.074 A 
ATOM     54  C   UNL A   1      42.365  30.134  35.763  1.00  0.00     0.029 A 
ATOM     55  N   UNL A   1      41.984  29.532  33.656  1.00  0.00    -0.354 N 
ATOM     56  N   UNL A   1      42.447  27.961  31.196  1.00  0.00    -0.248 NA
ATOM     57  C   UNL A   1      43.704  26.388  30.011  1.00  0.00     0.031 C 
ATOM     58  C   UNL A   1      43.279  29.135  35.413  1.00  0.00     0.029 A 
ATOM     59  C   UNL A   1      43.027  28.744  34.107  1.00  0.00     0.049 A 
ATOM     60  H   UNL A   1      41.591  29.488  32.754  1.00  0.00     0.167 HD
ATOM     61  C   UNL A   1      43.412  27.422  32.041  1.00  0.00     0.074 A 
ATOM     62  C   UNL A   1      44.125  26.425  31.268  1.00  0.00     0.031 C 
ATOM     63  C   UNL A   1      43.693  27.728  33.331  1.00  0.00     0.034 A 
BRANCH  50  64
ATOM     64  C   UNL A   1      40.219  32.276  35.685  1.00  0.00     0.023 A 
ATOM     65  C   UNL A   1      40.957  33.465  35.866  1.00  0.00     0.012 A 
ATOM     66  C   UNL A   1      39.175  31.969  36.578  1.00  0.00     0.148 A 
ATOM     67  C   UNL A   1      40.682  34.316  36.936  1.00  0.00     0.002 A 
ATOM     68  C   UNL A   1      38.876  32.845  37.614  1.00  0.00     0.091 A 
ATOM     69  F   UNL A   1      38.505  30.821  36.407  1.00  0.00    -0.205 F 
ATOM     70  C   UNL A   1      39.635  34.012  37.802  1.00  0.00     0.022 A 
BRANCH  68  71
ATOM     71  S   UNL A   1      37.499  32.583  38.737  1.00  0.00     0.127 S 
ATOM     72  O   UNL A   1      37.771  33.575  39.776  1.00  0.00    -0.237 OA
ATOM     73  O   UNL A   1      36.349  32.889  37.887  1.00  0.00    -0.237 OA
ATOM     74  O   UNL A   1      37.587  31.193  39.164  1.00  0.00    -0.744 OA
ENDBRANCH  68  71
ENDBRANCH  50  64
BRANCH  51  75
ATOM     75  C   UNL A   1      42.088  26.682  27.573  1.00  0.00     0.023 A 
ATOM     76  C   UNL A   1      42.712  27.289  26.466  1.00  0.00     0.012 A 
ATOM     77  C   UNL A   1      41.782  25.309  27.522  1.00  0.00     0.148 A 
ATOM     78  C   UNL A   1      42.992  26.550  25.316  1.00  0.00     0.002 A 
ATOM     79  C   UNL A   1      42.117  24.566  26.397  1.00  0.00     0.091 A 
ATOM     80  F   UNL A   1      41.178  24.754  28.582  1.00  0.00    -0.205 F 
ATOM     81  C   UNL A   1      42.704  25.189  25.285  1.00  0.00     0.022 A 
BRANCH  79  82
ATOM     82  S   UNL A   1      41.903  22.785  26.323  1.00  0.00     0.127 S 
ATOM     83  O   UNL A   1      40.448  22.659  26.326  1.00  0.00    -0.237 OA
ATOM     84  O   UNL A   1      42.549  22.458  25.052  1.00  0.00    -0.237 OA
ATOM     85  O   UNL A   1      42.586  22.256  27.497  1.00  0.00    -0.744 OA
ENDBRANCH  79  82
ENDBRANCH  51  75
BRANCH  63  86
ATOM     86  C   UNL A   1      44.789  26.943  34.006  1.00  0.00     0.023 A 
ATOM     87  C   UNL A   1      46.126  27.380  33.923  1.00  0.00     0.012 A 
ATOM     88  C   UNL A   1      44.481  25.799  34.768  1.00  0.00     0.148 A 
ATOM     89  C   UNL A   1      47.145  26.663  34.546  1.00  0.00     0.002 A 
ATOM     90  C   UNL A   1      45.495  25.121  35.433  1.00  0.00     0.091 A 
ATOM     91  F   UNL A   1      43.205  25.389  34.823  1.00  0.00    -0.205 F 
ATOM     92  C   UNL A   1      46.829  25.541  35.309  1.00  0.00     0.022 A 
BRANCH  90  93
ATOM     93  S   UNL A   1      45.165  23.730  36.520  1.00  0.00     0.127 S 
ATOM     94  O   UNL A   1      46.518  23.272  36.836  1.00  0.00    -0.237 OA
ATOM     95  O   UNL A   1      44.460  24.366  37.633  1.00  0.00    -0.237 OA
ATOM     96  O   UNL A   1      44.353  22.801  35.746  1.00  0.00    -0.744 OA
ENDBRANCH  90  93
ENDBRANCH  63  86
ENDBRANCH  37  38
ENDBRANCH  30  32
ENDBRANCH  29  30
ENDBRANCH  28  29
ENDBRANCH   1  28
TORSDOF 19
ENDMDL
