MODEL 1
REMARK VINA RESULT:     -10.9      0.000      0.000
REMARK SMILES CCC(CC)COc1cc2c(cc1Cl)C=C(C(=O)OCCOCCOC(=O)c1ccc(-c3c4nc(c(-c5cccc(S(=O)(=O)[O-])c5F)c5ccc([nH]5)c(-c5cccc(S(=O)(=O)[O-])c5F)c5nc(c(-c6cccc(S(=O)(=O)[O-])c6F)c6ccc3[nH]6)C=C5)C=C4)cc1)[C@@H](C(F)(F)F)O2
REMARK SMILES IDX 21 1 20 2 19 3 17 4 18 5 16 6 8 7 9 8 13 9 10 10 12 11 14 12
REMARK SMILES IDX 11 13 96 14 15 15 91 16 7 17 6 18 3 19 2 20 1 21 4 22 5 23
REMARK SMILES IDX 92 24 93 25 94 26 95 27 22 28 23 29 24 30 25 31 26 32 27 33
REMARK SMILES IDX 28 34 29 35 90 36 30 37 89 38 31 39 32 40 33 41 83 42 34 43
REMARK SMILES IDX 88 44 82 45 84 46 35 47 87 48 81 49 80 50 36 52 68 53 48 54
REMARK SMILES IDX 67 55 49 56 52 57 66 58 85 59 50 60 51 61 65 63 86 64 53 65
REMARK SMILES IDX 37 66 38 67 46 68 39 69 41 70 47 71 40 72 42 73 43 74 44 75
REMARK SMILES IDX 45 76 69 77 70 78 78 79 71 80 73 81 79 82 72 83 74 84 75 85
REMARK SMILES IDX 76 86 77 87 54 88 55 89 63 90 56 91 58 92 64 93 57 94 59 95
REMARK SMILES IDX 60 96 61 97 62 98
REMARK H PARENT 84 51 52 62
REMARK Flexibility Score: inf
ROOT
ATOM      1  C   UNL A   1      37.441  22.414  25.571  1.00  0.00     0.202 C 
ENDROOT
BRANCH   1   2
ATOM      2  C   UNL A   1      36.049  21.782  25.690  1.00  0.00     0.261 C 
BRANCH   2   3
ATOM      3  O   UNL A   1      35.260  21.928  24.497  1.00  0.00    -0.460 OA
BRANCH   3   4
ATOM      4  C   UNL A   1      34.008  21.436  24.626  1.00  0.00     0.338 C 
ATOM      5  O   UNL A   1      33.691  20.379  25.153  1.00  0.00    -0.246 OA
BRANCH   4   6
ATOM      6  C   UNL A   1      33.001  22.403  24.160  1.00  0.00     0.087 C 
ATOM      7  C   UNL A   1      31.343  26.772  22.470  1.00  0.00     0.141 A 
ATOM      8  C   UNL A   1      30.683  25.708  23.107  1.00  0.00     0.095 A 
ATOM      9  C   UNL A   1      32.720  26.686  22.233  1.00  0.00     0.083 A 
ATOM     10  C   UNL A   1      31.392  24.539  23.402  1.00  0.00     0.131 A 
ATOM     11  C   UNL A   1      33.366  25.465  22.354  1.00  0.00     0.036 A 
ATOM     12  Cl  UNL A   1      33.696  28.055  21.849  1.00  0.00    -0.080 Cl
ATOM     13  C   UNL A   1      32.695  24.390  22.924  1.00  0.00     0.019 A 
ATOM     14  O   UNL A   1      30.799  23.564  24.167  1.00  0.00    -0.475 OA
ATOM     15  C   UNL A   1      33.427  23.165  23.148  1.00  0.00     0.027 C 
ATOM     16  C   UNL A   1      31.715  22.660  24.892  1.00  0.00     0.316 C 
BRANCH   7  17
ATOM     17  O   UNL A   1      30.663  27.925  22.175  1.00  0.00    -0.492 OA
BRANCH  17  18
ATOM     18  C   UNL A   1      29.454  28.105  22.957  1.00  0.00     0.233 C 
BRANCH  18  19
ATOM     19  C   UNL A   1      28.703  29.427  22.636  1.00  0.00     0.026 C 
BRANCH  19  20
ATOM     20  C   UNL A   1      27.235  29.376  23.127  1.00  0.00     0.003 C 
ATOM     21  C   UNL A   1      26.811  27.993  23.606  1.00  0.00     0.004 C 
ENDBRANCH  19  20
BRANCH  19  22
ATOM     22  C   UNL A   1      29.436  30.685  23.154  1.00  0.00     0.003 C 
ATOM     23  C   UNL A   1      28.569  31.910  23.390  1.00  0.00     0.004 C 
ENDBRANCH  19  22
ENDBRANCH  18  19
ENDBRANCH  17  18
ENDBRANCH   7  17
BRANCH  16  24
ATOM     24  C   UNL A   1      31.987  23.169  26.317  1.00  0.00     0.430 C 
ATOM     25  F   UNL A   1      32.277  22.155  27.163  1.00  0.00    -0.167 F 
ATOM     26  F   UNL A   1      33.044  24.016  26.337  1.00  0.00    -0.167 F 
ATOM     27  F   UNL A   1      30.927  23.837  26.828  1.00  0.00    -0.167 F 
ENDBRANCH  16  24
ENDBRANCH   4   6
ENDBRANCH   3   4
ENDBRANCH   2   3
ENDBRANCH   1   2
BRANCH   1  28
ATOM     28  O   UNL A   1      38.586  21.597  25.795  1.00  0.00    -0.374 OA
BRANCH  28  29
ATOM     29  C   UNL A   1      38.626  20.284  25.246  1.00  0.00     0.202 C 
BRANCH  29  30
ATOM     30  C   UNL A   1      39.491  19.205  25.909  1.00  0.00     0.261 C 
BRANCH  30  31
ATOM     31  O   UNL A   1      40.893  19.323  25.625  1.00  0.00    -0.460 OA
BRANCH  31  32
ATOM     32  C   UNL A   1      41.663  19.601  26.712  1.00  0.00     0.338 C 
ATOM     33  O   UNL A   1      42.314  18.812  27.370  1.00  0.00    -0.246 OA
BRANCH  32  34
ATOM     34  C   UNL A   1      41.755  21.063  26.879  1.00  0.00     0.060 A 
ATOM     35  C   UNL A   1      41.778  21.636  28.149  1.00  0.00     0.016 A 
ATOM     36  C   UNL A   1      41.882  21.859  25.732  1.00  0.00     0.016 A 
ATOM     37  C   UNL A   1      41.955  23.015  28.270  1.00  0.00     0.010 A 
ATOM     38  C   UNL A   1      42.062  23.237  25.856  1.00  0.00     0.010 A 
ATOM     39  C   UNL A   1      42.120  23.821  27.128  1.00  0.00    -0.014 A 
BRANCH  39  40
ATOM     40  C   UNL A   1      42.498  25.246  27.288  1.00  0.00     0.031 A 
ATOM     41  C   UNL A   1      41.606  26.226  27.989  1.00  0.00     0.074 A 
ATOM     42  C   UNL A   1      43.680  25.650  26.784  1.00  0.00     0.049 A 
ATOM     43  N   UNL A   1      41.863  27.464  28.322  1.00  0.00    -0.248 NA
ATOM     44  C   UNL A   1      40.257  25.769  28.357  1.00  0.00     0.031 C 
ATOM     45  C   UNL A   1      44.596  24.804  26.014  1.00  0.00     0.029 A 
ATOM     46  N   UNL A   1      44.319  26.862  26.844  1.00  0.00    -0.354 N 
ATOM     47  C   UNL A   1      40.714  27.938  28.940  1.00  0.00     0.074 A 
ATOM     48  C   UNL A   1      39.746  26.862  28.913  1.00  0.00     0.031 C 
ATOM     49  C   UNL A   1      45.694  25.511  25.707  1.00  0.00     0.029 A 
ATOM     50  C   UNL A   1      45.553  26.863  26.239  1.00  0.00     0.049 A 
ATOM     51  H   UNL A   1      43.930  27.656  27.279  1.00  0.00     0.167 HD
ATOM     52  C   UNL A   1      40.500  29.151  29.499  1.00  0.00     0.034 A 
ATOM     53  C   UNL A   1      46.479  27.837  26.136  1.00  0.00     0.034 A 
ATOM     54  C   UNL A   1      41.472  30.211  29.534  1.00  0.00     0.049 A 
ATOM     55  C   UNL A   1      46.226  29.166  26.785  1.00  0.00     0.074 A 
ATOM     56  C   UNL A   1      41.364  31.451  30.140  1.00  0.00     0.029 A 
ATOM     57  N   UNL A   1      42.718  30.168  28.930  1.00  0.00    -0.354 N 
ATOM     58  N   UNL A   1      45.190  29.547  27.491  1.00  0.00    -0.248 NA
ATOM     59  C   UNL A   1      47.273  30.189  26.652  1.00  0.00     0.031 C 
ATOM     60  C   UNL A   1      42.537  32.165  29.885  1.00  0.00     0.029 A 
ATOM     61  C   UNL A   1      43.385  31.361  29.142  1.00  0.00     0.049 A 
ATOM     62  H   UNL A   1      43.076  29.401  28.426  1.00  0.00     0.167 HD
ATOM     63  C   UNL A   1      45.469  30.842  27.908  1.00  0.00     0.074 A 
ATOM     64  C   UNL A   1      46.776  31.180  27.382  1.00  0.00     0.031 C 
ATOM     65  C   UNL A   1      44.703  31.672  28.653  1.00  0.00     0.034 A 
BRANCH  52  66
ATOM     66  C   UNL A   1      39.187  29.398  30.188  1.00  0.00     0.023 A 
ATOM     67  C   UNL A   1      38.980  28.864  31.475  1.00  0.00     0.012 A 
ATOM     68  C   UNL A   1      38.224  30.260  29.630  1.00  0.00     0.148 A 
ATOM     69  C   UNL A   1      37.830  29.180  32.196  1.00  0.00     0.002 A 
ATOM     70  C   UNL A   1      37.093  30.593  30.365  1.00  0.00     0.091 A 
ATOM     71  F   UNL A   1      38.443  30.750  28.401  1.00  0.00    -0.205 F 
ATOM     72  C   UNL A   1      36.894  30.052  31.647  1.00  0.00     0.022 A 
BRANCH  70  73
ATOM     73  S   UNL A   1      35.850  31.746  29.774  1.00  0.00     0.127 S 
ATOM     74  O   UNL A   1      34.975  31.860  30.942  1.00  0.00    -0.237 OA
ATOM     75  O   UNL A   1      36.647  32.939  29.491  1.00  0.00    -0.237 OA
ATOM     76  O   UNL A   1      35.241  31.122  28.608  1.00  0.00    -0.744 OA
ENDBRANCH  70  73
ENDBRANCH  52  66
BRANCH  53  77
ATOM     77  C   UNL A   1      47.766  27.541  25.451  1.00  0.00     0.023 A 
ATOM     78  C   UNL A   1      48.812  26.942  26.178  1.00  0.00     0.012 A 
ATOM     79  C   UNL A   1      47.923  27.772  24.072  1.00  0.00     0.148 A 
ATOM     80  C   UNL A   1      50.001  26.583  25.541  1.00  0.00     0.002 A 
ATOM     81  C   UNL A   1      49.095  27.379  23.437  1.00  0.00     0.091 A 
ATOM     82  F   UNL A   1      46.907  28.338  23.407  1.00  0.00    -0.205 F 
ATOM     83  C   UNL A   1      50.138  26.792  24.171  1.00  0.00     0.022 A 
BRANCH  81  84
ATOM     84  S   UNL A   1      49.327  27.518  21.662  1.00  0.00     0.127 S 
ATOM     85  O   UNL A   1      48.091  26.928  21.152  1.00  0.00    -0.237 OA
ATOM     86  O   UNL A   1      49.436  28.967  21.490  1.00  0.00    -0.237 OA
ATOM     87  O   UNL A   1      50.543  26.777  21.360  1.00  0.00    -0.744 OA
ENDBRANCH  81  84
ENDBRANCH  53  77
BRANCH  65  88
ATOM     88  C   UNL A   1      45.240  33.038  28.982  1.00  0.00     0.023 A 
ATOM     89  C   UNL A   1      44.903  34.131  28.161  1.00  0.00     0.012 A 
ATOM     90  C   UNL A   1      45.935  33.257  30.188  1.00  0.00     0.148 A 
ATOM     91  C   UNL A   1      45.250  35.427  28.539  1.00  0.00     0.002 A 
ATOM     92  C   UNL A   1      46.247  34.555  30.574  1.00  0.00     0.091 A 
ATOM     93  F   UNL A   1      46.244  32.196  30.947  1.00  0.00    -0.205 F 
ATOM     94  C   UNL A   1      45.907  35.641  29.750  1.00  0.00     0.022 A 
BRANCH  92  95
ATOM     95  S   UNL A   1      47.023  34.938  32.148  1.00  0.00     0.127 S 
ATOM     96  O   UNL A   1      47.354  36.353  31.979  1.00  0.00    -0.237 OA
ATOM     97  O   UNL A   1      45.942  34.673  33.097  1.00  0.00    -0.237 OA
ATOM     98  O   UNL A   1      48.171  34.048  32.262  1.00  0.00    -0.744 OA
ENDBRANCH  92  95
ENDBRANCH  65  88
ENDBRANCH  39  40
ENDBRANCH  32  34
ENDBRANCH  31  32
ENDBRANCH  30  31
ENDBRANCH  29  30
ENDBRANCH  28  29
ENDBRANCH   1  28
TORSDOF 23
ENDMDL
MODEL 2
REMARK VINA RESULT:     -10.6      5.619     11.357
REMARK SMILES CCC(CC)COc1cc2c(cc1Cl)C=C(C(=O)OCCOCCOC(=O)c1ccc(-c3c4nc(c(-c5cccc(S(=O)(=O)[O-])c5F)c5ccc([nH]5)c(-c5cccc(S(=O)(=O)[O-])c5F)c5nc(c(-c6cccc(S(=O)(=O)[O-])c6F)c6ccc3[nH]6)C=C5)C=C4)cc1)[C@@H](C(F)(F)F)O2
REMARK SMILES IDX 21 1 20 2 19 3 17 4 18 5 16 6 8 7 9 8 13 9 10 10 12 11 14 12
REMARK SMILES IDX 11 13 96 14 15 15 91 16 7 17 6 18 3 19 2 20 1 21 4 22 5 23
REMARK SMILES IDX 92 24 93 25 94 26 95 27 22 28 23 29 24 30 25 31 26 32 27 33
REMARK SMILES IDX 28 34 29 35 90 36 30 37 89 38 31 39 32 40 33 41 83 42 34 43
REMARK SMILES IDX 88 44 82 45 84 46 35 47 87 48 81 49 80 50 36 52 68 53 48 54
REMARK SMILES IDX 67 55 49 56 52 57 66 58 85 59 50 60 51 61 65 63 86 64 53 65
REMARK SMILES IDX 37 66 38 67 46 68 39 69 41 70 47 71 40 72 42 73 43 74 44 75
REMARK SMILES IDX 45 76 69 77 70 78 78 79 71 80 73 81 79 82 72 83 74 84 75 85
REMARK SMILES IDX 76 86 77 87 54 88 55 89 63 90 56 91 58 92 64 93 57 94 59 95
REMARK SMILES IDX 60 96 61 97 62 98
REMARK H PARENT 84 51 52 62
REMARK Flexibility Score: inf
ROOT
ATOM      1  C   UNL A   1      31.949  29.211  26.429  1.00  0.00     0.202 C 
ENDROOT
BRANCH   1   2
ATOM      2  C   UNL A   1      32.353  29.074  24.957  1.00  0.00     0.261 C 
BRANCH   2   3
ATOM      3  O   UNL A   1      33.187  27.931  24.705  1.00  0.00    -0.460 OA
BRANCH   3   4
ATOM      4  C   UNL A   1      32.623  27.037  23.862  1.00  0.00     0.338 C 
ATOM      5  O   UNL A   1      32.264  27.246  22.712  1.00  0.00    -0.246 OA
BRANCH   4   6
ATOM      6  C   UNL A   1      32.598  25.688  24.450  1.00  0.00     0.087 C 
ATOM      7  C   UNL A   1      32.122  20.741  24.442  1.00  0.00     0.141 A 
ATOM      8  C   UNL A   1      32.033  21.685  25.479  1.00  0.00     0.095 A 
ATOM      9  C   UNL A   1      32.377  21.176  23.136  1.00  0.00     0.083 A 
ATOM     10  C   UNL A   1      32.302  23.031  25.207  1.00  0.00     0.131 A 
ATOM     11  C   UNL A   1      32.824  22.470  22.913  1.00  0.00     0.036 A 
ATOM     12  Cl  UNL A   1      32.103  20.191  21.746  1.00  0.00    -0.080 Cl
ATOM     13  C   UNL A   1      32.800  23.389  23.954  1.00  0.00     0.019 A 
ATOM     14  O   UNL A   1      32.059  23.976  26.174  1.00  0.00    -0.475 OA
ATOM     15  C   UNL A   1      33.157  24.759  23.668  1.00  0.00     0.027 C 
ATOM     16  C   UNL A   1      31.824  25.352  25.693  1.00  0.00     0.316 C 
BRANCH   7  17
ATOM     17  O   UNL A   1      31.860  19.419  24.691  1.00  0.00    -0.492 OA
BRANCH  17  18
ATOM     18  C   UNL A   1      32.914  18.744  25.424  1.00  0.00     0.233 C 
BRANCH  18  19
ATOM     19  C   UNL A   1      33.360  17.406  24.772  1.00  0.00     0.026 C 
BRANCH  19  20
ATOM     20  C   UNL A   1      34.701  17.566  24.014  1.00  0.00     0.003 C 
ATOM     21  C   UNL A   1      35.623  18.604  24.641  1.00  0.00     0.004 C 
ENDBRANCH  19  20
BRANCH  19  22
ATOM     22  C   UNL A   1      33.404  16.227  25.770  1.00  0.00     0.003 C 
ATOM     23  C   UNL A   1      32.593  15.001  25.386  1.00  0.00     0.004 C 
ENDBRANCH  19  22
ENDBRANCH  18  19
ENDBRANCH  17  18
ENDBRANCH   7  17
BRANCH  16  24
ATOM     24  C   UNL A   1      30.324  25.625  25.495  1.00  0.00     0.430 C 
ATOM     25  F   UNL A   1      30.049  26.949  25.515  1.00  0.00    -0.167 F 
ATOM     26  F   UNL A   1      29.896  25.150  24.301  1.00  0.00    -0.167 F 
ATOM     27  F   UNL A   1      29.571  25.038  26.455  1.00  0.00    -0.167 F 
ENDBRANCH  16  24
ENDBRANCH   4   6
ENDBRANCH   3   4
ENDBRANCH   2   3
ENDBRANCH   1   2
BRANCH   1  28
ATOM     28  O   UNL A   1      32.669  30.121  27.255  1.00  0.00    -0.374 OA
BRANCH  28  29
ATOM     29  C   UNL A   1      32.476  31.522  27.086  1.00  0.00     0.202 C 
BRANCH  29  30
ATOM     30  C   UNL A   1      33.467  32.510  27.714  1.00  0.00     0.261 C 
BRANCH  30  31
ATOM     31  O   UNL A   1      33.144  33.889  27.481  1.00  0.00    -0.460 OA
BRANCH  31  32
ATOM     32  C   UNL A   1      33.262  34.685  28.578  1.00  0.00     0.338 C 
ATOM     33  O   UNL A   1      32.526  35.596  28.905  1.00  0.00    -0.246 OA
BRANCH  32  34
ATOM     34  C   UNL A   1      34.331  34.158  29.447  1.00  0.00     0.060 A 
ATOM     35  C   UNL A   1      34.023  33.443  30.603  1.00  0.00     0.016 A 
ATOM     36  C   UNL A   1      35.663  34.340  29.051  1.00  0.00     0.016 A 
ATOM     37  C   UNL A   1      35.058  32.884  31.353  1.00  0.00     0.010 A 
ATOM     38  C   UNL A   1      36.696  33.777  29.801  1.00  0.00     0.010 A 
ATOM     39  C   UNL A   1      36.399  33.028  30.946  1.00  0.00    -0.014 A 
BRANCH  39  40
ATOM     40  C   UNL A   1      37.461  32.266  31.647  1.00  0.00     0.031 A 
ATOM     41  C   UNL A   1      38.177  31.125  30.991  1.00  0.00     0.074 A 
ATOM     42  C   UNL A   1      37.775  32.626  32.907  1.00  0.00     0.049 A 
ATOM     43  N   UNL A   1      39.213  30.457  31.428  1.00  0.00    -0.248 NA
ATOM     44  C   UNL A   1      37.669  30.665  29.689  1.00  0.00     0.031 C 
ATOM     45  C   UNL A   1      37.092  33.671  33.674  1.00  0.00     0.029 A 
ATOM     46  N   UNL A   1      38.745  32.166  33.760  1.00  0.00    -0.354 N 
ATOM     47  C   UNL A   1      39.487  29.502  30.459  1.00  0.00     0.074 A 
ATOM     48  C   UNL A   1      38.490  29.656  29.421  1.00  0.00     0.031 C 
ATOM     49  C   UNL A   1      37.688  33.797  34.870  1.00  0.00     0.029 A 
ATOM     50  C   UNL A   1      38.780  32.833  34.961  1.00  0.00     0.049 A 
ATOM     51  H   UNL A   1      39.357  31.429  33.533  1.00  0.00     0.167 HD
ATOM     52  C   UNL A   1      40.494  28.598  30.432  1.00  0.00     0.034 A 
ATOM     53  C   UNL A   1      39.608  32.699  36.016  1.00  0.00     0.034 A 
ATOM     54  C   UNL A   1      41.489  28.459  31.461  1.00  0.00     0.049 A 
ATOM     55  C   UNL A   1      40.730  31.703  35.949  1.00  0.00     0.074 A 
ATOM     56  C   UNL A   1      42.585  27.614  31.482  1.00  0.00     0.029 A 
ATOM     57  N   UNL A   1      41.504  29.166  32.652  1.00  0.00    -0.354 N 
ATOM     58  N   UNL A   1      41.059  30.908  34.962  1.00  0.00    -0.248 NA
ATOM     59  C   UNL A   1      41.611  31.605  37.122  1.00  0.00     0.031 C 
ATOM     60  C   UNL A   1      43.252  27.796  32.696  1.00  0.00     0.029 A 
ATOM     61  C   UNL A   1      42.586  28.771  33.419  1.00  0.00     0.049 A 
ATOM     62  H   UNL A   1      40.844  29.849  32.913  1.00  0.00     0.167 HD
ATOM     63  C   UNL A   1      42.198  30.232  35.382  1.00  0.00     0.074 A 
ATOM     64  C   UNL A   1      42.507  30.716  36.711  1.00  0.00     0.031 C 
ATOM     65  C   UNL A   1      42.912  29.291  34.722  1.00  0.00     0.034 A 
BRANCH  52  66
ATOM     66  C   UNL A   1      40.628  27.716  29.220  1.00  0.00     0.023 A 
ATOM     67  C   UNL A   1      39.759  26.617  29.077  1.00  0.00     0.012 A 
ATOM     68  C   UNL A   1      41.507  28.050  28.173  1.00  0.00     0.148 A 
ATOM     69  C   UNL A   1      39.767  25.857  27.909  1.00  0.00     0.002 A 
ATOM     70  C   UNL A   1      41.490  27.305  27.000  1.00  0.00     0.091 A 
ATOM     71  F   UNL A   1      42.326  29.099  28.337  1.00  0.00    -0.205 F 
ATOM     72  C   UNL A   1      40.622  26.208  26.868  1.00  0.00     0.022 A 
BRANCH  70  73
ATOM     73  S   UNL A   1      42.514  27.701  25.578  1.00  0.00     0.127 S 
ATOM     74  O   UNL A   1      42.277  26.543  24.715  1.00  0.00    -0.237 OA
ATOM     75  O   UNL A   1      41.914  28.947  25.106  1.00  0.00    -0.237 OA
ATOM     76  O   UNL A   1      43.874  27.825  26.081  1.00  0.00    -0.744 OA
ENDBRANCH  70  73
ENDBRANCH  52  66
BRANCH  53  77
ATOM     77  C   UNL A   1      39.439  33.600  37.187  1.00  0.00     0.023 A 
ATOM     78  C   UNL A   1      39.911  34.924  37.113  1.00  0.00     0.012 A 
ATOM     79  C   UNL A   1      38.742  33.174  38.334  1.00  0.00     0.148 A 
ATOM     80  C   UNL A   1      39.695  35.811  38.168  1.00  0.00     0.002 A 
ATOM     81  C   UNL A   1      38.499  34.074  39.365  1.00  0.00     0.091 A 
ATOM     82  F   UNL A   1      38.301  31.909  38.372  1.00  0.00    -0.205 F 
ATOM     83  C   UNL A   1      38.982  35.390  39.288  1.00  0.00     0.022 A 
BRANCH  81  84
ATOM     84  S   UNL A   1      37.510  33.653  40.803  1.00  0.00     0.127 S 
ATOM     85  O   UNL A   1      36.320  33.071  40.186  1.00  0.00    -0.237 OA
ATOM     86  O   UNL A   1      38.378  32.697  41.492  1.00  0.00    -0.237 OA
ATOM     87  O   UNL A   1      37.294  34.903  41.518  1.00  0.00    -0.744 OA
ENDBRANCH  81  84
ENDBRANCH  53  77
BRANCH  65  88
ATOM     88  C   UNL A   1      44.125  28.711  35.395  1.00  0.00     0.023 A 
ATOM     89  C   UNL A   1      45.380  29.322  35.207  1.00  0.00     0.012 A 
ATOM     90  C   UNL A   1      43.988  27.670  36.334  1.00  0.00     0.148 A 
ATOM     91  C   UNL A   1      46.483  28.906  35.950  1.00  0.00     0.002 A 
ATOM     92  C   UNL A   1      45.084  27.284  37.095  1.00  0.00     0.091 A 
ATOM     93  F   UNL A   1      42.782  27.106  36.488  1.00  0.00    -0.205 F 
ATOM     94  C   UNL A   1      46.333  27.899  36.903  1.00  0.00     0.022 A 
BRANCH  92  95
ATOM     95  S   UNL A   1      44.976  26.052  38.397  1.00  0.00     0.127 S 
ATOM     96  O   UNL A   1      46.377  25.661  38.554  1.00  0.00    -0.237 OA
ATOM     97  O   UNL A   1      44.429  26.827  39.510  1.00  0.00    -0.237 OA
ATOM     98  O   UNL A   1      44.099  25.003  37.892  1.00  0.00    -0.744 OA
ENDBRANCH  92  95
ENDBRANCH  65  88
ENDBRANCH  39  40
ENDBRANCH  32  34
ENDBRANCH  31  32
ENDBRANCH  30  31
ENDBRANCH  29  30
ENDBRANCH  28  29
ENDBRANCH   1  28
TORSDOF 23
ENDMDL
MODEL 3
REMARK VINA RESULT:     -10.5      1.924      2.303
REMARK SMILES CCC(CC)COc1cc2c(cc1Cl)C=C(C(=O)OCCOCCOC(=O)c1ccc(-c3c4nc(c(-c5cccc(S(=O)(=O)[O-])c5F)c5ccc([nH]5)c(-c5cccc(S(=O)(=O)[O-])c5F)c5nc(c(-c6cccc(S(=O)(=O)[O-])c6F)c6ccc3[nH]6)C=C5)C=C4)cc1)[C@@H](C(F)(F)F)O2
REMARK SMILES IDX 21 1 20 2 19 3 17 4 18 5 16 6 8 7 9 8 13 9 10 10 12 11 14 12
REMARK SMILES IDX 11 13 96 14 15 15 91 16 7 17 6 18 3 19 2 20 1 21 4 22 5 23
REMARK SMILES IDX 92 24 93 25 94 26 95 27 22 28 23 29 24 30 25 31 26 32 27 33
REMARK SMILES IDX 28 34 29 35 90 36 30 37 89 38 31 39 32 40 33 41 83 42 34 43
REMARK SMILES IDX 88 44 82 45 84 46 35 47 87 48 81 49 80 50 36 52 68 53 48 54
REMARK SMILES IDX 67 55 49 56 52 57 66 58 85 59 50 60 51 61 65 63 86 64 53 65
REMARK SMILES IDX 37 66 38 67 46 68 39 69 41 70 47 71 40 72 42 73 43 74 44 75
REMARK SMILES IDX 45 76 69 77 70 78 78 79 71 80 73 81 79 82 72 83 74 84 75 85
REMARK SMILES IDX 76 86 77 87 54 88 55 89 63 90 56 91 58 92 64 93 57 94 59 95
REMARK SMILES IDX 60 96 61 97 62 98
REMARK H PARENT 84 51 52 62
REMARK Flexibility Score: inf
ROOT
ATOM      1  C   UNL A   1      37.195  22.333  25.356  1.00  0.00     0.202 C 
ENDROOT
BRANCH   1   2
ATOM      2  C   UNL A   1      35.878  21.591  25.096  1.00  0.00     0.261 C 
BRANCH   2   3
ATOM      3  O   UNL A   1      35.082  22.199  24.066  1.00  0.00    -0.460 OA
BRANCH   3   4
ATOM      4  C   UNL A   1      33.803  21.762  24.057  1.00  0.00     0.338 C 
ATOM      5  O   UNL A   1      33.410  20.649  24.377  1.00  0.00    -0.246 OA
BRANCH   4   6
ATOM      6  C   UNL A   1      32.867  22.850  23.729  1.00  0.00     0.087 C 
ATOM      7  C   UNL A   1      31.513  27.523  22.721  1.00  0.00     0.141 A 
ATOM      8  C   UNL A   1      30.774  26.415  23.167  1.00  0.00     0.095 A 
ATOM      9  C   UNL A   1      32.889  27.392  22.502  1.00  0.00     0.083 A 
ATOM     10  C   UNL A   1      31.407  25.173  23.287  1.00  0.00     0.131 A 
ATOM     11  C   UNL A   1      33.461  26.130  22.440  1.00  0.00     0.036 A 
ATOM     12  Cl  UNL A   1      33.954  28.742  22.360  1.00  0.00    -0.080 Cl
ATOM     13  C   UNL A   1      32.713  25.022  22.819  1.00  0.00     0.019 A 
ATOM     14  O   UNL A   1      30.737  24.127  23.875  1.00  0.00    -0.475 OA
ATOM     15  C   UNL A   1      33.366  23.735  22.860  1.00  0.00     0.027 C 
ATOM     16  C   UNL A   1      31.577  23.067  24.467  1.00  0.00     0.316 C 
BRANCH   7  17
ATOM     17  O   UNL A   1      30.909  28.748  22.599  1.00  0.00    -0.492 OA
BRANCH  17  18
ATOM     18  C   UNL A   1      29.752  28.916  23.458  1.00  0.00     0.233 C 
BRANCH  18  19
ATOM     19  C   UNL A   1      28.870  30.136  23.074  1.00  0.00     0.026 C 
BRANCH  19  20
ATOM     20  C   UNL A   1      29.300  30.738  21.714  1.00  0.00     0.003 C 
ATOM     21  C   UNL A   1      28.139  30.918  20.744  1.00  0.00     0.004 C 
ENDBRANCH  19  20
BRANCH  19  22
ATOM     22  C   UNL A   1      27.356  29.828  23.111  1.00  0.00     0.003 C 
ATOM     23  C   UNL A   1      26.979  28.377  23.356  1.00  0.00     0.004 C 
ENDBRANCH  19  22
ENDBRANCH  18  19
ENDBRANCH  17  18
ENDBRANCH   7  17
BRANCH  16  24
ATOM     24  C   UNL A   1      31.835  23.328  25.959  1.00  0.00     0.430 C 
ATOM     25  F   UNL A   1      33.141  23.176  26.275  1.00  0.00    -0.167 F 
ATOM     26  F   UNL A   1      31.490  24.593  26.299  1.00  0.00    -0.167 F 
ATOM     27  F   UNL A   1      31.124  22.492  26.751  1.00  0.00    -0.167 F 
ENDBRANCH  16  24
ENDBRANCH   4   6
ENDBRANCH   3   4
ENDBRANCH   2   3
ENDBRANCH   1   2
BRANCH   1  28
ATOM     28  O   UNL A   1      38.366  21.572  25.638  1.00  0.00    -0.374 OA
BRANCH  28  29
ATOM     29  C   UNL A   1      38.451  20.225  25.184  1.00  0.00     0.202 C 
BRANCH  29  30
ATOM     30  C   UNL A   1      39.328  19.218  25.940  1.00  0.00     0.261 C 
BRANCH  30  31
ATOM     31  O   UNL A   1      40.716  19.267  25.582  1.00  0.00    -0.460 OA
BRANCH  31  32
ATOM     32  C   UNL A   1      41.556  19.506  26.625  1.00  0.00     0.338 C 
ATOM     33  O   UNL A   1      42.242  18.694  27.215  1.00  0.00    -0.246 OA
BRANCH  32  34
ATOM     34  C   UNL A   1      41.668  20.962  26.833  1.00  0.00     0.060 A 
ATOM     35  C   UNL A   1      41.741  21.495  28.119  1.00  0.00     0.016 A 
ATOM     36  C   UNL A   1      41.761  21.791  25.707  1.00  0.00     0.016 A 
ATOM     37  C   UNL A   1      41.935  22.868  28.275  1.00  0.00     0.010 A 
ATOM     38  C   UNL A   1      41.959  23.163  25.866  1.00  0.00     0.010 A 
ATOM     39  C   UNL A   1      42.067  23.708  27.152  1.00  0.00    -0.014 A 
BRANCH  39  40
ATOM     40  C   UNL A   1      42.465  25.124  27.342  1.00  0.00     0.031 A 
ATOM     41  C   UNL A   1      41.535  26.130  27.949  1.00  0.00     0.074 A 
ATOM     42  C   UNL A   1      43.700  25.495  26.951  1.00  0.00     0.049 A 
ATOM     43  N   UNL A   1      41.790  27.364  28.300  1.00  0.00    -0.248 NA
ATOM     44  C   UNL A   1      40.146  25.710  28.189  1.00  0.00     0.031 C 
ATOM     45  C   UNL A   1      44.663  24.621  26.277  1.00  0.00     0.029 A 
ATOM     46  N   UNL A   1      44.360  26.691  27.068  1.00  0.00    -0.354 N 
ATOM     47  C   UNL A   1      40.600  27.870  28.803  1.00  0.00     0.074 A 
ATOM     48  C   UNL A   1      39.612  26.818  28.688  1.00  0.00     0.031 C 
ATOM     49  C   UNL A   1      45.803  25.298  26.073  1.00  0.00     0.029 A 
ATOM     50  C   UNL A   1      45.647  26.657  26.584  1.00  0.00     0.049 A 
ATOM     51  H   UNL A   1      43.952  27.497  27.460  1.00  0.00     0.167 HD
ATOM     52  C   UNL A   1      40.364  29.092  29.334  1.00  0.00     0.034 A 
ATOM     53  C   UNL A   1      46.603  27.606  26.566  1.00  0.00     0.034 A 
ATOM     54  C   UNL A   1      41.355  30.128  29.457  1.00  0.00     0.049 A 
ATOM     55  C   UNL A   1      46.322  28.946  27.181  1.00  0.00     0.074 A 
ATOM     56  C   UNL A   1      41.221  31.374  30.045  1.00  0.00     0.029 A 
ATOM     57  N   UNL A   1      42.652  30.049  28.976  1.00  0.00    -0.354 N 
ATOM     58  N   UNL A   1      45.233  29.357  27.783  1.00  0.00    -0.248 NA
ATOM     59  C   UNL A   1      47.403  29.941  27.146  1.00  0.00     0.031 C 
ATOM     60  C   UNL A   1      42.430  32.057  29.900  1.00  0.00     0.029 A 
ATOM     61  C   UNL A   1      43.325  31.227  29.246  1.00  0.00     0.049 A 
ATOM     62  H   UNL A   1      43.037  29.271  28.512  1.00  0.00     0.167 HD
ATOM     63  C   UNL A   1      45.504  30.648  28.219  1.00  0.00     0.074 A 
ATOM     64  C   UNL A   1      46.863  30.950  27.820  1.00  0.00     0.031 C 
ATOM     65  C   UNL A   1      44.691  31.502  28.884  1.00  0.00     0.034 A 
BRANCH  52  66
ATOM     66  C   UNL A   1      38.997  29.377  29.893  1.00  0.00     0.023 A 
ATOM     67  C   UNL A   1      38.715  29.013  31.223  1.00  0.00     0.012 A 
ATOM     68  C   UNL A   1      38.052  30.116  29.157  1.00  0.00     0.148 A 
ATOM     69  C   UNL A   1      37.507  29.376  31.815  1.00  0.00     0.002 A 
ATOM     70  C   UNL A   1      36.861  30.499  29.763  1.00  0.00     0.091 A 
ATOM     71  F   UNL A   1      38.344  30.445  27.891  1.00  0.00    -0.205 F 
ATOM     72  C   UNL A   1      36.587  30.128  31.090  1.00  0.00     0.022 A 
BRANCH  70  73
ATOM     73  S   UNL A   1      35.628  31.511  28.936  1.00  0.00     0.127 S 
ATOM     74  O   UNL A   1      35.030  30.549  28.011  1.00  0.00    -0.237 OA
ATOM     75  O   UNL A   1      34.763  31.908  30.046  1.00  0.00    -0.237 OA
ATOM     76  O   UNL A   1      36.357  32.602  28.305  1.00  0.00    -0.744 OA
ENDBRANCH  70  73
ENDBRANCH  52  66
BRANCH  53  77
ATOM     77  C   UNL A   1      47.941  27.274  26.009  1.00  0.00     0.023 A 
ATOM     78  C   UNL A   1      48.213  27.545  24.655  1.00  0.00     0.012 A 
ATOM     79  C   UNL A   1      48.965  26.771  26.835  1.00  0.00     0.148 A 
ATOM     80  C   UNL A   1      49.485  27.315  24.129  1.00  0.00     0.002 A 
ATOM     81  C   UNL A   1      50.238  26.579  26.314  1.00  0.00     0.091 A 
ATOM     82  F   UNL A   1      48.676  26.528  28.121  1.00  0.00    -0.205 F 
ATOM     83  C   UNL A   1      50.498  26.842  24.959  1.00  0.00     0.022 A 
BRANCH  81  84
ATOM     84  S   UNL A   1      51.630  26.064  27.324  1.00  0.00     0.127 S 
ATOM     85  O   UNL A   1      52.095  24.878  26.607  1.00  0.00    -0.237 OA
ATOM     86  O   UNL A   1      52.512  27.228  27.228  1.00  0.00    -0.237 OA
ATOM     87  O   UNL A   1      51.089  25.818  28.653  1.00  0.00    -0.744 OA
ENDBRANCH  81  84
ENDBRANCH  53  77
BRANCH  65  88
ATOM     88  C   UNL A   1      45.229  32.856  29.257  1.00  0.00     0.023 A 
ATOM     89  C   UNL A   1      45.917  33.017  30.475  1.00  0.00     0.012 A 
ATOM     90  C   UNL A   1      45.194  33.916  28.329  1.00  0.00     0.148 A 
ATOM     91  C   UNL A   1      46.566  34.217  30.764  1.00  0.00     0.002 A 
ATOM     92  C   UNL A   1      45.872  35.096  28.609  1.00  0.00     0.091 A 
ATOM     93  F   UNL A   1      44.528  33.734  27.180  1.00  0.00    -0.205 F 
ATOM     94  C   UNL A   1      46.556  35.249  29.827  1.00  0.00     0.022 A 
BRANCH  92  95
ATOM     95  S   UNL A   1      45.982  36.452  27.437  1.00  0.00     0.127 S 
ATOM     96  O   UNL A   1      44.640  37.028  27.522  1.00  0.00    -0.237 OA
ATOM     97  O   UNL A   1      47.039  37.278  28.020  1.00  0.00    -0.237 OA
ATOM     98  O   UNL A   1      46.312  35.852  26.151  1.00  0.00    -0.744 OA
ENDBRANCH  92  95
ENDBRANCH  65  88
ENDBRANCH  39  40
ENDBRANCH  32  34
ENDBRANCH  31  32
ENDBRANCH  30  31
ENDBRANCH  29  30
ENDBRANCH  28  29
ENDBRANCH   1  28
TORSDOF 23
ENDMDL
