MODEL 1
REMARK VINA RESULT:      -9.3      0.000      0.000
REMARK SMILES CCOC[C@@H](O)C[C@@]1(C(=O)OCCOCCOC(=O)c2ccc(-c3c4nc(c(-c5cccc(S(=O)(=O)[O-])c5F)c5ccc([nH]5)c(-c5cccc(S(=O)(=O)[O-])c5F)c5nc(c(-c6cccc(S(=O)(=O)[O-])c6F)c6ccc3[nH]6)C=C5)C=C4)cc2)CC[C@H](C)C1
REMARK SMILES IDX 13 1 12 2 11 3 9 4 10 5 8 6 83 7 87 8 84 9 85 10 86 11 7 12
REMARK SMILES IDX 5 13 4 14 3 15 2 16 1 17 6 18 14 20 15 21 16 22 17 23 18 24
REMARK SMILES IDX 19 25 20 26 21 27 82 28 22 29 81 30 23 31 24 32 25 33 75 34
REMARK SMILES IDX 26 35 80 36 74 37 76 38 27 39 79 40 73 41 72 42 28 44 60 45
REMARK SMILES IDX 40 46 59 47 41 48 44 49 58 50 77 51 42 52 43 53 57 55 78 56
REMARK SMILES IDX 45 57 29 58 30 59 38 60 31 61 33 62 39 63 32 64 34 65 35 66
REMARK SMILES IDX 36 67 37 68 61 69 62 70 70 71 63 72 65 73 71 74 64 75 66 76
REMARK SMILES IDX 67 77 68 78 69 79 46 80 47 81 55 82 48 83 50 84 56 85 49 86
REMARK SMILES IDX 51 87 52 88 53 89 54 90
REMARK H PARENT 6 19 76 43 44 54
REMARK Flexibility Score: inf
ROOT
ATOM      1  C   UNL A   1      37.002  22.907  23.850  1.00  0.00     0.202 C 
ENDROOT
BRANCH   1   2
ATOM      2  C   UNL A   1      35.493  23.184  23.819  1.00  0.00     0.261 C 
BRANCH   2   3
ATOM      3  O   UNL A   1      34.751  21.959  24.003  1.00  0.00    -0.463 OA
BRANCH   3   4
ATOM      4  C   UNL A   1      34.120  21.776  25.182  1.00  0.00     0.312 C 
ATOM      5  O   UNL A   1      34.503  22.291  26.226  1.00  0.00    -0.252 OA
BRANCH   4   6
ATOM      6  C   UNL A   1      32.861  20.878  25.061  1.00  0.00     0.071 C 
ATOM      7  C   UNL A   1      33.202  19.604  25.894  1.00  0.00     0.019 C 
ATOM      8  C   UNL A   1      32.762  20.288  23.650  1.00  0.00     0.022 C 
ATOM      9  C   UNL A   1      32.406  18.470  25.278  1.00  0.00     0.004 C 
ATOM     10  C   UNL A   1      32.188  18.870  23.816  1.00  0.00    -0.013 C 
ATOM     11  C   UNL A   1      32.840  17.884  22.856  1.00  0.00     0.007 C 
BRANCH   6  12
ATOM     12  C   UNL A   1      31.499  21.443  25.614  1.00  0.00     0.053 C 
BRANCH  12  13
ATOM     13  C   UNL A   1      31.061  22.919  25.454  1.00  0.00     0.141 C 
BRANCH  13  14
ATOM     14  C   UNL A   1      31.523  23.886  26.539  1.00  0.00     0.191 C 
BRANCH  14  15
ATOM     15  O   UNL A   1      30.834  25.132  26.533  1.00  0.00    -0.379 OA
BRANCH  15  16
ATOM     16  C   UNL A   1      31.607  26.328  26.384  1.00  0.00     0.157 C 
ATOM     17  C   UNL A   1      31.790  26.871  24.974  1.00  0.00     0.035 C 
ENDBRANCH  15  16
ENDBRANCH  14  15
ENDBRANCH  13  14
BRANCH  13  18
ATOM     18  O   UNL A   1      31.462  23.380  24.164  1.00  0.00    -0.391 OA
ATOM     19  H   UNL A   1      31.503  22.630  23.550  1.00  0.00     0.211 HD
ENDBRANCH  13  18
ENDBRANCH  12  13
ENDBRANCH   6  12
ENDBRANCH   4   6
ENDBRANCH   3   4
ENDBRANCH   2   3
ENDBRANCH   1   2
BRANCH   1  20
ATOM     20  O   UNL A   1      37.497  22.326  25.063  1.00  0.00    -0.374 OA
BRANCH  20  21
ATOM     21  C   UNL A   1      38.030  21.010  24.952  1.00  0.00     0.202 C 
BRANCH  21  22
ATOM     22  C   UNL A   1      38.908  20.532  26.112  1.00  0.00     0.261 C 
BRANCH  22  23
ATOM     23  O   UNL A   1      39.893  19.584  25.662  1.00  0.00    -0.460 OA
BRANCH  23  24
ATOM     24  C   UNL A   1      41.121  19.766  26.198  1.00  0.00     0.338 C 
ATOM     25  O   UNL A   1      42.041  18.957  26.203  1.00  0.00    -0.246 OA
BRANCH  24  26
ATOM     26  C   UNL A   1      41.297  21.161  26.642  1.00  0.00     0.060 A 
ATOM     27  C   UNL A   1      41.118  22.160  25.677  1.00  0.00     0.016 A 
ATOM     28  C   UNL A   1      41.695  21.495  27.940  1.00  0.00     0.016 A 
ATOM     29  C   UNL A   1      41.410  23.487  25.981  1.00  0.00     0.010 A 
ATOM     30  C   UNL A   1      41.985  22.831  28.243  1.00  0.00     0.010 A 
ATOM     31  C   UNL A   1      41.890  23.825  27.252  1.00  0.00    -0.014 A 
BRANCH  31  32
ATOM     32  C   UNL A   1      42.426  25.190  27.485  1.00  0.00     0.031 A 
ATOM     33  C   UNL A   1      41.558  26.214  28.170  1.00  0.00     0.074 A 
ATOM     34  C   UNL A   1      43.683  25.508  27.127  1.00  0.00     0.049 A 
ATOM     35  N   UNL A   1      41.830  27.454  28.482  1.00  0.00    -0.248 NA
ATOM     36  C   UNL A   1      40.203  25.783  28.555  1.00  0.00     0.031 C 
ATOM     37  C   UNL A   1      44.628  24.607  26.470  1.00  0.00     0.029 A 
ATOM     38  N   UNL A   1      44.375  26.688  27.254  1.00  0.00    -0.354 N 
ATOM     39  C   UNL A   1      40.674  27.964  29.062  1.00  0.00     0.074 A 
ATOM     40  C   UNL A   1      39.693  26.900  29.053  1.00  0.00     0.031 C 
ATOM     41  C   UNL A   1      45.773  25.270  26.238  1.00  0.00     0.029 A 
ATOM     42  C   UNL A   1      45.632  26.650  26.700  1.00  0.00     0.049 A 
ATOM     43  H   UNL A   1      44.006  27.484  27.700  1.00  0.00     0.167 HD
ATOM     44  C   UNL A   1      40.450  29.200  29.569  1.00  0.00     0.034 A 
ATOM     45  C   UNL A   1      46.554  27.624  26.561  1.00  0.00     0.034 A 
ATOM     46  C   UNL A   1      41.433  30.249  29.604  1.00  0.00     0.049 A 
ATOM     47  C   UNL A   1      46.268  28.999  27.109  1.00  0.00     0.074 A 
ATOM     48  C   UNL A   1      41.318  31.514  30.155  1.00  0.00     0.029 A 
ATOM     49  N   UNL A   1      42.701  30.166  29.053  1.00  0.00    -0.354 N 
ATOM     50  N   UNL A   1      45.216  29.426  27.764  1.00  0.00    -0.248 NA
ATOM     51  C   UNL A   1      47.312  30.018  26.926  1.00  0.00     0.031 C 
ATOM     52  C   UNL A   1      42.502  32.212  29.896  1.00  0.00     0.029 A 
ATOM     53  C   UNL A   1      43.372  31.366  29.228  1.00  0.00     0.049 A 
ATOM     54  H   UNL A   1      43.071  29.373  28.603  1.00  0.00     0.167 HD
ATOM     55  C   UNL A   1      45.489  30.747  28.107  1.00  0.00     0.074 A 
ATOM     56  C   UNL A   1      46.813  31.043  27.602  1.00  0.00     0.031 C 
ATOM     57  C   UNL A   1      44.710  31.636  28.770  1.00  0.00     0.034 A 
BRANCH  44  58
ATOM     58  C   UNL A   1      39.086  29.490  30.139  1.00  0.00     0.023 A 
ATOM     59  C   UNL A   1      38.783  29.127  31.467  1.00  0.00     0.012 A 
ATOM     60  C   UNL A   1      38.127  30.188  29.378  1.00  0.00     0.148 A 
ATOM     61  C   UNL A   1      37.538  29.426  32.017  1.00  0.00     0.002 A 
ATOM     62  C   UNL A   1      36.907  30.525  29.949  1.00  0.00     0.091 A 
ATOM     63  F   UNL A   1      38.427  30.508  28.111  1.00  0.00    -0.205 F 
ATOM     64  C   UNL A   1      36.605  30.135  31.264  1.00  0.00     0.022 A 
BRANCH  62  65
ATOM     65  S   UNL A   1      35.673  31.507  29.089  1.00  0.00     0.127 S 
ATOM     66  O   UNL A   1      34.824  31.948  30.195  1.00  0.00    -0.237 OA
ATOM     67  O   UNL A   1      36.487  32.563  28.487  1.00  0.00    -0.237 OA
ATOM     68  O   UNL A   1      35.036  30.609  28.135  1.00  0.00    -0.744 OA
ENDBRANCH  62  65
ENDBRANCH  44  58
BRANCH  45  69
ATOM     69  C   UNL A   1      47.855  27.332  25.893  1.00  0.00     0.023 A 
ATOM     70  C   UNL A   1      48.942  26.863  26.656  1.00  0.00     0.012 A 
ATOM     71  C   UNL A   1      48.020  27.522  24.508  1.00  0.00     0.148 A 
ATOM     72  C   UNL A   1      50.180  26.625  26.059  1.00  0.00     0.002 A 
ATOM     73  C   UNL A   1      49.238  27.226  23.909  1.00  0.00     0.091 A 
ATOM     74  F   UNL A   1      46.978  27.984  23.802  1.00  0.00    -0.205 F 
ATOM     75  C   UNL A   1      50.326  26.797  24.684  1.00  0.00     0.022 A 
BRANCH  73  76
ATOM     76  S   UNL A   1      49.475  27.291  22.130  1.00  0.00     0.127 S 
ATOM     77  O   UNL A   1      50.920  27.110  22.013  1.00  0.00    -0.237 OA
ATOM     78  O   UNL A   1      48.671  26.155  21.678  1.00  0.00    -0.237 OA
ATOM     79  O   UNL A   1      48.964  28.589  21.711  1.00  0.00    -0.744 OA
ENDBRANCH  73  76
ENDBRANCH  45  69
BRANCH  57  80
ATOM     80  C   UNL A   1      45.279  33.007  29.044  1.00  0.00     0.023 A 
ATOM     81  C   UNL A   1      46.129  33.212  30.149  1.00  0.00     0.012 A 
ATOM     82  C   UNL A   1      45.027  34.075  28.159  1.00  0.00     0.148 A 
ATOM     83  C   UNL A   1      46.689  34.467  30.389  1.00  0.00     0.002 A 
ATOM     84  C   UNL A   1      45.632  35.307  28.374  1.00  0.00     0.091 A 
ATOM     85  F   UNL A   1      44.203  33.865  27.121  1.00  0.00    -0.205 F 
ATOM     86  C   UNL A   1      46.450  35.509  29.496  1.00  0.00     0.022 A 
BRANCH  84  87
ATOM     87  S   UNL A   1      45.463  36.679  27.226  1.00  0.00     0.127 S 
ATOM     88  O   UNL A   1      44.032  36.644  26.928  1.00  0.00    -0.237 OA
ATOM     89  O   UNL A   1      45.889  37.818  28.040  1.00  0.00    -0.237 OA
ATOM     90  O   UNL A   1      46.340  36.375  26.104  1.00  0.00    -0.744 OA
ENDBRANCH  84  87
ENDBRANCH  57  80
ENDBRANCH  31  32
ENDBRANCH  24  26
ENDBRANCH  23  24
ENDBRANCH  22  23
ENDBRANCH  21  22
ENDBRANCH  20  21
ENDBRANCH   1  20
TORSDOF 23
ENDMDL
MODEL 2
REMARK VINA RESULT:      -8.8      2.145      8.093
REMARK SMILES CCOC[C@@H](O)C[C@@]1(C(=O)OCCOCCOC(=O)c2ccc(-c3c4nc(c(-c5cccc(S(=O)(=O)[O-])c5F)c5ccc([nH]5)c(-c5cccc(S(=O)(=O)[O-])c5F)c5nc(c(-c6cccc(S(=O)(=O)[O-])c6F)c6ccc3[nH]6)C=C5)C=C4)cc2)CC[C@H](C)C1
REMARK SMILES IDX 13 1 12 2 11 3 9 4 10 5 8 6 83 7 87 8 84 9 85 10 86 11 7 12
REMARK SMILES IDX 5 13 4 14 3 15 2 16 1 17 6 18 14 20 15 21 16 22 17 23 18 24
REMARK SMILES IDX 19 25 20 26 21 27 82 28 22 29 81 30 23 31 24 32 25 33 75 34
REMARK SMILES IDX 26 35 80 36 74 37 76 38 27 39 79 40 73 41 72 42 28 44 60 45
REMARK SMILES IDX 40 46 59 47 41 48 44 49 58 50 77 51 42 52 43 53 57 55 78 56
REMARK SMILES IDX 45 57 29 58 30 59 38 60 31 61 33 62 39 63 32 64 34 65 35 66
REMARK SMILES IDX 36 67 37 68 61 69 62 70 70 71 63 72 65 73 71 74 64 75 66 76
REMARK SMILES IDX 67 77 68 78 69 79 46 80 47 81 55 82 48 83 50 84 56 85 49 86
REMARK SMILES IDX 51 87 52 88 53 89 54 90
REMARK H PARENT 6 19 76 43 44 54
REMARK Flexibility Score: inf
ROOT
ATOM      1  C   UNL A   1      36.835  23.085  24.420  1.00  0.00     0.202 C 
ENDROOT
BRANCH   1   2
ATOM      2  C   UNL A   1      35.341  22.877  24.700  1.00  0.00     0.261 C 
BRANCH   2   3
ATOM      3  O   UNL A   1      34.696  24.142  24.961  1.00  0.00    -0.463 OA
BRANCH   3   4
ATOM      4  C   UNL A   1      33.768  24.570  24.079  1.00  0.00     0.312 C 
ATOM      5  O   UNL A   1      33.931  24.512  22.866  1.00  0.00    -0.252 OA
BRANCH   4   6
ATOM      6  C   UNL A   1      32.484  25.106  24.765  1.00  0.00     0.071 C 
ATOM      7  C   UNL A   1      32.127  26.403  23.974  1.00  0.00     0.019 C 
ATOM      8  C   UNL A   1      32.820  25.685  26.143  1.00  0.00     0.022 C 
ATOM      9  C   UNL A   1      31.391  27.302  24.949  1.00  0.00     0.004 C 
ATOM     10  C   UNL A   1      31.891  26.897  26.338  1.00  0.00    -0.013 C 
ATOM     11  C   UNL A   1      32.605  28.044  27.041  1.00  0.00     0.007 C 
BRANCH   6  12
ATOM     12  C   UNL A   1      31.205  24.187  24.751  1.00  0.00     0.053 C 
BRANCH  12  13
ATOM     13  C   UNL A   1      30.958  23.055  25.776  1.00  0.00     0.141 C 
BRANCH  13  14
ATOM     14  C   UNL A   1      32.026  21.968  25.858  1.00  0.00     0.191 C 
BRANCH  14  15
ATOM     15  O   UNL A   1      31.658  20.750  25.220  1.00  0.00    -0.379 OA
BRANCH  15  16
ATOM     16  C   UNL A   1      32.657  20.058  24.463  1.00  0.00     0.157 C 
ATOM     17  C   UNL A   1      32.669  18.538  24.546  1.00  0.00     0.035 C 
ENDBRANCH  15  16
ENDBRANCH  14  15
ENDBRANCH  13  14
BRANCH  13  18
ATOM     18  O   UNL A   1      30.732  23.638  27.060  1.00  0.00    -0.391 OA
ATOM     19  H   UNL A   1      30.895  22.975  27.749  1.00  0.00     0.211 HD
ENDBRANCH  13  18
ENDBRANCH  12  13
ENDBRANCH   6  12
ENDBRANCH   4   6
ENDBRANCH   3   4
ENDBRANCH   2   3
ENDBRANCH   1   2
BRANCH   1  20
ATOM     20  O   UNL A   1      37.710  22.840  25.528  1.00  0.00    -0.374 OA
BRANCH  20  21
ATOM     21  C   UNL A   1      38.417  21.603  25.501  1.00  0.00     0.202 C 
BRANCH  21  22
ATOM     22  C   UNL A   1      39.623  21.490  26.439  1.00  0.00     0.261 C 
BRANCH  22  23
ATOM     23  O   UNL A   1      40.187  20.167  26.403  1.00  0.00    -0.460 OA
BRANCH  23  24
ATOM     24  C   UNL A   1      41.515  20.137  26.151  1.00  0.00     0.338 C 
ATOM     25  O   UNL A   1      42.135  19.227  25.616  1.00  0.00    -0.246 OA
BRANCH  24  26
ATOM     26  C   UNL A   1      42.133  21.442  26.448  1.00  0.00     0.060 A 
ATOM     27  C   UNL A   1      42.324  21.760  27.798  1.00  0.00     0.016 A 
ATOM     28  C   UNL A   1      42.455  22.369  25.452  1.00  0.00     0.016 A 
ATOM     29  C   UNL A   1      42.764  23.029  28.165  1.00  0.00     0.010 A 
ATOM     30  C   UNL A   1      42.900  23.643  25.823  1.00  0.00     0.010 A 
ATOM     31  C   UNL A   1      43.010  23.995  27.181  1.00  0.00    -0.014 A 
BRANCH  31  32
ATOM     32  C   UNL A   1      43.238  25.404  27.590  1.00  0.00     0.031 A 
ATOM     33  C   UNL A   1      44.625  25.983  27.489  1.00  0.00     0.074 A 
ATOM     34  C   UNL A   1      42.219  26.173  28.012  1.00  0.00     0.049 A 
ATOM     35  N   UNL A   1      45.042  27.189  27.780  1.00  0.00    -0.248 NA
ATOM     36  C   UNL A   1      45.684  25.087  26.994  1.00  0.00     0.031 C 
ATOM     37  C   UNL A   1      40.830  25.738  28.143  1.00  0.00     0.029 A 
ATOM     38  N   UNL A   1      42.202  27.484  28.424  1.00  0.00    -0.354 N 
ATOM     39  C   UNL A   1      46.412  27.186  27.542  1.00  0.00     0.074 A 
ATOM     40  C   UNL A   1      46.758  25.855  27.089  1.00  0.00     0.031 C 
ATOM     41  C   UNL A   1      40.096  26.759  28.618  1.00  0.00     0.029 A 
ATOM     42  C   UNL A   1      40.968  27.908  28.854  1.00  0.00     0.049 A 
ATOM     43  H   UNL A   1      42.997  28.063  28.412  1.00  0.00     0.167 HD
ATOM     44  C   UNL A   1      47.300  28.199  27.675  1.00  0.00     0.034 A 
ATOM     45  C   UNL A   1      40.589  29.083  29.397  1.00  0.00     0.034 A 
ATOM     46  C   UNL A   1      46.953  29.529  28.097  1.00  0.00     0.049 A 
ATOM     47  C   UNL A   1      41.605  30.185  29.561  1.00  0.00     0.074 A 
ATOM     48  C   UNL A   1      47.774  30.639  28.201  1.00  0.00     0.029 A 
ATOM     49  N   UNL A   1      45.690  29.927  28.503  1.00  0.00    -0.354 N 
ATOM     50  N   UNL A   1      42.870  30.203  29.216  1.00  0.00    -0.248 NA
ATOM     51  C   UNL A   1      41.132  31.442  30.160  1.00  0.00     0.031 C 
ATOM     52  C   UNL A   1      47.016  31.696  28.713  1.00  0.00     0.029 A 
ATOM     53  C   UNL A   1      45.713  31.259  28.882  1.00  0.00     0.049 A 
ATOM     54  H   UNL A   1      44.894  29.348  28.520  1.00  0.00     0.167 HD
ATOM     55  C   UNL A   1      43.331  31.481  29.516  1.00  0.00     0.074 A 
ATOM     56  C   UNL A   1      42.205  32.214  30.055  1.00  0.00     0.031 C 
ATOM     57  C   UNL A   1      44.575  31.998  29.368  1.00  0.00     0.034 A 
BRANCH  44  58
ATOM     58  C   UNL A   1      48.745  27.916  27.351  1.00  0.00     0.023 A 
ATOM     59  C   UNL A   1      49.193  27.969  26.016  1.00  0.00     0.012 A 
ATOM     60  C   UNL A   1      49.672  27.667  28.383  1.00  0.00     0.148 A 
ATOM     61  C   UNL A   1      50.536  27.748  25.710  1.00  0.00     0.002 A 
ATOM     62  C   UNL A   1      51.016  27.495  28.074  1.00  0.00     0.091 A 
ATOM     63  F   UNL A   1      49.223  27.601  29.644  1.00  0.00    -0.205 F 
ATOM     64  C   UNL A   1      51.447  27.522  26.738  1.00  0.00     0.022 A 
BRANCH  62  65
ATOM     65  S   UNL A   1      52.280  27.282  29.333  1.00  0.00     0.127 S 
ATOM     66  O   UNL A   1      52.096  28.486  30.141  1.00  0.00    -0.237 OA
ATOM     67  O   UNL A   1      51.858  26.041  29.983  1.00  0.00    -0.237 OA
ATOM     68  O   UNL A   1      53.547  27.196  28.621  1.00  0.00    -0.744 OA
ENDBRANCH  62  65
ENDBRANCH  44  58
BRANCH  45  69
ATOM     69  C   UNL A   1      39.173  29.295  29.809  1.00  0.00     0.023 A 
ATOM     70  C   UNL A   1      38.734  28.834  31.065  1.00  0.00     0.012 A 
ATOM     71  C   UNL A   1      38.258  29.946  28.959  1.00  0.00     0.148 A 
ATOM     72  C   UNL A   1      37.402  28.984  31.452  1.00  0.00     0.002 A 
ATOM     73  C   UNL A   1      36.947  30.146  29.376  1.00  0.00     0.091 A 
ATOM     74  F   UNL A   1      38.690  30.363  27.761  1.00  0.00    -0.205 F 
ATOM     75  C   UNL A   1      36.511  29.648  30.613  1.00  0.00     0.022 A 
BRANCH  73  76
ATOM     76  S   UNL A   1      35.770  31.104  28.417  1.00  0.00     0.127 S 
ATOM     77  O   UNL A   1      34.752  31.417  29.417  1.00  0.00    -0.237 OA
ATOM     78  O   UNL A   1      36.586  32.241  27.988  1.00  0.00    -0.237 OA
ATOM     79  O   UNL A   1      35.342  30.232  27.331  1.00  0.00    -0.744 OA
ENDBRANCH  73  76
ENDBRANCH  45  69
BRANCH  57  80
ATOM     80  C   UNL A   1      44.790  33.443  29.742  1.00  0.00     0.023 A 
ATOM     81  C   UNL A   1      45.317  33.776  31.006  1.00  0.00     0.012 A 
ATOM     82  C   UNL A   1      44.536  34.468  28.808  1.00  0.00     0.148 A 
ATOM     83  C   UNL A   1      45.553  35.108  31.347  1.00  0.00     0.002 A 
ATOM     84  C   UNL A   1      44.826  35.788  29.136  1.00  0.00     0.091 A 
ATOM     85  F   UNL A   1      44.021  34.134  27.616  1.00  0.00    -0.205 F 
ATOM     86  C   UNL A   1      45.319  36.111  30.409  1.00  0.00     0.022 A 
BRANCH  84  87
ATOM     87  S   UNL A   1      44.651  37.134  27.960  1.00  0.00     0.127 S 
ATOM     88  O   UNL A   1      44.160  36.434  26.774  1.00  0.00    -0.237 OA
ATOM     89  O   UNL A   1      43.662  37.991  28.615  1.00  0.00    -0.237 OA
ATOM     90  O   UNL A   1      45.975  37.729  27.828  1.00  0.00    -0.744 OA
ENDBRANCH  84  87
ENDBRANCH  57  80
ENDBRANCH  31  32
ENDBRANCH  24  26
ENDBRANCH  23  24
ENDBRANCH  22  23
ENDBRANCH  21  22
ENDBRANCH  20  21
ENDBRANCH   1  20
TORSDOF 23
ENDMDL
MODEL 3
REMARK VINA RESULT:      -8.8      5.198      9.581
REMARK SMILES CCOC[C@@H](O)C[C@@]1(C(=O)OCCOCCOC(=O)c2ccc(-c3c4nc(c(-c5cccc(S(=O)(=O)[O-])c5F)c5ccc([nH]5)c(-c5cccc(S(=O)(=O)[O-])c5F)c5nc(c(-c6cccc(S(=O)(=O)[O-])c6F)c6ccc3[nH]6)C=C5)C=C4)cc2)CC[C@H](C)C1
REMARK SMILES IDX 13 1 12 2 11 3 9 4 10 5 8 6 83 7 87 8 84 9 85 10 86 11 7 12
REMARK SMILES IDX 5 13 4 14 3 15 2 16 1 17 6 18 14 20 15 21 16 22 17 23 18 24
REMARK SMILES IDX 19 25 20 26 21 27 82 28 22 29 81 30 23 31 24 32 25 33 75 34
REMARK SMILES IDX 26 35 80 36 74 37 76 38 27 39 79 40 73 41 72 42 28 44 60 45
REMARK SMILES IDX 40 46 59 47 41 48 44 49 58 50 77 51 42 52 43 53 57 55 78 56
REMARK SMILES IDX 45 57 29 58 30 59 38 60 31 61 33 62 39 63 32 64 34 65 35 66
REMARK SMILES IDX 36 67 37 68 61 69 62 70 70 71 63 72 65 73 71 74 64 75 66 76
REMARK SMILES IDX 67 77 68 78 69 79 46 80 47 81 55 82 48 83 50 84 56 85 49 86
REMARK SMILES IDX 51 87 52 88 53 89 54 90
REMARK H PARENT 6 19 76 43 44 54
REMARK Flexibility Score: inf
ROOT
ATOM      1  C   UNL A   1      44.544  22.325  26.139  1.00  0.00     0.202 C 
ENDROOT
BRANCH   1   2
ATOM      2  C   UNL A   1      44.528  23.007  27.513  1.00  0.00     0.261 C 
BRANCH   2   3
ATOM      3  O   UNL A   1      43.596  24.111  27.519  1.00  0.00    -0.463 OA
BRANCH   3   4
ATOM      4  C   UNL A   1      42.564  24.059  28.386  1.00  0.00     0.312 C 
ATOM      5  O   UNL A   1      42.654  23.542  29.494  1.00  0.00    -0.252 OA
BRANCH   4   6
ATOM      6  C   UNL A   1      41.282  24.742  27.842  1.00  0.00     0.071 C 
ATOM      7  C   UNL A   1      41.677  25.248  26.421  1.00  0.00     0.019 C 
ATOM      8  C   UNL A   1      41.037  26.068  28.570  1.00  0.00     0.022 C 
ATOM      9  C   UNL A   1      40.803  26.457  26.146  1.00  0.00     0.004 C 
ATOM     10  C   UNL A   1      40.455  27.032  27.521  1.00  0.00    -0.013 C 
ATOM     11  C   UNL A   1      40.992  28.446  27.698  1.00  0.00     0.007 C 
BRANCH   6  12
ATOM     12  C   UNL A   1      39.991  23.856  27.677  1.00  0.00     0.053 C 
BRANCH  12  13
ATOM     13  C   UNL A   1      39.899  22.656  26.703  1.00  0.00     0.141 C 
BRANCH  13  14
ATOM     14  C   UNL A   1      40.725  21.424  27.065  1.00  0.00     0.191 C 
BRANCH  14  15
ATOM     15  O   UNL A   1      41.158  20.670  25.937  1.00  0.00    -0.379 OA
BRANCH  15  16
ATOM     16  C   UNL A   1      42.031  19.559  26.166  1.00  0.00     0.157 C 
ATOM     17  C   UNL A   1      42.268  19.143  27.611  1.00  0.00     0.035 C 
ENDBRANCH  15  16
ENDBRANCH  14  15
ENDBRANCH  13  14
BRANCH  13  18
ATOM     18  O   UNL A   1      38.525  22.309  26.530  1.00  0.00    -0.391 OA
ATOM     19  H   UNL A   1      38.239  22.559  25.638  1.00  0.00     0.211 HD
ENDBRANCH  13  18
ENDBRANCH  12  13
ENDBRANCH   6  12
ENDBRANCH   4   6
ENDBRANCH   3   4
ENDBRANCH   2   3
ENDBRANCH   1   2
BRANCH   1  20
ATOM     20  O   UNL A   1      45.770  21.671  25.790  1.00  0.00    -0.374 OA
BRANCH  20  21
ATOM     21  C   UNL A   1      46.394  22.117  24.590  1.00  0.00     0.202 C 
BRANCH  21  22
ATOM     22  C   UNL A   1      46.230  23.601  24.249  1.00  0.00     0.261 C 
BRANCH  22  23
ATOM     23  O   UNL A   1      46.859  24.434  25.239  1.00  0.00    -0.460 OA
BRANCH  23  24
ATOM     24  C   UNL A   1      47.000  25.727  24.866  1.00  0.00     0.338 C 
ATOM     25  O   UNL A   1      47.474  26.134  23.814  1.00  0.00    -0.246 OA
BRANCH  24  26
ATOM     26  C   UNL A   1      46.337  26.624  25.830  1.00  0.00     0.060 A 
ATOM     27  C   UNL A   1      47.162  27.296  26.740  1.00  0.00     0.016 A 
ATOM     28  C   UNL A   1      44.948  26.760  25.902  1.00  0.00     0.016 A 
ATOM     29  C   UNL A   1      46.603  28.044  27.773  1.00  0.00     0.010 A 
ATOM     30  C   UNL A   1      44.388  27.516  26.940  1.00  0.00     0.010 A 
ATOM     31  C   UNL A   1      45.212  28.121  27.907  1.00  0.00    -0.014 A 
BRANCH  31  32
ATOM     32  C   UNL A   1      44.634  28.711  29.142  1.00  0.00     0.031 A 
ATOM     33  C   UNL A   1      44.209  30.156  29.137  1.00  0.00     0.074 A 
ATOM     34  C   UNL A   1      44.453  27.962  30.245  1.00  0.00     0.049 A 
ATOM     35  N   UNL A   1      43.673  30.865  30.097  1.00  0.00    -0.248 NA
ATOM     36  C   UNL A   1      44.415  30.903  27.885  1.00  0.00     0.031 C 
ATOM     37  C   UNL A   1      44.809  26.550  30.375  1.00  0.00     0.029 A 
ATOM     38  N   UNL A   1      43.937  28.294  31.473  1.00  0.00    -0.354 N 
ATOM     39  C   UNL A   1      43.514  32.146  29.581  1.00  0.00     0.074 A 
ATOM     40  C   UNL A   1      44.017  32.120  28.225  1.00  0.00     0.031 C 
ATOM     41  C   UNL A   1      44.514  26.139  31.620  1.00  0.00     0.029 A 
ATOM     42  C   UNL A   1      43.978  27.265  32.383  1.00  0.00     0.049 A 
ATOM     43  H   UNL A   1      43.571  29.184  31.682  1.00  0.00     0.167 HD
ATOM     44  C   UNL A   1      42.985  33.242  30.176  1.00  0.00     0.034 A 
ATOM     45  C   UNL A   1      43.644  27.241  33.689  1.00  0.00     0.034 A 
ATOM     46  C   UNL A   1      42.460  33.262  31.514  1.00  0.00     0.049 A 
ATOM     47  C   UNL A   1      43.084  28.484  34.334  1.00  0.00     0.074 A 
ATOM     48  C   UNL A   1      41.846  34.310  32.180  1.00  0.00     0.029 A 
ATOM     49  N   UNL A   1      42.499  32.196  32.397  1.00  0.00    -0.354 N 
ATOM     50  N   UNL A   1      42.827  29.652  33.796  1.00  0.00    -0.248 NA
ATOM     51  C   UNL A   1      42.740  28.396  35.761  1.00  0.00     0.031 C 
ATOM     52  C   UNL A   1      41.556  33.889  33.481  1.00  0.00     0.029 A 
ATOM     53  C   UNL A   1      41.944  32.566  33.611  1.00  0.00     0.049 A 
ATOM     54  H   UNL A   1      42.868  31.306  32.193  1.00  0.00     0.167 HD
ATOM     55  C   UNL A   1      42.253  30.420  34.804  1.00  0.00     0.074 A 
ATOM     56  C   UNL A   1      42.184  29.579  35.981  1.00  0.00     0.031 C 
ATOM     57  C   UNL A   1      41.830  31.707  34.762  1.00  0.00     0.034 A 
BRANCH  44  58
ATOM     58  C   UNL A   1      42.940  34.521  29.380  1.00  0.00     0.023 A 
ATOM     59  C   UNL A   1      41.733  34.937  28.781  1.00  0.00     0.012 A 
ATOM     60  C   UNL A   1      44.078  35.346  29.287  1.00  0.00     0.148 A 
ATOM     61  C   UNL A   1      41.670  36.139  28.076  1.00  0.00     0.002 A 
ATOM     62  C   UNL A   1      43.994  36.563  28.624  1.00  0.00     0.091 A 
ATOM     63  F   UNL A   1      45.221  34.923  29.846  1.00  0.00    -0.205 F 
ATOM     64  C   UNL A   1      42.795  36.956  28.007  1.00  0.00     0.022 A 
BRANCH  62  65
ATOM     65  S   UNL A   1      45.364  37.724  28.551  1.00  0.00     0.127 S 
ATOM     66  O   UNL A   1      44.770  38.834  27.808  1.00  0.00    -0.237 OA
ATOM     67  O   UNL A   1      45.607  37.999  29.967  1.00  0.00    -0.237 OA
ATOM     68  O   UNL A   1      46.446  37.027  27.870  1.00  0.00    -0.744 OA
ENDBRANCH  62  65
ENDBRANCH  44  58
BRANCH  45  69
ATOM     69  C   UNL A   1      43.803  25.987  34.479  1.00  0.00     0.023 A 
ATOM     70  C   UNL A   1      42.688  25.158  34.706  1.00  0.00     0.012 A 
ATOM     71  C   UNL A   1      45.053  25.616  35.011  1.00  0.00     0.148 A 
ATOM     72  C   UNL A   1      42.807  24.002  35.478  1.00  0.00     0.002 A 
ATOM     73  C   UNL A   1      45.177  24.433  35.729  1.00  0.00     0.091 A 
ATOM     74  F   UNL A   1      46.100  26.427  34.798  1.00  0.00    -0.205 F 
ATOM     75  C   UNL A   1      44.052  23.634  35.982  1.00  0.00     0.022 A 
BRANCH  73  76
ATOM     76  S   UNL A   1      46.764  23.817  36.299  1.00  0.00     0.127 S 
ATOM     77  O   UNL A   1      47.662  24.905  35.922  1.00  0.00    -0.237 OA
ATOM     78  O   UNL A   1      46.533  23.675  37.737  1.00  0.00    -0.237 OA
ATOM     79  O   UNL A   1      46.972  22.555  35.601  1.00  0.00    -0.744 OA
ENDBRANCH  73  76
ENDBRANCH  45  69
BRANCH  57  80
ATOM     80  C   UNL A   1      41.202  32.286  36.006  1.00  0.00     0.023 A 
ATOM     81  C   UNL A   1      41.937  33.167  36.824  1.00  0.00     0.012 A 
ATOM     82  C   UNL A   1      39.856  32.011  36.321  1.00  0.00     0.148 A 
ATOM     83  C   UNL A   1      41.352  33.736  37.956  1.00  0.00     0.002 A 
ATOM     84  C   UNL A   1      39.265  32.624  37.419  1.00  0.00     0.091 A 
ATOM     85  F   UNL A   1      39.177  31.158  35.539  1.00  0.00    -0.205 F 
ATOM     86  C   UNL A   1      40.015  33.475  38.246  1.00  0.00     0.022 A 
BRANCH  84  87
ATOM     87  S   UNL A   1      37.523  32.426  37.813  1.00  0.00     0.127 S 
ATOM     88  O   UNL A   1      36.882  33.058  36.661  1.00  0.00    -0.237 OA
ATOM     89  O   UNL A   1      37.382  30.971  37.867  1.00  0.00    -0.237 OA
ATOM     90  O   UNL A   1      37.319  33.102  39.088  1.00  0.00    -0.744 OA
ENDBRANCH  84  87
ENDBRANCH  57  80
ENDBRANCH  31  32
ENDBRANCH  24  26
ENDBRANCH  23  24
ENDBRANCH  22  23
ENDBRANCH  21  22
ENDBRANCH  20  21
ENDBRANCH   1  20
TORSDOF 23
ENDMDL
