MODEL 1
REMARK VINA RESULT:     -10.9      0.000      0.000
REMARK SMILES COc1ccc(C(C)(C)C)cc1CC(=O)OCCOCCOC(=O)c1ccc(-c2c3nc(c(-c4cccc(S(=O)(=O)[O-])c4F)c4ccc([nH]4)c(-c4cccc(S(=O)(=O)[O-])c4F)c4nc(c(-c5cccc(S(=O)(=O)[O-])c5F)c5ccc2[nH]5)C=C4)C=C3)cc1
REMARK SMILES IDX 20 1 19 2 18 3 17 4 16 5 14 6 15 7 13 8 12 9 3 10 4 11 5 12
REMARK SMILES IDX 11 13 6 14 2 15 1 16 7 17 8 18 9 19 10 20 21 21 22 22 23 23
REMARK SMILES IDX 24 24 25 25 26 26 87 27 27 28 86 29 28 30 29 31 30 32 80 33
REMARK SMILES IDX 31 34 85 35 79 36 81 37 32 38 84 39 78 40 77 41 33 43 65 44
REMARK SMILES IDX 45 45 64 46 46 47 49 48 63 49 82 50 47 51 48 52 62 54 83 55
REMARK SMILES IDX 50 56 34 57 35 58 43 59 36 60 38 61 44 62 37 63 39 64 40 65
REMARK SMILES IDX 41 66 42 67 66 68 67 69 75 70 68 71 70 72 76 73 69 74 71 75
REMARK SMILES IDX 72 76 73 77 74 78 51 79 52 80 60 81 53 82 55 83 61 84 54 85
REMARK SMILES IDX 56 86 57 87 58 88 59 89
REMARK H PARENT 81 42 49 53
REMARK Flexibility Score: inf
ROOT
ATOM      1  C   UNL A   1      31.176  31.076  26.123  1.00  0.00     0.202 C 
ENDROOT
BRANCH   1   2
ATOM      2  O   UNL A   1      31.885  30.104  25.357  1.00  0.00    -0.374 OA
BRANCH   2   3
ATOM      3  C   UNL A   1      31.137  29.347  24.404  1.00  0.00     0.202 C 
BRANCH   3   4
ATOM      4  C   UNL A   1      31.947  28.516  23.402  1.00  0.00     0.261 C 
BRANCH   4   5
ATOM      5  O   UNL A   1      32.829  27.583  24.051  1.00  0.00    -0.463 OA
BRANCH   5   6
ATOM      6  C   UNL A   1      32.233  26.513  24.640  1.00  0.00     0.310 C 
ATOM      7  O   UNL A   1      31.380  25.807  24.105  1.00  0.00    -0.252 OA
BRANCH   6   8
ATOM      8  C   UNL A   1      32.822  26.134  25.980  1.00  0.00     0.162 C 
BRANCH   8   9
ATOM      9  C   UNL A   1      33.420  24.756  26.147  1.00  0.00     0.005 A 
ATOM     10  C   UNL A   1      32.688  23.729  26.747  1.00  0.00     0.122 A 
ATOM     11  C   UNL A   1      33.227  22.453  26.872  1.00  0.00     0.047 A 
ATOM     12  C   UNL A   1      34.498  22.181  26.359  1.00  0.00     0.008 A 
ATOM     13  C   UNL A   1      34.705  24.465  25.637  1.00  0.00     0.012 A 
ATOM     14  C   UNL A   1      35.268  23.175  25.724  1.00  0.00    -0.042 A 
BRANCH  10  15
ATOM     15  O   UNL A   1      31.445  23.981  27.258  1.00  0.00    -0.496 OA
ATOM     16  C   UNL A   1      30.475  23.074  26.731  1.00  0.00     0.278 C 
ENDBRANCH  10  15
BRANCH  14  17
ATOM     17  C   UNL A   1      36.661  22.822  25.164  1.00  0.00    -0.013 C 
ATOM     18  C   UNL A   1      36.647  22.974  23.626  1.00  0.00     0.016 C 
ATOM     19  C   UNL A   1      37.720  23.774  25.761  1.00  0.00     0.016 C 
ATOM     20  C   UNL A   1      37.146  21.390  25.485  1.00  0.00     0.016 C 
ENDBRANCH  14  17
ENDBRANCH   8   9
ENDBRANCH   6   8
ENDBRANCH   5   6
ENDBRANCH   4   5
ENDBRANCH   3   4
ENDBRANCH   2   3
ENDBRANCH   1   2
BRANCH   1  21
ATOM     21  C   UNL A   1      32.015  32.127  26.851  1.00  0.00     0.261 C 
BRANCH  21  22
ATOM     22  O   UNL A   1      33.100  31.562  27.596  1.00  0.00    -0.460 OA
BRANCH  22  23
ATOM     23  C   UNL A   1      33.944  32.487  28.106  1.00  0.00     0.338 C 
ATOM     24  O   UNL A   1      33.641  33.564  28.605  1.00  0.00    -0.246 OA
BRANCH  23  25
ATOM     25  C   UNL A   1      35.322  31.980  28.143  1.00  0.00     0.060 A 
ATOM     26  C   UNL A   1      35.481  30.594  28.257  1.00  0.00     0.016 A 
ATOM     27  C   UNL A   1      36.417  32.840  28.242  1.00  0.00     0.016 A 
ATOM     28  C   UNL A   1      36.727  30.068  28.573  1.00  0.00     0.010 A 
ATOM     29  C   UNL A   1      37.672  32.307  28.560  1.00  0.00     0.010 A 
ATOM     30  C   UNL A   1      37.813  30.927  28.792  1.00  0.00    -0.014 A 
BRANCH  30  31
ATOM     31  C   UNL A   1      39.018  30.375  29.460  1.00  0.00     0.031 A 
ATOM     32  C   UNL A   1      39.344  30.832  30.859  1.00  0.00     0.074 A 
ATOM     33  C   UNL A   1      39.757  29.422  28.866  1.00  0.00     0.049 A 
ATOM     34  N   UNL A   1      40.262  30.393  31.680  1.00  0.00    -0.248 NA
ATOM     35  C   UNL A   1      38.524  31.926  31.408  1.00  0.00     0.031 C 
ATOM     36  C   UNL A   1      39.541  28.906  27.517  1.00  0.00     0.029 A 
ATOM     37  N   UNL A   1      40.840  28.720  29.329  1.00  0.00    -0.354 N 
ATOM     38  C   UNL A   1      40.143  31.165  32.830  1.00  0.00     0.074 A 
ATOM     39  C   UNL A   1      39.079  32.115  32.596  1.00  0.00     0.031 C 
ATOM     40  C   UNL A   1      40.467  27.967  27.256  1.00  0.00     0.029 A 
ATOM     41  C   UNL A   1      41.340  27.819  28.419  1.00  0.00     0.049 A 
ATOM     42  H   UNL A   1      41.224  28.848  30.226  1.00  0.00     0.167 HD
ATOM     43  C   UNL A   1      40.839  31.074  33.988  1.00  0.00     0.034 A 
ATOM     44  C   UNL A   1      42.378  26.964  28.522  1.00  0.00     0.034 A 
ATOM     45  C   UNL A   1      41.872  30.107  34.231  1.00  0.00     0.049 A 
ATOM     46  C   UNL A   1      43.121  26.870  29.829  1.00  0.00     0.074 A 
ATOM     47  C   UNL A   1      42.609  29.902  35.385  1.00  0.00     0.029 A 
ATOM     48  N   UNL A   1      42.318  29.180  33.301  1.00  0.00    -0.354 N 
ATOM     49  N   UNL A   1      42.904  27.511  30.952  1.00  0.00    -0.248 NA
ATOM     50  C   UNL A   1      44.225  25.900  29.897  1.00  0.00     0.031 C 
ATOM     51  C   UNL A   1      43.508  28.857  35.148  1.00  0.00     0.029 A 
ATOM     52  C   UNL A   1      43.322  28.403  33.852  1.00  0.00     0.049 A 
ATOM     53  H   UNL A   1      41.972  29.089  32.385  1.00  0.00     0.167 HD
ATOM     54  C   UNL A   1      43.815  26.997  31.869  1.00  0.00     0.074 A 
ATOM     55  C   UNL A   1      44.573  25.976  31.175  1.00  0.00     0.031 C 
ATOM     56  C   UNL A   1      44.018  27.347  33.164  1.00  0.00     0.034 A 
BRANCH  43  57
ATOM     57  C   UNL A   1      40.473  32.024  35.099  1.00  0.00     0.023 A 
ATOM     58  C   UNL A   1      41.229  33.199  35.283  1.00  0.00     0.012 A 
ATOM     59  C   UNL A   1      39.359  31.781  35.925  1.00  0.00     0.148 A 
ATOM     60  C   UNL A   1      40.899  34.106  36.290  1.00  0.00     0.002 A 
ATOM     61  C   UNL A   1      39.014  32.707  36.902  1.00  0.00     0.091 A 
ATOM     62  F   UNL A   1      38.669  30.645  35.752  1.00  0.00    -0.205 F 
ATOM     63  C   UNL A   1      39.787  33.865  37.091  1.00  0.00     0.022 A 
BRANCH  61  64
ATOM     64  S   UNL A   1      37.560  32.518  37.941  1.00  0.00     0.127 S 
ATOM     65  O   UNL A   1      37.895  33.377  39.077  1.00  0.00    -0.237 OA
ATOM     66  O   UNL A   1      36.494  33.034  37.081  1.00  0.00    -0.237 OA
ATOM     67  O   UNL A   1      37.463  31.096  38.237  1.00  0.00    -0.744 OA
ENDBRANCH  61  64
ENDBRANCH  43  57
BRANCH  44  68
ATOM     68  C   UNL A   1      42.721  26.070  27.380  1.00  0.00     0.023 A 
ATOM     69  C   UNL A   1      43.536  26.554  26.339  1.00  0.00     0.012 A 
ATOM     70  C   UNL A   1      42.262  24.740  27.329  1.00  0.00     0.148 A 
ATOM     71  C   UNL A   1      43.865  25.740  25.255  1.00  0.00     0.002 A 
ATOM     72  C   UNL A   1      42.636  23.917  26.272  1.00  0.00     0.091 A 
ATOM     73  F   UNL A   1      41.467  24.302  28.317  1.00  0.00    -0.205 F 
ATOM     74  C   UNL A   1      43.424  24.419  25.226  1.00  0.00     0.022 A 
BRANCH  72  75
ATOM     75  S   UNL A   1      42.214  22.172  26.228  1.00  0.00     0.127 S 
ATOM     76  O   UNL A   1      42.607  21.734  27.565  1.00  0.00    -0.237 OA
ATOM     77  O   UNL A   1      40.771  22.209  25.991  1.00  0.00    -0.237 OA
ATOM     78  O   UNL A   1      42.984  21.617  25.122  1.00  0.00    -0.744 OA
ENDBRANCH  72  75
ENDBRANCH  44  68
BRANCH  56  79
ATOM     79  C   UNL A   1      45.079  26.602  33.930  1.00  0.00     0.023 A 
ATOM     80  C   UNL A   1      46.432  26.969  33.782  1.00  0.00     0.012 A 
ATOM     81  C   UNL A   1      44.732  25.590  34.846  1.00  0.00     0.148 A 
ATOM     82  C   UNL A   1      47.425  26.318  34.512  1.00  0.00     0.002 A 
ATOM     83  C   UNL A   1      45.724  24.976  35.602  1.00  0.00     0.091 A 
ATOM     84  F   UNL A   1      43.443  25.238  34.957  1.00  0.00    -0.205 F 
ATOM     85  C   UNL A   1      47.072  25.331  35.430  1.00  0.00     0.022 A 
BRANCH  83  86
ATOM     86  S   UNL A   1      45.333  23.765  36.870  1.00  0.00     0.127 S 
ATOM     87  O   UNL A   1      44.762  22.676  36.080  1.00  0.00    -0.237 OA
ATOM     88  O   UNL A   1      46.646  23.473  37.449  1.00  0.00    -0.237 OA
ATOM     89  O   UNL A   1      44.417  24.437  37.782  1.00  0.00    -0.744 OA
ENDBRANCH  83  86
ENDBRANCH  56  79
ENDBRANCH  30  31
ENDBRANCH  23  25
ENDBRANCH  22  23
ENDBRANCH  21  22
ENDBRANCH   1  21
TORSDOF 20
ENDMDL
MODEL 2
REMARK VINA RESULT:     -10.9      5.178      8.145
REMARK SMILES COc1ccc(C(C)(C)C)cc1CC(=O)OCCOCCOC(=O)c1ccc(-c2c3nc(c(-c4cccc(S(=O)(=O)[O-])c4F)c4ccc([nH]4)c(-c4cccc(S(=O)(=O)[O-])c4F)c4nc(c(-c5cccc(S(=O)(=O)[O-])c5F)c5ccc2[nH]5)C=C4)C=C3)cc1
REMARK SMILES IDX 20 1 19 2 18 3 17 4 16 5 14 6 15 7 13 8 12 9 3 10 4 11 5 12
REMARK SMILES IDX 11 13 6 14 2 15 1 16 7 17 8 18 9 19 10 20 21 21 22 22 23 23
REMARK SMILES IDX 24 24 25 25 26 26 87 27 27 28 86 29 28 30 29 31 30 32 80 33
REMARK SMILES IDX 31 34 85 35 79 36 81 37 32 38 84 39 78 40 77 41 33 43 65 44
REMARK SMILES IDX 45 45 64 46 46 47 49 48 63 49 82 50 47 51 48 52 62 54 83 55
REMARK SMILES IDX 50 56 34 57 35 58 43 59 36 60 38 61 44 62 37 63 39 64 40 65
REMARK SMILES IDX 41 66 42 67 66 68 67 69 75 70 68 71 70 72 76 73 69 74 71 75
REMARK SMILES IDX 72 76 73 77 74 78 51 79 52 80 60 81 53 82 55 83 61 84 54 85
REMARK SMILES IDX 56 86 57 87 58 88 59 89
REMARK H PARENT 81 42 49 53
REMARK Flexibility Score: inf
ROOT
ATOM      1  C   UNL A   1      35.366  21.423  25.089  1.00  0.00     0.202 C 
ENDROOT
BRANCH   1   2
ATOM      2  O   UNL A   1      35.144  22.319  24.002  1.00  0.00    -0.374 OA
BRANCH   2   3
ATOM      3  C   UNL A   1      34.232  23.397  24.217  1.00  0.00     0.202 C 
BRANCH   3   4
ATOM      4  C   UNL A   1      33.140  23.593  23.158  1.00  0.00     0.261 C 
BRANCH   4   5
ATOM      5  O   UNL A   1      33.609  24.336  22.020  1.00  0.00    -0.463 OA
BRANCH   5   6
ATOM      6  C   UNL A   1      33.111  25.593  21.884  1.00  0.00     0.310 C 
ATOM      7  O   UNL A   1      33.654  26.494  21.246  1.00  0.00    -0.252 OA
BRANCH   6   8
ATOM      8  C   UNL A   1      31.720  25.775  22.447  1.00  0.00     0.162 C 
BRANCH   8   9
ATOM      9  C   UNL A   1      31.384  27.067  23.152  1.00  0.00     0.005 A 
ATOM     10  C   UNL A   1      32.175  27.531  24.207  1.00  0.00     0.122 A 
ATOM     11  C   UNL A   1      31.884  28.736  24.835  1.00  0.00     0.047 A 
ATOM     12  C   UNL A   1      30.814  29.515  24.387  1.00  0.00     0.008 A 
ATOM     13  C   UNL A   1      30.304  27.866  22.714  1.00  0.00     0.012 A 
ATOM     14  C   UNL A   1      29.999  29.105  23.312  1.00  0.00    -0.042 A 
BRANCH  10  15
ATOM     15  O   UNL A   1      33.222  26.777  24.660  1.00  0.00    -0.496 OA
ATOM     16  C   UNL A   1      33.301  26.807  26.087  1.00  0.00     0.278 C 
ENDBRANCH  10  15
BRANCH  14  17
ATOM     17  C   UNL A   1      28.837  30.006  22.847  1.00  0.00    -0.013 C 
ATOM     18  C   UNL A   1      27.511  29.219  22.943  1.00  0.00     0.016 C 
ATOM     19  C   UNL A   1      28.755  31.258  23.748  1.00  0.00     0.016 C 
ATOM     20  C   UNL A   1      28.963  30.532  21.399  1.00  0.00     0.016 C 
ENDBRANCH  14  17
ENDBRANCH   8   9
ENDBRANCH   6   8
ENDBRANCH   5   6
ENDBRANCH   4   5
ENDBRANCH   3   4
ENDBRANCH   2   3
ENDBRANCH   1   2
BRANCH   1  21
ATOM     21  C   UNL A   1      36.644  20.584  25.041  1.00  0.00     0.261 C 
BRANCH  21  22
ATOM     22  O   UNL A   1      37.827  21.370  24.857  1.00  0.00    -0.460 OA
BRANCH  22  23
ATOM     23  C   UNL A   1      38.823  21.055  25.714  1.00  0.00     0.338 C 
ATOM     24  O   UNL A   1      39.407  19.982  25.802  1.00  0.00    -0.246 OA
BRANCH  23  25
ATOM     25  C   UNL A   1      39.263  22.236  26.468  1.00  0.00     0.060 A 
ATOM     26  C   UNL A   1      38.623  23.446  26.174  1.00  0.00     0.016 A 
ATOM     27  C   UNL A   1      40.381  22.200  27.303  1.00  0.00     0.016 A 
ATOM     28  C   UNL A   1      39.162  24.641  26.635  1.00  0.00     0.010 A 
ATOM     29  C   UNL A   1      40.922  23.405  27.766  1.00  0.00     0.010 A 
ATOM     30  C   UNL A   1      40.351  24.630  27.377  1.00  0.00    -0.014 A 
BRANCH  30  31
ATOM     31  C   UNL A   1      41.080  25.911  27.550  1.00  0.00     0.031 A 
ATOM     32  C   UNL A   1      40.421  27.020  28.329  1.00  0.00     0.074 A 
ATOM     33  C   UNL A   1      42.337  26.052  27.095  1.00  0.00     0.049 A 
ATOM     34  N   UNL A   1      40.916  28.167  28.715  1.00  0.00    -0.248 NA
ATOM     35  C   UNL A   1      39.019  26.807  28.730  1.00  0.00     0.031 C 
ATOM     36  C   UNL A   1      43.074  25.052  26.327  1.00  0.00     0.029 A 
ATOM     37  N   UNL A   1      43.216  27.098  27.221  1.00  0.00    -0.354 N 
ATOM     38  C   UNL A   1      39.886  28.817  29.386  1.00  0.00     0.074 A 
ATOM     39  C   UNL A   1      38.732  27.949  29.338  1.00  0.00     0.031 C 
ATOM     40  C   UNL A   1      44.297  25.534  26.043  1.00  0.00     0.029 A 
ATOM     41  C   UNL A   1      44.427  26.875  26.610  1.00  0.00     0.049 A 
ATOM     42  H   UNL A   1      43.000  27.929  27.702  1.00  0.00     0.167 HD
ATOM     43  C   UNL A   1      39.908  30.019  30.010  1.00  0.00     0.034 A 
ATOM     44  C   UNL A   1      45.518  27.662  26.531  1.00  0.00     0.034 A 
ATOM     45  C   UNL A   1      41.066  30.865  30.087  1.00  0.00     0.049 A 
ATOM     46  C   UNL A   1      45.521  28.985  27.252  1.00  0.00     0.074 A 
ATOM     47  C   UNL A   1      41.205  32.081  30.733  1.00  0.00     0.029 A 
ATOM     48  N   UNL A   1      42.288  30.583  29.496  1.00  0.00    -0.354 N 
ATOM     49  N   UNL A   1      44.586  29.522  27.998  1.00  0.00    -0.248 NA
ATOM     50  C   UNL A   1      46.748  29.791  27.157  1.00  0.00     0.031 C 
ATOM     51  C   UNL A   1      42.510  32.540  30.522  1.00  0.00     0.029 A 
ATOM     52  C   UNL A   1      43.186  31.602  29.757  1.00  0.00     0.049 A 
ATOM     53  H   UNL A   1      42.487  29.777  28.968  1.00  0.00     0.167 HD
ATOM     54  C   UNL A   1      45.122  30.706  28.492  1.00  0.00     0.074 A 
ATOM     55  C   UNL A   1      46.473  30.798  27.977  1.00  0.00     0.031 C 
ATOM     56  C   UNL A   1      44.547  31.641  29.288  1.00  0.00     0.034 A 
BRANCH  43  57
ATOM     57  C   UNL A   1      38.646  30.470  30.699  1.00  0.00     0.023 A 
ATOM     58  C   UNL A   1      38.483  30.222  32.076  1.00  0.00     0.012 A 
ATOM     59  C   UNL A   1      37.650  31.177  30.000  1.00  0.00     0.148 A 
ATOM     60  C   UNL A   1      37.334  30.648  32.744  1.00  0.00     0.002 A 
ATOM     61  C   UNL A   1      36.525  31.631  30.679  1.00  0.00     0.091 A 
ATOM     62  F   UNL A   1      37.811  31.380  28.685  1.00  0.00    -0.205 F 
ATOM     63  C   UNL A   1      36.362  31.361  32.048  1.00  0.00     0.022 A 
BRANCH  61  64
ATOM     64  S   UNL A   1      35.249  32.614  29.884  1.00  0.00     0.127 S 
ATOM     65  O   UNL A   1      34.315  32.835  30.988  1.00  0.00    -0.237 OA
ATOM     66  O   UNL A   1      35.988  33.806  29.466  1.00  0.00    -0.237 OA
ATOM     67  O   UNL A   1      34.742  31.801  28.788  1.00  0.00    -0.744 OA
ENDBRANCH  61  64
ENDBRANCH  43  57
BRANCH  44  68
ATOM     68  C   UNL A   1      46.730  27.183  25.807  1.00  0.00     0.023 A 
ATOM     69  C   UNL A   1      47.594  26.265  26.432  1.00  0.00     0.012 A 
ATOM     70  C   UNL A   1      47.018  27.615  24.499  1.00  0.00     0.148 A 
ATOM     71  C   UNL A   1      48.740  25.807  25.779  1.00  0.00     0.002 A 
ATOM     72  C   UNL A   1      48.133  27.116  23.834  1.00  0.00     0.091 A 
ATOM     73  F   UNL A   1      46.197  28.508  23.927  1.00  0.00    -0.205 F 
ATOM     74  C   UNL A   1      49.003  26.224  24.477  1.00  0.00     0.022 A 
BRANCH  72  75
ATOM     75  S   UNL A   1      48.469  27.507  22.113  1.00  0.00     0.127 S 
ATOM     76  O   UNL A   1      47.211  28.116  21.692  1.00  0.00    -0.237 OA
ATOM     77  O   UNL A   1      49.597  28.433  22.222  1.00  0.00    -0.237 OA
ATOM     78  O   UNL A   1      48.804  26.234  21.487  1.00  0.00    -0.744 OA
ENDBRANCH  72  75
ENDBRANCH  44  68
BRANCH  56  79
ATOM     79  C   UNL A   1      45.382  32.832  29.681  1.00  0.00     0.023 A 
ATOM     80  C   UNL A   1      46.129  32.797  30.875  1.00  0.00     0.012 A 
ATOM     81  C   UNL A   1      45.482  33.954  28.835  1.00  0.00     0.148 A 
ATOM     82  C   UNL A   1      46.938  33.873  31.235  1.00  0.00     0.002 A 
ATOM     83  C   UNL A   1      46.324  35.005  29.181  1.00  0.00     0.091 A 
ATOM     84  F   UNL A   1      44.746  33.981  27.713  1.00  0.00    -0.205 F 
ATOM     85  C   UNL A   1      47.045  34.970  30.385  1.00  0.00     0.022 A 
BRANCH  83  86
ATOM     86  S   UNL A   1      46.584  36.406  28.088  1.00  0.00     0.127 S 
ATOM     87  O   UNL A   1      45.382  37.202  28.327  1.00  0.00    -0.237 OA
ATOM     88  O   UNL A   1      47.818  36.995  28.612  1.00  0.00    -0.237 OA
ATOM     89  O   UNL A   1      46.716  35.840  26.752  1.00  0.00    -0.744 OA
ENDBRANCH  83  86
ENDBRANCH  56  79
ENDBRANCH  30  31
ENDBRANCH  23  25
ENDBRANCH  22  23
ENDBRANCH  21  22
ENDBRANCH   1  21
TORSDOF 20
ENDMDL
MODEL 3
REMARK VINA RESULT:     -10.6      1.889      8.022
REMARK SMILES COc1ccc(C(C)(C)C)cc1CC(=O)OCCOCCOC(=O)c1ccc(-c2c3nc(c(-c4cccc(S(=O)(=O)[O-])c4F)c4ccc([nH]4)c(-c4cccc(S(=O)(=O)[O-])c4F)c4nc(c(-c5cccc(S(=O)(=O)[O-])c5F)c5ccc2[nH]5)C=C4)C=C3)cc1
REMARK SMILES IDX 20 1 19 2 18 3 17 4 16 5 14 6 15 7 13 8 12 9 3 10 4 11 5 12
REMARK SMILES IDX 11 13 6 14 2 15 1 16 7 17 8 18 9 19 10 20 21 21 22 22 23 23
REMARK SMILES IDX 24 24 25 25 26 26 87 27 27 28 86 29 28 30 29 31 30 32 80 33
REMARK SMILES IDX 31 34 85 35 79 36 81 37 32 38 84 39 78 40 77 41 33 43 65 44
REMARK SMILES IDX 45 45 64 46 46 47 49 48 63 49 82 50 47 51 48 52 62 54 83 55
REMARK SMILES IDX 50 56 34 57 35 58 43 59 36 60 38 61 44 62 37 63 39 64 40 65
REMARK SMILES IDX 41 66 42 67 66 68 67 69 75 70 68 71 70 72 76 73 69 74 71 75
REMARK SMILES IDX 72 76 73 77 74 78 51 79 52 80 60 81 53 82 55 83 61 84 54 85
REMARK SMILES IDX 56 86 57 87 58 88 59 89
REMARK H PARENT 81 42 49 53
REMARK Flexibility Score: inf
ROOT
ATOM      1  C   UNL A   1      31.727  28.681  26.723  1.00  0.00     0.202 C 
ENDROOT
BRANCH   1   2
ATOM      2  O   UNL A   1      31.363  28.201  25.431  1.00  0.00    -0.374 OA
BRANCH   2   3
ATOM      3  C   UNL A   1      30.855  26.868  25.346  1.00  0.00     0.202 C 
BRANCH   3   4
ATOM      4  C   UNL A   1      31.817  25.743  25.747  1.00  0.00     0.261 C 
BRANCH   4   5
ATOM      5  O   UNL A   1      31.298  24.935  26.817  1.00  0.00    -0.463 OA
BRANCH   5   6
ATOM      6  C   UNL A   1      31.254  23.597  26.584  1.00  0.00     0.310 C 
ATOM      7  O   UNL A   1      30.759  22.771  27.351  1.00  0.00    -0.252 OA
BRANCH   6   8
ATOM      8  C   UNL A   1      31.719  23.190  25.205  1.00  0.00     0.162 C 
BRANCH   8   9
ATOM      9  C   UNL A   1      32.826  22.170  25.082  1.00  0.00     0.005 A 
ATOM     10  C   UNL A   1      34.148  22.515  25.373  1.00  0.00     0.122 A 
ATOM     11  C   UNL A   1      35.163  21.568  25.291  1.00  0.00     0.047 A 
ATOM     12  C   UNL A   1      34.858  20.247  24.951  1.00  0.00     0.008 A 
ATOM     13  C   UNL A   1      32.536  20.831  24.736  1.00  0.00     0.012 A 
ATOM     14  C   UNL A   1      33.537  19.842  24.670  1.00  0.00    -0.042 A 
BRANCH  10  15
ATOM     15  O   UNL A   1      34.464  23.803  25.702  1.00  0.00    -0.496 OA
ATOM     16  C   UNL A   1      35.137  24.462  24.627  1.00  0.00     0.278 C 
ENDBRANCH  10  15
BRANCH  14  17
ATOM     17  C   UNL A   1      33.249  18.370  24.311  1.00  0.00    -0.013 C 
ATOM     18  C   UNL A   1      32.421  18.315  23.008  1.00  0.00     0.016 C 
ATOM     19  C   UNL A   1      34.580  17.614  24.103  1.00  0.00     0.016 C 
ATOM     20  C   UNL A   1      32.474  17.578  25.389  1.00  0.00     0.016 C 
ENDBRANCH  14  17
ENDBRANCH   8   9
ENDBRANCH   6   8
ENDBRANCH   5   6
ENDBRANCH   4   5
ENDBRANCH   3   4
ENDBRANCH   2   3
ENDBRANCH   1   2
BRANCH   1  21
ATOM     21  C   UNL A   1      31.758  30.199  26.911  1.00  0.00     0.261 C 
BRANCH  21  22
ATOM     22  O   UNL A   1      32.938  30.809  26.373  1.00  0.00    -0.460 OA
BRANCH  22  23
ATOM     23  C   UNL A   1      33.509  31.707  27.205  1.00  0.00     0.338 C 
ATOM     24  O   UNL A   1      32.967  32.672  27.731  1.00  0.00    -0.246 OA
BRANCH  23  25
ATOM     25  C   UNL A   1      34.877  31.305  27.557  1.00  0.00     0.060 A 
ATOM     26  C   UNL A   1      35.116  29.932  27.687  1.00  0.00     0.016 A 
ATOM     27  C   UNL A   1      35.846  32.241  27.920  1.00  0.00     0.016 A 
ATOM     28  C   UNL A   1      36.293  29.491  28.279  1.00  0.00     0.010 A 
ATOM     29  C   UNL A   1      37.032  31.794  28.516  1.00  0.00     0.010 A 
ATOM     30  C   UNL A   1      37.226  30.422  28.757  1.00  0.00    -0.014 A 
BRANCH  30  31
ATOM     31  C   UNL A   1      38.283  29.942  29.681  1.00  0.00     0.031 A 
ATOM     32  C   UNL A   1      39.306  28.962  29.166  1.00  0.00     0.074 A 
ATOM     33  C   UNL A   1      38.381  30.436  30.928  1.00  0.00     0.049 A 
ATOM     34  N   UNL A   1      40.386  28.510  29.748  1.00  0.00    -0.248 NA
ATOM     35  C   UNL A   1      39.085  28.421  27.813  1.00  0.00     0.031 C 
ATOM     36  C   UNL A   1      37.450  31.383  31.535  1.00  0.00     0.029 A 
ATOM     37  N   UNL A   1      39.317  30.206  31.904  1.00  0.00    -0.354 N 
ATOM     38  C   UNL A   1      40.961  27.624  28.845  1.00  0.00     0.074 A 
ATOM     39  C   UNL A   1      40.102  27.582  27.684  1.00  0.00     0.031 C 
ATOM     40  C   UNL A   1      37.858  31.653  32.788  1.00  0.00     0.029 A 
ATOM     41  C   UNL A   1      39.077  30.897  33.068  1.00  0.00     0.049 A 
ATOM     42  H   UNL A   1      40.085  29.603  31.784  1.00  0.00     0.167 HD
ATOM     43  C   UNL A   1      42.116  26.926  28.961  1.00  0.00     0.034 A 
ATOM     44  C   UNL A   1      39.774  30.924  34.222  1.00  0.00     0.034 A 
ATOM     45  C   UNL A   1      42.986  26.995  30.102  1.00  0.00     0.049 A 
ATOM     46  C   UNL A   1      41.065  30.153  34.315  1.00  0.00     0.074 A 
ATOM     47  C   UNL A   1      44.201  26.362  30.300  1.00  0.00     0.029 A 
ATOM     48  N   UNL A   1      42.734  27.744  31.241  1.00  0.00    -0.354 N 
ATOM     49  N   UNL A   1      41.665  29.430  33.400  1.00  0.00    -0.248 NA
ATOM     50  C   UNL A   1      41.800  30.241  35.586  1.00  0.00     0.031 C 
ATOM     51  C   UNL A   1      44.678  26.721  31.566  1.00  0.00     0.029 A 
ATOM     52  C   UNL A   1      43.766  27.587  32.149  1.00  0.00     0.049 A 
ATOM     53  H   UNL A   1      41.937  28.303  31.384  1.00  0.00     0.167 HD
ATOM     54  C   UNL A   1      42.862  29.009  33.968  1.00  0.00     0.074 A 
ATOM     55  C   UNL A   1      42.912  29.576  35.301  1.00  0.00     0.031 C 
ATOM     56  C   UNL A   1      43.827  28.213  33.444  1.00  0.00     0.034 A 
BRANCH  43  57
ATOM     57  C   UNL A   1      42.526  26.058  27.801  1.00  0.00     0.023 A 
ATOM     58  C   UNL A   1      43.403  26.574  26.826  1.00  0.00     0.012 A 
ATOM     59  C   UNL A   1      42.087  24.724  27.700  1.00  0.00     0.148 A 
ATOM     60  C   UNL A   1      43.817  25.785  25.752  1.00  0.00     0.002 A 
ATOM     61  C   UNL A   1      42.532  23.932  26.648  1.00  0.00     0.091 A 
ATOM     62  F   UNL A   1      41.232  24.260  28.622  1.00  0.00    -0.205 F 
ATOM     63  C   UNL A   1      43.390  24.463  25.669  1.00  0.00     0.022 A 
BRANCH  61  64
ATOM     64  S   UNL A   1      42.090  22.198  26.491  1.00  0.00     0.127 S 
ATOM     65  O   UNL A   1      40.638  22.276  26.327  1.00  0.00    -0.237 OA
ATOM     66  O   UNL A   1      42.817  21.798  25.286  1.00  0.00    -0.237 OA
ATOM     67  O   UNL A   1      42.549  21.557  27.715  1.00  0.00    -0.744 OA
ENDBRANCH  61  64
ENDBRANCH  43  57
BRANCH  44  68
ATOM     68  C   UNL A   1      39.306  31.773  35.353  1.00  0.00     0.023 A 
ATOM     69  C   UNL A   1      38.432  31.230  36.315  1.00  0.00     0.012 A 
ATOM     70  C   UNL A   1      39.735  33.106  35.493  1.00  0.00     0.148 A 
ATOM     71  C   UNL A   1      37.973  32.007  37.379  1.00  0.00     0.002 A 
ATOM     72  C   UNL A   1      39.315  33.859  36.584  1.00  0.00     0.091 A 
ATOM     73  F   UNL A   1      40.548  33.615  34.556  1.00  0.00    -0.205 F 
ATOM     74  C   UNL A   1      38.422  33.317  37.520  1.00  0.00     0.022 A 
BRANCH  72  75
ATOM     75  S   UNL A   1      39.948  35.510  36.902  1.00  0.00     0.127 S 
ATOM     76  O   UNL A   1      39.519  36.232  35.708  1.00  0.00    -0.237 OA
ATOM     77  O   UNL A   1      39.245  35.879  38.132  1.00  0.00    -0.237 OA
ATOM     78  O   UNL A   1      41.387  35.345  37.067  1.00  0.00    -0.744 OA
ENDBRANCH  72  75
ENDBRANCH  44  68
BRANCH  56  79
ATOM     79  C   UNL A   1      45.037  27.930  34.295  1.00  0.00     0.023 A 
ATOM     80  C   UNL A   1      46.148  28.795  34.236  1.00  0.00     0.012 A 
ATOM     81  C   UNL A   1      45.046  26.853  35.202  1.00  0.00     0.148 A 
ATOM     82  C   UNL A   1      47.261  28.572  35.045  1.00  0.00     0.002 A 
ATOM     83  C   UNL A   1      46.143  26.663  36.035  1.00  0.00     0.091 A 
ATOM     84  F   UNL A   1      43.990  26.026  35.228  1.00  0.00    -0.205 F 
ATOM     85  C   UNL A   1      47.255  27.515  35.951  1.00  0.00     0.022 A 
BRANCH  83  86
ATOM     86  S   UNL A   1      46.163  25.380  37.293  1.00  0.00     0.127 S 
ATOM     87  O   UNL A   1      46.331  24.172  36.488  1.00  0.00    -0.237 OA
ATOM     88  O   UNL A   1      47.330  25.741  38.098  1.00  0.00    -0.237 OA
ATOM     89  O   UNL A   1      44.893  25.503  37.996  1.00  0.00    -0.744 OA
ENDBRANCH  83  86
ENDBRANCH  56  79
ENDBRANCH  30  31
ENDBRANCH  23  25
ENDBRANCH  22  23
ENDBRANCH  21  22
ENDBRANCH   1  21
TORSDOF 20
ENDMDL
