MODEL 1
REMARK VINA RESULT:     -10.7      0.000      0.000
REMARK SMILES CC(C)[NH2+][C@@]1(C(=O)OCCOCCOC(=O)c2ccc(-c3c4nc(c(-c5cccc(S(=O)(=O)[O-])c5F)c5ccc([nH]5)c(-c5cccc(S(=O)(=O)[O-])c5F)c5nc(c(-c6cccc(S(=O)(=O)[O-])c6F)c6ccc3[nH]6)C=C5)C=C4)cc2)CCC[C@@H](Sc2nncn2C)C1
REMARK SMILES IDX 12 1 11 2 10 3 9 4 8 5 6 6 7 7 5 8 80 9 91 10 81 11 83 12
REMARK SMILES IDX 82 13 4 14 2 17 1 18 3 19 84 20 85 21 86 22 89 23 87 24
REMARK SMILES IDX 88 25 90 26 13 27 14 28 15 29 16 30 17 31 18 32 79 33 19 34
REMARK SMILES IDX 78 35 20 36 21 37 22 38 72 39 23 40 77 41 71 42 73 43 24 44
REMARK SMILES IDX 76 45 70 46 69 47 25 49 57 50 37 51 56 52 38 53 41 54 55 55
REMARK SMILES IDX 74 56 39 57 40 58 54 60 75 61 42 62 26 63 27 64 35 65 28 66
REMARK SMILES IDX 30 67 36 68 29 69 31 70 32 71 33 72 34 73 58 74 59 75 67 76
REMARK SMILES IDX 60 77 62 78 68 79 61 80 63 81 64 82 65 83 66 84 43 85 44 86
REMARK SMILES IDX 52 87 45 88 47 89 53 90 46 91 48 92 49 93 50 94 51 95
REMARK H PARENT 4 15 4 16 73 48 41 59
REMARK Flexibility Score: inf
ROOT
ATOM      1  C   UNL A   1      36.301  19.907  24.995  1.00  0.00     0.202 C 
ENDROOT
BRANCH   1   2
ATOM      2  O   UNL A   1      35.422  18.843  24.634  1.00  0.00    -0.374 OA
BRANCH   2   3
ATOM      3  C   UNL A   1      34.046  18.976  24.999  1.00  0.00     0.202 C 
BRANCH   3   4
ATOM      4  C   UNL A   1      33.066  19.384  23.896  1.00  0.00     0.261 C 
BRANCH   4   5
ATOM      5  O   UNL A   1      32.317  20.546  24.288  1.00  0.00    -0.459 OA
BRANCH   5   6
ATOM      6  C   UNL A   1      32.342  21.569  23.399  1.00  0.00     0.368 C 
ATOM      7  O   UNL A   1      31.845  21.517  22.276  1.00  0.00    -0.245 OA
BRANCH   6   8
ATOM      8  C   UNL A   1      33.005  22.859  23.959  1.00  0.00     0.195 C 
ATOM      9  C   UNL A   1      32.225  23.171  25.264  1.00  0.00     0.081 C 
ATOM     10  C   UNL A   1      32.970  24.147  23.087  1.00  0.00     0.096 C 
ATOM     11  C   UNL A   1      30.776  23.575  24.973  1.00  0.00     0.008 C 
ATOM     12  C   UNL A   1      31.557  24.715  22.846  1.00  0.00     0.061 C 
ATOM     13  C   UNL A   1      30.714  24.835  24.119  1.00  0.00     0.015 C 
BRANCH   8  14
ATOM     14  N   UNL A   1      34.419  22.522  24.356  1.00  0.00    -0.330 N 
ATOM     15  H   UNL A   1      34.409  22.291  25.350  1.00  0.00     0.347 HD
ATOM     16  H   UNL A   1      34.688  21.763  23.730  1.00  0.00     0.347 HD
BRANCH  14  17
ATOM     17  C   UNL A   1      35.453  23.553  24.156  1.00  0.00     0.176 C 
ATOM     18  C   UNL A   1      35.976  23.980  25.532  1.00  0.00     0.075 C 
ATOM     19  C   UNL A   1      36.659  23.081  23.332  1.00  0.00     0.075 C 
ENDBRANCH  14  17
ENDBRANCH   8  14
BRANCH  12  20
ATOM     20  S   UNL A   1      31.587  26.300  21.908  1.00  0.00    -0.082 SA
BRANCH  20  21
ATOM     21  C   UNL A   1      31.748  27.487  23.155  1.00  0.00     0.191 A 
ATOM     22  N   UNL A   1      32.827  27.744  23.856  1.00  0.00    -0.124 NA
ATOM     23  N   UNL A   1      30.737  28.313  23.557  1.00  0.00    -0.312 N 
ATOM     24  N   UNL A   1      32.521  28.753  24.745  1.00  0.00    -0.138 NA
ATOM     25  C   UNL A   1      31.263  29.080  24.554  1.00  0.00     0.226 A 
ATOM     26  C   UNL A   1      29.380  28.371  23.081  1.00  0.00     0.153 C 
ENDBRANCH  20  21
ENDBRANCH  12  20
ENDBRANCH   6   8
ENDBRANCH   5   6
ENDBRANCH   4   5
ENDBRANCH   3   4
ENDBRANCH   2   3
ENDBRANCH   1   2
BRANCH   1  27
ATOM     27  C   UNL A   1      37.796  19.604  25.126  1.00  0.00     0.261 C 
BRANCH  27  28
ATOM     28  O   UNL A   1      38.585  20.786  25.311  1.00  0.00    -0.460 OA
BRANCH  28  29
ATOM     29  C   UNL A   1      39.621  20.631  26.174  1.00  0.00     0.338 C 
ATOM     30  O   UNL A   1      40.286  19.630  26.359  1.00  0.00    -0.246 OA
BRANCH  29  31
ATOM     31  C   UNL A   1      39.987  21.946  26.728  1.00  0.00     0.060 A 
ATOM     32  C   UNL A   1      39.339  23.069  26.195  1.00  0.00     0.016 A 
ATOM     33  C   UNL A   1      40.969  22.083  27.710  1.00  0.00     0.016 A 
ATOM     34  C   UNL A   1      39.703  24.343  26.612  1.00  0.00     0.010 A 
ATOM     35  C   UNL A   1      41.348  23.364  28.113  1.00  0.00     0.010 A 
ATOM     36  C   UNL A   1      40.740  24.496  27.538  1.00  0.00    -0.014 A 
BRANCH  36  37
ATOM     37  C   UNL A   1      41.298  25.844  27.780  1.00  0.00     0.031 A 
ATOM     38  C   UNL A   1      42.700  26.132  27.324  1.00  0.00     0.074 A 
ATOM     39  C   UNL A   1      40.561  26.788  28.389  1.00  0.00     0.049 A 
ATOM     40  N   UNL A   1      43.408  27.219  27.468  1.00  0.00    -0.248 NA
ATOM     41  C   UNL A   1      43.398  25.047  26.613  1.00  0.00     0.031 C 
ATOM     42  C   UNL A   1      39.185  26.616  28.852  1.00  0.00     0.029 A 
ATOM     43  N   UNL A   1      40.882  28.073  28.744  1.00  0.00    -0.354 N 
ATOM     44  C   UNL A   1      44.642  26.942  26.896  1.00  0.00     0.074 A 
ATOM     45  C   UNL A   1      44.592  25.581  26.408  1.00  0.00     0.031 C 
ATOM     46  C   UNL A   1      38.790  27.745  29.465  1.00  0.00     0.029 A 
ATOM     47  C   UNL A   1      39.893  28.704  29.460  1.00  0.00     0.049 A 
ATOM     48  H   UNL A   1      41.736  28.501  28.509  1.00  0.00     0.167 HD
ATOM     49  C   UNL A   1      45.719  27.754  26.778  1.00  0.00     0.034 A 
ATOM     50  C   UNL A   1      39.896  29.906  30.069  1.00  0.00     0.034 A 
ATOM     51  C   UNL A   1      45.752  29.110  27.254  1.00  0.00     0.049 A 
ATOM     52  C   UNL A   1      41.119  30.777  29.955  1.00  0.00     0.074 A 
ATOM     53  C   UNL A   1      46.774  30.035  27.144  1.00  0.00     0.029 A 
ATOM     54  N   UNL A   1      44.721  29.729  27.945  1.00  0.00    -0.354 N 
ATOM     55  N   UNL A   1      42.240  30.545  29.315  1.00  0.00    -0.248 NA
ATOM     56  C   UNL A   1      41.068  32.086  30.622  1.00  0.00     0.031 C 
ATOM     57  C   UNL A   1      46.374  31.203  27.801  1.00  0.00     0.029 A 
ATOM     58  C   UNL A   1      45.089  31.018  28.288  1.00  0.00     0.049 A 
ATOM     59  H   UNL A   1      43.855  29.313  28.160  1.00  0.00     0.167 HD
ATOM     60  C   UNL A   1      43.015  31.691  29.473  1.00  0.00     0.074 A 
ATOM     61  C   UNL A   1      42.225  32.621  30.253  1.00  0.00     0.031 C 
ATOM     62  C   UNL A   1      44.269  31.946  29.024  1.00  0.00     0.034 A 
BRANCH  49  63
ATOM     63  C   UNL A   1      46.944  27.201  26.102  1.00  0.00     0.023 A 
ATOM     64  C   UNL A   1      47.108  27.355  24.710  1.00  0.00     0.012 A 
ATOM     65  C   UNL A   1      47.955  26.570  26.852  1.00  0.00     0.148 A 
ATOM     66  C   UNL A   1      48.246  26.864  24.071  1.00  0.00     0.002 A 
ATOM     67  C   UNL A   1      49.106  26.123  26.215  1.00  0.00     0.091 A 
ATOM     68  F   UNL A   1      47.768  26.410  28.169  1.00  0.00    -0.205 F 
ATOM     69  C   UNL A   1      49.249  26.258  24.824  1.00  0.00     0.022 A 
BRANCH  67  70
ATOM     70  S   UNL A   1      50.487  25.398  27.107  1.00  0.00     0.127 S 
ATOM     71  O   UNL A   1      50.866  26.490  28.002  1.00  0.00    -0.237 OA
ATOM     72  O   UNL A   1      49.857  24.256  27.770  1.00  0.00    -0.237 OA
ATOM     73  O   UNL A   1      51.476  25.045  26.099  1.00  0.00    -0.744 OA
ENDBRANCH  67  70
ENDBRANCH  49  63
BRANCH  50  74
ATOM     74  C   UNL A   1      38.695  30.357  30.826  1.00  0.00     0.023 A 
ATOM     75  C   UNL A   1      38.588  30.074  32.200  1.00  0.00     0.012 A 
ATOM     76  C   UNL A   1      37.670  31.087  30.192  1.00  0.00     0.148 A 
ATOM     77  C   UNL A   1      37.469  30.486  32.926  1.00  0.00     0.002 A 
ATOM     78  C   UNL A   1      36.585  31.543  30.931  1.00  0.00     0.091 A 
ATOM     79  F   UNL A   1      37.783  31.331  28.879  1.00  0.00    -0.205 F 
ATOM     80  C   UNL A   1      36.474  31.229  32.295  1.00  0.00     0.022 A 
BRANCH  78  81
ATOM     81  S   UNL A   1      35.328  32.616  30.229  1.00  0.00     0.127 S 
ATOM     82  O   UNL A   1      34.942  31.880  29.028  1.00  0.00    -0.237 OA
ATOM     83  O   UNL A   1      34.322  32.636  31.291  1.00  0.00    -0.237 OA
ATOM     84  O   UNL A   1      35.984  33.897  30.002  1.00  0.00    -0.744 OA
ENDBRANCH  78  81
ENDBRANCH  50  74
BRANCH  62  85
ATOM     85  C   UNL A   1      44.861  33.296  29.333  1.00  0.00     0.023 A 
ATOM     86  C   UNL A   1      45.595  33.485  30.520  1.00  0.00     0.012 A 
ATOM     87  C   UNL A   1      44.765  34.349  28.401  1.00  0.00     0.148 A 
ATOM     88  C   UNL A   1      46.201  34.711  30.789  1.00  0.00     0.002 A 
ATOM     89  C   UNL A   1      45.414  35.551  28.653  1.00  0.00     0.091 A 
ATOM     90  F   UNL A   1      44.049  34.151  27.285  1.00  0.00    -0.205 F 
ATOM     91  C   UNL A   1      46.121  35.739  29.851  1.00  0.00     0.022 A 
BRANCH  89  92
ATOM     92  S   UNL A   1      45.451  36.894  27.461  1.00  0.00     0.127 S 
ATOM     93  O   UNL A   1      46.244  37.898  28.168  1.00  0.00    -0.237 OA
ATOM     94  O   UNL A   1      46.126  36.276  26.320  1.00  0.00    -0.237 OA
ATOM     95  O   UNL A   1      44.061  37.257  27.219  1.00  0.00    -0.744 OA
ENDBRANCH  89  92
ENDBRANCH  62  85
ENDBRANCH  36  37
ENDBRANCH  29  31
ENDBRANCH  28  29
ENDBRANCH  27  28
ENDBRANCH   1  27
TORSDOF 21
ENDMDL
MODEL 2
REMARK VINA RESULT:     -10.5      4.928     10.116
REMARK SMILES CC(C)[NH2+][C@@]1(C(=O)OCCOCCOC(=O)c2ccc(-c3c4nc(c(-c5cccc(S(=O)(=O)[O-])c5F)c5ccc([nH]5)c(-c5cccc(S(=O)(=O)[O-])c5F)c5nc(c(-c6cccc(S(=O)(=O)[O-])c6F)c6ccc3[nH]6)C=C5)C=C4)cc2)CCC[C@@H](Sc2nncn2C)C1
REMARK SMILES IDX 12 1 11 2 10 3 9 4 8 5 6 6 7 7 5 8 80 9 91 10 81 11 83 12
REMARK SMILES IDX 82 13 4 14 2 17 1 18 3 19 84 20 85 21 86 22 89 23 87 24
REMARK SMILES IDX 88 25 90 26 13 27 14 28 15 29 16 30 17 31 18 32 79 33 19 34
REMARK SMILES IDX 78 35 20 36 21 37 22 38 72 39 23 40 77 41 71 42 73 43 24 44
REMARK SMILES IDX 76 45 70 46 69 47 25 49 57 50 37 51 56 52 38 53 41 54 55 55
REMARK SMILES IDX 74 56 39 57 40 58 54 60 75 61 42 62 26 63 27 64 35 65 28 66
REMARK SMILES IDX 30 67 36 68 29 69 31 70 32 71 33 72 34 73 58 74 59 75 67 76
REMARK SMILES IDX 60 77 62 78 68 79 61 80 63 81 64 82 65 83 66 84 43 85 44 86
REMARK SMILES IDX 52 87 45 88 47 89 53 90 46 91 48 92 49 93 50 94 51 95
REMARK H PARENT 4 15 4 16 73 48 41 59
REMARK Flexibility Score: inf
ROOT
ATOM      1  C   UNL A   1      32.029  30.603  25.983  1.00  0.00     0.202 C 
ENDROOT
BRANCH   1   2
ATOM      2  O   UNL A   1      32.109  29.450  26.820  1.00  0.00    -0.374 OA
BRANCH   2   3
ATOM      3  C   UNL A   1      33.277  28.633  26.700  1.00  0.00     0.202 C 
BRANCH   3   4
ATOM      4  C   UNL A   1      33.062  27.142  26.428  1.00  0.00     0.261 C 
BRANCH   4   5
ATOM      5  O   UNL A   1      32.226  26.953  25.274  1.00  0.00    -0.459 OA
BRANCH   5   6
ATOM      6  C   UNL A   1      31.002  26.433  25.534  1.00  0.00     0.368 C 
ATOM      7  O   UNL A   1      30.485  26.414  26.650  1.00  0.00    -0.245 OA
BRANCH   6   8
ATOM      8  C   UNL A   1      30.266  25.916  24.265  1.00  0.00     0.195 C 
ATOM      9  C   UNL A   1      31.264  26.161  23.102  1.00  0.00     0.081 C 
ATOM     10  C   UNL A   1      28.923  26.589  23.863  1.00  0.00     0.096 C 
ATOM     11  C   UNL A   1      31.476  27.656  22.845  1.00  0.00     0.008 C 
ATOM     12  C   UNL A   1      29.049  28.070  23.453  1.00  0.00     0.061 C 
ATOM     13  C   UNL A   1      30.173  28.339  22.449  1.00  0.00     0.015 C 
BRANCH   8  14
ATOM     14  N   UNL A   1      30.097  24.425  24.400  1.00  0.00    -0.330 N 
ATOM     15  H   UNL A   1      29.285  24.263  24.997  1.00  0.00     0.347 HD
ATOM     16  H   UNL A   1      30.011  24.088  23.441  1.00  0.00     0.347 HD
BRANCH  14  17
ATOM     17  C   UNL A   1      31.217  23.655  24.966  1.00  0.00     0.176 C 
ATOM     18  C   UNL A   1      30.663  22.731  26.056  1.00  0.00     0.075 C 
ATOM     19  C   UNL A   1      31.953  22.774  23.946  1.00  0.00     0.075 C 
ENDBRANCH  14  17
ENDBRANCH   8  14
BRANCH  12  20
ATOM     20  S   UNL A   1      27.449  28.780  22.878  1.00  0.00    -0.082 SA
BRANCH  20  21
ATOM     21  C   UNL A   1      27.935  30.226  22.065  1.00  0.00     0.191 A 
ATOM     22  N   UNL A   1      27.899  30.447  20.772  1.00  0.00    -0.124 NA
ATOM     23  N   UNL A   1      28.423  31.332  22.702  1.00  0.00    -0.312 N 
ATOM     24  N   UNL A   1      28.382  31.720  20.549  1.00  0.00    -0.138 NA
ATOM     25  C   UNL A   1      28.694  32.235  21.717  1.00  0.00     0.226 A 
ATOM     26  C   UNL A   1      28.653  31.531  24.109  1.00  0.00     0.153 C 
ENDBRANCH  20  21
ENDBRANCH  12  20
ENDBRANCH   6   8
ENDBRANCH   5   6
ENDBRANCH   4   5
ENDBRANCH   3   4
ENDBRANCH   2   3
ENDBRANCH   1   2
BRANCH   1  27
ATOM     27  C   UNL A   1      31.818  31.968  26.643  1.00  0.00     0.261 C 
BRANCH  27  28
ATOM     28  O   UNL A   1      32.575  32.121  27.849  1.00  0.00    -0.460 OA
BRANCH  28  29
ATOM     29  C   UNL A   1      33.583  33.026  27.759  1.00  0.00     0.338 C 
ATOM     30  O   UNL A   1      33.488  34.222  27.563  1.00  0.00    -0.246 OA
BRANCH  29  31
ATOM     31  C   UNL A   1      34.847  32.379  28.154  1.00  0.00     0.060 A 
ATOM     32  C   UNL A   1      34.786  31.030  28.529  1.00  0.00     0.016 A 
ATOM     33  C   UNL A   1      36.050  33.084  28.201  1.00  0.00     0.016 A 
ATOM     34  C   UNL A   1      35.926  30.388  28.996  1.00  0.00     0.010 A 
ATOM     35  C   UNL A   1      37.190  32.444  28.690  1.00  0.00     0.010 A 
ATOM     36  C   UNL A   1      37.120  31.107  29.121  1.00  0.00    -0.014 A 
BRANCH  36  37
ATOM     37  C   UNL A   1      38.252  30.502  29.857  1.00  0.00     0.031 A 
ATOM     38  C   UNL A   1      38.514  30.954  31.265  1.00  0.00     0.074 A 
ATOM     39  C   UNL A   1      39.021  29.565  29.277  1.00  0.00     0.049 A 
ATOM     40  N   UNL A   1      39.469  30.600  32.081  1.00  0.00    -0.248 NA
ATOM     41  C   UNL A   1      37.575  31.941  31.827  1.00  0.00     0.031 C 
ATOM     42  C   UNL A   1      38.838  29.043  27.924  1.00  0.00     0.029 A 
ATOM     43  N   UNL A   1      40.126  28.907  29.750  1.00  0.00    -0.354 N 
ATOM     44  C   UNL A   1      39.267  31.340  33.240  1.00  0.00     0.074 A 
ATOM     45  C   UNL A   1      38.103  32.169  33.019  1.00  0.00     0.031 C 
ATOM     46  C   UNL A   1      39.824  28.168  27.660  1.00  0.00     0.029 A 
ATOM     47  C   UNL A   1      40.717  28.092  28.814  1.00  0.00     0.049 A 
ATOM     48  H   UNL A   1      40.463  29.007  30.669  1.00  0.00     0.167 HD
ATOM     49  C   UNL A   1      39.983  31.321  34.388  1.00  0.00     0.034 A 
ATOM     50  C   UNL A   1      41.867  27.393  28.876  1.00  0.00     0.034 A 
ATOM     51  C   UNL A   1      41.130  30.481  34.600  1.00  0.00     0.049 A 
ATOM     52  C   UNL A   1      42.666  27.416  30.153  1.00  0.00     0.074 A 
ATOM     53  C   UNL A   1      41.900  30.349  35.741  1.00  0.00     0.029 A 
ATOM     54  N   UNL A   1      41.682  29.643  33.644  1.00  0.00    -0.354 N 
ATOM     55  N   UNL A   1      42.403  28.034  31.279  1.00  0.00    -0.248 NA
ATOM     56  C   UNL A   1      43.904  26.624  30.177  1.00  0.00     0.031 C 
ATOM     57  C   UNL A   1      42.939  29.456  35.462  1.00  0.00     0.029 A 
ATOM     58  C   UNL A   1      42.796  29.004  34.159  1.00  0.00     0.049 A 
ATOM     59  H   UNL A   1      41.333  29.519  32.731  1.00  0.00     0.167 HD
ATOM     60  C   UNL A   1      43.423  27.680  32.157  1.00  0.00     0.074 A 
ATOM     61  C   UNL A   1      44.297  26.778  31.435  1.00  0.00     0.031 C 
ATOM     62  C   UNL A   1      43.625  28.073  33.439  1.00  0.00     0.034 A 
BRANCH  49  63
ATOM     63  C   UNL A   1      39.541  32.227  35.504  1.00  0.00     0.023 A 
ATOM     64  C   UNL A   1      38.721  31.725  36.536  1.00  0.00     0.012 A 
ATOM     65  C   UNL A   1      39.976  33.566  35.557  1.00  0.00     0.148 A 
ATOM     66  C   UNL A   1      38.318  32.547  37.587  1.00  0.00     0.002 A 
ATOM     67  C   UNL A   1      39.607  34.367  36.631  1.00  0.00     0.091 A 
ATOM     68  F   UNL A   1      40.733  34.033  34.554  1.00  0.00    -0.205 F 
ATOM     69  C   UNL A   1      38.770  33.864  37.640  1.00  0.00     0.022 A 
BRANCH  67  70
ATOM     70  S   UNL A   1      40.197  36.052  36.829  1.00  0.00     0.127 S 
ATOM     71  O   UNL A   1      39.776  36.662  35.568  1.00  0.00    -0.237 OA
ATOM     72  O   UNL A   1      39.450  36.502  38.004  1.00  0.00    -0.237 OA
ATOM     73  O   UNL A   1      41.636  35.954  37.025  1.00  0.00    -0.744 OA
ENDBRANCH  67  70
ENDBRANCH  49  63
BRANCH  50  74
ATOM     74  C   UNL A   1      42.319  26.602  27.698  1.00  0.00     0.023 A 
ATOM     75  C   UNL A   1      43.155  27.198  26.735  1.00  0.00     0.012 A 
ATOM     76  C   UNL A   1      41.942  25.253  27.540  1.00  0.00     0.148 A 
ATOM     77  C   UNL A   1      43.587  26.474  25.622  1.00  0.00     0.002 A 
ATOM     78  C   UNL A   1      42.420  24.521  26.460  1.00  0.00     0.091 A 
ATOM     79  F   UNL A   1      41.132  24.709  28.459  1.00  0.00    -0.205 F 
ATOM     80  C   UNL A   1      43.229  25.135  25.490  1.00  0.00     0.022 A 
BRANCH  78  81
ATOM     81  S   UNL A   1      42.118  22.760  26.284  1.00  0.00     0.127 S 
ATOM     82  O   UNL A   1      42.726  22.479  24.986  1.00  0.00    -0.237 OA
ATOM     83  O   UNL A   1      42.838  22.215  27.435  1.00  0.00    -0.237 OA
ATOM     84  O   UNL A   1      40.672  22.600  26.352  1.00  0.00    -0.744 OA
ENDBRANCH  78  81
ENDBRANCH  50  74
BRANCH  62  85
ATOM     85  C   UNL A   1      44.820  27.509  34.163  1.00  0.00     0.023 A 
ATOM     86  C   UNL A   1      46.038  28.214  34.162  1.00  0.00     0.012 A 
ATOM     87  C   UNL A   1      44.703  26.325  34.920  1.00  0.00     0.148 A 
ATOM     88  C   UNL A   1      47.133  27.734  34.880  1.00  0.00     0.002 A 
ATOM     89  C   UNL A   1      45.783  25.882  35.673  1.00  0.00     0.091 A 
ATOM     90  F   UNL A   1      43.537  25.663  34.894  1.00  0.00    -0.205 F 
ATOM     91  C   UNL A   1      47.002  26.577  35.644  1.00  0.00     0.022 A 
BRANCH  89  92
ATOM     92  S   UNL A   1      45.677  24.458  36.764  1.00  0.00     0.127 S 
ATOM     93  O   UNL A   1      45.050  23.464  35.896  1.00  0.00    -0.237 OA
ATOM     94  O   UNL A   1      47.084  24.201  37.070  1.00  0.00    -0.237 OA
ATOM     95  O   UNL A   1      44.877  24.883  37.904  1.00  0.00    -0.744 OA
ENDBRANCH  89  92
ENDBRANCH  62  85
ENDBRANCH  36  37
ENDBRANCH  29  31
ENDBRANCH  28  29
ENDBRANCH  27  28
ENDBRANCH   1  27
TORSDOF 21
ENDMDL
MODEL 3
REMARK VINA RESULT:     -10.2      4.778     10.409
REMARK SMILES CC(C)[NH2+][C@@]1(C(=O)OCCOCCOC(=O)c2ccc(-c3c4nc(c(-c5cccc(S(=O)(=O)[O-])c5F)c5ccc([nH]5)c(-c5cccc(S(=O)(=O)[O-])c5F)c5nc(c(-c6cccc(S(=O)(=O)[O-])c6F)c6ccc3[nH]6)C=C5)C=C4)cc2)CCC[C@@H](Sc2nncn2C)C1
REMARK SMILES IDX 12 1 11 2 10 3 9 4 8 5 6 6 7 7 5 8 80 9 91 10 81 11 83 12
REMARK SMILES IDX 82 13 4 14 2 17 1 18 3 19 84 20 85 21 86 22 89 23 87 24
REMARK SMILES IDX 88 25 90 26 13 27 14 28 15 29 16 30 17 31 18 32 79 33 19 34
REMARK SMILES IDX 78 35 20 36 21 37 22 38 72 39 23 40 77 41 71 42 73 43 24 44
REMARK SMILES IDX 76 45 70 46 69 47 25 49 57 50 37 51 56 52 38 53 41 54 55 55
REMARK SMILES IDX 74 56 39 57 40 58 54 60 75 61 42 62 26 63 27 64 35 65 28 66
REMARK SMILES IDX 30 67 36 68 29 69 31 70 32 71 33 72 34 73 58 74 59 75 67 76
REMARK SMILES IDX 60 77 62 78 68 79 61 80 63 81 64 82 65 83 66 84 43 85 44 86
REMARK SMILES IDX 52 87 45 88 47 89 53 90 46 91 48 92 49 93 50 94 51 95
REMARK H PARENT 4 15 4 16 73 48 41 59
REMARK Flexibility Score: inf
ROOT
ATOM      1  C   UNL A   1      31.599  31.411  26.598  1.00  0.00     0.202 C 
ENDROOT
BRANCH   1   2
ATOM      2  O   UNL A   1      32.796  30.635  26.572  1.00  0.00    -0.374 OA
BRANCH   2   3
ATOM      3  C   UNL A   1      32.698  29.264  26.968  1.00  0.00     0.202 C 
BRANCH   3   4
ATOM      4  C   UNL A   1      33.061  28.206  25.923  1.00  0.00     0.261 C 
BRANCH   4   5
ATOM      5  O   UNL A   1      31.912  27.859  25.133  1.00  0.00    -0.459 OA
BRANCH   5   6
ATOM      6  C   UNL A   1      32.188  27.197  23.983  1.00  0.00     0.368 C 
ATOM      7  O   UNL A   1      33.288  27.201  23.433  1.00  0.00    -0.245 OA
BRANCH   6   8
ATOM      8  C   UNL A   1      30.991  26.361  23.447  1.00  0.00     0.195 C 
ATOM      9  C   UNL A   1      30.093  26.115  24.688  1.00  0.00     0.081 C 
ATOM     10  C   UNL A   1      31.284  24.972  22.812  1.00  0.00     0.096 C 
ATOM     11  C   UNL A   1      30.778  25.200  25.708  1.00  0.00     0.008 C 
ATOM     12  C   UNL A   1      31.854  23.929  23.795  1.00  0.00     0.061 C 
ATOM     13  C   UNL A   1      31.075  23.831  25.110  1.00  0.00     0.015 C 
BRANCH   8  14
ATOM     14  N   UNL A   1      30.207  27.228  22.496  1.00  0.00    -0.330 N 
ATOM     15  H   UNL A   1      30.841  27.512  21.748  1.00  0.00     0.347 HD
ATOM     16  H   UNL A   1      29.420  26.647  22.207  1.00  0.00     0.347 HD
BRANCH  14  17
ATOM     17  C   UNL A   1      29.587  28.451  23.033  1.00  0.00     0.176 C 
ATOM     18  C   UNL A   1      30.116  29.648  22.234  1.00  0.00     0.075 C 
ATOM     19  C   UNL A   1      28.055  28.474  22.936  1.00  0.00     0.075 C 
ENDBRANCH  14  17
ENDBRANCH   8  14
BRANCH  12  20
ATOM     20  S   UNL A   1      32.071  22.274  23.016  1.00  0.00    -0.082 SA
BRANCH  20  21
ATOM     21  C   UNL A   1      33.373  21.586  23.922  1.00  0.00     0.191 A 
ATOM     22  N   UNL A   1      34.458  22.204  24.326  1.00  0.00    -0.124 NA
ATOM     23  N   UNL A   1      33.414  20.282  24.328  1.00  0.00    -0.312 N 
ATOM     24  N   UNL A   1      35.235  21.289  25.005  1.00  0.00    -0.138 NA
ATOM     25  C   UNL A   1      34.596  20.142  24.994  1.00  0.00     0.226 A 
ATOM     26  C   UNL A   1      32.453  19.236  24.094  1.00  0.00     0.153 C 
ENDBRANCH  20  21
ENDBRANCH  12  20
ENDBRANCH   6   8
ENDBRANCH   5   6
ENDBRANCH   4   5
ENDBRANCH   3   4
ENDBRANCH   2   3
ENDBRANCH   1   2
BRANCH   1  27
ATOM     27  C   UNL A   1      31.709  32.907  26.903  1.00  0.00     0.261 C 
BRANCH  27  28
ATOM     28  O   UNL A   1      33.064  33.373  26.902  1.00  0.00    -0.460 OA
BRANCH  28  29
ATOM     29  C   UNL A   1      33.515  33.767  28.120  1.00  0.00     0.338 C 
ATOM     30  O   UNL A   1      32.952  34.488  28.920  1.00  0.00    -0.246 OA
BRANCH  29  31
ATOM     31  C   UNL A   1      34.733  33.006  28.450  1.00  0.00     0.060 A 
ATOM     32  C   UNL A   1      34.561  31.736  29.016  1.00  0.00     0.016 A 
ATOM     33  C   UNL A   1      36.008  33.538  28.254  1.00  0.00     0.016 A 
ATOM     34  C   UNL A   1      35.667  31.006  29.431  1.00  0.00     0.010 A 
ATOM     35  C   UNL A   1      37.118  32.812  28.690  1.00  0.00     0.010 A 
ATOM     36  C   UNL A   1      36.946  31.562  29.311  1.00  0.00    -0.014 A 
BRANCH  36  37
ATOM     37  C   UNL A   1      38.085  30.903  29.986  1.00  0.00     0.031 A 
ATOM     38  C   UNL A   1      38.412  31.305  31.397  1.00  0.00     0.074 A 
ATOM     39  C   UNL A   1      38.804  29.962  29.352  1.00  0.00     0.049 A 
ATOM     40  N   UNL A   1      39.385  30.899  32.166  1.00  0.00    -0.248 NA
ATOM     41  C   UNL A   1      37.523  32.301  32.022  1.00  0.00     0.031 C 
ATOM     42  C   UNL A   1      38.556  29.487  27.991  1.00  0.00     0.029 A 
ATOM     43  N   UNL A   1      39.906  29.259  29.763  1.00  0.00    -0.354 N 
ATOM     44  C   UNL A   1      39.248  31.609  33.352  1.00  0.00     0.074 A 
ATOM     45  C   UNL A   1      38.102  32.478  33.200  1.00  0.00     0.031 C 
ATOM     46  C   UNL A   1      39.505  28.593  27.665  1.00  0.00     0.029 A 
ATOM     47  C   UNL A   1      40.438  28.456  28.782  1.00  0.00     0.049 A 
ATOM     48  H   UNL A   1      40.279  29.322  30.672  1.00  0.00     0.167 HD
ATOM     49  C   UNL A   1      40.005  31.535  34.471  1.00  0.00     0.034 A 
ATOM     50  C   UNL A   1      41.568  27.723  28.780  1.00  0.00     0.034 A 
ATOM     51  C   UNL A   1      41.134  30.657  34.616  1.00  0.00     0.049 A 
ATOM     52  C   UNL A   1      42.414  27.685  30.026  1.00  0.00     0.074 A 
ATOM     53  C   UNL A   1      41.940  30.468  35.723  1.00  0.00     0.029 A 
ATOM     54  N   UNL A   1      41.625  29.832  33.615  1.00  0.00    -0.354 N 
ATOM     55  N   UNL A   1      42.211  28.276  31.179  1.00  0.00    -0.248 NA
ATOM     56  C   UNL A   1      43.628  26.857  29.982  1.00  0.00     0.031 C 
ATOM     57  C   UNL A   1      42.942  29.555  35.380  1.00  0.00     0.029 A 
ATOM     58  C   UNL A   1      42.737  29.147  34.070  1.00  0.00     0.049 A 
ATOM     59  H   UNL A   1      41.239  29.747  32.713  1.00  0.00     0.167 HD
ATOM     60  C   UNL A   1      43.251  27.866  32.008  1.00  0.00     0.074 A 
ATOM     61  C   UNL A   1      44.071  26.962  31.228  1.00  0.00     0.031 C 
ATOM     62  C   UNL A   1      43.512  28.214  33.292  1.00  0.00     0.034 A 
BRANCH  49  63
ATOM     63  C   UNL A   1      39.631  32.420  35.630  1.00  0.00     0.023 A 
ATOM     64  C   UNL A   1      38.878  31.895  36.700  1.00  0.00     0.012 A 
ATOM     65  C   UNL A   1      40.066  33.758  35.680  1.00  0.00     0.148 A 
ATOM     66  C   UNL A   1      38.539  32.698  37.789  1.00  0.00     0.002 A 
ATOM     67  C   UNL A   1      39.762  34.539  36.789  1.00  0.00     0.091 A 
ATOM     68  F   UNL A   1      40.757  34.246  34.641  1.00  0.00    -0.205 F 
ATOM     69  C   UNL A   1      38.990  34.015  37.839  1.00  0.00     0.022 A 
BRANCH  67  70
ATOM     70  S   UNL A   1      40.359  36.222  36.981  1.00  0.00     0.127 S 
ATOM     71  O   UNL A   1      41.798  36.009  37.136  1.00  0.00    -0.237 OA
ATOM     72  O   UNL A   1      39.966  36.833  35.711  1.00  0.00    -0.237 OA
ATOM     73  O   UNL A   1      39.678  36.759  38.151  1.00  0.00    -0.744 OA
ENDBRANCH  67  70
ENDBRANCH  49  63
BRANCH  50  74
ATOM     74  C   UNL A   1      41.953  26.955  27.564  1.00  0.00     0.023 A 
ATOM     75  C   UNL A   1      42.505  27.629  26.458  1.00  0.00     0.012 A 
ATOM     76  C   UNL A   1      41.795  25.556  27.507  1.00  0.00     0.148 A 
ATOM     77  C   UNL A   1      42.869  26.928  25.307  1.00  0.00     0.002 A 
ATOM     78  C   UNL A   1      42.211  24.856  26.381  1.00  0.00     0.091 A 
ATOM     79  F   UNL A   1      41.252  24.936  28.563  1.00  0.00    -0.205 F 
ATOM     80  C   UNL A   1      42.732  25.542  25.273  1.00  0.00     0.022 A 
BRANCH  78  81
ATOM     81  S   UNL A   1      42.194  23.063  26.305  1.00  0.00     0.127 S 
ATOM     82  O   UNL A   1      40.769  22.770  26.432  1.00  0.00    -0.237 OA
ATOM     83  O   UNL A   1      42.760  22.812  24.979  1.00  0.00    -0.237 OA
ATOM     84  O   UNL A   1      43.033  22.613  27.408  1.00  0.00    -0.744 OA
ENDBRANCH  78  81
ENDBRANCH  50  74
BRANCH  62  85
ATOM     85  C   UNL A   1      44.715  27.595  33.955  1.00  0.00     0.023 A 
ATOM     86  C   UNL A   1      45.930  28.303  34.004  1.00  0.00     0.012 A 
ATOM     87  C   UNL A   1      44.609  26.350  34.606  1.00  0.00     0.148 A 
ATOM     88  C   UNL A   1      47.034  27.768  34.668  1.00  0.00     0.002 A 
ATOM     89  C   UNL A   1      45.697  25.847  35.309  1.00  0.00     0.091 A 
ATOM     90  F   UNL A   1      43.445  25.687  34.533  1.00  0.00    -0.205 F 
ATOM     91  C   UNL A   1      46.913  26.547  35.330  1.00  0.00     0.022 A 
BRANCH  89  92
ATOM     92  S   UNL A   1      45.606  24.334  36.273  1.00  0.00     0.127 S 
ATOM     93  O   UNL A   1      45.529  23.318  35.225  1.00  0.00    -0.237 OA
ATOM     94  O   UNL A   1      46.872  24.360  37.006  1.00  0.00    -0.237 OA
ATOM     95  O   UNL A   1      44.420  24.458  37.108  1.00  0.00    -0.744 OA
ENDBRANCH  89  92
ENDBRANCH  62  85
ENDBRANCH  36  37
ENDBRANCH  29  31
ENDBRANCH  28  29
ENDBRANCH  27  28
ENDBRANCH   1  27
TORSDOF 21
ENDMDL
