MODEL 1
REMARK VINA RESULT:      -8.8      0.000      0.000
REMARK SMILES NS(=O)(=O)c1ccc(N2N=C(C(=O)OCCOCCOC(=O)c3ccc(-c4c5nc(c(-c6cccc(S(=O)(=O)[O-])c6F)c6ccc([nH]6)c(-c6cccc(S(=O)(=O)[O-])c6F)c6nc(c(-c7cccc(S(=O)(=O)[O-])c7F)c7ccc4[nH]7)C=C6)C=C5)cc3)C[C@H]2c2cccs2)cc1
REMARK SMILES IDX 17 1 16 2 15 3 14 4 12 5 13 6 11 7 9 8 10 9 87 10 86 11 8 12
REMARK SMILES IDX 5 13 6 14 94 15 7 16 93 17 2 18 3 19 4 20 1 21 88 24 89 25
REMARK SMILES IDX 92 26 90 27 91 28 18 29 19 30 20 31 21 32 22 33 23 34 24 35
REMARK SMILES IDX 85 36 25 37 84 38 26 39 27 40 28 41 78 42 29 43 83 44 77 45
REMARK SMILES IDX 79 46 30 47 82 48 76 49 75 50 31 52 63 53 43 54 62 55 44 56
REMARK SMILES IDX 47 57 61 58 80 59 45 60 46 61 60 63 81 64 48 65 32 66 33 67
REMARK SMILES IDX 41 68 34 69 36 70 42 71 35 72 37 73 38 74 39 75 40 76 64 77
REMARK SMILES IDX 65 78 73 79 66 80 68 81 74 82 67 83 69 84 70 85 71 86 72 87
REMARK SMILES IDX 49 88 50 89 58 90 51 91 53 92 59 93 52 94 54 95 55 96 56 97
REMARK SMILES IDX 57 98
REMARK H PARENT 1 22 1 23 79 51 47 62
REMARK Flexibility Score: inf
ROOT
ATOM      1  O   UNL A   1      42.985  43.151  35.028  1.00  0.00    -0.374 OA
ENDROOT
BRANCH   1   2
ATOM      2  C   UNL A   1      42.404  43.212  33.723  1.00  0.00     0.202 C 
BRANCH   2   3
ATOM      3  C   UNL A   1      42.231  41.865  33.018  1.00  0.00     0.261 C 
BRANCH   3   4
ATOM      4  O   UNL A   1      42.478  42.018  31.613  1.00  0.00    -0.459 OA
BRANCH   4   5
ATOM      5  C   UNL A   1      43.452  41.229  31.119  1.00  0.00     0.354 C 
ATOM      6  O   UNL A   1      44.604  41.129  31.497  1.00  0.00    -0.245 OA
BRANCH   5   7
ATOM      7  C   UNL A   1      42.865  40.328  30.063  1.00  0.00     0.148 C 
ATOM      8  N   UNL A   1      42.653  38.734  28.691  1.00  0.00    -0.256 N 
ATOM      9  N   UNL A   1      43.432  39.215  29.704  1.00  0.00    -0.169 NA
ATOM     10  C   UNL A   1      41.743  39.767  28.160  1.00  0.00     0.154 C 
ATOM     11  C   UNL A   1      41.542  40.621  29.424  1.00  0.00     0.099 C 
BRANCH   8  12
ATOM     12  C   UNL A   1      43.098  37.622  27.997  1.00  0.00     0.060 A 
ATOM     13  C   UNL A   1      44.075  35.427  26.538  1.00  0.00     0.082 A 
ATOM     14  C   UNL A   1      44.935  36.137  27.378  1.00  0.00     0.024 A 
ATOM     15  C   UNL A   1      42.740  35.808  26.407  1.00  0.00     0.024 A 
ATOM     16  C   UNL A   1      44.442  37.230  28.100  1.00  0.00     0.029 A 
ATOM     17  C   UNL A   1      42.264  36.907  27.128  1.00  0.00     0.029 A 
BRANCH  13  18
ATOM     18  S   UNL A   1      44.688  34.060  25.605  1.00  0.00     0.238 S 
ATOM     19  O   UNL A   1      43.870  33.880  24.422  1.00  0.00    -0.207 OA
ATOM     20  O   UNL A   1      44.992  32.980  26.507  1.00  0.00    -0.207 OA
BRANCH  18  21
ATOM     21  N   UNL A   1      46.164  34.616  25.023  1.00  0.00    -0.225 NA
ATOM     22  H   UNL A   1      46.859  33.874  25.096  1.00  0.00     0.137 HD
ATOM     23  H   UNL A   1      46.465  35.420  25.573  1.00  0.00     0.137 HD
ENDBRANCH  18  21
ENDBRANCH  13  18
ENDBRANCH   8  12
BRANCH  10  24
ATOM     24  C   UNL A   1      42.245  40.562  26.958  1.00  0.00     0.030 A 
ATOM     25  C   UNL A   1      41.501  40.973  25.863  1.00  0.00     0.017 A 
ATOM     26  S   UNL A   1      43.887  41.044  26.780  1.00  0.00    -0.147 S 
ATOM     27  C   UNL A   1      42.276  41.680  24.899  1.00  0.00     0.012 A 
ATOM     28  C   UNL A   1      43.586  41.818  25.294  1.00  0.00     0.065 A 
ENDBRANCH  10  24
ENDBRANCH   5   7
ENDBRANCH   4   5
ENDBRANCH   3   4
ENDBRANCH   2   3
ENDBRANCH   1   2
BRANCH   1  29
ATOM     29  C   UNL A   1      44.330  42.680  35.127  1.00  0.00     0.202 C 
BRANCH  29  30
ATOM     30  C   UNL A   1      44.543  41.381  35.914  1.00  0.00     0.261 C 
BRANCH  30  31
ATOM     31  O   UNL A   1      44.392  40.210  35.091  1.00  0.00    -0.460 OA
BRANCH  31  32
ATOM     32  C   UNL A   1      44.184  39.062  35.782  1.00  0.00     0.338 C 
ATOM     33  O   UNL A   1      44.202  38.922  36.995  1.00  0.00    -0.246 OA
BRANCH  32  34
ATOM     34  C   UNL A   1      43.749  37.984  34.871  1.00  0.00     0.060 A 
ATOM     35  C   UNL A   1      43.495  36.729  35.439  1.00  0.00     0.016 A 
ATOM     36  C   UNL A   1      43.665  38.166  33.489  1.00  0.00     0.016 A 
ATOM     37  C   UNL A   1      43.215  35.636  34.622  1.00  0.00     0.010 A 
ATOM     38  C   UNL A   1      43.388  37.065  32.670  1.00  0.00     0.010 A 
ATOM     39  C   UNL A   1      43.202  35.787  33.230  1.00  0.00    -0.014 A 
BRANCH  39  40
ATOM     40  C   UNL A   1      43.130  34.582  32.367  1.00  0.00     0.031 A 
ATOM     41  C   UNL A   1      41.786  33.978  32.060  1.00  0.00     0.074 A 
ATOM     42  C   UNL A   1      44.246  34.043  31.845  1.00  0.00     0.049 A 
ATOM     43  N   UNL A   1      41.495  32.943  31.316  1.00  0.00    -0.248 NA
ATOM     44  C   UNL A   1      40.615  34.621  32.678  1.00  0.00     0.031 C 
ATOM     45  C   UNL A   1      45.605  34.532  32.071  1.00  0.00     0.029 A 
ATOM     46  N   UNL A   1      44.411  32.952  31.029  1.00  0.00    -0.354 N 
ATOM     47  C   UNL A   1      40.115  32.797  31.390  1.00  0.00     0.074 A 
ATOM     48  C   UNL A   1      39.627  33.838  32.268  1.00  0.00     0.031 C 
ATOM     49  C   UNL A   1      46.469  33.728  31.428  1.00  0.00     0.029 A 
ATOM     50  C   UNL A   1      45.727  32.662  30.757  1.00  0.00     0.049 A 
ATOM     51  H   UNL A   1      43.659  32.426  30.672  1.00  0.00     0.167 HD
ATOM     52  C   UNL A   1      39.322  31.892  30.769  1.00  0.00     0.034 A 
ATOM     53  C   UNL A   1      46.270  31.646  30.056  1.00  0.00     0.034 A 
ATOM     54  C   UNL A   1      39.803  30.872  29.876  1.00  0.00     0.049 A 
ATOM     55  C   UNL A   1      45.366  30.649  29.380  1.00  0.00     0.074 A 
ATOM     56  C   UNL A   1      39.070  29.944  29.158  1.00  0.00     0.029 A 
ATOM     57  N   UNL A   1      41.138  30.640  29.586  1.00  0.00    -0.354 N 
ATOM     58  N   UNL A   1      44.056  30.607  29.353  1.00  0.00    -0.248 NA
ATOM     59  C   UNL A   1      46.015  29.580  28.606  1.00  0.00     0.031 C 
ATOM     60  C   UNL A   1      39.965  29.135  28.448  1.00  0.00     0.029 A 
ATOM     61  C   UNL A   1      41.253  29.576  28.708  1.00  0.00     0.049 A 
ATOM     62  H   UNL A   1      41.893  31.156  29.951  1.00  0.00     0.167 HD
ATOM     63  C   UNL A   1      43.724  29.534  28.532  1.00  0.00     0.074 A 
ATOM     64  C   UNL A   1      44.971  28.964  28.066  1.00  0.00     0.031 C 
ATOM     65  C   UNL A   1      42.498  29.054  28.205  1.00  0.00     0.034 A 
BRANCH  52  66
ATOM     66  C   UNL A   1      37.838  31.988  31.005  1.00  0.00     0.023 A 
ATOM     67  C   UNL A   1      37.276  31.391  32.152  1.00  0.00     0.012 A 
ATOM     68  C   UNL A   1      37.009  32.711  30.125  1.00  0.00     0.148 A 
ATOM     69  C   UNL A   1      35.910  31.490  32.407  1.00  0.00     0.002 A 
ATOM     70  C   UNL A   1      35.653  32.839  30.408  1.00  0.00     0.091 A 
ATOM     71  F   UNL A   1      37.557  33.249  29.027  1.00  0.00    -0.205 F 
ATOM     72  C   UNL A   1      35.101  32.221  31.542  1.00  0.00     0.022 A 
BRANCH  70  73
ATOM     73  S   UNL A   1      34.545  33.822  29.392  1.00  0.00     0.127 S 
ATOM     74  O   UNL A   1      33.783  32.784  28.698  1.00  0.00    -0.237 OA
ATOM     75  O   UNL A   1      33.785  34.568  30.395  1.00  0.00    -0.237 OA
ATOM     76  O   UNL A   1      35.400  34.644  28.546  1.00  0.00    -0.744 OA
ENDBRANCH  70  73
ENDBRANCH  52  66
BRANCH  53  77
ATOM     77  C   UNL A   1      47.750  31.548  29.919  1.00  0.00     0.023 A 
ATOM     78  C   UNL A   1      48.498  30.877  30.905  1.00  0.00     0.012 A 
ATOM     79  C   UNL A   1      48.417  32.098  28.808  1.00  0.00     0.148 A 
ATOM     80  C   UNL A   1      49.886  30.779  30.803  1.00  0.00     0.002 A 
ATOM     81  C   UNL A   1      49.794  31.950  28.683  1.00  0.00     0.091 A 
ATOM     82  F   UNL A   1      47.691  32.751  27.889  1.00  0.00    -0.205 F 
ATOM     83  C   UNL A   1      50.532  31.305  29.687  1.00  0.00     0.022 A 
BRANCH  81  84
ATOM     84  S   UNL A   1      50.686  32.479  27.216  1.00  0.00     0.127 S 
ATOM     85  O   UNL A   1      52.059  32.107  27.550  1.00  0.00    -0.237 OA
ATOM     86  O   UNL A   1      50.063  31.665  26.172  1.00  0.00    -0.237 OA
ATOM     87  O   UNL A   1      50.425  33.907  27.095  1.00  0.00    -0.744 OA
ENDBRANCH  81  84
ENDBRANCH  53  77
BRANCH  65  88
ATOM     88  C   UNL A   1      42.433  27.872  27.273  1.00  0.00     0.023 A 
ATOM     89  C   UNL A   1      42.409  28.081  25.879  1.00  0.00     0.012 A 
ATOM     90  C   UNL A   1      42.473  26.555  27.774  1.00  0.00     0.148 A 
ATOM     91  C   UNL A   1      42.391  26.998  25.001  1.00  0.00     0.002 A 
ATOM     92  C   UNL A   1      42.503  25.481  26.891  1.00  0.00     0.091 A 
ATOM     93  F   UNL A   1      42.477  26.375  29.103  1.00  0.00    -0.205 F 
ATOM     94  C   UNL A   1      42.451  25.700  25.505  1.00  0.00     0.022 A 
BRANCH  92  95
ATOM     95  S   UNL A   1      42.674  23.783  27.452  1.00  0.00     0.127 S 
ATOM     96  O   UNL A   1      44.007  23.800  28.049  1.00  0.00    -0.237 OA
ATOM     97  O   UNL A   1      41.577  23.658  28.412  1.00  0.00    -0.237 OA
ATOM     98  O   UNL A   1      42.528  22.955  26.262  1.00  0.00    -0.744 OA
ENDBRANCH  92  95
ENDBRANCH  65  88
ENDBRANCH  39  40
ENDBRANCH  32  34
ENDBRANCH  31  32
ENDBRANCH  30  31
ENDBRANCH  29  30
ENDBRANCH   1  29
TORSDOF 21
ENDMDL
MODEL 2
REMARK VINA RESULT:      -8.3      4.937     12.851
REMARK SMILES NS(=O)(=O)c1ccc(N2N=C(C(=O)OCCOCCOC(=O)c3ccc(-c4c5nc(c(-c6cccc(S(=O)(=O)[O-])c6F)c6ccc([nH]6)c(-c6cccc(S(=O)(=O)[O-])c6F)c6nc(c(-c7cccc(S(=O)(=O)[O-])c7F)c7ccc4[nH]7)C=C6)C=C5)cc3)C[C@H]2c2cccs2)cc1
REMARK SMILES IDX 17 1 16 2 15 3 14 4 12 5 13 6 11 7 9 8 10 9 87 10 86 11 8 12
REMARK SMILES IDX 5 13 6 14 94 15 7 16 93 17 2 18 3 19 4 20 1 21 88 24 89 25
REMARK SMILES IDX 92 26 90 27 91 28 18 29 19 30 20 31 21 32 22 33 23 34 24 35
REMARK SMILES IDX 85 36 25 37 84 38 26 39 27 40 28 41 78 42 29 43 83 44 77 45
REMARK SMILES IDX 79 46 30 47 82 48 76 49 75 50 31 52 63 53 43 54 62 55 44 56
REMARK SMILES IDX 47 57 61 58 80 59 45 60 46 61 60 63 81 64 48 65 32 66 33 67
REMARK SMILES IDX 41 68 34 69 36 70 42 71 35 72 37 73 38 74 39 75 40 76 64 77
REMARK SMILES IDX 65 78 73 79 66 80 68 81 74 82 67 83 69 84 70 85 71 86 72 87
REMARK SMILES IDX 49 88 50 89 58 90 51 91 53 92 59 93 52 94 54 95 55 96 56 97
REMARK SMILES IDX 57 98
REMARK H PARENT 1 22 1 23 79 51 47 62
REMARK Flexibility Score: inf
ROOT
ATOM      1  O   UNL A   1      41.257  25.088  26.808  1.00  0.00    -0.374 OA
ENDROOT
BRANCH   1   2
ATOM      2  C   UNL A   1      39.907  25.413  27.149  1.00  0.00     0.202 C 
BRANCH   2   3
ATOM      3  C   UNL A   1      39.039  24.231  27.587  1.00  0.00     0.261 C 
BRANCH   3   4
ATOM      4  O   UNL A   1      37.872  24.152  26.755  1.00  0.00    -0.459 OA
BRANCH   4   5
ATOM      5  C   UNL A   1      37.849  23.104  25.909  1.00  0.00     0.354 C 
ATOM      6  O   UNL A   1      38.489  22.071  25.972  1.00  0.00    -0.245 OA
BRANCH   5   7
ATOM      7  C   UNL A   1      36.761  23.322  24.889  1.00  0.00     0.148 C 
ATOM      8  N   UNL A   1      35.072  24.138  23.915  1.00  0.00    -0.256 N 
ATOM      9  N   UNL A   1      35.941  24.328  24.950  1.00  0.00    -0.169 NA
ATOM     10  C   UNL A   1      35.144  22.763  23.383  1.00  0.00     0.154 C 
ATOM     11  C   UNL A   1      36.614  22.435  23.691  1.00  0.00     0.099 C 
BRANCH   8  12
ATOM     12  C   UNL A   1      33.978  24.981  23.816  1.00  0.00     0.060 A 
ATOM     13  C   UNL A   1      31.807  26.742  23.529  1.00  0.00     0.082 A 
ATOM     14  C   UNL A   1      32.175  25.919  22.462  1.00  0.00     0.024 A 
ATOM     15  C   UNL A   1      32.517  26.706  24.729  1.00  0.00     0.024 A 
ATOM     16  C   UNL A   1      33.259  25.047  22.612  1.00  0.00     0.029 A 
ATOM     17  C   UNL A   1      33.602  25.835  24.860  1.00  0.00     0.029 A 
BRANCH  13  18
ATOM     18  S   UNL A   1      30.456  27.864  23.348  1.00  0.00     0.238 S 
ATOM     19  O   UNL A   1      30.304  28.210  21.949  1.00  0.00    -0.207 OA
ATOM     20  O   UNL A   1      30.534  28.857  24.388  1.00  0.00    -0.207 OA
BRANCH  18  21
ATOM     21  N   UNL A   1      29.113  26.917  23.703  1.00  0.00    -0.225 NA
ATOM     22  H   UNL A   1      28.978  26.228  22.964  1.00  0.00     0.137 HD
ATOM     23  H   UNL A   1      28.286  27.511  23.770  1.00  0.00     0.137 HD
ENDBRANCH  18  21
ENDBRANCH  13  18
ENDBRANCH   8  12
BRANCH  10  24
ATOM     24  C   UNL A   1      34.156  21.756  23.967  1.00  0.00     0.030 A 
ATOM     25  C   UNL A   1      32.833  21.578  23.597  1.00  0.00     0.017 A 
ATOM     26  S   UNL A   1      34.570  20.684  25.249  1.00  0.00    -0.147 S 
ATOM     27  C   UNL A   1      32.175  20.567  24.357  1.00  0.00     0.012 A 
ATOM     28  C   UNL A   1      33.021  19.977  25.267  1.00  0.00     0.065 A 
ENDBRANCH  10  24
ENDBRANCH   5   7
ENDBRANCH   4   5
ENDBRANCH   3   4
ENDBRANCH   2   3
ENDBRANCH   1   2
BRANCH   1  29
ATOM     29  C   UNL A   1      41.586  23.704  26.675  1.00  0.00     0.202 C 
BRANCH  29  30
ATOM     30  C   UNL A   1      42.889  23.381  25.934  1.00  0.00     0.261 C 
BRANCH  30  31
ATOM     31  O   UNL A   1      43.206  24.361  24.929  1.00  0.00    -0.460 OA
BRANCH  31  32
ATOM     32  C   UNL A   1      44.393  24.992  25.116  1.00  0.00     0.338 C 
ATOM     33  O   UNL A   1      45.453  24.737  24.567  1.00  0.00    -0.246 OA
BRANCH  32  34
ATOM     34  C   UNL A   1      44.215  26.183  25.971  1.00  0.00     0.060 A 
ATOM     35  C   UNL A   1      43.515  27.266  25.423  1.00  0.00     0.016 A 
ATOM     36  C   UNL A   1      44.780  26.276  27.244  1.00  0.00     0.016 A 
ATOM     37  C   UNL A   1      43.430  28.467  26.122  1.00  0.00     0.010 A 
ATOM     38  C   UNL A   1      44.697  27.486  27.943  1.00  0.00     0.010 A 
ATOM     39  C   UNL A   1      44.058  28.600  27.368  1.00  0.00    -0.014 A 
BRANCH  39  40
ATOM     40  C   UNL A   1      44.155  29.941  27.995  1.00  0.00     0.031 A 
ATOM     41  C   UNL A   1      43.098  30.371  28.977  1.00  0.00     0.074 A 
ATOM     42  C   UNL A   1      45.183  30.760  27.710  1.00  0.00     0.049 A 
ATOM     43  N   UNL A   1      43.003  31.486  29.654  1.00  0.00    -0.248 NA
ATOM     44  C   UNL A   1      42.002  29.421  29.227  1.00  0.00     0.031 C 
ATOM     45  C   UNL A   1      46.265  30.461  26.774  1.00  0.00     0.029 A 
ATOM     46  N   UNL A   1      45.473  32.020  28.171  1.00  0.00    -0.354 N 
ATOM     47  C   UNL A   1      41.829  31.384  30.392  1.00  0.00     0.074 A 
ATOM     48  C   UNL A   1      41.237  30.104  30.067  1.00  0.00     0.031 C 
ATOM     49  C   UNL A   1      47.090  31.521  26.710  1.00  0.00     0.029 A 
ATOM     50  C   UNL A   1      46.588  32.575  27.590  1.00  0.00     0.049 A 
ATOM     51  H   UNL A   1      44.933  32.482  28.853  1.00  0.00     0.167 HD
ATOM     52  C   UNL A   1      41.303  32.264  31.276  1.00  0.00     0.034 A 
ATOM     53  C   UNL A   1      47.134  33.799  27.742  1.00  0.00     0.034 A 
ATOM     54  C   UNL A   1      41.904  33.524  31.619  1.00  0.00     0.049 A 
ATOM     55  C   UNL A   1      46.525  34.762  28.728  1.00  0.00     0.074 A 
ATOM     56  C   UNL A   1      41.472  34.459  32.543  1.00  0.00     0.029 A 
ATOM     57  N   UNL A   1      43.059  34.032  31.047  1.00  0.00    -0.354 N 
ATOM     58  N   UNL A   1      45.491  34.594  29.516  1.00  0.00    -0.248 NA
ATOM     59  C   UNL A   1      47.181  36.070  28.872  1.00  0.00     0.031 C 
ATOM     60  C   UNL A   1      42.357  35.543  32.515  1.00  0.00     0.029 A 
ATOM     61  C   UNL A   1      43.352  35.271  31.589  1.00  0.00     0.049 A 
ATOM     62  H   UNL A   1      43.594  33.577  30.356  1.00  0.00     0.167 HD
ATOM     63  C   UNL A   1      45.394  35.756  30.274  1.00  0.00     0.074 A 
ATOM     64  C   UNL A   1      46.488  36.613  29.864  1.00  0.00     0.031 C 
ATOM     65  C   UNL A   1      44.475  36.090  31.214  1.00  0.00     0.034 A 
BRANCH  52  66
ATOM     66  C   UNL A   1      40.023  31.876  31.967  1.00  0.00     0.023 A 
ATOM     67  C   UNL A   1      40.076  31.120  33.156  1.00  0.00     0.012 A 
ATOM     68  C   UNL A   1      38.774  32.303  31.474  1.00  0.00     0.148 A 
ATOM     69  C   UNL A   1      38.907  30.772  33.829  1.00  0.00     0.002 A 
ATOM     70  C   UNL A   1      37.614  31.986  32.174  1.00  0.00     0.091 A 
ATOM     71  F   UNL A   1      38.742  32.998  30.329  1.00  0.00    -0.205 F 
ATOM     72  C   UNL A   1      37.678  31.213  33.344  1.00  0.00     0.022 A 
BRANCH  70  73
ATOM     73  S   UNL A   1      35.993  32.570  31.668  1.00  0.00     0.127 S 
ATOM     74  O   UNL A   1      35.205  32.337  32.878  1.00  0.00    -0.237 OA
ATOM     75  O   UNL A   1      36.251  33.980  31.371  1.00  0.00    -0.237 OA
ATOM     76  O   UNL A   1      35.620  31.766  30.512  1.00  0.00    -0.744 OA
ENDBRANCH  70  73
ENDBRANCH  52  66
BRANCH  53  77
ATOM     77  C   UNL A   1      48.356  34.166  26.974  1.00  0.00     0.023 A 
ATOM     78  C   UNL A   1      48.228  34.831  25.740  1.00  0.00     0.012 A 
ATOM     79  C   UNL A   1      49.642  33.878  27.468  1.00  0.00     0.148 A 
ATOM     80  C   UNL A   1      49.358  35.178  24.997  1.00  0.00     0.002 A 
ATOM     81  C   UNL A   1      50.766  34.275  26.752  1.00  0.00     0.091 A 
ATOM     82  F   UNL A   1      49.744  33.225  28.635  1.00  0.00    -0.205 F 
ATOM     83  C   UNL A   1      50.626  34.910  25.509  1.00  0.00     0.022 A 
BRANCH  81  84
ATOM     84  S   UNL A   1      52.430  34.089  27.399  1.00  0.00     0.127 S 
ATOM     85  O   UNL A   1      52.346  34.820  28.661  1.00  0.00    -0.237 OA
ATOM     86  O   UNL A   1      52.543  32.636  27.535  1.00  0.00    -0.237 OA
ATOM     87  O   UNL A   1      53.309  34.663  26.388  1.00  0.00    -0.744 OA
ENDBRANCH  81  84
ENDBRANCH  53  77
BRANCH  65  88
ATOM     88  C   UNL A   1      44.624  37.426  31.895  1.00  0.00     0.023 A 
ATOM     89  C   UNL A   1      45.369  37.525  33.087  1.00  0.00     0.012 A 
ATOM     90  C   UNL A   1      44.088  38.595  31.316  1.00  0.00     0.148 A 
ATOM     91  C   UNL A   1      45.551  38.761  33.708  1.00  0.00     0.002 A 
ATOM     92  C   UNL A   1      44.314  39.828  31.916  1.00  0.00     0.091 A 
ATOM     93  F   UNL A   1      43.365  38.479  30.192  1.00  0.00    -0.205 F 
ATOM     94  C   UNL A   1      45.036  39.912  33.117  1.00  0.00     0.022 A 
BRANCH  92  95
ATOM     95  S   UNL A   1      43.766  41.370  31.173  1.00  0.00     0.127 S 
ATOM     96  O   UNL A   1      44.248  41.228  29.801  1.00  0.00    -0.237 OA
ATOM     97  O   UNL A   1      42.312  41.290  31.320  1.00  0.00    -0.237 OA
ATOM     98  O   UNL A   1      44.391  42.430  31.953  1.00  0.00    -0.744 OA
ENDBRANCH  92  95
ENDBRANCH  65  88
ENDBRANCH  39  40
ENDBRANCH  32  34
ENDBRANCH  31  32
ENDBRANCH  30  31
ENDBRANCH  29  30
ENDBRANCH   1  29
TORSDOF 21
ENDMDL
MODEL 3
REMARK VINA RESULT:      -8.2      4.433      8.242
REMARK SMILES NS(=O)(=O)c1ccc(N2N=C(C(=O)OCCOCCOC(=O)c3ccc(-c4c5nc(c(-c6cccc(S(=O)(=O)[O-])c6F)c6ccc([nH]6)c(-c6cccc(S(=O)(=O)[O-])c6F)c6nc(c(-c7cccc(S(=O)(=O)[O-])c7F)c7ccc4[nH]7)C=C6)C=C5)cc3)C[C@H]2c2cccs2)cc1
REMARK SMILES IDX 17 1 16 2 15 3 14 4 12 5 13 6 11 7 9 8 10 9 87 10 86 11 8 12
REMARK SMILES IDX 5 13 6 14 94 15 7 16 93 17 2 18 3 19 4 20 1 21 88 24 89 25
REMARK SMILES IDX 92 26 90 27 91 28 18 29 19 30 20 31 21 32 22 33 23 34 24 35
REMARK SMILES IDX 85 36 25 37 84 38 26 39 27 40 28 41 78 42 29 43 83 44 77 45
REMARK SMILES IDX 79 46 30 47 82 48 76 49 75 50 31 52 63 53 43 54 62 55 44 56
REMARK SMILES IDX 47 57 61 58 80 59 45 60 46 61 60 63 81 64 48 65 32 66 33 67
REMARK SMILES IDX 41 68 34 69 36 70 42 71 35 72 37 73 38 74 39 75 40 76 64 77
REMARK SMILES IDX 65 78 73 79 66 80 68 81 74 82 67 83 69 84 70 85 71 86 72 87
REMARK SMILES IDX 49 88 50 89 58 90 51 91 53 92 59 93 52 94 54 95 55 96 56 97
REMARK SMILES IDX 57 98
REMARK H PARENT 1 22 1 23 79 51 47 62
REMARK Flexibility Score: inf
ROOT
ATOM      1  O   UNL A   1      38.098  32.567  39.409  1.00  0.00    -0.374 OA
ENDROOT
BRANCH   1   2
ATOM      2  C   UNL A   1      37.048  32.678  38.445  1.00  0.00     0.202 C 
BRANCH   2   3
ATOM      3  C   UNL A   1      37.457  33.274  37.096  1.00  0.00     0.261 C 
BRANCH   3   4
ATOM      4  O   UNL A   1      37.100  32.372  36.039  1.00  0.00    -0.459 OA
BRANCH   4   5
ATOM      5  C   UNL A   1      38.126  31.668  35.523  1.00  0.00     0.354 C 
ATOM      6  O   UNL A   1      39.145  31.306  36.078  1.00  0.00    -0.245 OA
BRANCH   5   7
ATOM      7  C   UNL A   1      37.769  31.238  34.123  1.00  0.00     0.148 C 
ATOM      8  N   UNL A   1      37.833  30.227  32.268  1.00  0.00    -0.256 N 
ATOM      9  N   UNL A   1      38.374  30.258  33.521  1.00  0.00    -0.169 NA
ATOM     10  C   UNL A   1      37.094  31.465  31.958  1.00  0.00     0.154 C 
ATOM     11  C   UNL A   1      36.635  31.863  33.371  1.00  0.00     0.099 C 
BRANCH   8  12
ATOM     12  C   UNL A   1      38.394  29.371  31.335  1.00  0.00     0.060 A 
ATOM     13  C   UNL A   1      39.442  27.574  29.446  1.00  0.00     0.082 A 
ATOM     14  C   UNL A   1      38.231  28.220  29.188  1.00  0.00     0.024 A 
ATOM     15  C   UNL A   1      40.126  27.803  30.640  1.00  0.00     0.024 A 
ATOM     16  C   UNL A   1      37.715  29.112  30.134  1.00  0.00     0.029 A 
ATOM     17  C   UNL A   1      39.593  28.690  31.578  1.00  0.00     0.029 A 
BRANCH  13  18
ATOM     18  S   UNL A   1      40.095  26.428  28.272  1.00  0.00     0.238 S 
ATOM     19  O   UNL A   1      39.093  25.425  27.971  1.00  0.00    -0.207 OA
ATOM     20  O   UNL A   1      41.441  26.088  28.653  1.00  0.00    -0.207 OA
BRANCH  18  21
ATOM     21  N   UNL A   1      40.222  27.341  26.866  1.00  0.00    -0.225 NA
ATOM     22  H   UNL A   1      41.196  27.601  26.717  1.00  0.00     0.137 HD
ATOM     23  H   UNL A   1      39.653  28.183  26.954  1.00  0.00     0.137 HD
ENDBRANCH  18  21
ENDBRANCH  13  18
ENDBRANCH   8  12
BRANCH  10  24
ATOM     24  C   UNL A   1      37.876  32.561  31.238  1.00  0.00     0.030 A 
ATOM     25  C   UNL A   1      39.235  32.814  31.335  1.00  0.00     0.017 A 
ATOM     26  S   UNL A   1      37.128  33.703  30.189  1.00  0.00    -0.147 S 
ATOM     27  C   UNL A   1      39.650  33.928  30.549  1.00  0.00     0.012 A 
ATOM     28  C   UNL A   1      38.603  34.481  29.849  1.00  0.00     0.065 A 
ENDBRANCH  10  24
ENDBRANCH   5   7
ENDBRANCH   4   5
ENDBRANCH   3   4
ENDBRANCH   2   3
ENDBRANCH   1   2
BRANCH   1  29
ATOM     29  C   UNL A   1      38.149  33.553  40.442  1.00  0.00     0.202 C 
BRANCH  29  30
ATOM     30  C   UNL A   1      38.905  34.846  40.116  1.00  0.00     0.261 C 
BRANCH  30  31
ATOM     31  O   UNL A   1      40.220  34.594  39.589  1.00  0.00    -0.460 OA
BRANCH  31  32
ATOM     32  C   UNL A   1      40.758  35.633  38.901  1.00  0.00     0.338 C 
ATOM     33  O   UNL A   1      40.937  36.768  39.310  1.00  0.00    -0.246 OA
BRANCH  32  34
ATOM     34  C   UNL A   1      41.279  35.173  37.598  1.00  0.00     0.060 A 
ATOM     35  C   UNL A   1      40.340  34.878  36.601  1.00  0.00     0.016 A 
ATOM     36  C   UNL A   1      42.640  34.960  37.374  1.00  0.00     0.016 A 
ATOM     37  C   UNL A   1      40.754  34.311  35.398  1.00  0.00     0.010 A 
ATOM     38  C   UNL A   1      43.053  34.385  36.166  1.00  0.00     0.010 A 
ATOM     39  C   UNL A   1      42.108  34.021  35.189  1.00  0.00    -0.014 A 
BRANCH  39  40
ATOM     40  C   UNL A   1      42.507  33.215  34.009  1.00  0.00     0.031 A 
ATOM     41  C   UNL A   1      42.671  31.726  34.157  1.00  0.00     0.074 A 
ATOM     42  C   UNL A   1      42.701  33.798  32.813  1.00  0.00     0.049 A 
ATOM     43  N   UNL A   1      42.990  30.835  33.254  1.00  0.00    -0.248 NA
ATOM     44  C   UNL A   1      42.449  31.166  35.500  1.00  0.00     0.031 C 
ATOM     45  C   UNL A   1      42.578  35.229  32.542  1.00  0.00     0.029 A 
ATOM     46  N   UNL A   1      43.060  33.255  31.604  1.00  0.00    -0.354 N 
ATOM     47  C   UNL A   1      43.030  29.616  33.921  1.00  0.00     0.074 A 
ATOM     48  C   UNL A   1      42.719  29.883  35.309  1.00  0.00     0.031 C 
ATOM     49  C   UNL A   1      42.882  35.455  31.252  1.00  0.00     0.029 A 
ATOM     50  C   UNL A   1      43.232  34.189  30.611  1.00  0.00     0.049 A 
ATOM     51  H   UNL A   1      43.183  32.288  31.462  1.00  0.00     0.167 HD
ATOM     52  C   UNL A   1      43.281  28.382  33.421  1.00  0.00     0.034 A 
ATOM     53  C   UNL A   1      43.638  34.040  29.333  1.00  0.00     0.034 A 
ATOM     54  C   UNL A   1      43.564  28.112  32.037  1.00  0.00     0.049 A 
ATOM     55  C   UNL A   1      43.917  32.658  28.804  1.00  0.00     0.074 A 
ATOM     56  C   UNL A   1      43.779  26.889  31.427  1.00  0.00     0.029 A 
ATOM     57  N   UNL A   1      43.682  29.078  31.050  1.00  0.00    -0.354 N 
ATOM     58  N   UNL A   1      43.818  31.503  29.416  1.00  0.00    -0.248 NA
ATOM     59  C   UNL A   1      44.327  32.555  27.395  1.00  0.00     0.031 C 
ATOM     60  C   UNL A   1      44.047  27.117  30.073  1.00  0.00     0.029 A 
ATOM     61  C   UNL A   1      43.977  28.481  29.837  1.00  0.00     0.049 A 
ATOM     62  H   UNL A   1      43.572  30.046  31.192  1.00  0.00     0.167 HD
ATOM     63  C   UNL A   1      44.117  30.536  28.461  1.00  0.00     0.074 A 
ATOM     64  C   UNL A   1      44.381  31.241  27.223  1.00  0.00     0.031 C 
ATOM     65  C   UNL A   1      44.181  29.189  28.599  1.00  0.00     0.034 A 
BRANCH  52  66
ATOM     66  C   UNL A   1      43.223  27.219  34.375  1.00  0.00     0.023 A 
ATOM     67  C   UNL A   1      41.982  26.612  34.657  1.00  0.00     0.012 A 
ATOM     68  C   UNL A   1      44.397  26.691  34.947  1.00  0.00     0.148 A 
ATOM     69  C   UNL A   1      41.906  25.517  35.515  1.00  0.00     0.002 A 
ATOM     70  C   UNL A   1      44.318  25.573  35.770  1.00  0.00     0.091 A 
ATOM     71  F   UNL A   1      45.564  27.297  34.687  1.00  0.00    -0.205 F 
ATOM     72  C   UNL A   1      43.074  24.991  36.063  1.00  0.00     0.022 A 
BRANCH  70  73
ATOM     73  S   UNL A   1      45.773  24.781  36.463  1.00  0.00     0.127 S 
ATOM     74  O   UNL A   1      46.225  25.785  37.426  1.00  0.00    -0.237 OA
ATOM     75  O   UNL A   1      45.211  23.571  37.064  1.00  0.00    -0.237 OA
ATOM     76  O   UNL A   1      46.670  24.539  35.342  1.00  0.00    -0.744 OA
ENDBRANCH  70  73
ENDBRANCH  52  66
BRANCH  53  77
ATOM     77  C   UNL A   1      43.758  35.234  28.450  1.00  0.00     0.023 A 
ATOM     78  C   UNL A   1      42.609  35.758  27.828  1.00  0.00     0.012 A 
ATOM     79  C   UNL A   1      44.999  35.864  28.240  1.00  0.00     0.148 A 
ATOM     80  C   UNL A   1      42.697  36.871  26.990  1.00  0.00     0.002 A 
ATOM     81  C   UNL A   1      45.073  37.005  27.450  1.00  0.00     0.091 A 
ATOM     82  F   UNL A   1      46.086  35.338  28.825  1.00  0.00    -0.205 F 
ATOM     83  C   UNL A   1      43.927  37.500  26.810  1.00  0.00     0.022 A 
BRANCH  81  84
ATOM     84  S   UNL A   1      46.589  37.952  27.273  1.00  0.00     0.127 S 
ATOM     85  O   UNL A   1      46.941  38.216  28.666  1.00  0.00    -0.237 OA
ATOM     86  O   UNL A   1      47.463  37.001  26.586  1.00  0.00    -0.237 OA
ATOM     87  O   UNL A   1      46.230  39.117  26.476  1.00  0.00    -0.744 OA
ENDBRANCH  81  84
ENDBRANCH  53  77
BRANCH  65  88
ATOM     88  C   UNL A   1      44.519  28.374  27.377  1.00  0.00     0.023 A 
ATOM     89  C   UNL A   1      43.490  27.953  26.510  1.00  0.00     0.012 A 
ATOM     90  C   UNL A   1      45.860  28.090  27.047  1.00  0.00     0.148 A 
ATOM     91  C   UNL A   1      43.789  27.235  25.353  1.00  0.00     0.002 A 
ATOM     92  C   UNL A   1      46.152  27.413  25.868  1.00  0.00     0.091 A 
ATOM     93  F   UNL A   1      46.823  28.481  27.894  1.00  0.00    -0.205 F 
ATOM     94  C   UNL A   1      45.118  26.976  25.025  1.00  0.00     0.022 A 
BRANCH  92  95
ATOM     95  S   UNL A   1      47.839  27.121  25.324  1.00  0.00     0.127 S 
ATOM     96  O   UNL A   1      48.339  26.229  26.369  1.00  0.00    -0.237 OA
ATOM     97  O   UNL A   1      47.643  26.485  24.021  1.00  0.00    -0.237 OA
ATOM     98  O   UNL A   1      48.469  28.433  25.263  1.00  0.00    -0.744 OA
ENDBRANCH  92  95
ENDBRANCH  65  88
ENDBRANCH  39  40
ENDBRANCH  32  34
ENDBRANCH  31  32
ENDBRANCH  30  31
ENDBRANCH  29  30
ENDBRANCH   1  29
TORSDOF 21
ENDMDL
