MODEL 1
REMARK VINA RESULT:     -11.2      0.000      0.000
REMARK SMILES COc1c(C(C)C)cc(NC(=O)c2ccccc2C(=O)OCCOCCOC(=O)c2ccc(-c3c4nc(c(-c5cccc(S(=O)(=O)[O-])c5F)c5ccc([nH]5)c(-c5cccc(S(=O)(=O)[O-])c5F)c5nc(c(-c6cccc(S(=O)(=O)[O-])c6F)c6ccc3[nH]6)C=C5)C=C4)cc2)cc1C(C)C
REMARK SMILES IDX 24 1 23 2 22 3 21 4 19 5 20 6 18 7 13 8 14 9 15 10 17 11
REMARK SMILES IDX 16 12 11 13 10 14 12 16 9 17 3 18 4 19 94 20 8 21 93 22 2 23
REMARK SMILES IDX 1 24 5 25 6 26 7 27 95 28 96 29 97 30 25 31 26 32 27 33
REMARK SMILES IDX 28 34 29 35 30 36 31 37 92 38 32 39 91 40 33 41 34 42 35 43
REMARK SMILES IDX 85 44 36 45 90 46 84 47 86 48 37 49 89 50 83 51 82 52 38 54
REMARK SMILES IDX 70 55 50 56 69 57 51 58 54 59 68 60 87 61 52 62 53 63 67 65
REMARK SMILES IDX 88 66 55 67 39 68 40 69 48 70 41 71 43 72 49 73 42 74 44 75
REMARK SMILES IDX 45 76 46 77 47 78 71 79 72 80 80 81 73 82 75 83 81 84 74 85
REMARK SMILES IDX 76 86 77 87 78 88 79 89 56 90 57 91 65 92 58 93 60 94 66 95
REMARK SMILES IDX 59 96 61 97 62 98 63 99 64 100
REMARK H PARENT 10 15 86 53 54 64
REMARK Flexibility Score: inf
ROOT
ATOM      1  O   UNL A   1      36.969  21.728  24.116  1.00  0.00    -0.374 OA
ENDROOT
BRANCH   1   2
ATOM      2  C   UNL A   1      36.943  23.051  24.630  1.00  0.00     0.202 C 
BRANCH   2   3
ATOM      3  C   UNL A   1      36.415  23.340  26.045  1.00  0.00     0.261 C 
BRANCH   3   4
ATOM      4  O   UNL A   1      35.015  23.626  26.182  1.00  0.00    -0.460 OA
BRANCH   4   5
ATOM      5  C   UNL A   1      34.275  22.502  26.305  1.00  0.00     0.339 C 
ATOM      6  O   UNL A   1      34.428  21.652  27.173  1.00  0.00    -0.246 OA
BRANCH   5   7
ATOM      7  C   UNL A   1      33.152  22.391  25.354  1.00  0.00     0.072 A 
ATOM      8  C   UNL A   1      31.899  22.991  25.512  1.00  0.00     0.054 A 
ATOM      9  C   UNL A   1      30.954  22.898  24.472  1.00  0.00     0.015 A 
ATOM     10  C   UNL A   1      31.268  22.262  23.271  1.00  0.00     0.001 A 
ATOM     11  C   UNL A   1      33.458  21.755  24.134  1.00  0.00     0.016 A 
ATOM     12  C   UNL A   1      32.524  21.693  23.100  1.00  0.00     0.001 A 
BRANCH   8  13
ATOM     13  C   UNL A   1      31.436  23.714  26.706  1.00  0.00     0.256 C 
ATOM     14  N   UNL A   1      31.608  25.059  26.910  1.00  0.00    -0.322 N 
ATOM     15  H   UNL A   1      31.253  25.368  27.774  1.00  0.00     0.170 HD
ATOM     16  O   UNL A   1      30.853  23.047  27.563  1.00  0.00    -0.269 OA
BRANCH  14  17
ATOM     17  C   UNL A   1      32.182  26.090  26.149  1.00  0.00     0.042 A 
ATOM     18  C   UNL A   1      32.840  28.269  24.527  1.00  0.00     0.125 A 
ATOM     19  C   UNL A   1      33.272  28.260  25.876  1.00  0.00    -0.001 A 
ATOM     20  C   UNL A   1      32.178  27.164  23.954  1.00  0.00    -0.001 A 
ATOM     21  C   UNL A   1      32.959  27.130  26.658  1.00  0.00     0.034 A 
ATOM     22  C   UNL A   1      31.861  26.082  24.791  1.00  0.00     0.034 A 
BRANCH  18  23
ATOM     23  O   UNL A   1      33.144  29.368  23.759  1.00  0.00    -0.496 OA
ATOM     24  C   UNL A   1      34.233  29.106  22.871  1.00  0.00     0.278 C 
ENDBRANCH  18  23
BRANCH  19  25
ATOM     25  C   UNL A   1      33.995  29.470  26.472  1.00  0.00     0.017 C 
ATOM     26  C   UNL A   1      33.045  30.415  27.223  1.00  0.00     0.012 C 
ATOM     27  C   UNL A   1      35.161  29.130  27.412  1.00  0.00     0.012 C 
ENDBRANCH  19  25
BRANCH  20  28
ATOM     28  C   UNL A   1      31.735  27.126  22.499  1.00  0.00     0.017 C 
ATOM     29  C   UNL A   1      31.684  25.702  21.932  1.00  0.00     0.012 C 
ATOM     30  C   UNL A   1      30.372  27.810  22.336  1.00  0.00     0.012 C 
ENDBRANCH  20  28
ENDBRANCH  14  17
ENDBRANCH   8  13
ENDBRANCH   5   7
ENDBRANCH   4   5
ENDBRANCH   3   4
ENDBRANCH   2   3
ENDBRANCH   1   2
BRANCH   1  31
ATOM     31  C   UNL A   1      37.201  20.631  24.991  1.00  0.00     0.202 C 
BRANCH  31  32
ATOM     32  C   UNL A   1      38.569  19.939  25.028  1.00  0.00     0.261 C 
BRANCH  32  33
ATOM     33  O   UNL A   1      39.211  19.969  26.311  1.00  0.00    -0.460 OA
BRANCH  33  34
ATOM     34  C   UNL A   1      40.491  20.411  26.280  1.00  0.00     0.338 C 
ATOM     35  O   UNL A   1      41.428  19.904  25.677  1.00  0.00    -0.246 OA
BRANCH  34  36
ATOM     36  C   UNL A   1      40.606  21.724  26.932  1.00  0.00     0.060 A 
ATOM     37  C   UNL A   1      39.987  22.815  26.306  1.00  0.00     0.016 A 
ATOM     38  C   UNL A   1      41.421  21.909  28.049  1.00  0.00     0.016 A 
ATOM     39  C   UNL A   1      40.240  24.108  26.750  1.00  0.00     0.010 A 
ATOM     40  C   UNL A   1      41.689  23.210  28.484  1.00  0.00     0.010 A 
ATOM     41  C   UNL A   1      41.141  24.312  27.802  1.00  0.00    -0.014 A 
BRANCH  41  42
ATOM     42  C   UNL A   1      41.659  25.676  28.049  1.00  0.00     0.031 A 
ATOM     43  C   UNL A   1      43.047  26.017  27.578  1.00  0.00     0.074 A 
ATOM     44  C   UNL A   1      40.902  26.599  28.666  1.00  0.00     0.049 A 
ATOM     45  N   UNL A   1      43.694  27.148  27.663  1.00  0.00    -0.248 NA
ATOM     46  C   UNL A   1      43.803  24.936  26.923  1.00  0.00     0.031 C 
ATOM     47  C   UNL A   1      39.542  26.385  29.152  1.00  0.00     0.029 A 
ATOM     48  N   UNL A   1      41.182  27.899  28.997  1.00  0.00    -0.354 N 
ATOM     49  C   UNL A   1      44.940  26.913  27.094  1.00  0.00     0.074 A 
ATOM     50  C   UNL A   1      44.963  25.528  26.677  1.00  0.00     0.031 C 
ATOM     51  C   UNL A   1      39.109  27.513  29.741  1.00  0.00     0.029 A 
ATOM     52  C   UNL A   1      40.169  28.520  29.686  1.00  0.00     0.049 A 
ATOM     53  H   UNL A   1      42.030  28.344  28.765  1.00  0.00     0.167 HD
ATOM     54  C   UNL A   1      45.968  27.776  26.918  1.00  0.00     0.034 A 
ATOM     55  C   UNL A   1      40.112  29.756  30.217  1.00  0.00     0.034 A 
ATOM     56  C   UNL A   1      45.936  29.156  27.316  1.00  0.00     0.049 A 
ATOM     57  C   UNL A   1      41.284  30.686  30.043  1.00  0.00     0.074 A 
ATOM     58  C   UNL A   1      46.900  30.130  27.127  1.00  0.00     0.029 A 
ATOM     59  N   UNL A   1      44.888  29.754  27.999  1.00  0.00    -0.354 N 
ATOM     60  N   UNL A   1      42.400  30.494  29.382  1.00  0.00    -0.248 NA
ATOM     61  C   UNL A   1      41.177  32.014  30.665  1.00  0.00     0.031 C 
ATOM     62  C   UNL A   1      46.442  31.314  27.716  1.00  0.00     0.029 A 
ATOM     63  C   UNL A   1      45.188  31.081  28.259  1.00  0.00     0.049 A 
ATOM     64  H   UNL A   1      44.054  29.303  28.261  1.00  0.00     0.167 HD
ATOM     65  C   UNL A   1      43.113  31.684  29.479  1.00  0.00     0.074 A 
ATOM     66  C   UNL A   1      42.294  32.598  30.251  1.00  0.00     0.031 C 
ATOM     67  C   UNL A   1      44.339  31.991  28.986  1.00  0.00     0.034 A 
BRANCH  54  68
ATOM     68  C   UNL A   1      47.202  27.250  26.237  1.00  0.00     0.023 A 
ATOM     69  C   UNL A   1      47.363  27.442  24.849  1.00  0.00     0.012 A 
ATOM     70  C   UNL A   1      48.207  26.587  26.965  1.00  0.00     0.148 A 
ATOM     71  C   UNL A   1      48.493  26.954  24.192  1.00  0.00     0.002 A 
ATOM     72  C   UNL A   1      49.348  26.135  26.308  1.00  0.00     0.091 A 
ATOM     73  F   UNL A   1      48.023  26.383  28.276  1.00  0.00    -0.205 F 
ATOM     74  C   UNL A   1      49.487  26.310  24.922  1.00  0.00     0.022 A 
BRANCH  72  75
ATOM     75  S   UNL A   1      50.704  25.353  27.188  1.00  0.00     0.127 S 
ATOM     76  O   UNL A   1      51.136  26.425  28.082  1.00  0.00    -0.237 OA
ATOM     77  O   UNL A   1      50.040  24.233  27.858  1.00  0.00    -0.237 OA
ATOM     78  O   UNL A   1      51.659  24.955  26.163  1.00  0.00    -0.744 OA
ENDBRANCH  72  75
ENDBRANCH  54  68
BRANCH  55  79
ATOM     79  C   UNL A   1      38.872  30.205  30.909  1.00  0.00     0.023 A 
ATOM     80  C   UNL A   1      38.628  29.778  32.228  1.00  0.00     0.012 A 
ATOM     81  C   UNL A   1      37.960  31.082  30.289  1.00  0.00     0.148 A 
ATOM     82  C   UNL A   1      37.491  30.204  32.914  1.00  0.00     0.002 A 
ATOM     83  C   UNL A   1      36.856  31.542  30.996  1.00  0.00     0.091 A 
ATOM     84  F   UNL A   1      38.205  31.463  29.028  1.00  0.00    -0.205 F 
ATOM     85  C   UNL A   1      36.611  31.093  32.303  1.00  0.00     0.022 A 
BRANCH  83  86
ATOM     86  S   UNL A   1      35.735  32.784  30.340  1.00  0.00     0.127 S 
ATOM     87  O   UNL A   1      35.205  32.113  29.156  1.00  0.00    -0.237 OA
ATOM     88  O   UNL A   1      34.783  32.938  31.440  1.00  0.00    -0.237 OA
ATOM     89  O   UNL A   1      36.556  33.959  30.085  1.00  0.00    -0.744 OA
ENDBRANCH  83  86
ENDBRANCH  55  79
BRANCH  67  90
ATOM     90  C   UNL A   1      44.871  33.377  29.244  1.00  0.00     0.023 A 
ATOM     91  C   UNL A   1      45.571  33.639  30.437  1.00  0.00     0.012 A 
ATOM     92  C   UNL A   1      44.752  34.391  28.273  1.00  0.00     0.148 A 
ATOM     93  C   UNL A   1      46.125  34.898  30.671  1.00  0.00     0.002 A 
ATOM     94  C   UNL A   1      45.343  35.629  28.494  1.00  0.00     0.091 A 
ATOM     95  F   UNL A   1      44.063  34.127  27.152  1.00  0.00    -0.205 F 
ATOM     96  C   UNL A   1      46.022  35.887  29.696  1.00  0.00     0.022 A 
BRANCH  94  97
ATOM     97  S   UNL A   1      45.337  36.926  27.251  1.00  0.00     0.127 S 
ATOM     98  O   UNL A   1      43.907  37.089  26.996  1.00  0.00    -0.237 OA
ATOM     99  O   UNL A   1      45.961  38.045  27.959  1.00  0.00    -0.237 OA
ATOM    100  O   UNL A   1      46.122  36.411  26.137  1.00  0.00    -0.744 OA
ENDBRANCH  94  97
ENDBRANCH  67  90
ENDBRANCH  41  42
ENDBRANCH  34  36
ENDBRANCH  33  34
ENDBRANCH  32  33
ENDBRANCH  31  32
ENDBRANCH   1  31
TORSDOF 22
ENDMDL
MODEL 2
REMARK VINA RESULT:     -10.8      1.400      2.289
REMARK SMILES COc1c(C(C)C)cc(NC(=O)c2ccccc2C(=O)OCCOCCOC(=O)c2ccc(-c3c4nc(c(-c5cccc(S(=O)(=O)[O-])c5F)c5ccc([nH]5)c(-c5cccc(S(=O)(=O)[O-])c5F)c5nc(c(-c6cccc(S(=O)(=O)[O-])c6F)c6ccc3[nH]6)C=C5)C=C4)cc2)cc1C(C)C
REMARK SMILES IDX 24 1 23 2 22 3 21 4 19 5 20 6 18 7 13 8 14 9 15 10 17 11
REMARK SMILES IDX 16 12 11 13 10 14 12 16 9 17 3 18 4 19 94 20 8 21 93 22 2 23
REMARK SMILES IDX 1 24 5 25 6 26 7 27 95 28 96 29 97 30 25 31 26 32 27 33
REMARK SMILES IDX 28 34 29 35 30 36 31 37 92 38 32 39 91 40 33 41 34 42 35 43
REMARK SMILES IDX 85 44 36 45 90 46 84 47 86 48 37 49 89 50 83 51 82 52 38 54
REMARK SMILES IDX 70 55 50 56 69 57 51 58 54 59 68 60 87 61 52 62 53 63 67 65
REMARK SMILES IDX 88 66 55 67 39 68 40 69 48 70 41 71 43 72 49 73 42 74 44 75
REMARK SMILES IDX 45 76 46 77 47 78 71 79 72 80 80 81 73 82 75 83 81 84 74 85
REMARK SMILES IDX 76 86 77 87 78 88 79 89 56 90 57 91 65 92 58 93 60 94 66 95
REMARK SMILES IDX 59 96 61 97 62 98 63 99 64 100
REMARK H PARENT 10 15 86 53 54 64
REMARK Flexibility Score: inf
ROOT
ATOM      1  O   UNL A   1      37.016  21.813  24.180  1.00  0.00    -0.374 OA
ENDROOT
BRANCH   1   2
ATOM      2  C   UNL A   1      37.046  23.070  24.840  1.00  0.00     0.202 C 
BRANCH   2   3
ATOM      3  C   UNL A   1      36.384  23.257  26.215  1.00  0.00     0.261 C 
BRANCH   3   4
ATOM      4  O   UNL A   1      35.010  23.673  26.236  1.00  0.00    -0.460 OA
BRANCH   4   5
ATOM      5  C   UNL A   1      34.159  22.624  26.236  1.00  0.00     0.339 C 
ATOM      6  O   UNL A   1      34.147  21.731  27.074  1.00  0.00    -0.246 OA
BRANCH   5   7
ATOM      7  C   UNL A   1      33.130  22.659  25.180  1.00  0.00     0.072 A 
ATOM      8  C   UNL A   1      31.834  23.163  25.333  1.00  0.00     0.054 A 
ATOM      9  C   UNL A   1      30.988  23.240  24.211  1.00  0.00     0.015 A 
ATOM     10  C   UNL A   1      31.439  22.872  22.943  1.00  0.00     0.001 A 
ATOM     11  C   UNL A   1      33.575  22.294  23.894  1.00  0.00     0.016 A 
ATOM     12  C   UNL A   1      32.737  22.402  22.784  1.00  0.00     0.001 A 
BRANCH   8  13
ATOM     13  C   UNL A   1      31.230  23.612  26.596  1.00  0.00     0.256 C 
ATOM     14  N   UNL A   1      31.030  24.925  26.934  1.00  0.00    -0.322 N 
ATOM     15  H   UNL A   1      30.634  25.040  27.826  1.00  0.00     0.170 HD
ATOM     16  O   UNL A   1      30.881  22.730  27.385  1.00  0.00    -0.269 OA
BRANCH  14  17
ATOM     17  C   UNL A   1      31.273  26.142  26.278  1.00  0.00     0.042 A 
ATOM     18  C   UNL A   1      32.250  28.445  25.031  1.00  0.00     0.125 A 
ATOM     19  C   UNL A   1      31.406  27.574  24.301  1.00  0.00    -0.001 A 
ATOM     20  C   UNL A   1      32.525  28.237  26.398  1.00  0.00    -0.001 A 
ATOM     21  C   UNL A   1      30.896  26.441  24.968  1.00  0.00     0.034 A 
ATOM     22  C   UNL A   1      32.021  27.073  27.000  1.00  0.00     0.034 A 
BRANCH  18  23
ATOM     23  O   UNL A   1      32.748  29.553  24.386  1.00  0.00    -0.496 OA
ATOM     24  C   UNL A   1      33.788  29.206  23.468  1.00  0.00     0.278 C 
ENDBRANCH  18  23
BRANCH  19  25
ATOM     25  C   UNL A   1      31.117  27.825  22.819  1.00  0.00     0.017 C 
ATOM     26  C   UNL A   1      31.370  26.585  21.949  1.00  0.00     0.012 C 
ATOM     27  C   UNL A   1      29.701  28.334  22.512  1.00  0.00     0.012 C 
ENDBRANCH  19  25
BRANCH  20  28
ATOM     28  C   UNL A   1      33.397  29.175  27.220  1.00  0.00     0.017 C 
ATOM     29  C   UNL A   1      34.884  29.068  26.861  1.00  0.00     0.012 C 
ATOM     30  C   UNL A   1      32.918  30.624  27.067  1.00  0.00     0.012 C 
ENDBRANCH  20  28
ENDBRANCH  14  17
ENDBRANCH   8  13
ENDBRANCH   5   7
ENDBRANCH   4   5
ENDBRANCH   3   4
ENDBRANCH   2   3
ENDBRANCH   1   2
BRANCH   1  31
ATOM     31  C   UNL A   1      37.172  20.614  24.929  1.00  0.00     0.202 C 
BRANCH  31  32
ATOM     32  C   UNL A   1      38.565  20.019  25.169  1.00  0.00     0.261 C 
BRANCH  32  33
ATOM     33  O   UNL A   1      39.145  20.365  26.435  1.00  0.00    -0.460 OA
BRANCH  33  34
ATOM     34  C   UNL A   1      40.419  20.817  26.356  1.00  0.00     0.338 C 
ATOM     35  O   UNL A   1      41.337  20.319  25.717  1.00  0.00    -0.246 OA
BRANCH  34  36
ATOM     36  C   UNL A   1      40.549  22.131  27.004  1.00  0.00     0.060 A 
ATOM     37  C   UNL A   1      39.943  23.227  26.373  1.00  0.00     0.016 A 
ATOM     38  C   UNL A   1      41.363  22.310  28.122  1.00  0.00     0.016 A 
ATOM     39  C   UNL A   1      40.211  24.519  26.814  1.00  0.00     0.010 A 
ATOM     40  C   UNL A   1      41.645  23.608  28.554  1.00  0.00     0.010 A 
ATOM     41  C   UNL A   1      41.112  24.715  27.868  1.00  0.00    -0.014 A 
BRANCH  41  42
ATOM     42  C   UNL A   1      41.645  26.073  28.112  1.00  0.00     0.031 A 
ATOM     43  C   UNL A   1      43.018  26.413  27.599  1.00  0.00     0.074 A 
ATOM     44  C   UNL A   1      40.914  26.993  28.764  1.00  0.00     0.049 A 
ATOM     45  N   UNL A   1      43.674  27.540  27.673  1.00  0.00    -0.248 NA
ATOM     46  C   UNL A   1      43.746  25.335  26.906  1.00  0.00     0.031 C 
ATOM     47  C   UNL A   1      39.570  26.781  29.294  1.00  0.00     0.029 A 
ATOM     48  N   UNL A   1      41.212  28.288  29.100  1.00  0.00    -0.354 N 
ATOM     49  C   UNL A   1      44.899  27.304  27.060  1.00  0.00     0.074 A 
ATOM     50  C   UNL A   1      44.900  25.924  26.628  1.00  0.00     0.031 C 
ATOM     51  C   UNL A   1      39.163  27.905  29.909  1.00  0.00     0.029 A 
ATOM     52  C   UNL A   1      40.226  28.906  29.829  1.00  0.00     0.049 A 
ATOM     53  H   UNL A   1      42.054  28.732  28.844  1.00  0.00     0.167 HD
ATOM     54  C   UNL A   1      45.925  28.164  26.859  1.00  0.00     0.034 A 
ATOM     55  C   UNL A   1      40.194  30.137  30.375  1.00  0.00     0.034 A 
ATOM     56  C   UNL A   1      45.914  29.540  27.273  1.00  0.00     0.049 A 
ATOM     57  C   UNL A   1      41.364  31.063  30.172  1.00  0.00     0.074 A 
ATOM     58  C   UNL A   1      46.876  30.511  27.062  1.00  0.00     0.029 A 
ATOM     59  N   UNL A   1      44.893  30.136  27.997  1.00  0.00    -0.354 N 
ATOM     60  N   UNL A   1      42.457  30.873  29.472  1.00  0.00    -0.248 NA
ATOM     61  C   UNL A   1      41.286  32.385  30.812  1.00  0.00     0.031 C 
ATOM     62  C   UNL A   1      46.444  31.691  27.679  1.00  0.00     0.029 A 
ATOM     63  C   UNL A   1      45.208  31.458  28.261  1.00  0.00     0.049 A 
ATOM     64  H   UNL A   1      44.066  29.686  28.282  1.00  0.00     0.167 HD
ATOM     65  C   UNL A   1      43.179  32.058  29.557  1.00  0.00     0.074 A 
ATOM     66  C   UNL A   1      42.391  32.967  30.367  1.00  0.00     0.031 C 
ATOM     67  C   UNL A   1      44.389  32.365  29.026  1.00  0.00     0.034 A 
BRANCH  54  68
ATOM     68  C   UNL A   1      47.132  27.640  26.131  1.00  0.00     0.023 A 
ATOM     69  C   UNL A   1      48.104  26.903  26.839  1.00  0.00     0.012 A 
ATOM     70  C   UNL A   1      47.298  27.856  24.750  1.00  0.00     0.148 A 
ATOM     71  C   UNL A   1      49.238  26.416  26.189  1.00  0.00     0.002 A 
ATOM     72  C   UNL A   1      48.414  27.336  24.102  1.00  0.00     0.091 A 
ATOM     73  F   UNL A   1      46.383  28.587  24.100  1.00  0.00    -0.205 F 
ATOM     74  C   UNL A   1      49.388  26.625  24.820  1.00  0.00     0.022 A 
BRANCH  72  75
ATOM     75  S   UNL A   1      48.648  27.507  22.329  1.00  0.00     0.127 S 
ATOM     76  O   UNL A   1      47.457  28.261  21.944  1.00  0.00    -0.237 OA
ATOM     77  O   UNL A   1      49.900  28.262  22.248  1.00  0.00    -0.237 OA
ATOM     78  O   UNL A   1      48.735  26.147  21.813  1.00  0.00    -0.744 OA
ENDBRANCH  72  75
ENDBRANCH  54  68
BRANCH  55  79
ATOM     79  C   UNL A   1      38.981  30.584  31.113  1.00  0.00     0.023 A 
ATOM     80  C   UNL A   1      38.879  30.321  32.493  1.00  0.00     0.012 A 
ATOM     81  C   UNL A   1      37.953  31.304  30.472  1.00  0.00     0.148 A 
ATOM     82  C   UNL A   1      37.769  30.753  33.219  1.00  0.00     0.002 A 
ATOM     83  C   UNL A   1      36.874  31.774  31.211  1.00  0.00     0.091 A 
ATOM     84  F   UNL A   1      38.063  31.529  29.155  1.00  0.00    -0.205 F 
ATOM     85  C   UNL A   1      36.773  31.488  32.581  1.00  0.00     0.022 A 
BRANCH  83  86
ATOM     86  S   UNL A   1      35.606  32.833  30.506  1.00  0.00     0.127 S 
ATOM     87  O   UNL A   1      34.971  31.940  29.541  1.00  0.00    -0.237 OA
ATOM     88  O   UNL A   1      34.794  33.149  31.681  1.00  0.00    -0.237 OA
ATOM     89  O   UNL A   1      36.314  33.973  29.940  1.00  0.00    -0.744 OA
ENDBRANCH  83  86
ENDBRANCH  55  79
BRANCH  67  90
ATOM     90  C   UNL A   1      44.937  33.744  29.281  1.00  0.00     0.023 A 
ATOM     91  C   UNL A   1      45.673  33.992  30.456  1.00  0.00     0.012 A 
ATOM     92  C   UNL A   1      44.797  34.767  28.323  1.00  0.00     0.148 A 
ATOM     93  C   UNL A   1      46.241  35.245  30.685  1.00  0.00     0.002 A 
ATOM     94  C   UNL A   1      45.402  36.000  28.538  1.00  0.00     0.091 A 
ATOM     95  F   UNL A   1      44.075  34.519  27.220  1.00  0.00    -0.205 F 
ATOM     96  C   UNL A   1      46.116  36.244  29.722  1.00  0.00     0.022 A 
BRANCH  94  97
ATOM     97  S   UNL A   1      45.368  37.309  27.307  1.00  0.00     0.127 S 
ATOM     98  O   UNL A   1      46.112  36.702  26.205  1.00  0.00    -0.237 OA
ATOM     99  O   UNL A   1      43.935  37.472  27.059  1.00  0.00    -0.237 OA
ATOM    100  O   UNL A   1      46.001  38.460  27.937  1.00  0.00    -0.744 OA
ENDBRANCH  94  97
ENDBRANCH  67  90
ENDBRANCH  41  42
ENDBRANCH  34  36
ENDBRANCH  33  34
ENDBRANCH  32  33
ENDBRANCH  31  32
ENDBRANCH   1  31
TORSDOF 22
ENDMDL
MODEL 3
REMARK VINA RESULT:     -10.7      5.437      9.060
REMARK SMILES COc1c(C(C)C)cc(NC(=O)c2ccccc2C(=O)OCCOCCOC(=O)c2ccc(-c3c4nc(c(-c5cccc(S(=O)(=O)[O-])c5F)c5ccc([nH]5)c(-c5cccc(S(=O)(=O)[O-])c5F)c5nc(c(-c6cccc(S(=O)(=O)[O-])c6F)c6ccc3[nH]6)C=C5)C=C4)cc2)cc1C(C)C
REMARK SMILES IDX 24 1 23 2 22 3 21 4 19 5 20 6 18 7 13 8 14 9 15 10 17 11
REMARK SMILES IDX 16 12 11 13 10 14 12 16 9 17 3 18 4 19 94 20 8 21 93 22 2 23
REMARK SMILES IDX 1 24 5 25 6 26 7 27 95 28 96 29 97 30 25 31 26 32 27 33
REMARK SMILES IDX 28 34 29 35 30 36 31 37 92 38 32 39 91 40 33 41 34 42 35 43
REMARK SMILES IDX 85 44 36 45 90 46 84 47 86 48 37 49 89 50 83 51 82 52 38 54
REMARK SMILES IDX 70 55 50 56 69 57 51 58 54 59 68 60 87 61 52 62 53 63 67 65
REMARK SMILES IDX 88 66 55 67 39 68 40 69 48 70 41 71 43 72 49 73 42 74 44 75
REMARK SMILES IDX 45 76 46 77 47 78 71 79 72 80 80 81 73 82 75 83 81 84 74 85
REMARK SMILES IDX 76 86 77 87 78 88 79 89 56 90 57 91 65 92 58 93 60 94 66 95
REMARK SMILES IDX 59 96 61 97 62 98 63 99 64 100
REMARK H PARENT 10 15 86 53 54 64
REMARK Flexibility Score: inf
ROOT
ATOM      1  O   UNL A   1      35.015  29.899  27.099  1.00  0.00    -0.374 OA
ENDROOT
BRANCH   1   2
ATOM      2  C   UNL A   1      33.950  29.091  26.620  1.00  0.00     0.202 C 
BRANCH   2   3
ATOM      3  C   UNL A   1      33.337  29.333  25.231  1.00  0.00     0.261 C 
BRANCH   3   4
ATOM      4  O   UNL A   1      33.525  28.312  24.239  1.00  0.00    -0.460 OA
BRANCH   4   5
ATOM      5  C   UNL A   1      32.669  28.445  23.201  1.00  0.00     0.339 C 
ATOM      6  O   UNL A   1      32.760  29.293  22.322  1.00  0.00    -0.246 OA
BRANCH   5   7
ATOM      7  C   UNL A   1      31.625  27.407  23.120  1.00  0.00     0.072 A 
ATOM      8  C   UNL A   1      31.795  26.133  22.569  1.00  0.00     0.054 A 
ATOM      9  C   UNL A   1      30.746  25.197  22.658  1.00  0.00     0.015 A 
ATOM     10  C   UNL A   1      29.563  25.506  23.332  1.00  0.00     0.001 A 
ATOM     11  C   UNL A   1      30.427  27.704  23.801  1.00  0.00     0.016 A 
ATOM     12  C   UNL A   1      29.405  26.760  23.908  1.00  0.00     0.001 A 
BRANCH   8  13
ATOM     13  C   UNL A   1      32.989  25.657  21.855  1.00  0.00     0.256 C 
ATOM     14  N   UNL A   1      34.042  25.014  22.453  1.00  0.00    -0.322 N 
ATOM     15  H   UNL A   1      34.764  24.787  21.825  1.00  0.00     0.170 HD
ATOM     16  O   UNL A   1      33.020  25.855  20.639  1.00  0.00    -0.269 OA
BRANCH  14  17
ATOM     17  C   UNL A   1      34.311  24.613  23.771  1.00  0.00     0.042 A 
ATOM     18  C   UNL A   1      34.464  23.479  26.321  1.00  0.00     0.125 A 
ATOM     19  C   UNL A   1      35.600  23.429  25.477  1.00  0.00    -0.001 A 
ATOM     20  C   UNL A   1      33.295  24.175  25.950  1.00  0.00    -0.001 A 
ATOM     21  C   UNL A   1      35.506  24.044  24.212  1.00  0.00     0.034 A 
ATOM     22  C   UNL A   1      33.246  24.736  24.664  1.00  0.00     0.034 A 
BRANCH  18  23
ATOM     23  O   UNL A   1      34.551  22.883  27.557  1.00  0.00    -0.496 OA
ATOM     24  C   UNL A   1      34.026  21.553  27.540  1.00  0.00     0.278 C 
ENDBRANCH  18  23
BRANCH  19  25
ATOM     25  C   UNL A   1      36.860  22.673  25.907  1.00  0.00     0.017 C 
ATOM     26  C   UNL A   1      37.248  21.564  24.918  1.00  0.00     0.012 C 
ATOM     27  C   UNL A   1      38.097  23.553  26.137  1.00  0.00     0.012 C 
ENDBRANCH  19  25
BRANCH  20  28
ATOM     28  C   UNL A   1      32.072  24.279  26.849  1.00  0.00     0.017 C 
ATOM     29  C   UNL A   1      31.407  25.659  26.785  1.00  0.00     0.012 C 
ATOM     30  C   UNL A   1      31.056  23.185  26.501  1.00  0.00     0.012 C 
ENDBRANCH  20  28
ENDBRANCH  14  17
ENDBRANCH   8  13
ENDBRANCH   5   7
ENDBRANCH   4   5
ENDBRANCH   3   4
ENDBRANCH   2   3
ENDBRANCH   1   2
BRANCH   1  31
ATOM     31  C   UNL A   1      34.735  31.050  27.885  1.00  0.00     0.202 C 
BRANCH  31  32
ATOM     32  C   UNL A   1      33.483  31.894  27.616  1.00  0.00     0.261 C 
BRANCH  32  33
ATOM     33  O   UNL A   1      33.750  33.281  27.362  1.00  0.00    -0.460 OA
BRANCH  33  34
ATOM     34  C   UNL A   1      33.504  34.095  28.416  1.00  0.00     0.338 C 
ATOM     35  O   UNL A   1      32.498  34.767  28.605  1.00  0.00    -0.246 OA
BRANCH  34  36
ATOM     36  C   UNL A   1      34.541  33.944  29.447  1.00  0.00     0.060 A 
ATOM     37  C   UNL A   1      35.858  34.275  29.095  1.00  0.00     0.016 A 
ATOM     38  C   UNL A   1      34.257  33.357  30.680  1.00  0.00     0.016 A 
ATOM     39  C   UNL A   1      36.908  33.951  29.946  1.00  0.00     0.010 A 
ATOM     40  C   UNL A   1      35.315  33.017  31.527  1.00  0.00     0.010 A 
ATOM     41  C   UNL A   1      36.644  33.265  31.137  1.00  0.00    -0.014 A 
BRANCH  41  42
ATOM     42  C   UNL A   1      37.766  32.635  31.867  1.00  0.00     0.031 A 
ATOM     43  C   UNL A   1      38.480  31.474  31.229  1.00  0.00     0.074 A 
ATOM     44  C   UNL A   1      38.155  33.099  33.066  1.00  0.00     0.049 A 
ATOM     45  N   UNL A   1      39.500  30.787  31.670  1.00  0.00    -0.248 NA
ATOM     46  C   UNL A   1      37.974  31.031  29.918  1.00  0.00     0.031 C 
ATOM     47  C   UNL A   1      37.547  34.223  33.773  1.00  0.00     0.029 A 
ATOM     48  N   UNL A   1      39.149  32.666  33.905  1.00  0.00    -0.354 N 
ATOM     49  C   UNL A   1      39.746  29.817  30.705  1.00  0.00     0.074 A 
ATOM     50  C   UNL A   1      38.762  29.997  29.660  1.00  0.00     0.031 C 
ATOM     51  C   UNL A   1      38.171  34.382  34.953  1.00  0.00     0.029 A 
ATOM     52  C   UNL A   1      39.208  33.360  35.089  1.00  0.00     0.049 A 
ATOM     53  H   UNL A   1      39.762  31.928  33.681  1.00  0.00     0.167 HD
ATOM     54  C   UNL A   1      40.714  28.872  30.681  1.00  0.00     0.034 A 
ATOM     55  C   UNL A   1      40.003  33.180  36.161  1.00  0.00     0.034 A 
ATOM     56  C   UNL A   1      41.702  28.707  31.711  1.00  0.00     0.049 A 
ATOM     57  C   UNL A   1      41.048  32.096  36.128  1.00  0.00     0.074 A 
ATOM     58  C   UNL A   1      42.764  27.822  31.753  1.00  0.00     0.029 A 
ATOM     59  N   UNL A   1      41.740  29.436  32.890  1.00  0.00    -0.354 N 
ATOM     60  N   UNL A   1      41.359  31.277  35.152  1.00  0.00    -0.248 NA
ATOM     61  C   UNL A   1      41.871  31.928  37.335  1.00  0.00     0.031 C 
ATOM     62  C   UNL A   1      43.432  28.002  32.970  1.00  0.00     0.029 A 
ATOM     63  C   UNL A   1      42.794  29.008  33.679  1.00  0.00     0.049 A 
ATOM     64  H   UNL A   1      41.109  30.152  33.131  1.00  0.00     0.167 HD
ATOM     65  C   UNL A   1      42.433  30.522  35.612  1.00  0.00     0.074 A 
ATOM     66  C   UNL A   1      42.729  30.992  36.951  1.00  0.00     0.031 C 
ATOM     67  C   UNL A   1      43.106  29.522  34.989  1.00  0.00     0.034 A 
BRANCH  54  68
ATOM     68  C   UNL A   1      40.764  27.964  29.483  1.00  0.00     0.023 A 
ATOM     69  C   UNL A   1      39.938  26.823  29.441  1.00  0.00     0.012 A 
ATOM     70  C   UNL A   1      41.608  28.246  28.392  1.00  0.00     0.148 A 
ATOM     71  C   UNL A   1      39.973  25.959  28.346  1.00  0.00     0.002 A 
ATOM     72  C   UNL A   1      41.612  27.399  27.288  1.00  0.00     0.091 A 
ATOM     73  F   UNL A   1      42.412  29.316  28.462  1.00  0.00    -0.205 F 
ATOM     74  C   UNL A   1      40.803  26.253  27.268  1.00  0.00     0.022 A 
BRANCH  72  75
ATOM     75  S   UNL A   1      42.605  27.743  25.832  1.00  0.00     0.127 S 
ATOM     76  O   UNL A   1      43.961  27.664  26.372  1.00  0.00    -0.237 OA
ATOM     77  O   UNL A   1      42.242  26.643  24.936  1.00  0.00    -0.237 OA
ATOM     78  O   UNL A   1      42.181  29.057  25.369  1.00  0.00    -0.744 OA
ENDBRANCH  72  75
ENDBRANCH  54  68
BRANCH  55  79
ATOM     79  C   UNL A   1      39.881  34.093  37.331  1.00  0.00     0.023 A 
ATOM     80  C   UNL A   1      40.388  35.404  37.236  1.00  0.00     0.012 A 
ATOM     81  C   UNL A   1      39.231  33.690  38.514  1.00  0.00     0.148 A 
ATOM     82  C   UNL A   1      40.262  36.293  38.303  1.00  0.00     0.002 A 
ATOM     83  C   UNL A   1      39.066  34.597  39.554  1.00  0.00     0.091 A 
ATOM     84  F   UNL A   1      38.771  32.434  38.589  1.00  0.00    -0.205 F 
ATOM     85  C   UNL A   1      39.593  35.894  39.456  1.00  0.00     0.022 A 
BRANCH  83  86
ATOM     86  S   UNL A   1      38.111  34.216  41.028  1.00  0.00     0.127 S 
ATOM     87  O   UNL A   1      37.894  35.544  41.595  1.00  0.00    -0.237 OA
ATOM     88  O   UNL A   1      36.919  33.588  40.456  1.00  0.00    -0.237 OA
ATOM     89  O   UNL A   1      38.944  33.321  41.817  1.00  0.00    -0.744 OA
ENDBRANCH  83  86
ENDBRANCH  55  79
BRANCH  67  90
ATOM     90  C   UNL A   1      44.244  28.873  35.733  1.00  0.00     0.023 A 
ATOM     91  C   UNL A   1      45.540  29.410  35.620  1.00  0.00     0.012 A 
ATOM     92  C   UNL A   1      44.015  27.791  36.606  1.00  0.00     0.148 A 
ATOM     93  C   UNL A   1      46.599  28.864  36.346  1.00  0.00     0.002 A 
ATOM     94  C   UNL A   1      45.066  27.279  37.358  1.00  0.00     0.091 A 
ATOM     95  F   UNL A   1      42.777  27.280  36.683  1.00  0.00    -0.205 F 
ATOM     96  C   UNL A   1      46.359  27.808  37.224  1.00  0.00     0.022 A 
BRANCH  94  97
ATOM     97  S   UNL A   1      44.824  25.983  38.579  1.00  0.00     0.127 S 
ATOM     98  O   UNL A   1      46.198  25.694  38.984  1.00  0.00    -0.237 OA
ATOM     99  O   UNL A   1      44.016  26.655  39.597  1.00  0.00    -0.237 OA
ATOM    100  O   UNL A   1      44.133  24.907  37.881  1.00  0.00    -0.744 OA
ENDBRANCH  94  97
ENDBRANCH  67  90
ENDBRANCH  41  42
ENDBRANCH  34  36
ENDBRANCH  33  34
ENDBRANCH  32  33
ENDBRANCH  31  32
ENDBRANCH   1  31
TORSDOF 22
ENDMDL
