MODEL 1
REMARK VINA RESULT:     -10.5      0.000      0.000
REMARK SMILES Cc1cc(NC(=O)CC2(CC(=O)OCCOCCOC(=O)c3ccc(-c4c5nc(c(-c6cccc(S(=O)(=O)[O-])c6F)c6ccc([nH]6)c(-c6cccc(S(=O)(=O)[O-])c6F)c6nc(c(-c7cccc(S(=O)(=O)[O-])c7F)c7ccc4[nH]7)C=C6)C=C5)cc3)CCCC2)ccn1
REMARK SMILES IDX 15 1 14 2 13 3 11 4 12 5 10 6 9 7 85 8 88 9 86 10 87 11 8 12
REMARK SMILES IDX 6 13 5 14 7 16 4 17 1 18 2 19 3 20 91 21 90 22 89 23 16 24
REMARK SMILES IDX 17 25 18 26 19 27 20 28 21 29 22 30 23 31 84 32 24 33 83 34
REMARK SMILES IDX 25 35 26 36 27 37 77 38 28 39 82 40 76 41 78 42 29 43 81 44
REMARK SMILES IDX 75 45 74 46 30 48 62 49 42 50 61 51 43 52 46 53 60 54 79 55
REMARK SMILES IDX 44 56 45 57 59 59 80 60 47 61 31 62 32 63 40 64 33 65 35 66
REMARK SMILES IDX 41 67 34 68 36 69 37 70 38 71 39 72 63 73 64 74 72 75 65 76
REMARK SMILES IDX 67 77 73 78 66 79 68 80 69 81 70 82 71 83 48 84 49 85 57 86
REMARK SMILES IDX 50 87 52 88 58 89 51 90 53 91 54 92 55 93 56 94
REMARK H PARENT 5 15 78 47 46 58
REMARK Flexibility Score: inf
ROOT
ATOM      1  C   UNL A   1      37.567  22.805  24.761  1.00  0.00     0.202 C 
ENDROOT
BRANCH   1   2
ATOM      2  C   UNL A   1      36.424  23.659  24.196  1.00  0.00     0.261 C 
BRANCH   2   3
ATOM      3  O   UNL A   1      35.631  22.950  23.215  1.00  0.00    -0.463 OA
BRANCH   3   4
ATOM      4  C   UNL A   1      34.372  23.413  23.002  1.00  0.00     0.306 C 
ATOM      5  O   UNL A   1      34.106  24.512  22.530  1.00  0.00    -0.252 OA
BRANCH   4   6
ATOM      6  C   UNL A   1      33.299  22.469  23.512  1.00  0.00     0.130 C 
BRANCH   6   7
ATOM      7  C   UNL A   1      33.249  22.012  25.004  1.00  0.00    -0.011 C 
ATOM      8  C   UNL A   1      34.346  20.936  25.170  1.00  0.00     0.008 C 
ATOM      9  C   UNL A   1      31.996  21.171  25.341  1.00  0.00     0.008 C 
ATOM     10  C   UNL A   1      33.755  19.644  24.613  1.00  0.00     0.001 C 
ATOM     11  C   UNL A   1      32.245  19.776  24.776  1.00  0.00     0.001 C 
BRANCH   7  12
ATOM     12  C   UNL A   1      33.353  23.196  25.998  1.00  0.00     0.108 C 
BRANCH  12  13
ATOM     13  C   UNL A   1      32.157  23.605  26.829  1.00  0.00     0.224 C 
ATOM     14  N   UNL A   1      31.457  24.755  26.640  1.00  0.00    -0.326 N 
ATOM     15  H   UNL A   1      30.740  24.886  27.301  1.00  0.00     0.169 HD
ATOM     16  O   UNL A   1      31.764  22.858  27.734  1.00  0.00    -0.275 OA
BRANCH  14  17
ATOM     17  C   UNL A   1      31.541  25.796  25.702  1.00  0.00     0.044 A 
ATOM     18  C   UNL A   1      31.756  29.555  26.008  1.00  0.00     0.067 C 
ATOM     19  C   UNL A   1      31.681  28.179  25.421  1.00  0.00     0.039 A 
ATOM     20  C   UNL A   1      31.795  27.060  26.237  1.00  0.00     0.049 A 
ATOM     21  N   UNL A   1      31.388  28.087  24.106  1.00  0.00    -0.261 NA
ATOM     22  C   UNL A   1      31.225  26.851  23.592  1.00  0.00     0.113 A 
ATOM     23  C   UNL A   1      31.306  25.685  24.338  1.00  0.00     0.046 A 
ENDBRANCH  14  17
ENDBRANCH  12  13
ENDBRANCH   7  12
ENDBRANCH   6   7
ENDBRANCH   4   6
ENDBRANCH   3   4
ENDBRANCH   2   3
ENDBRANCH   1   2
BRANCH   1  24
ATOM     24  O   UNL A   1      38.054  23.164  26.059  1.00  0.00    -0.374 OA
BRANCH  24  25
ATOM     25  C   UNL A   1      39.174  22.416  26.519  1.00  0.00     0.202 C 
BRANCH  25  26
ATOM     26  C   UNL A   1      39.373  21.039  25.877  1.00  0.00     0.261 C 
BRANCH  26  27
ATOM     27  O   UNL A   1      40.100  20.157  26.750  1.00  0.00    -0.460 OA
BRANCH  27  28
ATOM     28  C   UNL A   1      41.344  19.851  26.316  1.00  0.00     0.338 C 
ATOM     29  O   UNL A   1      41.693  18.824  25.743  1.00  0.00    -0.246 OA
BRANCH  28  30
ATOM     30  C   UNL A   1      42.237  21.014  26.448  1.00  0.00     0.060 A 
ATOM     31  C   UNL A   1      42.484  21.473  27.748  1.00  0.00     0.016 A 
ATOM     32  C   UNL A   1      42.758  21.691  25.343  1.00  0.00     0.016 A 
ATOM     33  C   UNL A   1      43.192  22.653  27.948  1.00  0.00     0.010 A 
ATOM     34  C   UNL A   1      43.467  22.882  25.547  1.00  0.00     0.010 A 
ATOM     35  C   UNL A   1      43.643  23.392  26.846  1.00  0.00    -0.014 A 
BRANCH  35  36
ATOM     36  C   UNL A   1      44.141  24.770  27.071  1.00  0.00     0.031 A 
ATOM     37  C   UNL A   1      43.189  25.813  27.594  1.00  0.00     0.074 A 
ATOM     38  C   UNL A   1      45.435  25.076  26.868  1.00  0.00     0.049 A 
ATOM     39  N   UNL A   1      43.415  27.065  27.893  1.00  0.00    -0.248 NA
ATOM     40  C   UNL A   1      41.796  25.386  27.811  1.00  0.00     0.031 C 
ATOM     41  C   UNL A   1      46.453  24.148  26.380  1.00  0.00     0.029 A 
ATOM     42  N   UNL A   1      46.108  26.259  27.037  1.00  0.00    -0.354 N 
ATOM     43  C   UNL A   1      42.193  27.582  28.307  1.00  0.00     0.074 A 
ATOM     44  C   UNL A   1      41.224  26.514  28.207  1.00  0.00     0.031 C 
ATOM     45  C   UNL A   1      47.621  24.804  26.269  1.00  0.00     0.029 A 
ATOM     46  C   UNL A   1      47.428  26.200  26.656  1.00  0.00     0.049 A 
ATOM     47  H   UNL A   1      45.687  27.073  27.397  1.00  0.00     0.167 HD
ATOM     48  C   UNL A   1      41.907  28.831  28.748  1.00  0.00     0.034 A 
ATOM     49  C   UNL A   1      48.365  27.166  26.609  1.00  0.00     0.034 A 
ATOM     50  C   UNL A   1      42.877  29.884  28.870  1.00  0.00     0.049 A 
ATOM     51  C   UNL A   1      48.015  28.554  27.082  1.00  0.00     0.074 A 
ATOM     52  C   UNL A   1      42.695  31.169  29.347  1.00  0.00     0.029 A 
ATOM     53  N   UNL A   1      44.209  29.778  28.500  1.00  0.00    -0.354 N 
ATOM     54  N   UNL A   1      46.883  28.997  27.574  1.00  0.00    -0.248 NA
ATOM     55  C   UNL A   1      49.081  29.565  27.027  1.00  0.00     0.031 C 
ATOM     56  C   UNL A   1      43.912  31.852  29.238  1.00  0.00     0.029 A 
ATOM     57  C   UNL A   1      44.858  30.979  28.725  1.00  0.00     0.049 A 
ATOM     58  H   UNL A   1      44.630  28.968  28.133  1.00  0.00     0.167 HD
ATOM     59  C   UNL A   1      47.111  30.324  27.922  1.00  0.00     0.074 A 
ATOM     60  C   UNL A   1      48.495  30.608  27.600  1.00  0.00     0.031 C 
ATOM     61  C   UNL A   1      46.251  31.231  28.450  1.00  0.00     0.034 A 
BRANCH  48  62
ATOM     62  C   UNL A   1      40.484  29.122  29.150  1.00  0.00     0.023 A 
ATOM     63  C   UNL A   1      39.540  29.492  28.171  1.00  0.00     0.012 A 
ATOM     64  C   UNL A   1      40.069  28.974  30.488  1.00  0.00     0.148 A 
ATOM     65  C   UNL A   1      38.213  29.741  28.521  1.00  0.00     0.002 A 
ATOM     66  C   UNL A   1      38.736  29.179  30.823  1.00  0.00     0.091 A 
ATOM     67  F   UNL A   1      40.987  28.644  31.409  1.00  0.00    -0.205 F 
ATOM     68  C   UNL A   1      37.810  29.574  29.843  1.00  0.00     0.022 A 
BRANCH  66  69
ATOM     69  S   UNL A   1      38.104  28.916  32.483  1.00  0.00     0.127 S 
ATOM     70  O   UNL A   1      38.959  29.803  33.269  1.00  0.00    -0.237 OA
ATOM     71  O   UNL A   1      36.716  29.363  32.358  1.00  0.00    -0.237 OA
ATOM     72  O   UNL A   1      38.262  27.495  32.753  1.00  0.00    -0.744 OA
ENDBRANCH  66  69
ENDBRANCH  48  62
BRANCH  49  73
ATOM     73  C   UNL A   1      49.737  26.848  26.120  1.00  0.00     0.023 A 
ATOM     74  C   UNL A   1      50.643  26.176  26.962  1.00  0.00     0.012 A 
ATOM     75  C   UNL A   1      50.138  27.192  24.813  1.00  0.00     0.148 A 
ATOM     76  C   UNL A   1      51.934  25.879  26.523  1.00  0.00     0.002 A 
ATOM     77  C   UNL A   1      51.406  26.841  24.363  1.00  0.00     0.091 A 
ATOM     78  F   UNL A   1      49.268  27.849  24.034  1.00  0.00    -0.205 F 
ATOM     79  C   UNL A   1      52.311  26.201  25.222  1.00  0.00     0.022 A 
BRANCH  77  80
ATOM     80  S   UNL A   1      51.926  27.097  22.664  1.00  0.00     0.127 S 
ATOM     81  O   UNL A   1      52.406  28.476  22.702  1.00  0.00    -0.237 OA
ATOM     82  O   UNL A   1      52.971  26.084  22.512  1.00  0.00    -0.237 OA
ATOM     83  O   UNL A   1      50.741  26.861  21.850  1.00  0.00    -0.744 OA
ENDBRANCH  77  80
ENDBRANCH  49  73
BRANCH  61  84
ATOM     84  C   UNL A   1      46.781  32.607  28.757  1.00  0.00     0.023 A 
ATOM     85  C   UNL A   1      47.316  32.886  30.031  1.00  0.00     0.012 A 
ATOM     86  C   UNL A   1      46.824  33.598  27.757  1.00  0.00     0.148 A 
ATOM     87  C   UNL A   1      47.854  34.142  30.312  1.00  0.00     0.002 A 
ATOM     88  C   UNL A   1      47.407  34.829  28.029  1.00  0.00     0.091 A 
ATOM     89  F   UNL A   1      46.295  33.318  26.556  1.00  0.00    -0.205 F 
ATOM     90  C   UNL A   1      47.911  35.107  29.309  1.00  0.00     0.022 A 
BRANCH  88  91
ATOM     91  S   UNL A   1      47.614  36.097  26.772  1.00  0.00     0.127 S 
ATOM     92  O   UNL A   1      48.042  35.306  25.621  1.00  0.00    -0.237 OA
ATOM     93  O   UNL A   1      46.262  36.648  26.664  1.00  0.00    -0.237 OA
ATOM     94  O   UNL A   1      48.605  37.025  27.299  1.00  0.00    -0.744 OA
ENDBRANCH  88  91
ENDBRANCH  61  84
ENDBRANCH  35  36
ENDBRANCH  28  30
ENDBRANCH  27  28
ENDBRANCH  26  27
ENDBRANCH  25  26
ENDBRANCH  24  25
ENDBRANCH   1  24
TORSDOF 21
ENDMDL
MODEL 2
REMARK VINA RESULT:     -10.5      1.912      8.105
REMARK SMILES Cc1cc(NC(=O)CC2(CC(=O)OCCOCCOC(=O)c3ccc(-c4c5nc(c(-c6cccc(S(=O)(=O)[O-])c6F)c6ccc([nH]6)c(-c6cccc(S(=O)(=O)[O-])c6F)c6nc(c(-c7cccc(S(=O)(=O)[O-])c7F)c7ccc4[nH]7)C=C6)C=C5)cc3)CCCC2)ccn1
REMARK SMILES IDX 15 1 14 2 13 3 11 4 12 5 10 6 9 7 85 8 88 9 86 10 87 11 8 12
REMARK SMILES IDX 6 13 5 14 7 16 4 17 1 18 2 19 3 20 91 21 90 22 89 23 16 24
REMARK SMILES IDX 17 25 18 26 19 27 20 28 21 29 22 30 23 31 84 32 24 33 83 34
REMARK SMILES IDX 25 35 26 36 27 37 77 38 28 39 82 40 76 41 78 42 29 43 81 44
REMARK SMILES IDX 75 45 74 46 30 48 62 49 42 50 61 51 43 52 46 53 60 54 79 55
REMARK SMILES IDX 44 56 45 57 59 59 80 60 47 61 31 62 32 63 40 64 33 65 35 66
REMARK SMILES IDX 41 67 34 68 36 69 37 70 38 71 39 72 63 73 64 74 72 75 65 76
REMARK SMILES IDX 67 77 73 78 66 79 68 80 69 81 70 82 71 83 48 84 49 85 57 86
REMARK SMILES IDX 50 87 52 88 58 89 51 90 53 91 54 92 55 93 56 94
REMARK H PARENT 5 15 78 47 46 58
REMARK Flexibility Score: inf
ROOT
ATOM      1  C   UNL A   1      36.845  22.144  24.012  1.00  0.00     0.202 C 
ENDROOT
BRANCH   1   2
ATOM      2  C   UNL A   1      35.612  22.813  23.390  1.00  0.00     0.261 C 
BRANCH   2   3
ATOM      3  O   UNL A   1      34.819  23.534  24.362  1.00  0.00    -0.463 OA
BRANCH   3   4
ATOM      4  C   UNL A   1      34.264  24.702  23.946  1.00  0.00     0.306 C 
ATOM      5  O   UNL A   1      34.018  24.977  22.778  1.00  0.00    -0.252 OA
BRANCH   4   6
ATOM      6  C   UNL A   1      34.071  25.701  25.072  1.00  0.00     0.130 C 
BRANCH   6   7
ATOM      7  C   UNL A   1      32.729  26.476  25.260  1.00  0.00    -0.011 C 
ATOM      8  C   UNL A   1      32.858  27.782  24.445  1.00  0.00     0.008 C 
ATOM      9  C   UNL A   1      32.559  27.063  26.681  1.00  0.00     0.008 C 
ATOM     10  C   UNL A   1      33.685  28.734  25.304  1.00  0.00     0.001 C 
ATOM     11  C   UNL A   1      33.447  28.302  26.746  1.00  0.00     0.001 C 
BRANCH   7  12
ATOM     12  C   UNL A   1      31.486  25.618  24.911  1.00  0.00     0.108 C 
BRANCH  12  13
ATOM     13  C   UNL A   1      30.631  25.027  26.009  1.00  0.00     0.224 C 
ATOM     14  N   UNL A   1      30.896  23.845  26.626  1.00  0.00    -0.326 N 
ATOM     15  H   UNL A   1      30.208  23.588  27.282  1.00  0.00     0.169 HD
ATOM     16  O   UNL A   1      29.629  25.643  26.394  1.00  0.00    -0.275 OA
BRANCH  14  17
ATOM     17  C   UNL A   1      31.941  22.914  26.526  1.00  0.00     0.044 A 
ATOM     18  C   UNL A   1      32.499  19.858  24.376  1.00  0.00     0.067 C 
ATOM     19  C   UNL A   1      32.705  20.934  25.399  1.00  0.00     0.039 A 
ATOM     20  C   UNL A   1      31.843  22.021  25.457  1.00  0.00     0.049 A 
ATOM     21  N   UNL A   1      33.679  20.734  26.313  1.00  0.00    -0.261 NA
ATOM     22  C   UNL A   1      33.807  21.651  27.293  1.00  0.00     0.113 A 
ATOM     23  C   UNL A   1      32.981  22.756  27.433  1.00  0.00     0.046 A 
ENDBRANCH  14  17
ENDBRANCH  12  13
ENDBRANCH   7  12
ENDBRANCH   6   7
ENDBRANCH   4   6
ENDBRANCH   3   4
ENDBRANCH   2   3
ENDBRANCH   1   2
BRANCH   1  24
ATOM     24  O   UNL A   1      36.760  21.810  25.402  1.00  0.00    -0.374 OA
BRANCH  24  25
ATOM     25  C   UNL A   1      37.987  21.876  26.122  1.00  0.00     0.202 C 
BRANCH  25  26
ATOM     26  C   UNL A   1      39.181  21.161  25.481  1.00  0.00     0.261 C 
BRANCH  26  27
ATOM     27  O   UNL A   1      39.720  20.157  26.359  1.00  0.00    -0.460 OA
BRANCH  27  28
ATOM     28  C   UNL A   1      41.056  19.979  26.240  1.00  0.00     0.338 C 
ATOM     29  O   UNL A   1      41.631  18.990  25.794  1.00  0.00    -0.246 OA
BRANCH  28  30
ATOM     30  C   UNL A   1      41.774  21.227  26.546  1.00  0.00     0.060 A 
ATOM     31  C   UNL A   1      41.939  21.541  27.901  1.00  0.00     0.016 A 
ATOM     32  C   UNL A   1      42.205  22.109  25.553  1.00  0.00     0.016 A 
ATOM     33  C   UNL A   1      42.470  22.772  28.271  1.00  0.00     0.010 A 
ATOM     34  C   UNL A   1      42.735  23.350  25.929  1.00  0.00     0.010 A 
ATOM     35  C   UNL A   1      42.823  23.704  27.288  1.00  0.00    -0.014 A 
BRANCH  35  36
ATOM     36  C   UNL A   1      43.118  25.097  27.702  1.00  0.00     0.031 A 
ATOM     37  C   UNL A   1      44.527  25.612  27.575  1.00  0.00     0.074 A 
ATOM     38  C   UNL A   1      42.136  25.911  28.130  1.00  0.00     0.049 A 
ATOM     39  N   UNL A   1      45.003  26.799  27.844  1.00  0.00    -0.248 NA
ATOM     40  C   UNL A   1      45.535  24.660  27.076  1.00  0.00     0.031 C 
ATOM     41  C   UNL A   1      40.733  25.531  28.279  1.00  0.00     0.029 A 
ATOM     42  N   UNL A   1      42.177  27.223  28.528  1.00  0.00    -0.354 N 
ATOM     43  C   UNL A   1      46.364  26.732  27.574  1.00  0.00     0.074 A 
ATOM     44  C   UNL A   1      46.645  25.384  27.133  1.00  0.00     0.031 C 
ATOM     45  C   UNL A   1      40.047  26.584  28.757  1.00  0.00     0.029 A 
ATOM     46  C   UNL A   1      40.965  27.701  28.969  1.00  0.00     0.049 A 
ATOM     47  H   UNL A   1      42.995  27.770  28.502  1.00  0.00     0.167 HD
ATOM     48  C   UNL A   1      47.296  27.711  27.667  1.00  0.00     0.034 A 
ATOM     49  C   UNL A   1      40.640  28.897  29.497  1.00  0.00     0.034 A 
ATOM     50  C   UNL A   1      47.011  29.057  28.081  1.00  0.00     0.049 A 
ATOM     51  C   UNL A   1      41.701  29.962  29.613  1.00  0.00     0.074 A 
ATOM     52  C   UNL A   1      47.877  30.132  28.166  1.00  0.00     0.029 A 
ATOM     53  N   UNL A   1      45.767  29.512  28.493  1.00  0.00    -0.354 N 
ATOM     54  N   UNL A   1      42.960  29.916  29.249  1.00  0.00    -0.248 NA
ATOM     55  C   UNL A   1      41.287  31.254  30.179  1.00  0.00     0.031 C 
ATOM     56  C   UNL A   1      47.163  31.231  28.658  1.00  0.00     0.029 A 
ATOM     57  C   UNL A   1      45.845  30.846  28.846  1.00  0.00     0.049 A 
ATOM     58  H   UNL A   1      44.950  28.964  28.527  1.00  0.00     0.167 HD
ATOM     59  C   UNL A   1      43.478  31.181  29.506  1.00  0.00     0.074 A 
ATOM     60  C   UNL A   1      42.391  31.976  30.040  1.00  0.00     0.031 C 
ATOM     61  C   UNL A   1      44.741  31.641  29.326  1.00  0.00     0.034 A 
BRANCH  48  62
ATOM     62  C   UNL A   1      48.714  27.365  27.295  1.00  0.00     0.023 A 
ATOM     63  C   UNL A   1      49.555  26.742  28.239  1.00  0.00     0.012 A 
ATOM     64  C   UNL A   1      49.197  27.606  25.993  1.00  0.00     0.148 A 
ATOM     65  C   UNL A   1      50.863  26.391  27.904  1.00  0.00     0.002 A 
ATOM     66  C   UNL A   1      50.486  27.213  25.652  1.00  0.00     0.091 A 
ATOM     67  F   UNL A   1      48.390  28.221  25.116  1.00  0.00    -0.205 F 
ATOM     68  C   UNL A   1      51.324  26.617  26.610  1.00  0.00     0.022 A 
BRANCH  66  69
ATOM     69  S   UNL A   1      51.144  27.392  23.991  1.00  0.00     0.127 S 
ATOM     70  O   UNL A   1      52.397  26.645  24.088  1.00  0.00    -0.237 OA
ATOM     71  O   UNL A   1      50.112  26.746  23.180  1.00  0.00    -0.237 OA
ATOM     72  O   UNL A   1      51.286  28.823  23.766  1.00  0.00    -0.744 OA
ENDBRANCH  66  69
ENDBRANCH  48  62
BRANCH  49  73
ATOM     73  C   UNL A   1      39.239  29.161  29.932  1.00  0.00     0.023 A 
ATOM     74  C   UNL A   1      38.763  28.607  31.136  1.00  0.00     0.012 A 
ATOM     75  C   UNL A   1      38.384  29.978  29.165  1.00  0.00     0.148 A 
ATOM     76  C   UNL A   1      37.450  28.837  31.553  1.00  0.00     0.002 A 
ATOM     77  C   UNL A   1      37.098  30.249  29.616  1.00  0.00     0.091 A 
ATOM     78  F   UNL A   1      38.850  30.479  28.013  1.00  0.00    -0.205 F 
ATOM     79  C   UNL A   1      36.623  29.665  30.800  1.00  0.00     0.022 A 
BRANCH  77  80
ATOM     80  S   UNL A   1      36.012  31.410  28.780  1.00  0.00     0.127 S 
ATOM     81  O   UNL A   1      36.848  32.606  28.711  1.00  0.00    -0.237 OA
ATOM     82  O   UNL A   1      35.785  30.742  27.499  1.00  0.00    -0.237 OA
ATOM     83  O   UNL A   1      34.826  31.514  29.620  1.00  0.00    -0.744 OA
ENDBRANCH  77  80
ENDBRANCH  49  73
BRANCH  61  84
ATOM     84  C   UNL A   1      45.020  33.081  29.667  1.00  0.00     0.023 A 
ATOM     85  C   UNL A   1      45.478  33.424  30.955  1.00  0.00     0.012 A 
ATOM     86  C   UNL A   1      44.908  34.084  28.684  1.00  0.00     0.148 A 
ATOM     87  C   UNL A   1      45.786  34.747  31.268  1.00  0.00     0.002 A 
ATOM     88  C   UNL A   1      45.264  35.392  28.989  1.00  0.00     0.091 A 
ATOM     89  F   UNL A   1      44.455  33.741  27.469  1.00  0.00    -0.205 F 
ATOM     90  C   UNL A   1      45.692  35.728  30.283  1.00  0.00     0.022 A 
BRANCH  88  91
ATOM     91  S   UNL A   1      45.269  36.701  27.758  1.00  0.00     0.127 S 
ATOM     92  O   UNL A   1      44.126  37.508  28.178  1.00  0.00    -0.237 OA
ATOM     93  O   UNL A   1      46.573  37.329  27.979  1.00  0.00    -0.237 OA
ATOM     94  O   UNL A   1      45.128  36.039  26.468  1.00  0.00    -0.744 OA
ENDBRANCH  88  91
ENDBRANCH  61  84
ENDBRANCH  35  36
ENDBRANCH  28  30
ENDBRANCH  27  28
ENDBRANCH  26  27
ENDBRANCH  25  26
ENDBRANCH  24  25
ENDBRANCH   1  24
TORSDOF 21
ENDMDL
MODEL 3
REMARK VINA RESULT:     -10.0      5.868     11.202
REMARK SMILES Cc1cc(NC(=O)CC2(CC(=O)OCCOCCOC(=O)c3ccc(-c4c5nc(c(-c6cccc(S(=O)(=O)[O-])c6F)c6ccc([nH]6)c(-c6cccc(S(=O)(=O)[O-])c6F)c6nc(c(-c7cccc(S(=O)(=O)[O-])c7F)c7ccc4[nH]7)C=C6)C=C5)cc3)CCCC2)ccn1
REMARK SMILES IDX 15 1 14 2 13 3 11 4 12 5 10 6 9 7 85 8 88 9 86 10 87 11 8 12
REMARK SMILES IDX 6 13 5 14 7 16 4 17 1 18 2 19 3 20 91 21 90 22 89 23 16 24
REMARK SMILES IDX 17 25 18 26 19 27 20 28 21 29 22 30 23 31 84 32 24 33 83 34
REMARK SMILES IDX 25 35 26 36 27 37 77 38 28 39 82 40 76 41 78 42 29 43 81 44
REMARK SMILES IDX 75 45 74 46 30 48 62 49 42 50 61 51 43 52 46 53 60 54 79 55
REMARK SMILES IDX 44 56 45 57 59 59 80 60 47 61 31 62 32 63 40 64 33 65 35 66
REMARK SMILES IDX 41 67 34 68 36 69 37 70 38 71 39 72 63 73 64 74 72 75 65 76
REMARK SMILES IDX 67 77 73 78 66 79 68 80 69 81 70 82 71 83 48 84 49 85 57 86
REMARK SMILES IDX 50 87 52 88 58 89 51 90 53 91 54 92 55 93 56 94
REMARK H PARENT 5 15 78 47 46 58
REMARK Flexibility Score: inf
ROOT
ATOM      1  C   UNL A   1      32.621  29.887  26.505  1.00  0.00     0.202 C 
ENDROOT
BRANCH   1   2
ATOM      2  C   UNL A   1      32.491  28.627  25.639  1.00  0.00     0.261 C 
BRANCH   2   3
ATOM      3  O   UNL A   1      32.704  27.409  26.392  1.00  0.00    -0.463 OA
BRANCH   3   4
ATOM      4  C   UNL A   1      33.337  26.398  25.743  1.00  0.00     0.306 C 
ATOM      5  O   UNL A   1      34.167  26.553  24.856  1.00  0.00    -0.252 OA
BRANCH   4   6
ATOM      6  C   UNL A   1      32.834  25.025  26.151  1.00  0.00     0.130 C 
BRANCH   6   7
ATOM      7  C   UNL A   1      33.481  23.716  25.600  1.00  0.00    -0.011 C 
ATOM      8  C   UNL A   1      32.505  22.567  25.938  1.00  0.00     0.008 C 
ATOM      9  C   UNL A   1      34.719  23.262  26.407  1.00  0.00     0.008 C 
ATOM     10  C   UNL A   1      32.747  22.229  27.407  1.00  0.00     0.001 C 
ATOM     11  C   UNL A   1      34.191  22.627  27.690  1.00  0.00     0.001 C 
BRANCH   7  12
ATOM     12  C   UNL A   1      33.860  23.820  24.100  1.00  0.00     0.108 C 
BRANCH  12  13
ATOM     13  C   UNL A   1      32.932  23.277  23.037  1.00  0.00     0.224 C 
ATOM     14  N   UNL A   1      31.864  23.957  22.541  1.00  0.00    -0.326 N 
ATOM     15  H   UNL A   1      31.340  23.435  21.892  1.00  0.00     0.169 HD
ATOM     16  O   UNL A   1      33.143  22.153  22.565  1.00  0.00    -0.275 OA
BRANCH  14  17
ATOM     17  C   UNL A   1      31.350  25.245  22.760  1.00  0.00     0.044 A 
ATOM     18  C   UNL A   1      28.124  26.534  24.244  1.00  0.00     0.067 C 
ATOM     19  C   UNL A   1      29.479  26.494  23.604  1.00  0.00     0.039 A 
ATOM     20  C   UNL A   1      30.178  25.297  23.517  1.00  0.00     0.049 A 
ATOM     21  N   UNL A   1      29.919  27.633  23.028  1.00  0.00    -0.261 NA
ATOM     22  C   UNL A   1      31.094  27.578  22.368  1.00  0.00     0.113 A 
ATOM     23  C   UNL A   1      31.848  26.423  22.220  1.00  0.00     0.046 A 
ENDBRANCH  14  17
ENDBRANCH  12  13
ENDBRANCH   7  12
ENDBRANCH   6   7
ENDBRANCH   4   6
ENDBRANCH   3   4
ENDBRANCH   2   3
ENDBRANCH   1   2
BRANCH   1  24
ATOM     24  O   UNL A   1      33.946  30.265  26.893  1.00  0.00    -0.374 OA
BRANCH  24  25
ATOM     25  C   UNL A   1      34.030  31.378  27.777  1.00  0.00     0.202 C 
BRANCH  25  26
ATOM     26  C   UNL A   1      33.018  32.503  27.538  1.00  0.00     0.261 C 
BRANCH  26  27
ATOM     27  O   UNL A   1      33.673  33.780  27.432  1.00  0.00    -0.460 OA
BRANCH  27  28
ATOM     28  C   UNL A   1      33.567  34.548  28.541  1.00  0.00     0.338 C 
ATOM     29  O   UNL A   1      32.645  35.307  28.826  1.00  0.00    -0.246 OA
BRANCH  28  30
ATOM     30  C   UNL A   1      34.637  34.224  29.499  1.00  0.00     0.060 A 
ATOM     31  C   UNL A   1      35.953  34.332  29.031  1.00  0.00     0.016 A 
ATOM     32  C   UNL A   1      34.376  33.754  30.787  1.00  0.00     0.016 A 
ATOM     33  C   UNL A   1      37.012  33.901  29.823  1.00  0.00     0.010 A 
ATOM     34  C   UNL A   1      35.444  33.315  31.580  1.00  0.00     0.010 A 
ATOM     35  C   UNL A   1      36.759  33.341  31.081  1.00  0.00    -0.014 A 
BRANCH  35  36
ATOM     36  C   UNL A   1      37.861  32.638  31.782  1.00  0.00     0.031 A 
ATOM     37  C   UNL A   1      38.532  31.476  31.100  1.00  0.00     0.074 A 
ATOM     38  C   UNL A   1      38.297  33.065  32.980  1.00  0.00     0.049 A 
ATOM     39  N   UNL A   1      39.533  30.741  31.509  1.00  0.00    -0.248 NA
ATOM     40  C   UNL A   1      38.007  31.091  29.779  1.00  0.00     0.031 C 
ATOM     41  C   UNL A   1      37.738  34.188  33.729  1.00  0.00     0.029 A 
ATOM     42  N   UNL A   1      39.306  32.591  33.781  1.00  0.00    -0.354 N 
ATOM     43  C   UNL A   1      39.740  29.794  30.514  1.00  0.00     0.074 A 
ATOM     44  C   UNL A   1      38.753  30.035  29.485  1.00  0.00     0.031 C 
ATOM     45  C   UNL A   1      38.399  34.305  34.894  1.00  0.00     0.029 A 
ATOM     46  C   UNL A   1      39.410  33.253  34.982  1.00  0.00     0.049 A 
ATOM     47  H   UNL A   1      39.897  31.849  33.522  1.00  0.00     0.167 HD
ATOM     48  C   UNL A   1      40.680  28.820  30.452  1.00  0.00     0.034 A 
ATOM     49  C   UNL A   1      40.219  33.025  36.035  1.00  0.00     0.034 A 
ATOM     50  C   UNL A   1      41.676  28.598  31.464  1.00  0.00     0.049 A 
ATOM     51  C   UNL A   1      41.240  31.919  35.952  1.00  0.00     0.074 A 
ATOM     52  C   UNL A   1      42.698  27.666  31.474  1.00  0.00     0.029 A 
ATOM     53  N   UNL A   1      41.768  29.306  32.652  1.00  0.00    -0.354 N 
ATOM     54  N   UNL A   1      41.495  31.105  34.956  1.00  0.00    -0.248 NA
ATOM     55  C   UNL A   1      42.109  31.726  37.122  1.00  0.00     0.031 C 
ATOM     56  C   UNL A   1      43.391  27.791  32.683  1.00  0.00     0.029 A 
ATOM     57  C   UNL A   1      42.821  28.824  33.409  1.00  0.00     0.049 A 
ATOM     58  H   UNL A   1      41.173  30.044  32.917  1.00  0.00     0.167 HD
ATOM     59  C   UNL A   1      42.575  30.329  35.365  1.00  0.00     0.074 A 
ATOM     60  C   UNL A   1      42.937  30.784  36.692  1.00  0.00     0.031 C 
ATOM     61  C   UNL A   1      43.203  29.323  34.707  1.00  0.00     0.034 A 
BRANCH  48  62
ATOM     62  C   UNL A   1      40.687  27.930  29.237  1.00  0.00     0.023 A 
ATOM     63  C   UNL A   1      39.758  26.875  29.135  1.00  0.00     0.012 A 
ATOM     64  C   UNL A   1      41.575  28.173  28.171  1.00  0.00     0.148 A 
ATOM     65  C   UNL A   1      39.733  26.056  28.006  1.00  0.00     0.002 A 
ATOM     66  C   UNL A   1      41.515  27.382  27.030  1.00  0.00     0.091 A 
ATOM     67  F   UNL A   1      42.467  29.166  28.297  1.00  0.00    -0.205 F 
ATOM     68  C   UNL A   1      40.603  26.316  26.951  1.00  0.00     0.022 A 
BRANCH  66  69
ATOM     69  S   UNL A   1      42.542  27.684  25.588  1.00  0.00     0.127 S 
ATOM     70  O   UNL A   1      42.230  26.524  24.755  1.00  0.00    -0.237 OA
ATOM     71  O   UNL A   1      42.006  28.952  25.090  1.00  0.00    -0.237 OA
ATOM     72  O   UNL A   1      43.911  27.754  26.076  1.00  0.00    -0.744 OA
ENDBRANCH  66  69
ENDBRANCH  48  62
BRANCH  49  73
ATOM     73  C   UNL A   1      40.113  33.880  37.252  1.00  0.00     0.023 A 
ATOM     74  C   UNL A   1      40.709  35.155  37.265  1.00  0.00     0.012 A 
ATOM     75  C   UNL A   1      39.407  33.438  38.389  1.00  0.00     0.148 A 
ATOM     76  C   UNL A   1      40.627  35.965  38.400  1.00  0.00     0.002 A 
ATOM     77  C   UNL A   1      39.281  34.273  39.493  1.00  0.00     0.091 A 
ATOM     78  F   UNL A   1      38.865  32.213  38.363  1.00  0.00    -0.205 F 
ATOM     79  C   UNL A   1      39.906  35.529  39.507  1.00  0.00     0.022 A 
BRANCH  77  80
ATOM     80  S   UNL A   1      38.259  33.848  40.907  1.00  0.00     0.127 S 
ATOM     81  O   UNL A   1      37.003  33.469  40.266  1.00  0.00    -0.237 OA
ATOM     82  O   UNL A   1      39.009  32.739  41.498  1.00  0.00    -0.237 OA
ATOM     83  O   UNL A   1      38.213  35.047  41.733  1.00  0.00    -0.744 OA
ENDBRANCH  77  80
ENDBRANCH  49  73
BRANCH  61  84
ATOM     84  C   UNL A   1      44.378  28.666  35.384  1.00  0.00     0.023 A 
ATOM     85  C   UNL A   1      44.177  27.539  36.205  1.00  0.00     0.012 A 
ATOM     86  C   UNL A   1      45.690  29.117  35.138  1.00  0.00     0.148 A 
ATOM     87  C   UNL A   1      45.261  26.893  36.798  1.00  0.00     0.002 A 
ATOM     88  C   UNL A   1      46.768  28.438  35.692  1.00  0.00     0.091 A 
ATOM     89  F   UNL A   1      45.860  30.202  34.367  1.00  0.00    -0.205 F 
ATOM     90  C   UNL A   1      46.556  27.334  36.532  1.00  0.00     0.022 A 
BRANCH  88  91
ATOM     91  S   UNL A   1      48.473  28.874  35.325  1.00  0.00     0.127 S 
ATOM     92  O   UNL A   1      48.462  28.911  33.864  1.00  0.00    -0.237 OA
ATOM     93  O   UNL A   1      48.603  30.183  35.967  1.00  0.00    -0.237 OA
ATOM     94  O   UNL A   1      49.291  27.826  35.918  1.00  0.00    -0.744 OA
ENDBRANCH  88  91
ENDBRANCH  61  84
ENDBRANCH  35  36
ENDBRANCH  28  30
ENDBRANCH  27  28
ENDBRANCH  26  27
ENDBRANCH  25  26
ENDBRANCH  24  25
ENDBRANCH   1  24
TORSDOF 21
ENDMDL
