MODEL 1
REMARK VINA RESULT:     -12.1      0.000      0.000
REMARK SMILES Cc1cc2c(=O)c3ccccc3oc2c(C(=O)OCCOCCOC(=O)c2ccc(-c3c4nc(c(-c5cccc(S(=O)(=O)[O-])c5F)c5ccc([nH]5)c(-c5cccc(S(=O)(=O)[O-])c5F)c5nc(c(-c6cccc(S(=O)(=O)[O-])c6F)c6ccc3[nH]6)C=C5)C=C4)cc2)c1C
REMARK SMILES IDX 22 1 21 2 20 3 19 4 18 5 16 6 17 7 15 8 1 9 2 10 3 11 90 12
REMARK SMILES IDX 4 13 91 14 5 15 14 16 6 17 7 18 13 19 8 20 12 21 9 22 11 23
REMARK SMILES IDX 10 24 23 25 24 26 25 27 26 28 27 29 28 30 89 31 29 32 88 33
REMARK SMILES IDX 30 34 31 35 32 36 82 37 33 38 87 39 81 40 83 41 34 42 86 43
REMARK SMILES IDX 80 44 79 45 35 47 67 48 47 49 66 50 48 51 51 52 65 53 84 54
REMARK SMILES IDX 49 55 50 56 64 58 85 59 52 60 36 61 37 62 45 63 38 64 40 65
REMARK SMILES IDX 46 66 39 67 41 68 42 69 43 70 44 71 68 72 69 73 77 74 70 75
REMARK SMILES IDX 72 76 78 77 71 78 73 79 74 80 75 81 76 82 53 83 54 84 62 85
REMARK SMILES IDX 55 86 57 87 63 88 56 89 58 90 59 91 60 92 61 93
REMARK H PARENT 83 46 51 57
REMARK Flexibility Score: inf
ROOT
ATOM      1  C   UNL A   1      31.669  30.403  26.243  1.00  0.00     0.202 C 
ENDROOT
BRANCH   1   2
ATOM      2  O   UNL A   1      32.543  30.186  25.135  1.00  0.00    -0.374 OA
BRANCH   2   3
ATOM      3  C   UNL A   1      33.427  29.066  25.188  1.00  0.00     0.202 C 
BRANCH   3   4
ATOM      4  C   UNL A   1      34.093  28.655  23.874  1.00  0.00     0.261 C 
BRANCH   4   5
ATOM      5  O   UNL A   1      34.126  27.225  23.759  1.00  0.00    -0.460 OA
BRANCH   5   6
ATOM      6  C   UNL A   1      33.512  26.708  22.671  1.00  0.00     0.342 C 
ATOM      7  O   UNL A   1      33.921  26.759  21.522  1.00  0.00    -0.246 OA
BRANCH   6   8
ATOM      8  C   UNL A   1      32.283  25.950  23.051  1.00  0.00     0.106 A 
ATOM      9  C   UNL A   1      31.090  22.675  24.693  1.00  0.00     0.044 C 
ATOM     10  C   UNL A   1      31.160  24.060  24.105  1.00  0.00    -0.046 A 
ATOM     11  C   UNL A   1      29.994  24.842  24.194  1.00  0.00     0.019 A 
ATOM     12  C   UNL A   1      32.308  24.590  23.468  1.00  0.00    -0.030 A 
ATOM     13  C   UNL A   1      29.952  26.129  23.662  1.00  0.00     0.067 A 
ATOM     14  C   UNL A   1      33.518  23.727  23.195  1.00  0.00     0.046 C 
ATOM     15  C   UNL A   1      28.712  26.917  23.731  1.00  0.00     0.200 A 
ATOM     16  C   UNL A   1      31.082  26.688  23.079  1.00  0.00     0.153 A 
ATOM     17  O   UNL A   1      27.708  26.493  24.288  1.00  0.00    -0.288 OA
ATOM     18  C   UNL A   1      28.726  28.233  23.082  1.00  0.00     0.065 A 
ATOM     19  O   UNL A   1      31.061  27.921  22.461  1.00  0.00    -0.455 OA
ATOM     20  C   UNL A   1      27.588  29.047  23.079  1.00  0.00     0.016 A 
ATOM     21  C   UNL A   1      29.895  28.643  22.450  1.00  0.00     0.138 A 
ATOM     22  C   UNL A   1      27.620  30.273  22.414  1.00  0.00     0.001 A 
ATOM     23  C   UNL A   1      29.917  29.861  21.769  1.00  0.00     0.048 A 
ATOM     24  C   UNL A   1      28.780  30.674  21.750  1.00  0.00     0.004 A 
ENDBRANCH   6   8
ENDBRANCH   5   6
ENDBRANCH   4   5
ENDBRANCH   3   4
ENDBRANCH   2   3
ENDBRANCH   1   2
BRANCH   1  25
ATOM     25  C   UNL A   1      31.633  31.806  26.861  1.00  0.00     0.261 C 
BRANCH  25  26
ATOM     26  O   UNL A   1      32.821  32.571  26.602  1.00  0.00    -0.460 OA
BRANCH  26  27
ATOM     27  C   UNL A   1      33.261  33.320  27.645  1.00  0.00     0.338 C 
ATOM     28  O   UNL A   1      32.679  34.250  28.181  1.00  0.00    -0.246 OA
BRANCH  27  29
ATOM     29  C   UNL A   1      34.496  32.716  28.182  1.00  0.00     0.060 A 
ATOM     30  C   UNL A   1      35.692  33.435  28.218  1.00  0.00     0.016 A 
ATOM     31  C   UNL A   1      34.435  31.408  28.679  1.00  0.00     0.016 A 
ATOM     32  C   UNL A   1      36.829  32.839  28.767  1.00  0.00     0.010 A 
ATOM     33  C   UNL A   1      35.574  30.816  29.225  1.00  0.00     0.010 A 
ATOM     34  C   UNL A   1      36.778  31.531  29.285  1.00  0.00    -0.014 A 
BRANCH  34  35
ATOM     35  C   UNL A   1      37.953  30.962  29.988  1.00  0.00     0.031 A 
ATOM     36  C   UNL A   1      38.304  31.368  31.389  1.00  0.00     0.074 A 
ATOM     37  C   UNL A   1      38.728  30.077  29.331  1.00  0.00     0.049 A 
ATOM     38  N   UNL A   1      39.262  30.914  32.155  1.00  0.00    -0.248 NA
ATOM     39  C   UNL A   1      37.481  32.416  32.013  1.00  0.00     0.031 C 
ATOM     40  C   UNL A   1      38.522  29.647  27.947  1.00  0.00     0.029 A 
ATOM     41  N   UNL A   1      39.842  29.385  29.733  1.00  0.00    -0.354 N 
ATOM     42  C   UNL A   1      39.168  31.621  33.346  1.00  0.00     0.074 A 
ATOM     43  C   UNL A   1      38.067  32.549  33.198  1.00  0.00     0.031 C 
ATOM     44  C   UNL A   1      39.467  28.752  27.620  1.00  0.00     0.029 A 
ATOM     45  C   UNL A   1      40.359  28.562  28.760  1.00  0.00     0.049 A 
ATOM     46  H   UNL A   1      40.234  29.470  30.631  1.00  0.00     0.167 HD
ATOM     47  C   UNL A   1      39.917  31.489  34.466  1.00  0.00     0.034 A 
ATOM     48  C   UNL A   1      41.430  27.746  28.779  1.00  0.00     0.034 A 
ATOM     49  C   UNL A   1      41.003  30.557  34.615  1.00  0.00     0.049 A 
ATOM     50  C   UNL A   1      42.244  27.621  30.034  1.00  0.00     0.074 A 
ATOM     51  C   UNL A   1      41.773  30.316  35.740  1.00  0.00     0.029 A 
ATOM     52  N   UNL A   1      41.485  29.730  33.615  1.00  0.00    -0.354 N 
ATOM     53  N   UNL A   1      42.055  28.199  31.193  1.00  0.00    -0.248 NA
ATOM     54  C   UNL A   1      43.403  26.717  29.993  1.00  0.00     0.031 C 
ATOM     55  C   UNL A   1      42.737  29.357  35.413  1.00  0.00     0.029 A 
ATOM     56  C   UNL A   1      42.550  28.985  34.092  1.00  0.00     0.049 A 
ATOM     57  H   UNL A   1      41.124  29.677  32.702  1.00  0.00     0.167 HD
ATOM     58  C   UNL A   1      43.057  27.719  32.027  1.00  0.00     0.074 A 
ATOM     59  C   UNL A   1      43.844  26.788  31.244  1.00  0.00     0.031 C 
ATOM     60  C   UNL A   1      43.306  28.034  33.320  1.00  0.00     0.034 A 
BRANCH  47  61
ATOM     61  C   UNL A   1      39.566  32.332  35.661  1.00  0.00     0.023 A 
ATOM     62  C   UNL A   1      40.014  33.668  35.711  1.00  0.00     0.012 A 
ATOM     63  C   UNL A   1      38.691  31.854  36.655  1.00  0.00     0.148 A 
ATOM     64  C   UNL A   1      39.599  34.514  36.737  1.00  0.00     0.002 A 
ATOM     65  C   UNL A   1      38.261  32.712  37.660  1.00  0.00     0.091 A 
ATOM     66  F   UNL A   1      38.284  30.578  36.586  1.00  0.00    -0.205 F 
ATOM     67  C   UNL A   1      38.716  34.040  37.704  1.00  0.00     0.022 A 
BRANCH  65  68
ATOM     68  S   UNL A   1      37.086  32.220  38.926  1.00  0.00     0.127 S 
ATOM     69  O   UNL A   1      37.604  32.929  40.097  1.00  0.00    -0.237 OA
ATOM     70  O   UNL A   1      35.829  32.749  38.399  1.00  0.00    -0.237 OA
ATOM     71  O   UNL A   1      37.159  30.768  39.004  1.00  0.00    -0.744 OA
ENDBRANCH  65  68
ENDBRANCH  47  61
BRANCH  48  72
ATOM     72  C   UNL A   1      41.744  26.936  27.572  1.00  0.00     0.023 A 
ATOM     73  C   UNL A   1      42.360  27.553  26.469  1.00  0.00     0.012 A 
ATOM     74  C   UNL A   1      41.504  25.548  27.547  1.00  0.00     0.148 A 
ATOM     75  C   UNL A   1      42.731  26.801  25.353  1.00  0.00     0.002 A 
ATOM     76  C   UNL A   1      41.909  24.799  26.450  1.00  0.00     0.091 A 
ATOM     77  F   UNL A   1      40.918  24.989  28.615  1.00  0.00    -0.205 F 
ATOM     78  C   UNL A   1      42.515  25.424  25.348  1.00  0.00     0.022 A 
BRANCH  76  79
ATOM     79  S   UNL A   1      41.758  23.012  26.387  1.00  0.00     0.127 S 
ATOM     80  O   UNL A   1      42.393  22.704  25.107  1.00  0.00    -0.237 OA
ATOM     81  O   UNL A   1      42.522  22.607  27.567  1.00  0.00    -0.237 OA
ATOM     82  O   UNL A   1      40.331  22.729  26.459  1.00  0.00    -0.744 OA
ENDBRANCH  76  79
ENDBRANCH  48  72
BRANCH  60  83
ATOM     83  C   UNL A   1      44.475  27.374  34.000  1.00  0.00     0.023 A 
ATOM     84  C   UNL A   1      45.730  28.013  33.994  1.00  0.00     0.012 A 
ATOM     85  C   UNL A   1      44.298  26.196  34.752  1.00  0.00     0.148 A 
ATOM     86  C   UNL A   1      46.794  27.486  34.724  1.00  0.00     0.002 A 
ATOM     87  C   UNL A   1      45.355  25.695  35.503  1.00  0.00     0.091 A 
ATOM     88  F   UNL A   1      43.094  25.606  34.737  1.00  0.00    -0.205 F 
ATOM     89  C   UNL A   1      46.604  26.336  35.488  1.00  0.00     0.022 A 
BRANCH  87  90
ATOM     90  S   UNL A   1      45.191  24.260  36.572  1.00  0.00     0.127 S 
ATOM     91  O   UNL A   1      46.566  24.074  37.033  1.00  0.00    -0.237 OA
ATOM     92  O   UNL A   1      44.263  24.742  37.595  1.00  0.00    -0.237 OA
ATOM     93  O   UNL A   1      44.671  23.187  35.734  1.00  0.00    -0.744 OA
ENDBRANCH  87  90
ENDBRANCH  60  83
ENDBRANCH  34  35
ENDBRANCH  27  29
ENDBRANCH  26  27
ENDBRANCH  25  26
ENDBRANCH   1  25
TORSDOF 17
ENDMDL
MODEL 2
REMARK VINA RESULT:     -12.0      2.595      4.618
REMARK SMILES Cc1cc2c(=O)c3ccccc3oc2c(C(=O)OCCOCCOC(=O)c2ccc(-c3c4nc(c(-c5cccc(S(=O)(=O)[O-])c5F)c5ccc([nH]5)c(-c5cccc(S(=O)(=O)[O-])c5F)c5nc(c(-c6cccc(S(=O)(=O)[O-])c6F)c6ccc3[nH]6)C=C5)C=C4)cc2)c1C
REMARK SMILES IDX 22 1 21 2 20 3 19 4 18 5 16 6 17 7 15 8 1 9 2 10 3 11 90 12
REMARK SMILES IDX 4 13 91 14 5 15 14 16 6 17 7 18 13 19 8 20 12 21 9 22 11 23
REMARK SMILES IDX 10 24 23 25 24 26 25 27 26 28 27 29 28 30 89 31 29 32 88 33
REMARK SMILES IDX 30 34 31 35 32 36 82 37 33 38 87 39 81 40 83 41 34 42 86 43
REMARK SMILES IDX 80 44 79 45 35 47 67 48 47 49 66 50 48 51 51 52 65 53 84 54
REMARK SMILES IDX 49 55 50 56 64 58 85 59 52 60 36 61 37 62 45 63 38 64 40 65
REMARK SMILES IDX 46 66 39 67 41 68 42 69 43 70 44 71 68 72 69 73 77 74 70 75
REMARK SMILES IDX 72 76 78 77 71 78 73 79 74 80 75 81 76 82 53 83 54 84 62 85
REMARK SMILES IDX 55 86 57 87 63 88 56 89 58 90 59 91 60 92 61 93
REMARK H PARENT 83 46 51 57
REMARK Flexibility Score: inf
ROOT
ATOM      1  C   UNL A   1      31.426  28.708  24.848  1.00  0.00     0.202 C 
ENDROOT
BRANCH   1   2
ATOM      2  O   UNL A   1      31.198  27.392  25.353  1.00  0.00    -0.374 OA
BRANCH   2   3
ATOM      3  C   UNL A   1      31.554  26.285  24.525  1.00  0.00     0.202 C 
BRANCH   3   4
ATOM      4  C   UNL A   1      31.074  24.906  24.980  1.00  0.00     0.261 C 
BRANCH   4   5
ATOM      5  O   UNL A   1      32.066  23.911  24.682  1.00  0.00    -0.460 OA
BRANCH   5   6
ATOM      6  C   UNL A   1      32.584  23.260  25.747  1.00  0.00     0.342 C 
ATOM      7  O   UNL A   1      31.975  22.923  26.750  1.00  0.00    -0.246 OA
BRANCH   6   8
ATOM      8  C   UNL A   1      34.012  22.892  25.515  1.00  0.00     0.106 A 
ATOM      9  C   UNL A   1      37.622  24.121  26.069  1.00  0.00     0.044 C 
ATOM     10  C   UNL A   1      36.405  23.285  25.768  1.00  0.00    -0.046 A 
ATOM     11  C   UNL A   1      36.624  21.917  25.528  1.00  0.00     0.019 A 
ATOM     12  C   UNL A   1      35.089  23.803  25.699  1.00  0.00    -0.030 A 
ATOM     13  C   UNL A   1      35.566  21.064  25.221  1.00  0.00     0.067 A 
ATOM     14  C   UNL A   1      34.830  25.289  25.776  1.00  0.00     0.046 C 
ATOM     15  C   UNL A   1      35.820  19.643  24.935  1.00  0.00     0.200 A 
ATOM     16  C   UNL A   1      34.261  21.540  25.199  1.00  0.00     0.153 A 
ATOM     17  O   UNL A   1      36.944  19.163  25.001  1.00  0.00    -0.288 OA
ATOM     18  C   UNL A   1      34.663  18.828  24.547  1.00  0.00     0.065 A 
ATOM     19  O   UNL A   1      33.194  20.754  24.814  1.00  0.00    -0.455 OA
ATOM     20  C   UNL A   1      34.809  17.472  24.238  1.00  0.00     0.016 A 
ATOM     21  C   UNL A   1      33.418  19.445  24.473  1.00  0.00     0.138 A 
ATOM     22  C   UNL A   1      33.697  16.736  23.828  1.00  0.00     0.001 A 
ATOM     23  C   UNL A   1      32.312  18.710  24.044  1.00  0.00     0.048 A 
ATOM     24  C   UNL A   1      32.452  17.357  23.720  1.00  0.00     0.004 A 
ENDBRANCH   6   8
ENDBRANCH   5   6
ENDBRANCH   4   5
ENDBRANCH   3   4
ENDBRANCH   2   3
ENDBRANCH   1   2
BRANCH   1  25
ATOM     25  C   UNL A   1      31.600  29.844  25.865  1.00  0.00     0.261 C 
BRANCH  25  26
ATOM     26  O   UNL A   1      32.911  30.430  25.841  1.00  0.00    -0.460 OA
BRANCH  26  27
ATOM     27  C   UNL A   1      33.154  31.331  26.827  1.00  0.00     0.338 C 
ATOM     28  O   UNL A   1      32.393  32.190  27.244  1.00  0.00    -0.246 OA
BRANCH  27  29
ATOM     29  C   UNL A   1      34.438  30.998  27.476  1.00  0.00     0.060 A 
ATOM     30  C   UNL A   1      35.325  32.000  27.873  1.00  0.00     0.016 A 
ATOM     31  C   UNL A   1      34.736  29.649  27.705  1.00  0.00     0.016 A 
ATOM     32  C   UNL A   1      36.512  31.644  28.516  1.00  0.00     0.010 A 
ATOM     33  C   UNL A   1      35.926  29.297  28.345  1.00  0.00     0.010 A 
ATOM     34  C   UNL A   1      36.817  30.293  28.767  1.00  0.00    -0.014 A 
BRANCH  34  35
ATOM     35  C   UNL A   1      38.012  29.935  29.571  1.00  0.00     0.031 A 
ATOM     36  C   UNL A   1      38.234  30.498  30.944  1.00  0.00     0.074 A 
ATOM     37  C   UNL A   1      38.923  29.103  29.030  1.00  0.00     0.049 A 
ATOM     38  N   UNL A   1      39.196  30.233  31.789  1.00  0.00    -0.248 NA
ATOM     39  C   UNL A   1      37.257  31.483  31.434  1.00  0.00     0.031 C 
ATOM     40  C   UNL A   1      38.847  28.537  27.682  1.00  0.00     0.029 A 
ATOM     41  N   UNL A   1      40.090  28.592  29.542  1.00  0.00    -0.354 N 
ATOM     42  C   UNL A   1      38.951  31.019  32.906  1.00  0.00     0.074 A 
ATOM     43  C   UNL A   1      37.756  31.787  32.627  1.00  0.00     0.031 C 
ATOM     44  C   UNL A   1      39.911  27.743  27.479  1.00  0.00     0.029 A 
ATOM     45  C   UNL A   1      40.755  27.762  28.671  1.00  0.00     0.049 A 
ATOM     46  H   UNL A   1      40.418  28.800  30.446  1.00  0.00     0.167 HD
ATOM     47  C   UNL A   1      39.648  31.077  34.066  1.00  0.00     0.034 A 
ATOM     48  C   UNL A   1      41.913  27.091  28.810  1.00  0.00     0.034 A 
ATOM     49  C   UNL A   1      40.828  30.303  34.346  1.00  0.00     0.049 A 
ATOM     50  C   UNL A   1      42.667  27.174  30.107  1.00  0.00     0.074 A 
ATOM     51  C   UNL A   1      41.559  30.255  35.521  1.00  0.00     0.029 A 
ATOM     52  N   UNL A   1      41.462  29.462  33.447  1.00  0.00    -0.354 N 
ATOM     53  N   UNL A   1      42.345  27.819  31.200  1.00  0.00    -0.248 NA
ATOM     54  C   UNL A   1      43.927  26.422  30.198  1.00  0.00     0.031 C 
ATOM     55  C   UNL A   1      42.648  29.401  35.325  1.00  0.00     0.029 A 
ATOM     56  C   UNL A   1      42.581  28.900  34.036  1.00  0.00     0.049 A 
ATOM     57  H   UNL A   1      41.160  29.289  32.527  1.00  0.00     0.167 HD
ATOM     58  C   UNL A   1      43.351  27.539  32.117  1.00  0.00     0.074 A 
ATOM     59  C   UNL A   1      44.286  26.652  31.456  1.00  0.00     0.031 C 
ATOM     60  C   UNL A   1      43.488  27.989  33.386  1.00  0.00     0.034 A 
BRANCH  47  61
ATOM     61  C   UNL A   1      39.131  31.965  35.163  1.00  0.00     0.023 A 
ATOM     62  C   UNL A   1      38.187  31.449  36.073  1.00  0.00     0.012 A 
ATOM     63  C   UNL A   1      39.672  33.248  35.374  1.00  0.00     0.148 A 
ATOM     64  C   UNL A   1      37.784  32.200  37.176  1.00  0.00     0.002 A 
ATOM     65  C   UNL A   1      39.285  33.980  36.491  1.00  0.00     0.091 A 
ATOM     66  F   UNL A   1      40.565  33.717  34.490  1.00  0.00    -0.205 F 
ATOM     67  C   UNL A   1      38.341  33.459  37.390  1.00  0.00     0.022 A 
BRANCH  65  68
ATOM     68  S   UNL A   1      39.975  35.589  36.889  1.00  0.00     0.127 S 
ATOM     69  O   UNL A   1      39.263  35.915  38.125  1.00  0.00    -0.237 OA
ATOM     70  O   UNL A   1      41.393  35.280  37.065  1.00  0.00    -0.237 OA
ATOM     71  O   UNL A   1      39.670  36.453  35.757  1.00  0.00    -0.744 OA
ENDBRANCH  65  68
ENDBRANCH  47  61
BRANCH  48  72
ATOM     72  C   UNL A   1      42.389  26.229  27.696  1.00  0.00     0.023 A 
ATOM     73  C   UNL A   1      43.357  26.726  26.804  1.00  0.00     0.012 A 
ATOM     74  C   UNL A   1      41.944  24.899  27.567  1.00  0.00     0.148 A 
ATOM     75  C   UNL A   1      43.872  25.913  25.794  1.00  0.00     0.002 A 
ATOM     76  C   UNL A   1      42.489  24.083  26.583  1.00  0.00     0.091 A 
ATOM     77  F   UNL A   1      41.024  24.453  28.433  1.00  0.00    -0.205 F 
ATOM     78  C   UNL A   1      43.447  24.590  25.690  1.00  0.00     0.022 A 
BRANCH  76  79
ATOM     79  S   UNL A   1      42.073  22.344  26.426  1.00  0.00     0.127 S 
ATOM     80  O   UNL A   1      42.759  21.984  25.186  1.00  0.00    -0.237 OA
ATOM     81  O   UNL A   1      42.666  21.786  27.642  1.00  0.00    -0.237 OA
ATOM     82  O   UNL A   1      40.619  22.285  26.374  1.00  0.00    -0.744 OA
ENDBRANCH  76  79
ENDBRANCH  48  72
BRANCH  60  83
ATOM     83  C   UNL A   1      44.689  27.540  34.174  1.00  0.00     0.023 A 
ATOM     84  C   UNL A   1      45.828  28.365  34.228  1.00  0.00     0.012 A 
ATOM     85  C   UNL A   1      44.636  26.374  34.961  1.00  0.00     0.148 A 
ATOM     86  C   UNL A   1      46.902  28.033  35.052  1.00  0.00     0.002 A 
ATOM     87  C   UNL A   1      45.697  26.066  35.806  1.00  0.00     0.091 A 
ATOM     88  F   UNL A   1      43.541  25.604  34.887  1.00  0.00    -0.205 F 
ATOM     89  C   UNL A   1      46.831  26.892  35.850  1.00  0.00     0.022 A 
BRANCH  87  90
ATOM     90  S   UNL A   1      45.673  24.657  36.920  1.00  0.00     0.127 S 
ATOM     91  O   UNL A   1      44.609  25.032  37.850  1.00  0.00    -0.237 OA
ATOM     92  O   UNL A   1      45.335  23.556  36.018  1.00  0.00    -0.237 OA
ATOM     93  O   UNL A   1      47.004  24.579  37.505  1.00  0.00    -0.744 OA
ENDBRANCH  87  90
ENDBRANCH  60  83
ENDBRANCH  34  35
ENDBRANCH  27  29
ENDBRANCH  26  27
ENDBRANCH  25  26
ENDBRANCH   1  25
TORSDOF 17
ENDMDL
MODEL 3
REMARK VINA RESULT:     -12.0      5.393     10.696
REMARK SMILES Cc1cc2c(=O)c3ccccc3oc2c(C(=O)OCCOCCOC(=O)c2ccc(-c3c4nc(c(-c5cccc(S(=O)(=O)[O-])c5F)c5ccc([nH]5)c(-c5cccc(S(=O)(=O)[O-])c5F)c5nc(c(-c6cccc(S(=O)(=O)[O-])c6F)c6ccc3[nH]6)C=C5)C=C4)cc2)c1C
REMARK SMILES IDX 22 1 21 2 20 3 19 4 18 5 16 6 17 7 15 8 1 9 2 10 3 11 90 12
REMARK SMILES IDX 4 13 91 14 5 15 14 16 6 17 7 18 13 19 8 20 12 21 9 22 11 23
REMARK SMILES IDX 10 24 23 25 24 26 25 27 26 28 27 29 28 30 89 31 29 32 88 33
REMARK SMILES IDX 30 34 31 35 32 36 82 37 33 38 87 39 81 40 83 41 34 42 86 43
REMARK SMILES IDX 80 44 79 45 35 47 67 48 47 49 66 50 48 51 51 52 65 53 84 54
REMARK SMILES IDX 49 55 50 56 64 58 85 59 52 60 36 61 37 62 45 63 38 64 40 65
REMARK SMILES IDX 46 66 39 67 41 68 42 69 43 70 44 71 68 72 69 73 77 74 70 75
REMARK SMILES IDX 72 76 78 77 71 78 73 79 74 80 75 81 76 82 53 83 54 84 62 85
REMARK SMILES IDX 55 86 57 87 63 88 56 89 58 90 59 91 60 92 61 93
REMARK H PARENT 83 46 51 57
REMARK Flexibility Score: inf
ROOT
ATOM      1  C   UNL A   1      36.180  20.372  25.048  1.00  0.00     0.202 C 
ENDROOT
BRANCH   1   2
ATOM      2  O   UNL A   1      35.774  21.675  24.630  1.00  0.00    -0.374 OA
BRANCH   2   3
ATOM      3  C   UNL A   1      35.944  22.757  25.546  1.00  0.00     0.202 C 
BRANCH   3   4
ATOM      4  C   UNL A   1      34.700  23.586  25.867  1.00  0.00     0.261 C 
BRANCH   4   5
ATOM      5  O   UNL A   1      34.162  23.203  27.141  1.00  0.00    -0.460 OA
BRANCH   5   6
ATOM      6  C   UNL A   1      32.838  22.933  27.164  1.00  0.00     0.342 C 
ATOM      7  O   UNL A   1      32.169  22.695  28.157  1.00  0.00    -0.246 OA
BRANCH   6   8
ATOM      8  C   UNL A   1      32.235  23.062  25.805  1.00  0.00     0.106 A 
ATOM      9  C   UNL A   1      31.024  25.654  23.223  1.00  0.00     0.044 C 
ATOM     10  C   UNL A   1      31.466  24.387  23.908  1.00  0.00    -0.046 A 
ATOM     11  C   UNL A   1      31.609  23.249  23.094  1.00  0.00     0.019 A 
ATOM     12  C   UNL A   1      31.717  24.287  25.297  1.00  0.00    -0.030 A 
ATOM     13  C   UNL A   1      31.993  22.023  23.636  1.00  0.00     0.067 A 
ATOM     14  C   UNL A   1      31.408  25.432  26.231  1.00  0.00     0.046 C 
ATOM     15  C   UNL A   1      32.101  20.835  22.775  1.00  0.00     0.200 A 
ATOM     16  C   UNL A   1      32.295  21.914  24.987  1.00  0.00     0.153 A 
ATOM     17  O   UNL A   1      31.903  20.893  21.568  1.00  0.00    -0.288 OA
ATOM     18  C   UNL A   1      32.437  19.568  23.434  1.00  0.00     0.065 A 
ATOM     19  O   UNL A   1      32.593  20.706  25.583  1.00  0.00    -0.455 OA
ATOM     20  C   UNL A   1      32.543  18.382  22.701  1.00  0.00     0.016 A 
ATOM     21  C   UNL A   1      32.628  19.572  24.812  1.00  0.00     0.138 A 
ATOM     22  C   UNL A   1      32.820  17.185  23.363  1.00  0.00     0.001 A 
ATOM     23  C   UNL A   1      32.884  18.371  25.473  1.00  0.00     0.048 A 
ATOM     24  C   UNL A   1      32.978  17.178  24.750  1.00  0.00     0.004 A 
ENDBRANCH   6   8
ENDBRANCH   5   6
ENDBRANCH   4   5
ENDBRANCH   3   4
ENDBRANCH   2   3
ENDBRANCH   1   2
BRANCH   1  25
ATOM     25  C   UNL A   1      37.682  20.059  25.057  1.00  0.00     0.261 C 
BRANCH  25  26
ATOM     26  O   UNL A   1      38.499  21.210  25.326  1.00  0.00    -0.460 OA
BRANCH  26  27
ATOM     27  C   UNL A   1      39.523  20.997  26.192  1.00  0.00     0.338 C 
ATOM     28  O   UNL A   1      40.089  19.940  26.417  1.00  0.00    -0.246 OA
BRANCH  27  29
ATOM     29  C   UNL A   1      39.997  22.298  26.703  1.00  0.00     0.060 A 
ATOM     30  C   UNL A   1      41.003  22.370  27.668  1.00  0.00     0.016 A 
ATOM     31  C   UNL A   1      39.429  23.466  26.178  1.00  0.00     0.016 A 
ATOM     32  C   UNL A   1      41.449  23.622  28.097  1.00  0.00     0.010 A 
ATOM     33  C   UNL A   1      39.874  24.715  26.612  1.00  0.00     0.010 A 
ATOM     34  C   UNL A   1      40.897  24.803  27.567  1.00  0.00    -0.014 A 
BRANCH  34  35
ATOM     35  C   UNL A   1      41.472  26.122  27.928  1.00  0.00     0.031 A 
ATOM     36  C   UNL A   1      42.880  26.492  27.566  1.00  0.00     0.074 A 
ATOM     37  C   UNL A   1      40.706  26.988  28.620  1.00  0.00     0.049 A 
ATOM     38  N   UNL A   1      43.501  27.627  27.760  1.00  0.00    -0.248 NA
ATOM     39  C   UNL A   1      43.698  25.464  26.904  1.00  0.00     0.031 C 
ATOM     40  C   UNL A   1      39.342  26.719  29.080  1.00  0.00     0.029 A 
ATOM     41  N   UNL A   1      40.962  28.261  29.062  1.00  0.00    -0.354 N 
ATOM     42  C   UNL A   1      44.782  27.453  27.255  1.00  0.00     0.074 A 
ATOM     43  C   UNL A   1      44.858  26.095  26.758  1.00  0.00     0.031 C 
ATOM     44  C   UNL A   1      38.875  27.801  29.723  1.00  0.00     0.029 A 
ATOM     45  C   UNL A   1      39.912  28.829  29.743  1.00  0.00     0.049 A 
ATOM     46  H   UNL A   1      41.817  28.724  28.906  1.00  0.00     0.167 HD
ATOM     47  C   UNL A   1      45.793  28.352  27.191  1.00  0.00     0.034 A 
ATOM     48  C   UNL A   1      39.792  30.040  30.319  1.00  0.00     0.034 A 
ATOM     49  C   UNL A   1      45.711  29.705  27.674  1.00  0.00     0.049 A 
ATOM     50  C   UNL A   1      40.929  31.017  30.236  1.00  0.00     0.074 A 
ATOM     51  C   UNL A   1      46.668  30.701  27.591  1.00  0.00     0.029 A 
ATOM     52  N   UNL A   1      44.626  30.249  28.341  1.00  0.00    -0.354 N 
ATOM     53  N   UNL A   1      42.084  30.878  29.634  1.00  0.00    -0.248 NA
ATOM     54  C   UNL A   1      40.740  32.320  30.887  1.00  0.00     0.031 C 
ATOM     55  C   UNL A   1      46.171  31.842  28.228  1.00  0.00     0.029 A 
ATOM     56  C   UNL A   1      44.894  31.562  28.687  1.00  0.00     0.049 A 
ATOM     57  H   UNL A   1      43.788  29.773  28.539  1.00  0.00     0.167 HD
ATOM     58  C   UNL A   1      42.755  32.081  29.818  1.00  0.00     0.074 A 
ATOM     59  C   UNL A   1      41.870  32.944  30.574  1.00  0.00     0.031 C 
ATOM     60  C   UNL A   1      43.997  32.428  29.406  1.00  0.00     0.034 A 
BRANCH  47  61
ATOM     61  C   UNL A   1      47.075  27.936  26.525  1.00  0.00     0.023 A 
ATOM     62  C   UNL A   1      48.099  27.368  27.309  1.00  0.00     0.012 A 
ATOM     63  C   UNL A   1      47.213  27.981  25.125  1.00  0.00     0.148 A 
ATOM     64  C   UNL A   1      49.246  26.853  26.707  1.00  0.00     0.002 A 
ATOM     65  C   UNL A   1      48.348  27.441  24.530  1.00  0.00     0.091 A 
ATOM     66  F   UNL A   1      46.226  28.531  24.404  1.00  0.00    -0.205 F 
ATOM     67  C   UNL A   1      49.366  26.880  25.320  1.00  0.00     0.022 A 
BRANCH  65  68
ATOM     68  S   UNL A   1      48.581  27.379  22.751  1.00  0.00     0.127 S 
ATOM     69  O   UNL A   1      47.509  28.259  22.284  1.00  0.00    -0.237 OA
ATOM     70  O   UNL A   1      49.929  27.924  22.599  1.00  0.00    -0.237 OA
ATOM     71  O   UNL A   1      48.438  25.980  22.373  1.00  0.00    -0.744 OA
ENDBRANCH  65  68
ENDBRANCH  47  61
BRANCH  48  72
ATOM     72  C   UNL A   1      38.507  30.406  30.973  1.00  0.00     0.023 A 
ATOM     73  C   UNL A   1      38.305  30.082  32.327  1.00  0.00     0.012 A 
ATOM     74  C   UNL A   1      37.524  31.139  30.281  1.00  0.00     0.148 A 
ATOM     75  C   UNL A   1      37.139  30.477  32.983  1.00  0.00     0.002 A 
ATOM     76  C   UNL A   1      36.382  31.562  30.949  1.00  0.00     0.091 A 
ATOM     77  F   UNL A   1      37.746  31.435  28.993  1.00  0.00    -0.205 F 
ATOM     78  C   UNL A   1      36.184  31.226  32.298  1.00  0.00     0.022 A 
BRANCH  76  79
ATOM     79  S   UNL A   1      35.139  32.605  30.181  1.00  0.00     0.127 S 
ATOM     80  O   UNL A   1      34.188  32.789  31.275  1.00  0.00    -0.237 OA
ATOM     81  O   UNL A   1      35.920  33.793  29.837  1.00  0.00    -0.237 OA
ATOM     82  O   UNL A   1      34.639  31.853  29.039  1.00  0.00    -0.744 OA
ENDBRANCH  76  79
ENDBRANCH  48  72
BRANCH  60  83
ATOM     83  C   UNL A   1      44.501  33.804  29.748  1.00  0.00     0.023 A 
ATOM     84  C   UNL A   1      45.223  33.999  30.941  1.00  0.00     0.012 A 
ATOM     85  C   UNL A   1      44.374  34.864  28.830  1.00  0.00     0.148 A 
ATOM     86  C   UNL A   1      45.809  35.233  31.218  1.00  0.00     0.002 A 
ATOM     87  C   UNL A   1      44.988  36.083  29.098  1.00  0.00     0.091 A 
ATOM     88  F   UNL A   1      43.677  34.653  27.705  1.00  0.00    -0.205 F 
ATOM     89  C   UNL A   1      45.702  36.270  30.292  1.00  0.00     0.022 A 
BRANCH  87  90
ATOM     90  S   UNL A   1      44.966  37.456  27.939  1.00  0.00     0.127 S 
ATOM     91  O   UNL A   1      45.489  36.830  26.726  1.00  0.00    -0.237 OA
ATOM     92  O   UNL A   1      43.543  37.793  27.888  1.00  0.00    -0.237 OA
ATOM     93  O   UNL A   1      45.816  38.488  28.517  1.00  0.00    -0.744 OA
ENDBRANCH  87  90
ENDBRANCH  60  83
ENDBRANCH  34  35
ENDBRANCH  27  29
ENDBRANCH  26  27
ENDBRANCH  25  26
ENDBRANCH   1  25
TORSDOF 17
ENDMDL
