MODEL 1
REMARK VINA RESULT:     -10.3      0.000      0.000
REMARK SMILES Cc1c(CC(=O)N[C@H](CO)C(=O)OCCOCCOC(=O)c2ccc(-c3c4nc(c(-c5cccc(S(=O)(=O)[O-])c5F)c5ccc([nH]5)c(-c5cccc(S(=O)(=O)[O-])c5F)c5nc(c(-c6cccc(S(=O)(=O)[O-])c6F)c6ccc3[nH]6)C=C5)C=C4)cc2)cc(-c2ccc(S(C)(=O)=O)cc2)n1-c1ccc(F)cc1
REMARK SMILES IDX 15 1 14 2 13 3 11 4 12 5 8 6 7 7 5 8 6 9 4 11 3 12 1 13 2 14
REMARK SMILES IDX 97 15 85 16 86 17 98 18 99 19 104 20 100 21 103 22 101 23
REMARK SMILES IDX 102 24 87 25 88 26 96 27 89 28 95 29 90 30 91 31 92 32 93 33
REMARK SMILES IDX 94 34 9 35 10 36 16 38 17 39 18 40 19 41 20 42 21 43 22 44
REMARK SMILES IDX 23 45 84 46 24 47 83 48 25 49 26 50 27 51 77 52 28 53 82 54
REMARK SMILES IDX 76 55 78 56 29 57 81 58 75 59 74 60 30 62 62 63 42 64 61 65
REMARK SMILES IDX 43 66 46 67 60 68 79 69 44 70 45 71 59 73 80 74 47 75 31 76
REMARK SMILES IDX 32 77 40 78 33 79 35 80 41 81 34 82 36 83 37 84 38 85 39 86
REMARK SMILES IDX 63 87 64 88 72 89 65 90 67 91 73 92 66 93 68 94 69 95 70 96
REMARK SMILES IDX 71 97 48 98 49 99 57 100 50 101 52 102 58 103 51 104 53 105
REMARK SMILES IDX 54 106 55 107 56 108
REMARK H PARENT 7 10 10 37 78 61 46 72
REMARK Flexibility Score: inf
ROOT
ATOM      1  C   UNL A   1      31.719  27.883  26.312  1.00  0.00     0.202 C 
ENDROOT
BRANCH   1   2
ATOM      2  C   UNL A   1      32.884  27.500  25.384  1.00  0.00     0.261 C 
BRANCH   2   3
ATOM      3  O   UNL A   1      33.408  28.612  24.618  1.00  0.00    -0.462 OA
BRANCH   3   4
ATOM      4  C   UNL A   1      33.537  28.421  23.277  1.00  0.00     0.331 C 
ATOM      5  O   UNL A   1      34.460  28.886  22.613  1.00  0.00    -0.250 OA
BRANCH   4   6
ATOM      6  C   UNL A   1      32.291  27.791  22.621  1.00  0.00     0.218 C 
BRANCH   6   7
ATOM      7  N   UNL A   1      32.645  26.907  21.504  1.00  0.00    -0.341 N 
ATOM      8  C   UNL A   1      32.697  25.549  21.424  1.00  0.00     0.225 C 
ATOM      9  O   UNL A   1      33.123  25.073  20.366  1.00  0.00    -0.275 OA
ATOM     10  H   UNL A   1      32.886  27.375  20.672  1.00  0.00     0.164 HD
BRANCH   8  11
ATOM     11  C   UNL A   1      32.181  24.647  22.541  1.00  0.00     0.137 C 
BRANCH  11  12
ATOM     12  C   UNL A   1      33.213  23.722  23.140  1.00  0.00    -0.017 A 
ATOM     13  C   UNL A   1      31.720  21.667  22.979  1.00  0.00     0.065 C 
ATOM     14  C   UNL A   1      32.987  22.395  23.367  1.00  0.00     0.024 A 
ATOM     15  N   UNL A   1      34.080  21.851  24.068  1.00  0.00    -0.314 N 
ATOM     16  C   UNL A   1      34.538  23.929  23.628  1.00  0.00     0.033 A 
ATOM     17  C   UNL A   1      35.180  22.772  24.121  1.00  0.00     0.053 A 
BRANCH  15  18
ATOM     18  C   UNL A   1      33.903  20.576  24.629  1.00  0.00     0.046 A 
ATOM     19  C   UNL A   1      33.323  20.522  25.919  1.00  0.00     0.029 A 
ATOM     20  C   UNL A   1      33.952  19.454  23.816  1.00  0.00     0.029 A 
ATOM     21  C   UNL A   1      32.828  19.327  26.418  1.00  0.00     0.041 A 
ATOM     22  C   UNL A   1      33.442  18.258  24.325  1.00  0.00     0.041 A 
ATOM     23  C   UNL A   1      32.901  18.202  25.615  1.00  0.00     0.123 A 
ATOM     24  F   UNL A   1      32.445  17.040  26.093  1.00  0.00    -0.207 F 
ENDBRANCH  15  18
BRANCH  17  25
ATOM     25  C   UNL A   1      36.604  22.715  24.831  1.00  0.00    -0.001 A 
ATOM     26  C   UNL A   1      37.230  23.696  25.596  1.00  0.00     0.011 A 
ATOM     27  C   UNL A   1      37.447  21.570  24.799  1.00  0.00     0.011 A 
ATOM     28  C   UNL A   1      38.554  23.494  26.208  1.00  0.00     0.021 A 
ATOM     29  C   UNL A   1      38.667  21.284  25.417  1.00  0.00     0.021 A 
ATOM     30  C   UNL A   1      39.261  22.280  26.103  1.00  0.00     0.067 A 
BRANCH  30  31
ATOM     31  S   UNL A   1      40.887  21.884  26.720  1.00  0.00     0.175 S 
ATOM     32  C   UNL A   1      40.731  20.181  27.236  1.00  0.00     0.163 C 
ATOM     33  O   UNL A   1      41.811  22.027  25.654  1.00  0.00    -0.224 OA
ATOM     34  O   UNL A   1      41.042  22.690  27.953  1.00  0.00    -0.224 OA
ENDBRANCH  30  31
ENDBRANCH  17  25
ENDBRANCH  11  12
ENDBRANCH   8  11
ENDBRANCH   6   7
BRANCH   6  35
ATOM     35  C   UNL A   1      31.054  28.651  22.349  1.00  0.00     0.193 C 
BRANCH  35  36
ATOM     36  O   UNL A   1      30.983  29.735  23.286  1.00  0.00    -0.394 OA
ATOM     37  H   UNL A   1      30.514  30.482  22.882  1.00  0.00     0.210 HD
ENDBRANCH  35  36
ENDBRANCH   6  35
ENDBRANCH   4   6
ENDBRANCH   3   4
ENDBRANCH   2   3
ENDBRANCH   1   2
BRANCH   1  38
ATOM     38  O   UNL A   1      31.912  29.058  27.076  1.00  0.00    -0.374 OA
BRANCH  38  39
ATOM     39  C   UNL A   1      31.381  30.220  26.465  1.00  0.00     0.202 C 
BRANCH  39  40
ATOM     40  C   UNL A   1      31.859  31.651  26.959  1.00  0.00     0.261 C 
BRANCH  40  41
ATOM     41  O   UNL A   1      33.357  32.105  27.378  1.00  0.00    -0.460 OA
BRANCH  41  42
ATOM     42  C   UNL A   1      34.318  32.337  28.488  1.00  0.00     0.338 C 
ATOM     43  O   UNL A   1      33.764  33.033  29.362  1.00  0.00    -0.246 OA
BRANCH  42  44
ATOM     44  C   UNL A   1      35.941  31.868  29.053  1.00  0.00     0.060 A 
ATOM     45  C   UNL A   1      36.322  30.598  28.635  1.00  0.00     0.016 A 
ATOM     46  C   UNL A   1      37.128  32.408  29.716  1.00  0.00     0.016 A 
ATOM     47  C   UNL A   1      37.707  30.079  28.679  1.00  0.00     0.010 A 
ATOM     48  C   UNL A   1      38.557  31.859  29.807  1.00  0.00     0.010 A 
ATOM     49  C   UNL A   1      38.930  30.671  29.216  1.00  0.00    -0.014 A 
BRANCH  49  50
ATOM     50  C   UNL A   1      40.341  29.749  29.277  1.00  0.00     0.031 A 
ATOM     51  C   UNL A   1      40.248  29.285  30.670  1.00  0.00     0.074 A 
ATOM     52  C   UNL A   1      41.575  29.311  28.729  1.00  0.00     0.049 A 
ATOM     53  N   UNL A   1      40.098  30.194  31.586  1.00  0.00    -0.248 NA
ATOM     54  C   UNL A   1      39.832  27.937  31.050  1.00  0.00     0.031 C 
ATOM     55  C   UNL A   1      42.279  29.718  27.493  1.00  0.00     0.029 A 
ATOM     56  N   UNL A   1      42.545  28.324  29.195  1.00  0.00    -0.354 N 
ATOM     57  C   UNL A   1      39.866  29.529  32.744  1.00  0.00     0.074 A 
ATOM     58  C   UNL A   1      39.471  28.190  32.315  1.00  0.00     0.031 C 
ATOM     59  C   UNL A   1      43.390  28.952  27.238  1.00  0.00     0.029 A 
ATOM     60  C   UNL A   1      43.623  27.958  28.289  1.00  0.00     0.049 A 
ATOM     61  H   UNL A   1      42.473  27.921  30.091  1.00  0.00     0.167 HD
ATOM     62  C   UNL A   1      40.637  29.944  33.784  1.00  0.00     0.034 A 
ATOM     63  C   UNL A   1      44.659  27.012  28.395  1.00  0.00     0.034 A 
ATOM     64  C   UNL A   1      41.612  28.949  34.119  1.00  0.00     0.049 A 
ATOM     65  C   UNL A   1      44.845  26.804  29.839  1.00  0.00     0.074 A 
ATOM     66  C   UNL A   1      41.542  27.572  34.223  1.00  0.00     0.029 A 
ATOM     67  N   UNL A   1      42.926  29.260  33.846  1.00  0.00    -0.354 N 
ATOM     68  N   UNL A   1      45.563  27.628  30.540  1.00  0.00    -0.248 NA
ATOM     69  C   UNL A   1      44.420  25.596  30.537  1.00  0.00     0.031 C 
ATOM     70  C   UNL A   1      42.646  27.107  33.473  1.00  0.00     0.029 A 
ATOM     71  C   UNL A   1      43.548  28.148  33.311  1.00  0.00     0.049 A 
ATOM     72  H   UNL A   1      43.351  30.133  34.006  1.00  0.00     0.167 HD
ATOM     73  C   UNL A   1      45.216  27.324  31.818  1.00  0.00     0.074 A 
ATOM     74  C   UNL A   1      44.775  25.944  31.777  1.00  0.00     0.031 C 
ATOM     75  C   UNL A   1      44.777  28.352  32.582  1.00  0.00     0.034 A 
BRANCH  62  76
ATOM     76  C   UNL A   1      40.835  31.454  33.796  1.00  0.00     0.023 A 
ATOM     77  C   UNL A   1      42.159  31.918  33.715  1.00  0.00     0.012 A 
ATOM     78  C   UNL A   1      39.814  32.385  34.139  1.00  0.00     0.148 A 
ATOM     79  C   UNL A   1      42.465  33.259  33.973  1.00  0.00     0.002 A 
ATOM     80  C   UNL A   1      40.138  33.698  34.475  1.00  0.00     0.091 A 
ATOM     81  F   UNL A   1      38.537  31.969  34.194  1.00  0.00    -0.205 F 
ATOM     82  C   UNL A   1      41.462  34.143  34.371  1.00  0.00     0.022 A 
BRANCH  80  83
ATOM     83  S   UNL A   1      38.915  34.783  35.236  1.00  0.00     0.127 S 
ATOM     84  O   UNL A   1      37.899  34.918  34.186  1.00  0.00    -0.237 OA
ATOM     85  O   UNL A   1      38.472  34.042  36.406  1.00  0.00    -0.237 OA
ATOM     86  O   UNL A   1      39.635  36.031  35.481  1.00  0.00    -0.744 OA
ENDBRANCH  80  83
ENDBRANCH  62  76
BRANCH  63  87
ATOM     87  C   UNL A   1      45.859  26.244  27.683  1.00  0.00     0.023 A 
ATOM     88  C   UNL A   1      45.549  25.042  26.933  1.00  0.00     0.012 A 
ATOM     89  C   UNL A   1      47.108  26.811  27.348  1.00  0.00     0.148 A 
ATOM     90  C   UNL A   1      46.315  24.537  25.863  1.00  0.00     0.002 A 
ATOM     91  C   UNL A   1      47.901  26.273  26.289  1.00  0.00     0.091 A 
ATOM     92  F   UNL A   1      47.488  27.925  27.984  1.00  0.00    -0.205 F 
ATOM     93  C   UNL A   1      47.490  25.166  25.528  1.00  0.00     0.022 A 
BRANCH  91  94
ATOM     94  S   UNL A   1      49.472  26.992  25.748  1.00  0.00     0.127 S 
ATOM     95  O   UNL A   1      50.335  26.814  26.920  1.00  0.00    -0.237 OA
ATOM     96  O   UNL A   1      49.819  26.137  24.613  1.00  0.00    -0.237 OA
ATOM     97  O   UNL A   1      49.165  28.379  25.436  1.00  0.00    -0.744 OA
ENDBRANCH  91  94
ENDBRANCH  63  87
BRANCH  75  98
ATOM     98  C   UNL A   1      45.480  29.694  32.439  1.00  0.00     0.023 A 
ATOM     99  C   UNL A   1      46.646  30.091  33.134  1.00  0.00     0.012 A 
ATOM    100  C   UNL A   1      44.911  30.628  31.559  1.00  0.00     0.148 A 
ATOM    101  C   UNL A   1      47.188  31.375  32.991  1.00  0.00     0.002 A 
ATOM    102  C   UNL A   1      45.484  31.881  31.369  1.00  0.00     0.091 A 
ATOM    103  F   UNL A   1      43.782  30.285  30.919  1.00  0.00    -0.205 F 
ATOM    104  C   UNL A   1      46.617  32.267  32.092  1.00  0.00     0.022 A 
BRANCH 102 105
ATOM    105  S   UNL A   1      44.768  33.000  30.168  1.00  0.00     0.127 S 
ATOM    106  O   UNL A   1      45.671  34.148  30.249  1.00  0.00    -0.237 OA
ATOM    107  O   UNL A   1      44.842  32.262  28.909  1.00  0.00    -0.237 OA
ATOM    108  O   UNL A   1      43.408  33.238  30.645  1.00  0.00    -0.744 OA
ENDBRANCH 102 105
ENDBRANCH  75  98
ENDBRANCH  49  50
ENDBRANCH  42  44
ENDBRANCH  41  42
ENDBRANCH  40  41
ENDBRANCH  39  40
ENDBRANCH  38  39
ENDBRANCH   1  38
TORSDOF 25
ENDMDL
MODEL 2
REMARK VINA RESULT:     -10.2      2.237      3.531
REMARK SMILES Cc1c(CC(=O)N[C@H](CO)C(=O)OCCOCCOC(=O)c2ccc(-c3c4nc(c(-c5cccc(S(=O)(=O)[O-])c5F)c5ccc([nH]5)c(-c5cccc(S(=O)(=O)[O-])c5F)c5nc(c(-c6cccc(S(=O)(=O)[O-])c6F)c6ccc3[nH]6)C=C5)C=C4)cc2)cc(-c2ccc(S(C)(=O)=O)cc2)n1-c1ccc(F)cc1
REMARK SMILES IDX 15 1 14 2 13 3 11 4 12 5 8 6 7 7 5 8 6 9 4 11 3 12 1 13 2 14
REMARK SMILES IDX 97 15 85 16 86 17 98 18 99 19 104 20 100 21 103 22 101 23
REMARK SMILES IDX 102 24 87 25 88 26 96 27 89 28 95 29 90 30 91 31 92 32 93 33
REMARK SMILES IDX 94 34 9 35 10 36 16 38 17 39 18 40 19 41 20 42 21 43 22 44
REMARK SMILES IDX 23 45 84 46 24 47 83 48 25 49 26 50 27 51 77 52 28 53 82 54
REMARK SMILES IDX 76 55 78 56 29 57 81 58 75 59 74 60 30 62 62 63 42 64 61 65
REMARK SMILES IDX 43 66 46 67 60 68 79 69 44 70 45 71 59 73 80 74 47 75 31 76
REMARK SMILES IDX 32 77 40 78 33 79 35 80 41 81 34 82 36 83 37 84 38 85 39 86
REMARK SMILES IDX 63 87 64 88 72 89 65 90 67 91 73 92 66 93 68 94 69 95 70 96
REMARK SMILES IDX 71 97 48 98 49 99 57 100 50 101 52 102 58 103 51 104 53 105
REMARK SMILES IDX 54 106 55 107 56 108
REMARK H PARENT 7 10 10 37 78 61 46 72
REMARK Flexibility Score: inf
ROOT
ATOM      1  C   UNL A   1      30.694  26.154  26.102  1.00  0.00     0.202 C 
ENDROOT
BRANCH   1   2
ATOM      2  C   UNL A   1      30.227  24.688  26.100  1.00  0.00     0.261 C 
BRANCH   2   3
ATOM      3  O   UNL A   1      31.251  23.750  26.509  1.00  0.00    -0.462 OA
BRANCH   3   4
ATOM      4  C   UNL A   1      31.003  22.433  26.270  1.00  0.00     0.331 C 
ATOM      5  O   UNL A   1      29.877  21.943  26.284  1.00  0.00    -0.250 OA
BRANCH   4   6
ATOM      6  C   UNL A   1      32.276  21.563  26.234  1.00  0.00     0.218 C 
BRANCH   6   7
ATOM      7  N   UNL A   1      32.034  20.261  25.600  1.00  0.00    -0.341 N 
ATOM      8  C   UNL A   1      32.252  19.835  24.326  1.00  0.00     0.225 C 
ATOM      9  O   UNL A   1      31.862  18.696  24.049  1.00  0.00    -0.275 OA
ATOM     10  H   UNL A   1      31.648  19.580  26.198  1.00  0.00     0.164 HD
BRANCH   8  11
ATOM     11  C   UNL A   1      33.013  20.677  23.306  1.00  0.00     0.137 C 
BRANCH  11  12
ATOM     12  C   UNL A   1      33.845  21.791  23.893  1.00  0.00    -0.017 A 
ATOM     13  C   UNL A   1      32.216  23.616  23.191  1.00  0.00     0.065 C 
ATOM     14  C   UNL A   1      33.501  23.109  23.807  1.00  0.00     0.024 A 
ATOM     15  N   UNL A   1      34.551  23.898  24.313  1.00  0.00    -0.314 N 
ATOM     16  C   UNL A   1      35.095  21.812  24.582  1.00  0.00     0.033 A 
ATOM     17  C   UNL A   1      35.540  23.093  24.972  1.00  0.00     0.053 A 
BRANCH  15  18
ATOM     18  C   UNL A   1      34.492  25.276  24.052  1.00  0.00     0.046 A 
ATOM     19  C   UNL A   1      34.140  25.660  22.735  1.00  0.00     0.029 A 
ATOM     20  C   UNL A   1      34.421  26.174  25.105  1.00  0.00     0.029 A 
ATOM     21  C   UNL A   1      33.756  26.964  22.463  1.00  0.00     0.041 A 
ATOM     22  C   UNL A   1      34.024  27.482  24.820  1.00  0.00     0.041 A 
ATOM     23  C   UNL A   1      33.711  27.866  23.511  1.00  0.00     0.123 A 
ATOM     24  F   UNL A   1      33.361  29.132  23.256  1.00  0.00    -0.207 F 
ENDBRANCH  15  18
BRANCH  17  25
ATOM     25  C   UNL A   1      36.941  23.439  25.647  1.00  0.00    -0.001 A 
ATOM     26  C   UNL A   1      37.327  24.616  26.285  1.00  0.00     0.011 A 
ATOM     27  C   UNL A   1      38.022  22.519  25.718  1.00  0.00     0.011 A 
ATOM     28  C   UNL A   1      38.662  24.787  26.882  1.00  0.00     0.021 A 
ATOM     29  C   UNL A   1      39.275  22.586  26.332  1.00  0.00     0.021 A 
ATOM     30  C   UNL A   1      39.626  23.761  26.890  1.00  0.00     0.067 A 
BRANCH  30  31
ATOM     31  S   UNL A   1      41.301  23.815  27.505  1.00  0.00     0.175 S 
ATOM     32  C   UNL A   1      42.277  24.039  26.026  1.00  0.00     0.163 C 
ATOM     33  O   UNL A   1      41.414  24.923  28.381  1.00  0.00    -0.224 OA
ATOM     34  O   UNL A   1      41.579  22.446  27.996  1.00  0.00    -0.224 OA
ENDBRANCH  30  31
ENDBRANCH  17  25
ENDBRANCH  11  12
ENDBRANCH   8  11
ENDBRANCH   6   7
BRANCH   6  35
ATOM     35  C   UNL A   1      33.181  21.482  27.467  1.00  0.00     0.193 C 
BRANCH  35  36
ATOM     36  O   UNL A   1      32.603  22.211  28.559  1.00  0.00    -0.394 OA
ATOM     37  H   UNL A   1      32.915  23.129  28.535  1.00  0.00     0.210 HD
ENDBRANCH  35  36
ENDBRANCH   6  35
ENDBRANCH   4   6
ENDBRANCH   3   4
ENDBRANCH   2   3
ENDBRANCH   1   2
BRANCH   1  38
ATOM     38  O   UNL A   1      31.563  26.512  27.160  1.00  0.00    -0.374 OA
BRANCH  38  39
ATOM     39  C   UNL A   1      31.375  27.838  27.617  1.00  0.00     0.202 C 
BRANCH  39  40
ATOM     40  C   UNL A   1      31.782  29.053  26.680  1.00  0.00     0.261 C 
BRANCH  40  41
ATOM     41  O   UNL A   1      32.389  30.489  27.125  1.00  0.00    -0.460 OA
BRANCH  41  42
ATOM     42  C   UNL A   1      33.584  31.238  27.596  1.00  0.00     0.338 C 
ATOM     43  O   UNL A   1      33.287  32.444  27.706  1.00  0.00    -0.246 OA
BRANCH  42  44
ATOM     44  C   UNL A   1      35.253  30.991  28.169  1.00  0.00     0.060 A 
ATOM     45  C   UNL A   1      35.758  29.733  27.859  1.00  0.00     0.016 A 
ATOM     46  C   UNL A   1      36.384  31.708  28.756  1.00  0.00     0.016 A 
ATOM     47  C   UNL A   1      37.190  29.365  27.921  1.00  0.00     0.010 A 
ATOM     48  C   UNL A   1      37.863  31.319  28.867  1.00  0.00     0.010 A 
ATOM     49  C   UNL A   1      38.351  30.126  28.379  1.00  0.00    -0.014 A 
BRANCH  49  50
ATOM     50  C   UNL A   1      39.850  29.363  28.493  1.00  0.00     0.031 A 
ATOM     51  C   UNL A   1      39.802  28.980  29.914  1.00  0.00     0.074 A 
ATOM     52  C   UNL A   1      41.126  29.022  27.971  1.00  0.00     0.049 A 
ATOM     53  N   UNL A   1      39.553  29.925  30.771  1.00  0.00    -0.248 NA
ATOM     54  C   UNL A   1      39.527  27.623  30.380  1.00  0.00     0.031 C 
ATOM     55  C   UNL A   1      41.788  29.422  26.710  1.00  0.00     0.029 A 
ATOM     56  N   UNL A   1      42.192  28.174  28.496  1.00  0.00    -0.354 N 
ATOM     57  C   UNL A   1      39.388  29.314  31.969  1.00  0.00     0.074 A 
ATOM     58  C   UNL A   1      39.137  27.917  31.627  1.00  0.00     0.031 C 
ATOM     59  C   UNL A   1      42.974  28.761  26.501  1.00  0.00     0.029 A 
ATOM     60  C   UNL A   1      43.306  27.866  27.612  1.00  0.00     0.049 A 
ATOM     61  H   UNL A   1      42.159  27.823  29.416  1.00  0.00     0.167 HD
ATOM     62  C   UNL A   1      40.107  29.873  32.978  1.00  0.00     0.034 A 
ATOM     63  C   UNL A   1      44.434  27.043  27.775  1.00  0.00     0.034 A 
ATOM     64  C   UNL A   1      41.180  29.009  33.373  1.00  0.00     0.049 A 
ATOM     65  C   UNL A   1      44.636  26.947  29.229  1.00  0.00     0.074 A 
ATOM     66  C   UNL A   1      41.254  27.642  33.565  1.00  0.00     0.029 A 
ATOM     67  N   UNL A   1      42.455  29.438  33.077  1.00  0.00    -0.354 N 
ATOM     68  N   UNL A   1      45.261  27.884  29.874  1.00  0.00    -0.248 NA
ATOM     69  C   UNL A   1      44.337  25.748  30.003  1.00  0.00     0.031 C 
ATOM     70  C   UNL A   1      42.403  27.248  32.842  1.00  0.00     0.029 A 
ATOM     71  C   UNL A   1      43.192  28.365  32.612  1.00  0.00     0.049 A 
ATOM     72  H   UNL A   1      42.786  30.359  33.180  1.00  0.00     0.167 HD
ATOM     73  C   UNL A   1      44.943  27.628  31.169  1.00  0.00     0.074 A 
ATOM     74  C   UNL A   1      44.649  26.210  31.217  1.00  0.00     0.031 C 
ATOM     75  C   UNL A   1      44.396  28.650  31.868  1.00  0.00     0.034 A 
BRANCH  62  76
ATOM     76  C   UNL A   1      40.146  31.393  32.894  1.00  0.00     0.023 A 
ATOM     77  C   UNL A   1      41.349  31.971  32.454  1.00  0.00     0.012 A 
ATOM     78  C   UNL A   1      39.159  32.244  33.466  1.00  0.00     0.148 A 
ATOM     79  C   UNL A   1      41.573  33.346  32.583  1.00  0.00     0.002 A 
ATOM     80  C   UNL A   1      39.423  33.598  33.667  1.00  0.00     0.091 A 
ATOM     81  F   UNL A   1      37.990  31.718  33.868  1.00  0.00    -0.205 F 
ATOM     82  C   UNL A   1      40.622  34.155  33.205  1.00  0.00     0.022 A 
BRANCH  80  83
ATOM     83  S   UNL A   1      38.335  34.607  34.691  1.00  0.00     0.127 S 
ATOM     84  O   UNL A   1      37.261  34.978  33.762  1.00  0.00    -0.237 OA
ATOM     85  O   UNL A   1      37.921  33.705  35.754  1.00  0.00    -0.237 OA
ATOM     86  O   UNL A   1      39.156  35.751  35.082  1.00  0.00    -0.744 OA
ENDBRANCH  80  83
ENDBRANCH  62  76
BRANCH  63  87
ATOM     87  C   UNL A   1      45.711  26.361  27.110  1.00  0.00     0.023 A 
ATOM     88  C   UNL A   1      45.594  24.987  26.661  1.00  0.00     0.012 A 
ATOM     89  C   UNL A   1      46.798  27.051  26.531  1.00  0.00     0.148 A 
ATOM     90  C   UNL A   1      46.369  24.400  25.641  1.00  0.00     0.002 A 
ATOM     91  C   UNL A   1      47.608  26.441  25.526  1.00  0.00     0.091 A 
ATOM     92  F   UNL A   1      46.994  28.329  26.880  1.00  0.00    -0.205 F 
ATOM     93  C   UNL A   1      47.372  25.137  25.058  1.00  0.00     0.022 A 
BRANCH  91  94
ATOM     94  S   UNL A   1      48.966  27.288  24.680  1.00  0.00     0.127 S 
ATOM     95  O   UNL A   1      49.334  28.344  25.629  1.00  0.00    -0.237 OA
ATOM     96  O   UNL A   1      49.958  26.221  24.557  1.00  0.00    -0.237 OA
ATOM     97  O   UNL A   1      48.391  27.777  23.436  1.00  0.00    -0.744 OA
ENDBRANCH  91  94
ENDBRANCH  63  87
BRANCH  75  98
ATOM     98  C   UNL A   1      44.955  30.047  31.638  1.00  0.00     0.023 A 
ATOM     99  C   UNL A   1      46.017  30.638  32.361  1.00  0.00     0.012 A 
ATOM    100  C   UNL A   1      44.350  30.825  30.639  1.00  0.00     0.148 A 
ATOM    101  C   UNL A   1      46.424  31.959  32.126  1.00  0.00     0.002 A 
ATOM    102  C   UNL A   1      44.794  32.115  30.362  1.00  0.00     0.091 A 
ATOM    103  F   UNL A   1      43.315  30.297  29.967  1.00  0.00    -0.205 F 
ATOM    104  C   UNL A   1      45.823  32.694  31.112  1.00  0.00     0.022 A 
BRANCH 102 105
ATOM    105  S   UNL A   1      44.046  33.031  29.017  1.00  0.00     0.127 S 
ATOM    106  O   UNL A   1      44.207  32.104  27.896  1.00  0.00    -0.237 OA
ATOM    107  O   UNL A   1      42.663  33.223  29.447  1.00  0.00    -0.237 OA
ATOM    108  O   UNL A   1      44.824  34.264  28.927  1.00  0.00    -0.744 OA
ENDBRANCH 102 105
ENDBRANCH  75  98
ENDBRANCH  49  50
ENDBRANCH  42  44
ENDBRANCH  41  42
ENDBRANCH  40  41
ENDBRANCH  39  40
ENDBRANCH  38  39
ENDBRANCH   1  38
TORSDOF 25
ENDMDL
MODEL 3
REMARK VINA RESULT:      -8.9      4.557      8.373
REMARK SMILES Cc1c(CC(=O)N[C@H](CO)C(=O)OCCOCCOC(=O)c2ccc(-c3c4nc(c(-c5cccc(S(=O)(=O)[O-])c5F)c5ccc([nH]5)c(-c5cccc(S(=O)(=O)[O-])c5F)c5nc(c(-c6cccc(S(=O)(=O)[O-])c6F)c6ccc3[nH]6)C=C5)C=C4)cc2)cc(-c2ccc(S(C)(=O)=O)cc2)n1-c1ccc(F)cc1
REMARK SMILES IDX 15 1 14 2 13 3 11 4 12 5 8 6 7 7 5 8 6 9 4 11 3 12 1 13 2 14
REMARK SMILES IDX 97 15 85 16 86 17 98 18 99 19 104 20 100 21 103 22 101 23
REMARK SMILES IDX 102 24 87 25 88 26 96 27 89 28 95 29 90 30 91 31 92 32 93 33
REMARK SMILES IDX 94 34 9 35 10 36 16 38 17 39 18 40 19 41 20 42 21 43 22 44
REMARK SMILES IDX 23 45 84 46 24 47 83 48 25 49 26 50 27 51 77 52 28 53 82 54
REMARK SMILES IDX 76 55 78 56 29 57 81 58 75 59 74 60 30 62 62 63 42 64 61 65
REMARK SMILES IDX 43 66 46 67 60 68 79 69 44 70 45 71 59 73 80 74 47 75 31 76
REMARK SMILES IDX 32 77 40 78 33 79 35 80 41 81 34 82 36 83 37 84 38 85 39 86
REMARK SMILES IDX 63 87 64 88 72 89 65 90 67 91 73 92 66 93 68 94 69 95 70 96
REMARK SMILES IDX 71 97 48 98 49 99 57 100 50 101 52 102 58 103 51 104 53 105
REMARK SMILES IDX 54 106 55 107 56 108
REMARK H PARENT 7 10 10 37 78 61 46 72
REMARK Flexibility Score: inf
ROOT
ATOM      1  C   UNL A   1      38.307  28.758  29.009  1.00  0.00     0.202 C 
ENDROOT
BRANCH   1   2
ATOM      2  C   UNL A   1      39.152  28.215  27.844  1.00  0.00     0.261 C 
BRANCH   2   3
ATOM      3  O   UNL A   1      40.021  29.206  27.243  1.00  0.00    -0.462 OA
BRANCH   3   4
ATOM      4  C   UNL A   1      41.126  28.739  26.600  1.00  0.00     0.331 C 
ATOM      5  O   UNL A   1      41.078  27.959  25.652  1.00  0.00    -0.250 OA
BRANCH   4   6
ATOM      6  C   UNL A   1      42.447  29.070  27.324  1.00  0.00     0.218 C 
BRANCH   6   7
ATOM      7  N   UNL A   1      42.381  28.758  28.757  1.00  0.00    -0.341 N 
ATOM      8  C   UNL A   1      42.754  27.644  29.445  1.00  0.00     0.225 C 
ATOM      9  O   UNL A   1      42.493  27.627  30.653  1.00  0.00    -0.275 OA
ATOM     10  H   UNL A   1      42.002  29.475  29.315  1.00  0.00     0.164 HD
BRANCH   8  11
ATOM     11  C   UNL A   1      43.530  26.505  28.792  1.00  0.00     0.137 C 
BRANCH  11  12
ATOM     12  C   UNL A   1      42.688  25.336  28.342  1.00  0.00    -0.017 A 
ATOM     13  C   UNL A   1      44.556  23.639  28.664  1.00  0.00     0.065 C 
ATOM     14  C   UNL A   1      43.163  24.060  28.252  1.00  0.00     0.024 A 
ATOM     15  N   UNL A   1      42.184  23.239  27.662  1.00  0.00    -0.314 N 
ATOM     16  C   UNL A   1      41.338  25.227  27.891  1.00  0.00     0.033 A 
ATOM     17  C   UNL A   1      40.925  23.920  27.555  1.00  0.00     0.053 A 
BRANCH  15  18
ATOM     18  C   UNL A   1      42.595  21.966  27.238  1.00  0.00     0.046 A 
ATOM     19  C   UNL A   1      41.974  20.856  27.860  1.00  0.00     0.029 A 
ATOM     20  C   UNL A   1      43.282  21.827  26.042  1.00  0.00     0.029 A 
ATOM     21  C   UNL A   1      42.077  19.590  27.304  1.00  0.00     0.041 A 
ATOM     22  C   UNL A   1      43.372  20.548  25.487  1.00  0.00     0.041 A 
ATOM     23  C   UNL A   1      42.785  19.448  26.124  1.00  0.00     0.123 A 
ATOM     24  F   UNL A   1      42.909  18.229  25.590  1.00  0.00    -0.207 F 
ENDBRANCH  15  18
BRANCH  17  25
ATOM     25  C   UNL A   1      39.524  23.509  26.916  1.00  0.00    -0.001 A 
ATOM     26  C   UNL A   1      38.372  24.281  26.786  1.00  0.00     0.011 A 
ATOM     27  C   UNL A   1      39.276  22.237  26.332  1.00  0.00     0.011 A 
ATOM     28  C   UNL A   1      37.146  23.768  26.154  1.00  0.00     0.021 A 
ATOM     29  C   UNL A   1      38.174  21.715  25.650  1.00  0.00     0.021 A 
ATOM     30  C   UNL A   1      37.064  22.477  25.595  1.00  0.00     0.067 A 
BRANCH  30  31
ATOM     31  S   UNL A   1      35.653  21.675  24.854  1.00  0.00     0.175 S 
ATOM     32  C   UNL A   1      34.420  21.731  26.146  1.00  0.00     0.163 C 
ATOM     33  O   UNL A   1      35.260  22.431  23.721  1.00  0.00    -0.224 OA
ATOM     34  O   UNL A   1      36.048  20.256  24.703  1.00  0.00    -0.224 OA
ENDBRANCH  30  31
ENDBRANCH  17  25
ENDBRANCH  11  12
ENDBRANCH   8  11
ENDBRANCH   6   7
BRANCH   6  35
ATOM     35  C   UNL A   1      43.178  30.380  27.019  1.00  0.00     0.193 C 
BRANCH  35  36
ATOM     36  O   UNL A   1      44.507  30.112  26.549  1.00  0.00    -0.394 OA
ATOM     37  H   UNL A   1      45.071  30.883  26.718  1.00  0.00     0.210 HD
ENDBRANCH  35  36
ENDBRANCH   6  35
ENDBRANCH   4   6
ENDBRANCH   3   4
ENDBRANCH   2   3
ENDBRANCH   1   2
BRANCH   1  38
ATOM     38  O   UNL A   1      37.881  30.101  28.875  1.00  0.00    -0.374 OA
BRANCH  38  39
ATOM     39  C   UNL A   1      36.653  30.370  29.525  1.00  0.00     0.202 C 
BRANCH  39  40
ATOM     40  C   UNL A   1      36.307  31.858  29.957  1.00  0.00     0.261 C 
BRANCH  40  41
ATOM     41  O   UNL A   1      36.933  32.703  31.190  1.00  0.00    -0.460 OA
BRANCH  41  42
ATOM     42  C   UNL A   1      37.667  32.653  32.482  1.00  0.00     0.338 C 
ATOM     43  O   UNL A   1      37.500  33.733  33.084  1.00  0.00    -0.246 OA
BRANCH  42  44
ATOM     44  C   UNL A   1      38.601  31.544  33.518  1.00  0.00     0.060 A 
ATOM     45  C   UNL A   1      39.348  30.618  32.796  1.00  0.00     0.016 A 
ATOM     46  C   UNL A   1      38.991  31.326  34.910  1.00  0.00     0.016 A 
ATOM     47  C   UNL A   1      40.443  29.800  33.361  1.00  0.00     0.010 A 
ATOM     48  C   UNL A   1      40.095  30.447  35.512  1.00  0.00     0.010 A 
ATOM     49  C   UNL A   1      40.933  29.679  34.733  1.00  0.00    -0.014 A 
BRANCH  49  50
ATOM     50  C   UNL A   1      42.099  28.516  35.098  1.00  0.00     0.031 A 
ATOM     51  C   UNL A   1      43.243  29.410  35.336  1.00  0.00     0.074 A 
ATOM     52  C   UNL A   1      42.545  27.171  35.172  1.00  0.00     0.049 A 
ATOM     53  N   UNL A   1      43.533  30.261  34.398  1.00  0.00    -0.248 NA
ATOM     54  C   UNL A   1      43.746  29.748  36.666  1.00  0.00     0.031 C 
ATOM     55  C   UNL A   1      41.887  25.913  34.754  1.00  0.00     0.029 A 
ATOM     56  N   UNL A   1      43.783  26.588  35.682  1.00  0.00    -0.354 N 
ATOM     57  C   UNL A   1      44.490  31.074  34.907  1.00  0.00     0.074 A 
ATOM     58  C   UNL A   1      44.398  30.875  36.351  1.00  0.00     0.031 C 
ATOM     59  C   UNL A   1      42.594  24.795  35.127  1.00  0.00     0.029 A 
ATOM     60  C   UNL A   1      43.848  25.139  35.800  1.00  0.00     0.049 A 
ATOM     61  H   UNL A   1      44.547  27.155  35.937  1.00  0.00     0.167 HD
ATOM     62  C   UNL A   1      45.566  31.237  34.093  1.00  0.00     0.034 A 
ATOM     63  C   UNL A   1      44.841  24.282  36.308  1.00  0.00     0.034 A 
ATOM     64  C   UNL A   1      46.713  30.566  34.630  1.00  0.00     0.049 A 
ATOM     65  C   UNL A   1      46.096  25.042  36.206  1.00  0.00     0.074 A 
ATOM     66  C   UNL A   1      47.217  30.462  35.913  1.00  0.00     0.029 A 
ATOM     67  N   UNL A   1      47.155  29.459  33.939  1.00  0.00    -0.354 N 
ATOM     68  N   UNL A   1      46.751  25.092  35.086  1.00  0.00    -0.248 NA
ATOM     69  C   UNL A   1      46.784  25.614  37.358  1.00  0.00     0.031 C 
ATOM     70  C   UNL A   1      47.447  29.079  36.089  1.00  0.00     0.029 A 
ATOM     71  C   UNL A   1      47.489  28.469  34.844  1.00  0.00     0.049 A 
ATOM     72  H   UNL A   1      47.222  29.386  32.960  1.00  0.00     0.167 HD
ATOM     73  C   UNL A   1      47.609  26.127  35.280  1.00  0.00     0.074 A 
ATOM     74  C   UNL A   1      47.794  26.206  36.715  1.00  0.00     0.031 C 
ATOM     75  C   UNL A   1      47.580  27.114  34.354  1.00  0.00     0.034 A 
BRANCH  62  76
ATOM     76  C   UNL A   1      45.176  31.342  32.625  1.00  0.00     0.023 A 
ATOM     77  C   UNL A   1      45.450  30.224  31.817  1.00  0.00     0.012 A 
ATOM     78  C   UNL A   1      44.807  32.560  31.987  1.00  0.00     0.148 A 
ATOM     79  C   UNL A   1      45.368  30.310  30.423  1.00  0.00     0.002 A 
ATOM     80  C   UNL A   1      44.809  32.659  30.597  1.00  0.00     0.091 A 
ATOM     81  F   UNL A   1      44.515  33.633  32.741  1.00  0.00    -0.205 F 
ATOM     82  C   UNL A   1      45.068  31.527  29.813  1.00  0.00     0.022 A 
BRANCH  80  83
ATOM     83  S   UNL A   1      44.682  34.266  29.788  1.00  0.00     0.127 S 
ATOM     84  O   UNL A   1      43.329  34.707  30.145  1.00  0.00    -0.237 OA
ATOM     85  O   UNL A   1      45.747  35.047  30.397  1.00  0.00    -0.237 OA
ATOM     86  O   UNL A   1      44.816  33.970  28.363  1.00  0.00    -0.744 OA
ENDBRANCH  80  83
ENDBRANCH  62  76
BRANCH  63  87
ATOM     87  C   UNL A   1      45.257  22.803  36.726  1.00  0.00     0.023 A 
ATOM     88  C   UNL A   1      45.567  21.857  35.671  1.00  0.00     0.012 A 
ATOM     89  C   UNL A   1      45.761  22.422  37.989  1.00  0.00     0.148 A 
ATOM     90  C   UNL A   1      46.409  20.735  35.812  1.00  0.00     0.002 A 
ATOM     91  C   UNL A   1      46.580  21.261  38.137  1.00  0.00     0.091 A 
ATOM     92  F   UNL A   1      45.529  23.228  39.033  1.00  0.00    -0.205 F 
ATOM     93  C   UNL A   1      46.931  20.444  37.050  1.00  0.00     0.022 A 
BRANCH  91  94
ATOM     94  S   UNL A   1      47.328  20.754  39.706  1.00  0.00     0.127 S 
ATOM     95  O   UNL A   1      47.914  19.450  39.383  1.00  0.00    -0.237 OA
ATOM     96  O   UNL A   1      48.309  21.814  39.929  1.00  0.00    -0.237 OA
ATOM     97  O   UNL A   1      46.222  20.695  40.651  1.00  0.00    -0.744 OA
ENDBRANCH  91  94
ENDBRANCH  63  87
BRANCH  75  98
ATOM     98  C   UNL A   1      47.420  26.715  32.895  1.00  0.00     0.023 A 
ATOM     99  C   UNL A   1      46.198  26.668  32.184  1.00  0.00     0.012 A 
ATOM    100  C   UNL A   1      48.579  26.338  32.199  1.00  0.00     0.148 A 
ATOM    101  C   UNL A   1      46.134  26.222  30.857  1.00  0.00     0.002 A 
ATOM    102  C   UNL A   1      48.525  25.956  30.862  1.00  0.00     0.091 A 
ATOM    103  F   UNL A   1      49.744  26.339  32.867  1.00  0.00    -0.205 F 
ATOM    104  C   UNL A   1      47.303  25.882  30.188  1.00  0.00     0.022 A 
BRANCH 102 105
ATOM    105  S   UNL A   1      50.046  25.571  29.998  1.00  0.00     0.127 S 
ATOM    106  O   UNL A   1      50.553  24.437  30.770  1.00  0.00    -0.237 OA
ATOM    107  O   UNL A   1      49.608  25.233  28.645  1.00  0.00    -0.237 OA
ATOM    108  O   UNL A   1      50.842  26.793  30.083  1.00  0.00    -0.744 OA
ENDBRANCH 102 105
ENDBRANCH  75  98
ENDBRANCH  49  50
ENDBRANCH  42  44
ENDBRANCH  41  42
ENDBRANCH  40  41
ENDBRANCH  39  40
ENDBRANCH  38  39
ENDBRANCH   1  38
TORSDOF 25
ENDMDL
