MODEL 1
REMARK VINA RESULT:     -11.1      0.000      0.000
REMARK SMILES CC(C)[N@H+](C)Cc1cc2c(cc1Cl)C=C(C(=O)OCCOCCOC(=O)c1ccc(-c3c4nc(c(-c5cccc(S(=O)(=O)[O-])c5F)c5ccc([nH]5)c(-c5cccc(S(=O)(=O)[O-])c5F)c5nc(c(-c6cccc(S(=O)(=O)[O-])c6F)c6ccc3[nH]6)C=C5)C=C4)cc1)[C@@H](C(F)(F)F)O2
REMARK SMILES IDX 21 1 20 2 19 3 18 4 16 5 17 6 15 7 7 8 8 9 12 10 9 11 11 12
REMARK SMILES IDX 13 13 10 14 95 15 14 16 90 17 6 18 4 19 5 20 2 22 1 23 3 24
REMARK SMILES IDX 91 25 92 26 93 27 94 28 22 29 23 30 24 31 25 32 26 33 27 34
REMARK SMILES IDX 28 35 89 36 29 37 88 38 30 39 31 40 32 41 82 42 33 43 87 44
REMARK SMILES IDX 81 45 83 46 34 47 86 48 80 49 79 50 35 52 67 53 47 54 66 55
REMARK SMILES IDX 48 56 51 57 65 58 84 59 49 60 50 61 64 63 85 64 52 65 36 66
REMARK SMILES IDX 37 67 45 68 38 69 40 70 46 71 39 72 41 73 42 74 43 75 44 76
REMARK SMILES IDX 68 77 69 78 77 79 70 80 72 81 78 82 71 83 73 84 74 85 75 86
REMARK SMILES IDX 76 87 53 88 54 89 62 90 55 91 57 92 63 93 56 94 58 95 59 96
REMARK SMILES IDX 60 97 61 98
REMARK H PARENT 4 21 83 51 51 62
REMARK Flexibility Score: inf
ROOT
ATOM      1  O   UNL A   1      32.338  30.808  27.418  1.00  0.00    -0.374 OA
ENDROOT
BRANCH   1   2
ATOM      2  C   UNL A   1      32.563  29.562  26.761  1.00  0.00     0.202 C 
BRANCH   2   3
ATOM      3  C   UNL A   1      33.099  29.603  25.326  1.00  0.00     0.261 C 
BRANCH   3   4
ATOM      4  O   UNL A   1      33.885  28.440  25.024  1.00  0.00    -0.460 OA
BRANCH   4   5
ATOM      5  C   UNL A   1      33.316  27.603  24.128  1.00  0.00     0.338 C 
ATOM      6  O   UNL A   1      33.077  27.824  22.952  1.00  0.00    -0.246 OA
BRANCH   5   7
ATOM      7  C   UNL A   1      33.200  26.267  24.732  1.00  0.00     0.087 C 
ATOM      8  C   UNL A   1      33.847  21.376  25.540  1.00  0.00     0.029 A 
ATOM      9  C   UNL A   1      32.850  22.309  25.897  1.00  0.00     0.058 A 
ATOM     10  C   UNL A   1      35.080  21.875  25.081  1.00  0.00     0.050 A 
ATOM     11  C   UNL A   1      33.009  23.666  25.627  1.00  0.00     0.128 A 
ATOM     12  C   UNL A   1      35.209  23.224  24.755  1.00  0.00     0.033 A 
ATOM     13  Cl  UNL A   1      36.511  20.928  24.864  1.00  0.00    -0.084 Cl
ATOM     14  C   UNL A   1      34.155  24.103  24.975  1.00  0.00     0.019 A 
ATOM     15  O   UNL A   1      31.983  24.490  25.987  1.00  0.00    -0.475 OA
ATOM     16  C   UNL A   1      34.222  25.448  24.455  1.00  0.00     0.027 C 
ATOM     17  C   UNL A   1      32.040  25.900  25.613  1.00  0.00     0.316 C 
BRANCH   8  18
ATOM     18  C   UNL A   1      33.492  19.905  25.662  1.00  0.00     0.300 C 
BRANCH  18  19
ATOM     19  N   UNL A   1      33.518  19.185  24.395  1.00  0.00    -0.332 N 
ATOM     20  C   UNL A   1      34.331  17.986  24.404  1.00  0.00     0.333 C 
ATOM     21  H   UNL A   1      34.031  19.877  23.850  1.00  0.00     0.348 HD
BRANCH  19  22
ATOM     22  C   UNL A   1      32.372  19.202  23.487  1.00  0.00     0.177 C 
ATOM     23  C   UNL A   1      32.145  20.509  22.723  1.00  0.00     0.075 C 
ATOM     24  C   UNL A   1      32.421  18.032  22.496  1.00  0.00     0.075 C 
ENDBRANCH  19  22
ENDBRANCH  18  19
ENDBRANCH   8  18
BRANCH  17  25
ATOM     25  C   UNL A   1      30.685  26.261  24.991  1.00  0.00     0.430 C 
ATOM     26  F   UNL A   1      30.506  27.604  24.967  1.00  0.00    -0.167 F 
ATOM     27  F   UNL A   1      30.584  25.829  23.715  1.00  0.00    -0.167 F 
ATOM     28  F   UNL A   1      29.658  25.727  25.689  1.00  0.00    -0.167 F 
ENDBRANCH  17  25
ENDBRANCH   5   7
ENDBRANCH   4   5
ENDBRANCH   3   4
ENDBRANCH   2   3
ENDBRANCH   1   2
BRANCH   1  29
ATOM     29  C   UNL A   1      31.631  31.825  26.709  1.00  0.00     0.202 C 
BRANCH  29  30
ATOM     30  C   UNL A   1      32.104  33.278  26.838  1.00  0.00     0.261 C 
BRANCH  30  31
ATOM     31  O   UNL A   1      32.278  33.674  28.209  1.00  0.00    -0.460 OA
BRANCH  31  32
ATOM     32  C   UNL A   1      33.309  34.527  28.435  1.00  0.00     0.338 C 
ATOM     33  O   UNL A   1      33.264  35.747  28.450  1.00  0.00    -0.246 OA
BRANCH  32  34
ATOM     34  C   UNL A   1      34.474  33.749  28.891  1.00  0.00     0.060 A 
ATOM     35  C   UNL A   1      35.772  34.114  28.530  1.00  0.00     0.016 A 
ATOM     36  C   UNL A   1      34.249  32.639  29.717  1.00  0.00     0.016 A 
ATOM     37  C   UNL A   1      36.850  33.376  29.022  1.00  0.00     0.010 A 
ATOM     38  C   UNL A   1      35.326  31.898  30.198  1.00  0.00     0.010 A 
ATOM     39  C   UNL A   1      36.635  32.273  29.871  1.00  0.00    -0.014 A 
BRANCH  39  40
ATOM     40  C   UNL A   1      37.777  31.610  30.544  1.00  0.00     0.031 A 
ATOM     41  C   UNL A   1      38.180  31.963  31.943  1.00  0.00     0.074 A 
ATOM     42  C   UNL A   1      38.490  30.711  29.839  1.00  0.00     0.049 A 
ATOM     43  N   UNL A   1      39.147  31.456  32.664  1.00  0.00    -0.248 NA
ATOM     44  C   UNL A   1      37.408  33.014  32.624  1.00  0.00     0.031 C 
ATOM     45  C   UNL A   1      38.224  30.333  28.448  1.00  0.00     0.029 A 
ATOM     46  N   UNL A   1      39.586  29.963  30.183  1.00  0.00    -0.354 N 
ATOM     47  C   UNL A   1      39.110  32.127  33.878  1.00  0.00     0.074 A 
ATOM     48  C   UNL A   1      38.031  33.089  33.794  1.00  0.00     0.031 C 
ATOM     49  C   UNL A   1      39.125  29.418  28.062  1.00  0.00     0.029 A 
ATOM     50  C   UNL A   1      40.047  29.163  29.166  1.00  0.00     0.049 A 
ATOM     51  H   UNL A   1      40.003  29.996  31.075  1.00  0.00     0.167 HD
ATOM     52  C   UNL A   1      39.894  31.940  34.966  1.00  0.00     0.034 A 
ATOM     53  C   UNL A   1      41.097  28.321  29.117  1.00  0.00     0.034 A 
ATOM     54  C   UNL A   1      40.961  30.978  35.046  1.00  0.00     0.049 A 
ATOM     55  C   UNL A   1      41.948  28.133  30.338  1.00  0.00     0.074 A 
ATOM     56  C   UNL A   1      41.771  30.686  36.130  1.00  0.00     0.029 A 
ATOM     57  N   UNL A   1      41.377  30.162  34.005  1.00  0.00    -0.354 N 
ATOM     58  N   UNL A   1      41.826  28.697  31.514  1.00  0.00    -0.248 NA
ATOM     59  C   UNL A   1      43.061  27.178  30.238  1.00  0.00     0.031 C 
ATOM     60  C   UNL A   1      42.692  29.711  35.738  1.00  0.00     0.029 A 
ATOM     61  C   UNL A   1      42.435  29.372  34.419  1.00  0.00     0.049 A 
ATOM     62  H   UNL A   1      40.980  30.148  33.104  1.00  0.00     0.167 HD
ATOM     63  C   UNL A   1      42.824  28.143  32.306  1.00  0.00     0.074 A 
ATOM     64  C   UNL A   1      43.541  27.196  31.477  1.00  0.00     0.031 C 
ATOM     65  C   UNL A   1      43.115  28.402  33.603  1.00  0.00     0.034 A 
BRANCH  52  66
ATOM     66  C   UNL A   1      39.609  32.752  36.200  1.00  0.00     0.023 A 
ATOM     67  C   UNL A   1      40.130  34.058  36.296  1.00  0.00     0.012 A 
ATOM     68  C   UNL A   1      38.721  32.283  37.187  1.00  0.00     0.148 A 
ATOM     69  C   UNL A   1      39.772  34.886  37.360  1.00  0.00     0.002 A 
ATOM     70  C   UNL A   1      38.347  33.124  38.228  1.00  0.00     0.091 A 
ATOM     71  F   UNL A   1      38.244  31.035  37.074  1.00  0.00    -0.205 F 
ATOM     72  C   UNL A   1      38.873  34.424  38.317  1.00  0.00     0.022 A 
BRANCH  70  73
ATOM     73  S   UNL A   1      37.156  32.647  39.485  1.00  0.00     0.127 S 
ATOM     74  O   UNL A   1      37.345  33.700  40.484  1.00  0.00    -0.237 OA
ATOM     75  O   UNL A   1      35.891  32.720  38.753  1.00  0.00    -0.237 OA
ATOM     76  O   UNL A   1      37.538  31.310  39.920  1.00  0.00    -0.744 OA
ENDBRANCH  70  73
ENDBRANCH  52  66
BRANCH  53  77
ATOM     77  C   UNL A   1      41.342  27.544  27.874  1.00  0.00     0.023 A 
ATOM     78  C   UNL A   1      41.926  28.183  26.766  1.00  0.00     0.012 A 
ATOM     79  C   UNL A   1      41.081  26.161  27.821  1.00  0.00     0.148 A 
ATOM     80  C   UNL A   1      42.242  27.459  25.617  1.00  0.00     0.002 A 
ATOM     81  C   UNL A   1      41.432  25.438  26.688  1.00  0.00     0.091 A 
ATOM     82  F   UNL A   1      40.530  25.580  28.894  1.00  0.00    -0.205 F 
ATOM     83  C   UNL A   1      42.004  26.087  25.581  1.00  0.00     0.022 A 
BRANCH  81  84
ATOM     84  S   UNL A   1      41.254  23.656  26.581  1.00  0.00     0.127 S 
ATOM     85  O   UNL A   1      41.712  23.231  27.902  1.00  0.00    -0.237 OA
ATOM     86  O   UNL A   1      39.817  23.514  26.351  1.00  0.00    -0.237 OA
ATOM     87  O   UNL A   1      42.093  23.237  25.466  1.00  0.00    -0.744 OA
ENDBRANCH  81  84
ENDBRANCH  53  77
BRANCH  65  88
ATOM     88  C   UNL A   1      44.235  27.632  34.247  1.00  0.00     0.023 A 
ATOM     89  C   UNL A   1      45.540  28.159  34.241  1.00  0.00     0.012 A 
ATOM     90  C   UNL A   1      43.962  26.453  34.970  1.00  0.00     0.148 A 
ATOM     91  C   UNL A   1      46.562  27.519  34.942  1.00  0.00     0.002 A 
ATOM     92  C   UNL A   1      44.976  25.842  35.695  1.00  0.00     0.091 A 
ATOM     93  F   UNL A   1      42.711  25.971  34.952  1.00  0.00    -0.205 F 
ATOM     94  C   UNL A   1      46.278  26.370  35.679  1.00  0.00     0.022 A 
BRANCH  92  95
ATOM     95  S   UNL A   1      44.693  24.400  36.729  1.00  0.00     0.127 S 
ATOM     96  O   UNL A   1      43.710  24.909  37.686  1.00  0.00    -0.237 OA
ATOM     97  O   UNL A   1      44.165  23.432  35.769  1.00  0.00    -0.237 OA
ATOM     98  O   UNL A   1      45.985  24.050  37.301  1.00  0.00    -0.744 OA
ENDBRANCH  92  95
ENDBRANCH  65  88
ENDBRANCH  39  40
ENDBRANCH  32  34
ENDBRANCH  31  32
ENDBRANCH  30  31
ENDBRANCH  29  30
ENDBRANCH   1  29
TORSDOF 21
ENDMDL
MODEL 2
REMARK VINA RESULT:     -10.8      1.639      2.362
REMARK SMILES CC(C)[N@H+](C)Cc1cc2c(cc1Cl)C=C(C(=O)OCCOCCOC(=O)c1ccc(-c3c4nc(c(-c5cccc(S(=O)(=O)[O-])c5F)c5ccc([nH]5)c(-c5cccc(S(=O)(=O)[O-])c5F)c5nc(c(-c6cccc(S(=O)(=O)[O-])c6F)c6ccc3[nH]6)C=C5)C=C4)cc1)[C@@H](C(F)(F)F)O2
REMARK SMILES IDX 21 1 20 2 19 3 18 4 16 5 17 6 15 7 7 8 8 9 12 10 9 11 11 12
REMARK SMILES IDX 13 13 10 14 95 15 14 16 90 17 6 18 4 19 5 20 2 22 1 23 3 24
REMARK SMILES IDX 91 25 92 26 93 27 94 28 22 29 23 30 24 31 25 32 26 33 27 34
REMARK SMILES IDX 28 35 89 36 29 37 88 38 30 39 31 40 32 41 82 42 33 43 87 44
REMARK SMILES IDX 81 45 83 46 34 47 86 48 80 49 79 50 35 52 67 53 47 54 66 55
REMARK SMILES IDX 48 56 51 57 65 58 84 59 49 60 50 61 64 63 85 64 52 65 36 66
REMARK SMILES IDX 37 67 45 68 38 69 40 70 46 71 39 72 41 73 42 74 43 75 44 76
REMARK SMILES IDX 68 77 69 78 77 79 70 80 72 81 78 82 71 83 73 84 74 85 75 86
REMARK SMILES IDX 76 87 53 88 54 89 62 90 55 91 57 92 63 93 56 94 58 95 59 96
REMARK SMILES IDX 60 97 61 98
REMARK H PARENT 4 21 83 51 51 62
REMARK Flexibility Score: inf
ROOT
ATOM      1  O   UNL A   1      33.705  28.531  24.432  1.00  0.00    -0.374 OA
ENDROOT
BRANCH   1   2
ATOM      2  C   UNL A   1      32.911  28.945  23.321  1.00  0.00     0.202 C 
BRANCH   2   3
ATOM      3  C   UNL A   1      31.930  27.925  22.731  1.00  0.00     0.261 C 
BRANCH   3   4
ATOM      4  O   UNL A   1      32.366  26.578  22.965  1.00  0.00    -0.460 OA
BRANCH   4   5
ATOM      5  C   UNL A   1      31.366  25.710  23.235  1.00  0.00     0.338 C 
ATOM      6  O   UNL A   1      30.188  25.816  22.933  1.00  0.00    -0.246 OA
BRANCH   5   7
ATOM      7  C   UNL A   1      31.943  24.476  23.790  1.00  0.00     0.087 C 
ATOM      8  C   UNL A   1      32.724  19.625  24.714  1.00  0.00     0.029 A 
ATOM      9  C   UNL A   1      33.030  20.819  25.400  1.00  0.00     0.058 A 
ATOM     10  C   UNL A   1      32.350  19.723  23.360  1.00  0.00     0.050 A 
ATOM     11  C   UNL A   1      32.788  22.062  24.820  1.00  0.00     0.128 A 
ATOM     12  C   UNL A   1      32.051  20.966  22.806  1.00  0.00     0.033 A 
ATOM     13  Cl  UNL A   1      32.211  18.384  22.273  1.00  0.00    -0.084 Cl
ATOM     14  C   UNL A   1      32.217  22.126  23.555  1.00  0.00     0.019 A 
ATOM     15  O   UNL A   1      33.095  23.161  25.568  1.00  0.00    -0.475 OA
ATOM     16  C   UNL A   1      31.720  23.384  23.050  1.00  0.00     0.027 C 
ATOM     17  C   UNL A   1      32.744  24.485  25.061  1.00  0.00     0.316 C 
BRANCH   8  18
ATOM     18  C   UNL A   1      32.802  18.332  25.505  1.00  0.00     0.300 C 
BRANCH  18  19
ATOM     19  N   UNL A   1      33.821  17.408  25.026  1.00  0.00    -0.332 N 
ATOM     20  C   UNL A   1      35.028  18.045  24.541  1.00  0.00     0.333 C 
ATOM     21  H   UNL A   1      33.325  17.066  24.203  1.00  0.00     0.348 HD
BRANCH  19  22
ATOM     22  C   UNL A   1      33.963  16.068  25.596  1.00  0.00     0.177 C 
ATOM     23  C   UNL A   1      32.824  15.091  25.294  1.00  0.00     0.075 C 
ATOM     24  C   UNL A   1      35.302  15.429  25.208  1.00  0.00     0.075 C 
ENDBRANCH  19  22
ENDBRANCH  18  19
ENDBRANCH   8  18
BRANCH  17  25
ATOM     25  C   UNL A   1      32.042  25.237  26.199  1.00  0.00     0.430 C 
ATOM     26  F   UNL A   1      30.867  25.765  25.777  1.00  0.00    -0.167 F 
ATOM     27  F   UNL A   1      31.757  24.426  27.241  1.00  0.00    -0.167 F 
ATOM     28  F   UNL A   1      32.800  26.255  26.666  1.00  0.00    -0.167 F 
ENDBRANCH  17  25
ENDBRANCH   5   7
ENDBRANCH   4   5
ENDBRANCH   3   4
ENDBRANCH   2   3
ENDBRANCH   1   2
BRANCH   1  29
ATOM     29  C   UNL A   1      33.356  29.019  25.727  1.00  0.00     0.202 C 
BRANCH  29  30
ATOM     30  C   UNL A   1      32.748  30.422  25.847  1.00  0.00     0.261 C 
BRANCH  30  31
ATOM     31  O   UNL A   1      32.685  30.873  27.210  1.00  0.00    -0.460 OA
BRANCH  31  32
ATOM     32  C   UNL A   1      33.461  31.950  27.496  1.00  0.00     0.338 C 
ATOM     33  O   UNL A   1      33.112  33.119  27.530  1.00  0.00    -0.246 OA
BRANCH  32  34
ATOM     34  C   UNL A   1      34.765  31.474  27.990  1.00  0.00     0.060 A 
ATOM     35  C   UNL A   1      35.882  32.311  27.999  1.00  0.00     0.016 A 
ATOM     36  C   UNL A   1      34.854  30.161  28.471  1.00  0.00     0.016 A 
ATOM     37  C   UNL A   1      37.088  31.835  28.518  1.00  0.00     0.010 A 
ATOM     38  C   UNL A   1      36.061  29.684  28.979  1.00  0.00     0.010 A 
ATOM     39  C   UNL A   1      37.180  30.525  29.026  1.00  0.00    -0.014 A 
BRANCH  39  40
ATOM     40  C   UNL A   1      38.398  30.084  29.747  1.00  0.00     0.031 A 
ATOM     41  C   UNL A   1      38.746  30.617  31.103  1.00  0.00     0.074 A 
ATOM     42  C   UNL A   1      39.224  29.223  29.124  1.00  0.00     0.049 A 
ATOM     43  N   UNL A   1      39.769  30.312  31.861  1.00  0.00    -0.248 NA
ATOM     44  C   UNL A   1      37.840  31.617  31.689  1.00  0.00     0.031 C 
ATOM     45  C   UNL A   1      39.015  28.683  27.778  1.00  0.00     0.029 A 
ATOM     46  N   UNL A   1      40.409  28.661  29.528  1.00  0.00    -0.354 N 
ATOM     47  C   UNL A   1      39.640  31.084  33.006  1.00  0.00     0.074 A 
ATOM     48  C   UNL A   1      38.444  31.884  32.841  1.00  0.00     0.031 C 
ATOM     49  C   UNL A   1      40.030  27.862  27.472  1.00  0.00     0.029 A 
ATOM     50  C   UNL A   1      40.974  27.836  28.586  1.00  0.00     0.049 A 
ATOM     51  H   UNL A   1      40.814  28.833  30.408  1.00  0.00     0.167 HD
ATOM     52  C   UNL A   1      40.438  31.106  34.099  1.00  0.00     0.034 A 
ATOM     53  C   UNL A   1      42.125  27.138  28.607  1.00  0.00     0.034 A 
ATOM     54  C   UNL A   1      41.622  30.304  34.259  1.00  0.00     0.049 A 
ATOM     55  C   UNL A   1      42.990  27.180  29.833  1.00  0.00     0.074 A 
ATOM     56  C   UNL A   1      42.459  30.225  35.358  1.00  0.00     0.029 A 
ATOM     57  N   UNL A   1      42.145  29.455  33.297  1.00  0.00    -0.354 N 
ATOM     58  N   UNL A   1      42.791  27.832  30.951  1.00  0.00    -0.248 NA
ATOM     59  C   UNL A   1      44.219  26.374  29.813  1.00  0.00     0.031 C 
ATOM     60  C   UNL A   1      43.502  29.347  35.052  1.00  0.00     0.029 A 
ATOM     61  C   UNL A   1      43.296  28.854  33.774  1.00  0.00     0.049 A 
ATOM     62  H   UNL A   1      41.756  29.304  32.405  1.00  0.00     0.167 HD
ATOM     63  C   UNL A   1      43.850  27.491  31.782  1.00  0.00     0.074 A 
ATOM     64  C   UNL A   1      44.688  26.573  31.040  1.00  0.00     0.031 C 
ATOM     65  C   UNL A   1      44.101  27.908  33.046  1.00  0.00     0.034 A 
BRANCH  52  66
ATOM     66  C   UNL A   1      40.044  31.987  35.253  1.00  0.00     0.023 A 
ATOM     67  C   UNL A   1      40.463  33.333  35.262  1.00  0.00     0.012 A 
ATOM     68  C   UNL A   1      39.154  31.530  36.243  1.00  0.00     0.148 A 
ATOM     69  C   UNL A   1      40.003  34.211  36.243  1.00  0.00     0.002 A 
ATOM     70  C   UNL A   1      38.678  32.417  37.201  1.00  0.00     0.091 A 
ATOM     71  F   UNL A   1      38.776  30.244  36.215  1.00  0.00    -0.205 F 
ATOM     72  C   UNL A   1      39.103  33.757  37.203  1.00  0.00     0.022 A 
BRANCH  70  73
ATOM     73  S   UNL A   1      37.475  31.949  38.451  1.00  0.00     0.127 S 
ATOM     74  O   UNL A   1      36.396  32.902  38.191  1.00  0.00    -0.237 OA
ATOM     75  O   UNL A   1      37.171  30.567  38.081  1.00  0.00    -0.237 OA
ATOM     76  O   UNL A   1      38.142  32.110  39.735  1.00  0.00    -0.744 OA
ENDBRANCH  70  73
ENDBRANCH  52  66
BRANCH  53  77
ATOM     77  C   UNL A   1      42.475  26.285  27.441  1.00  0.00     0.023 A 
ATOM     78  C   UNL A   1      43.291  26.811  26.423  1.00  0.00     0.012 A 
ATOM     79  C   UNL A   1      42.075  24.937  27.384  1.00  0.00     0.148 A 
ATOM     80  C   UNL A   1      43.701  26.008  25.359  1.00  0.00     0.002 A 
ATOM     81  C   UNL A   1      42.517  24.132  26.341  1.00  0.00     0.091 A 
ATOM     82  F   UNL A   1      41.303  24.463  28.371  1.00  0.00    -0.205 F 
ATOM     83  C   UNL A   1      43.322  24.668  25.324  1.00  0.00     0.022 A 
BRANCH  81  84
ATOM     84  S   UNL A   1      42.163  22.374  26.256  1.00  0.00     0.127 S 
ATOM     85  O   UNL A   1      40.703  22.367  26.207  1.00  0.00    -0.237 OA
ATOM     86  O   UNL A   1      42.824  21.999  25.007  1.00  0.00    -0.237 OA
ATOM     87  O   UNL A   1      42.750  21.791  27.455  1.00  0.00    -0.744 OA
ENDBRANCH  81  84
ENDBRANCH  53  77
BRANCH  65  88
ATOM     88  C   UNL A   1      45.310  27.356  33.750  1.00  0.00     0.023 A 
ATOM     89  C   UNL A   1      46.522  28.072  33.723  1.00  0.00     0.012 A 
ATOM     90  C   UNL A   1      45.202  26.197  34.545  1.00  0.00     0.148 A 
ATOM     91  C   UNL A   1      47.613  27.637  34.475  1.00  0.00     0.002 A 
ATOM     92  C   UNL A   1      46.281  25.790  35.318  1.00  0.00     0.091 A 
ATOM     93  F   UNL A   1      44.038  25.532  34.545  1.00  0.00    -0.205 F 
ATOM     94  C   UNL A   1      47.490  26.507  35.281  1.00  0.00     0.022 A 
BRANCH  92  95
ATOM     95  S   UNL A   1      46.196  24.390  36.439  1.00  0.00     0.127 S 
ATOM     96  O   UNL A   1      45.196  24.844  37.406  1.00  0.00    -0.237 OA
ATOM     97  O   UNL A   1      45.746  23.315  35.555  1.00  0.00    -0.237 OA
ATOM     98  O   UNL A   1      47.538  24.216  36.976  1.00  0.00    -0.744 OA
ENDBRANCH  92  95
ENDBRANCH  65  88
ENDBRANCH  39  40
ENDBRANCH  32  34
ENDBRANCH  31  32
ENDBRANCH  30  31
ENDBRANCH  29  30
ENDBRANCH   1  29
TORSDOF 21
ENDMDL
MODEL 3
REMARK VINA RESULT:     -10.8      1.791      7.644
REMARK SMILES CC(C)[N@H+](C)Cc1cc2c(cc1Cl)C=C(C(=O)OCCOCCOC(=O)c1ccc(-c3c4nc(c(-c5cccc(S(=O)(=O)[O-])c5F)c5ccc([nH]5)c(-c5cccc(S(=O)(=O)[O-])c5F)c5nc(c(-c6cccc(S(=O)(=O)[O-])c6F)c6ccc3[nH]6)C=C5)C=C4)cc1)[C@@H](C(F)(F)F)O2
REMARK SMILES IDX 21 1 20 2 19 3 18 4 16 5 17 6 15 7 7 8 8 9 12 10 9 11 11 12
REMARK SMILES IDX 13 13 10 14 95 15 14 16 90 17 6 18 4 19 5 20 2 22 1 23 3 24
REMARK SMILES IDX 91 25 92 26 93 27 94 28 22 29 23 30 24 31 25 32 26 33 27 34
REMARK SMILES IDX 28 35 89 36 29 37 88 38 30 39 31 40 32 41 82 42 33 43 87 44
REMARK SMILES IDX 81 45 83 46 34 47 86 48 80 49 79 50 35 52 67 53 47 54 66 55
REMARK SMILES IDX 48 56 51 57 65 58 84 59 49 60 50 61 64 63 85 64 52 65 36 66
REMARK SMILES IDX 37 67 45 68 38 69 40 70 46 71 39 72 41 73 42 74 43 75 44 76
REMARK SMILES IDX 68 77 69 78 77 79 70 80 72 81 78 82 71 83 73 84 74 85 75 86
REMARK SMILES IDX 76 87 53 88 54 89 62 90 55 91 57 92 63 93 56 94 58 95 59 96
REMARK SMILES IDX 60 97 61 98
REMARK H PARENT 4 21 83 51 51 62
REMARK Flexibility Score: inf
ROOT
ATOM      1  O   UNL A   1      32.441  30.483  25.793  1.00  0.00    -0.374 OA
ENDROOT
BRANCH   1   2
ATOM      2  C   UNL A   1      31.556  29.368  25.694  1.00  0.00     0.202 C 
BRANCH   2   3
ATOM      3  C   UNL A   1      30.682  29.265  24.439  1.00  0.00     0.261 C 
BRANCH   3   4
ATOM      4  O   UNL A   1      30.396  27.898  24.107  1.00  0.00    -0.460 OA
BRANCH   4   5
ATOM      5  C   UNL A   1      30.595  27.590  22.806  1.00  0.00     0.338 C 
ATOM      6  O   UNL A   1      30.175  28.187  21.828  1.00  0.00    -0.246 OA
BRANCH   5   7
ATOM      7  C   UNL A   1      31.590  26.509  22.720  1.00  0.00     0.087 C 
ATOM      8  C   UNL A   1      34.078  22.289  23.715  1.00  0.00     0.029 A 
ATOM      9  C   UNL A   1      34.403  23.490  23.049  1.00  0.00     0.058 A 
ATOM     10  C   UNL A   1      32.718  22.024  23.963  1.00  0.00     0.050 A 
ATOM     11  C   UNL A   1      33.437  24.465  22.816  1.00  0.00     0.128 A 
ATOM     12  C   UNL A   1      31.767  23.026  23.785  1.00  0.00     0.033 A 
ATOM     13  Cl  UNL A   1      32.088  20.505  24.503  1.00  0.00    -0.084 Cl
ATOM     14  C   UNL A   1      32.139  24.262  23.266  1.00  0.00     0.019 A 
ATOM     15  O   UNL A   1      33.850  25.603  22.186  1.00  0.00    -0.475 OA
ATOM     16  C   UNL A   1      31.196  25.355  23.270  1.00  0.00     0.027 C 
ATOM     17  C   UNL A   1      32.910  26.709  22.030  1.00  0.00     0.316 C 
BRANCH   8  18
ATOM     18  C   UNL A   1      35.231  21.392  24.129  1.00  0.00     0.300 C 
BRANCH  18  19
ATOM     19  N   UNL A   1      36.007  21.908  25.249  1.00  0.00    -0.332 N 
ATOM     20  C   UNL A   1      37.396  21.499  25.254  1.00  0.00     0.333 C 
ATOM     21  H   UNL A   1      35.549  21.382  25.992  1.00  0.00     0.348 HD
BRANCH  19  22
ATOM     22  C   UNL A   1      35.694  23.199  25.861  1.00  0.00     0.177 C 
ATOM     23  C   UNL A   1      34.681  23.165  27.007  1.00  0.00     0.075 C 
ATOM     24  C   UNL A   1      36.963  23.927  26.322  1.00  0.00     0.075 C 
ENDBRANCH  19  22
ENDBRANCH  18  19
ENDBRANCH   8  18
BRANCH  17  25
ATOM     25  C   UNL A   1      33.629  27.985  22.485  1.00  0.00     0.430 C 
ATOM     26  F   UNL A   1      32.906  29.087  22.169  1.00  0.00    -0.167 F 
ATOM     27  F   UNL A   1      33.819  28.009  23.822  1.00  0.00    -0.167 F 
ATOM     28  F   UNL A   1      34.839  28.112  21.894  1.00  0.00    -0.167 F 
ENDBRANCH  17  25
ENDBRANCH   5   7
ENDBRANCH   4   5
ENDBRANCH   3   4
ENDBRANCH   2   3
ENDBRANCH   1   2
BRANCH   1  29
ATOM     29  C   UNL A   1      32.645  31.068  27.079  1.00  0.00     0.202 C 
BRANCH  29  30
ATOM     30  C   UNL A   1      32.524  32.589  27.224  1.00  0.00     0.261 C 
BRANCH  30  31
ATOM     31  O   UNL A   1      33.293  33.095  28.329  1.00  0.00    -0.460 OA
BRANCH  31  32
ATOM     32  C   UNL A   1      34.420  33.767  27.984  1.00  0.00     0.338 C 
ATOM     33  O   UNL A   1      34.491  34.895  27.522  1.00  0.00    -0.246 OA
BRANCH  32  34
ATOM     34  C   UNL A   1      35.588  33.009  28.468  1.00  0.00     0.060 A 
ATOM     35  C   UNL A   1      36.864  33.573  28.466  1.00  0.00     0.016 A 
ATOM     36  C   UNL A   1      35.381  31.710  28.953  1.00  0.00     0.016 A 
ATOM     37  C   UNL A   1      37.936  32.836  28.976  1.00  0.00     0.010 A 
ATOM     38  C   UNL A   1      36.454  30.973  29.451  1.00  0.00     0.010 A 
ATOM     39  C   UNL A   1      37.735  31.539  29.486  1.00  0.00    -0.014 A 
BRANCH  39  40
ATOM     40  C   UNL A   1      38.828  30.836  30.198  1.00  0.00     0.031 A 
ATOM     41  C   UNL A   1      39.631  29.756  29.539  1.00  0.00     0.074 A 
ATOM     42  C   UNL A   1      39.049  31.154  31.487  1.00  0.00     0.049 A 
ATOM     43  N   UNL A   1      40.626  29.065  30.032  1.00  0.00    -0.248 NA
ATOM     44  C   UNL A   1      39.280  29.403  28.155  1.00  0.00     0.031 C 
ATOM     45  C   UNL A   1      38.289  32.149  32.249  1.00  0.00     0.029 A 
ATOM     46  N   UNL A   1      39.962  30.671  32.389  1.00  0.00    -0.354 N 
ATOM     47  C   UNL A   1      41.017  28.189  29.029  1.00  0.00     0.074 A 
ATOM     48  C   UNL A   1      40.143  28.426  27.899  1.00  0.00     0.031 C 
ATOM     49  C   UNL A   1      38.774  32.208  33.498  1.00  0.00     0.029 A 
ATOM     50  C   UNL A   1      39.858  31.241  33.635  1.00  0.00     0.049 A 
ATOM     51  H   UNL A   1      40.629  29.982  32.165  1.00  0.00     0.167 HD
ATOM     52  C   UNL A   1      42.025  27.285  29.049  1.00  0.00     0.034 A 
ATOM     53  C   UNL A   1      40.552  31.012  34.766  1.00  0.00     0.034 A 
ATOM     54  C   UNL A   1      42.894  27.058  30.172  1.00  0.00     0.049 A 
ATOM     55  C   UNL A   1      41.664  30.005  34.758  1.00  0.00     0.074 A 
ATOM     56  C   UNL A   1      43.976  26.199  30.257  1.00  0.00     0.029 A 
ATOM     57  N   UNL A   1      42.779  27.679  31.406  1.00  0.00    -0.354 N 
ATOM     58  N   UNL A   1      42.090  29.266  33.764  1.00  0.00    -0.248 NA
ATOM     59  C   UNL A   1      42.407  29.818  36.012  1.00  0.00     0.031 C 
ATOM     60  C   UNL A   1      44.500  26.281  31.550  1.00  0.00     0.029 A 
ATOM     61  C   UNL A   1      43.765  27.217  32.260  1.00  0.00     0.049 A 
ATOM     62  H   UNL A   1      42.096  28.348  31.641  1.00  0.00     0.167 HD
ATOM     63  C   UNL A   1      43.172  28.550  34.260  1.00  0.00     0.074 A 
ATOM     64  C   UNL A   1      43.339  28.945  35.643  1.00  0.00     0.031 C 
ATOM     65  C   UNL A   1      43.952  27.646  33.621  1.00  0.00     0.034 A 
BRANCH  52  66
ATOM     66  C   UNL A   1      42.297  26.493  27.799  1.00  0.00     0.023 A 
ATOM     67  C   UNL A   1      43.095  27.063  26.787  1.00  0.00     0.012 A 
ATOM     68  C   UNL A   1      41.887  25.151  27.688  1.00  0.00     0.148 A 
ATOM     69  C   UNL A   1      43.480  26.307  25.679  1.00  0.00     0.002 A 
ATOM     70  C   UNL A   1      42.298  24.396  26.596  1.00  0.00     0.091 A 
ATOM     71  F   UNL A   1      41.124  24.635  28.662  1.00  0.00    -0.205 F 
ATOM     72  C   UNL A   1      43.092  24.973  25.591  1.00  0.00     0.022 A 
BRANCH  70  73
ATOM     73  S   UNL A   1      41.898  22.655  26.409  1.00  0.00     0.127 S 
ATOM     74  O   UNL A   1      42.504  22.083  27.612  1.00  0.00    -0.237 OA
ATOM     75  O   UNL A   1      40.435  22.673  26.413  1.00  0.00    -0.237 OA
ATOM     76  O   UNL A   1      42.504  22.232  25.154  1.00  0.00    -0.744 OA
ENDBRANCH  70  73
ENDBRANCH  52  66
BRANCH  53  77
ATOM     77  C   UNL A   1      40.243  31.815  35.978  1.00  0.00     0.023 A 
ATOM     78  C   UNL A   1      41.096  32.874  36.339  1.00  0.00     0.012 A 
ATOM     79  C   UNL A   1      39.066  31.589  36.717  1.00  0.00     0.148 A 
ATOM     80  C   UNL A   1      40.786  33.694  37.423  1.00  0.00     0.002 A 
ATOM     81  C   UNL A   1      38.743  32.432  37.773  1.00  0.00     0.091 A 
ATOM     82  F   UNL A   1      38.270  30.577  36.345  1.00  0.00    -0.205 F 
ATOM     83  C   UNL A   1      39.607  33.479  38.133  1.00  0.00     0.022 A 
BRANCH  81  84
ATOM     84  S   UNL A   1      37.204  32.297  38.687  1.00  0.00     0.127 S 
ATOM     85  O   UNL A   1      37.511  33.052  39.899  1.00  0.00    -0.237 OA
ATOM     86  O   UNL A   1      36.261  32.946  37.777  1.00  0.00    -0.237 OA
ATOM     87  O   UNL A   1      36.980  30.871  38.880  1.00  0.00    -0.744 OA
ENDBRANCH  81  84
ENDBRANCH  53  77
BRANCH  65  88
ATOM     88  C   UNL A   1      45.096  27.031  34.380  1.00  0.00     0.023 A 
ATOM     89  C   UNL A   1      46.344  27.681  34.411  1.00  0.00     0.012 A 
ATOM     90  C   UNL A   1      44.887  25.881  35.167  1.00  0.00     0.148 A 
ATOM     91  C   UNL A   1      47.374  27.189  35.213  1.00  0.00     0.002 A 
ATOM     92  C   UNL A   1      45.906  25.418  35.990  1.00  0.00     0.091 A 
ATOM     93  F   UNL A   1      43.691  25.279  35.112  1.00  0.00    -0.205 F 
ATOM     94  C   UNL A   1      47.152  26.068  36.011  1.00  0.00     0.022 A 
BRANCH  92  95
ATOM     95  S   UNL A   1      45.693  24.025  37.104  1.00  0.00     0.127 S 
ATOM     96  O   UNL A   1      45.231  22.981  36.190  1.00  0.00    -0.237 OA
ATOM     97  O   UNL A   1      47.049  23.831  37.618  1.00  0.00    -0.237 OA
ATOM     98  O   UNL A   1      44.718  24.447  38.101  1.00  0.00    -0.744 OA
ENDBRANCH  92  95
ENDBRANCH  65  88
ENDBRANCH  39  40
ENDBRANCH  32  34
ENDBRANCH  31  32
ENDBRANCH  30  31
ENDBRANCH  29  30
ENDBRANCH   1  29
TORSDOF 21
ENDMDL
