MODEL 1
REMARK VINA RESULT:     -11.3      0.000      0.000
REMARK SMILES Cc1cccc(C)c1Nc1ccccc1CC(=O)OCCOCCOC(=O)c1ccc(-c2c3nc(c(-c4cccc(S(=O)(=O)[O-])c4F)c4ccc([nH]4)c(-c4cccc(S(=O)(=O)[O-])c4F)c4nc(c(-c5cccc(S(=O)(=O)[O-])c5F)c5ccc2[nH]5)C=C4)C=C3)cc1
REMARK SMILES IDX 22 1 21 2 20 3 19 4 17 5 18 6 16 7 15 8 10 9 11 10 12 11
REMARK SMILES IDX 14 12 13 13 9 14 8 16 1 17 2 18 3 19 4 20 6 21 5 22 7 23
REMARK SMILES IDX 23 24 24 25 25 26 26 27 27 28 28 29 29 30 90 31 30 32 89 33
REMARK SMILES IDX 31 34 32 35 33 36 83 37 34 38 88 39 82 40 84 41 35 42 87 43
REMARK SMILES IDX 81 44 80 45 36 47 68 48 48 49 67 50 49 51 52 52 66 53 85 54
REMARK SMILES IDX 50 55 51 56 65 58 86 59 53 60 37 61 38 62 46 63 39 64 41 65
REMARK SMILES IDX 47 66 40 67 42 68 43 69 44 70 45 71 69 72 70 73 78 74 71 75
REMARK SMILES IDX 73 76 79 77 72 78 74 79 75 80 76 81 77 82 54 83 55 84 63 85
REMARK SMILES IDX 56 86 58 87 64 88 57 89 59 90 60 91 61 92 62 93
REMARK H PARENT 9 15 84 46 52 57
REMARK Flexibility Score: inf
ROOT
ATOM      1  O   UNL A   1      35.422  22.481  24.179  1.00  0.00    -0.374 OA
ENDROOT
BRANCH   1   2
ATOM      2  C   UNL A   1      34.830  23.744  24.482  1.00  0.00     0.202 C 
BRANCH   2   3
ATOM      3  C   UNL A   1      34.556  24.705  23.318  1.00  0.00     0.261 C 
BRANCH   3   4
ATOM      4  O   UNL A   1      33.674  25.788  23.663  1.00  0.00    -0.463 OA
BRANCH   4   5
ATOM      5  C   UNL A   1      33.633  26.802  22.759  1.00  0.00     0.310 C 
ATOM      6  O   UNL A   1      33.342  26.657  21.573  1.00  0.00    -0.252 OA
BRANCH   5   7
ATOM      7  C   UNL A   1      33.983  28.164  23.298  1.00  0.00     0.160 C 
BRANCH   7   8
ATOM      8  C   UNL A   1      33.274  28.720  24.521  1.00  0.00    -0.013 A 
ATOM      9  C   UNL A   1      32.013  29.348  24.461  1.00  0.00     0.042 A 
ATOM     10  C   UNL A   1      31.467  29.903  25.638  1.00  0.00     0.026 A 
ATOM     11  C   UNL A   1      32.098  29.762  26.871  1.00  0.00     0.002 A 
ATOM     12  C   UNL A   1      33.861  28.534  25.790  1.00  0.00     0.006 A 
ATOM     13  C   UNL A   1      33.285  29.050  26.951  1.00  0.00     0.000 A 
BRANCH   9  14
ATOM     14  N   UNL A   1      31.169  29.321  23.334  1.00  0.00    -0.355 N 
ATOM     15  H   UNL A   1      31.633  29.490  22.482  1.00  0.00     0.167 HD
BRANCH  14  16
ATOM     16  C   UNL A   1      29.779  29.095  23.197  1.00  0.00     0.044 A 
ATOM     17  C   UNL A   1      30.242  26.614  23.589  1.00  0.00     0.046 C 
ATOM     18  C   UNL A   1      29.299  27.777  23.407  1.00  0.00    -0.027 A 
ATOM     19  C   UNL A   1      27.919  27.536  23.501  1.00  0.00     0.005 A 
ATOM     20  C   UNL A   1      27.008  28.578  23.385  1.00  0.00     0.001 A 
ATOM     21  C   UNL A   1      28.835  30.136  22.991  1.00  0.00    -0.027 A 
ATOM     22  C   UNL A   1      27.462  29.865  23.123  1.00  0.00     0.005 A 
ATOM     23  C   UNL A   1      29.209  31.556  22.650  1.00  0.00     0.046 C 
ENDBRANCH  14  16
ENDBRANCH   9  14
ENDBRANCH   7   8
ENDBRANCH   5   7
ENDBRANCH   4   5
ENDBRANCH   3   4
ENDBRANCH   2   3
ENDBRANCH   1   2
BRANCH   1  24
ATOM     24  C   UNL A   1      35.465  21.518  25.229  1.00  0.00     0.202 C 
BRANCH  24  25
ATOM     25  C   UNL A   1      36.720  20.642  25.330  1.00  0.00     0.261 C 
BRANCH  25  26
ATOM     26  O   UNL A   1      37.920  21.381  25.041  1.00  0.00    -0.460 OA
BRANCH  26  27
ATOM     27  C   UNL A   1      38.956  21.113  25.867  1.00  0.00     0.338 C 
ATOM     28  O   UNL A   1      39.551  20.046  25.981  1.00  0.00    -0.246 OA
BRANCH  27  29
ATOM     29  C   UNL A   1      39.445  22.348  26.505  1.00  0.00     0.060 A 
ATOM     30  C   UNL A   1      38.850  23.550  26.099  1.00  0.00     0.016 A 
ATOM     31  C   UNL A   1      40.515  22.352  27.400  1.00  0.00     0.016 A 
ATOM     32  C   UNL A   1      39.370  24.766  26.529  1.00  0.00     0.010 A 
ATOM     33  C   UNL A   1      41.044  23.578  27.824  1.00  0.00     0.010 A 
ATOM     34  C   UNL A   1      40.502  24.788  27.351  1.00  0.00    -0.014 A 
BRANCH  34  35
ATOM     35  C   UNL A   1      41.205  26.076  27.566  1.00  0.00     0.031 A 
ATOM     36  C   UNL A   1      40.512  27.162  28.346  1.00  0.00     0.074 A 
ATOM     37  C   UNL A   1      42.459  26.260  27.117  1.00  0.00     0.049 A 
ATOM     38  N   UNL A   1      40.952  28.344  28.688  1.00  0.00    -0.248 NA
ATOM     39  C   UNL A   1      39.141  26.876  28.802  1.00  0.00     0.031 C 
ATOM     40  C   UNL A   1      43.234  25.280  26.357  1.00  0.00     0.029 A 
ATOM     41  N   UNL A   1      43.295  27.342  27.224  1.00  0.00    -0.354 N 
ATOM     42  C   UNL A   1      39.910  28.952  29.378  1.00  0.00     0.074 A 
ATOM     43  C   UNL A   1      38.808  28.015  29.393  1.00  0.00     0.031 C 
ATOM     44  C   UNL A   1      44.426  25.816  26.046  1.00  0.00     0.029 A 
ATOM     45  C   UNL A   1      44.492  27.179  26.570  1.00  0.00     0.049 A 
ATOM     46  H   UNL A   1      43.059  28.157  27.723  1.00  0.00     0.167 HD
ATOM     47  C   UNL A   1      39.877  30.172  29.963  1.00  0.00     0.034 A 
ATOM     48  C   UNL A   1      45.517  28.039  26.402  1.00  0.00     0.034 A 
ATOM     49  C   UNL A   1      40.981  31.093  29.967  1.00  0.00     0.049 A 
ATOM     50  C   UNL A   1      45.451  29.398  27.049  1.00  0.00     0.074 A 
ATOM     51  C   UNL A   1      41.065  32.333  30.576  1.00  0.00     0.029 A 
ATOM     52  N   UNL A   1      42.190  30.879  29.324  1.00  0.00    -0.354 N 
ATOM     53  N   UNL A   1      44.508  29.907  27.805  1.00  0.00    -0.248 NA
ATOM     54  C   UNL A   1      46.605  30.287  26.851  1.00  0.00     0.031 C 
ATOM     55  C   UNL A   1      42.318  32.881  30.278  1.00  0.00     0.029 A 
ATOM     56  C   UNL A   1      43.023  31.971  29.507  1.00  0.00     0.049 A 
ATOM     57  H   UNL A   1      42.423  30.071  28.813  1.00  0.00     0.167 HD
ATOM     58  C   UNL A   1      44.967  31.160  28.199  1.00  0.00     0.074 A 
ATOM     59  C   UNL A   1      46.282  31.322  27.616  1.00  0.00     0.031 C 
ATOM     60  C   UNL A   1      44.351  32.096  28.963  1.00  0.00     0.034 A 
BRANCH  47  61
ATOM     61  C   UNL A   1      38.612  30.573  30.674  1.00  0.00     0.023 A 
ATOM     62  C   UNL A   1      38.450  30.262  32.038  1.00  0.00     0.012 A 
ATOM     63  C   UNL A   1      37.608  31.304  30.007  1.00  0.00     0.148 A 
ATOM     64  C   UNL A   1      37.296  30.644  32.723  1.00  0.00     0.002 A 
ATOM     65  C   UNL A   1      36.480  31.716  30.705  1.00  0.00     0.091 A 
ATOM     66  F   UNL A   1      37.769  31.568  28.703  1.00  0.00    -0.205 F 
ATOM     67  C   UNL A   1      36.318  31.380  32.060  1.00  0.00     0.022 A 
BRANCH  65  68
ATOM     68  S   UNL A   1      35.197  32.728  29.958  1.00  0.00     0.127 S 
ATOM     69  O   UNL A   1      35.969  33.871  29.471  1.00  0.00    -0.237 OA
ATOM     70  O   UNL A   1      34.682  31.849  28.908  1.00  0.00    -0.237 OA
ATOM     71  O   UNL A   1      34.248  33.022  31.022  1.00  0.00    -0.744 OA
ENDBRANCH  65  68
ENDBRANCH  47  61
BRANCH  48  72
ATOM     72  C   UNL A   1      46.713  27.622  25.616  1.00  0.00     0.023 A 
ATOM     73  C   UNL A   1      46.743  27.835  24.225  1.00  0.00     0.012 A 
ATOM     74  C   UNL A   1      47.830  27.038  26.245  1.00  0.00     0.148 A 
ATOM     75  C   UNL A   1      47.853  27.451  23.471  1.00  0.00     0.002 A 
ATOM     76  C   UNL A   1      48.954  26.709  25.497  1.00  0.00     0.091 A 
ATOM     77  F   UNL A   1      47.774  26.823  27.568  1.00  0.00    -0.205 F 
ATOM     78  C   UNL A   1      48.962  26.899  24.108  1.00  0.00     0.022 A 
BRANCH  76  79
ATOM     79  S   UNL A   1      50.472  26.119  26.256  1.00  0.00     0.127 S 
ATOM     80  O   UNL A   1      50.031  24.872  26.877  1.00  0.00    -0.237 OA
ATOM     81  O   UNL A   1      51.347  25.954  25.095  1.00  0.00    -0.237 OA
ATOM     82  O   UNL A   1      50.888  27.172  27.173  1.00  0.00    -0.744 OA
ENDBRANCH  76  79
ENDBRANCH  48  72
BRANCH  60  83
ATOM     83  C   UNL A   1      45.096  33.377  29.239  1.00  0.00     0.023 A 
ATOM     84  C   UNL A   1      45.935  33.465  30.367  1.00  0.00     0.012 A 
ATOM     85  C   UNL A   1      45.027  34.459  28.340  1.00  0.00     0.148 A 
ATOM     86  C   UNL A   1      46.673  34.625  30.612  1.00  0.00     0.002 A 
ATOM     87  C   UNL A   1      45.801  35.591  28.566  1.00  0.00     0.091 A 
ATOM     88  F   UNL A   1      44.210  34.362  27.282  1.00  0.00    -0.205 F 
ATOM     89  C   UNL A   1      46.615  35.681  29.706  1.00  0.00     0.022 A 
BRANCH  87  90
ATOM     90  S   UNL A   1      45.862  36.961  27.403  1.00  0.00     0.127 S 
ATOM     91  O   UNL A   1      46.809  37.863  28.055  1.00  0.00    -0.237 OA
ATOM     92  O   UNL A   1      46.368  36.318  26.190  1.00  0.00    -0.237 OA
ATOM     93  O   UNL A   1      44.496  37.456  27.297  1.00  0.00    -0.744 OA
ENDBRANCH  87  90
ENDBRANCH  60  83
ENDBRANCH  34  35
ENDBRANCH  27  29
ENDBRANCH  26  27
ENDBRANCH  25  26
ENDBRANCH  24  25
ENDBRANCH   1  24
TORSDOF 20
ENDMDL
MODEL 2
REMARK VINA RESULT:     -11.1      1.394      8.139
REMARK SMILES Cc1cccc(C)c1Nc1ccccc1CC(=O)OCCOCCOC(=O)c1ccc(-c2c3nc(c(-c4cccc(S(=O)(=O)[O-])c4F)c4ccc([nH]4)c(-c4cccc(S(=O)(=O)[O-])c4F)c4nc(c(-c5cccc(S(=O)(=O)[O-])c5F)c5ccc2[nH]5)C=C4)C=C3)cc1
REMARK SMILES IDX 22 1 21 2 20 3 19 4 17 5 18 6 16 7 15 8 10 9 11 10 12 11
REMARK SMILES IDX 14 12 13 13 9 14 8 16 1 17 2 18 3 19 4 20 6 21 5 22 7 23
REMARK SMILES IDX 23 24 24 25 25 26 26 27 27 28 28 29 29 30 90 31 30 32 89 33
REMARK SMILES IDX 31 34 32 35 33 36 83 37 34 38 88 39 82 40 84 41 35 42 87 43
REMARK SMILES IDX 81 44 80 45 36 47 68 48 48 49 67 50 49 51 52 52 66 53 85 54
REMARK SMILES IDX 50 55 51 56 65 58 86 59 53 60 37 61 38 62 46 63 39 64 41 65
REMARK SMILES IDX 47 66 40 67 42 68 43 69 44 70 45 71 69 72 70 73 78 74 71 75
REMARK SMILES IDX 73 76 79 77 72 78 74 79 75 80 76 81 77 82 54 83 55 84 63 85
REMARK SMILES IDX 56 86 58 87 64 88 57 89 59 90 60 91 61 92 62 93
REMARK H PARENT 9 15 84 46 52 57
REMARK Flexibility Score: inf
ROOT
ATOM      1  O   UNL A   1      35.462  22.252  24.050  1.00  0.00    -0.374 OA
ENDROOT
BRANCH   1   2
ATOM      2  C   UNL A   1      34.235  22.459  23.350  1.00  0.00     0.202 C 
BRANCH   2   3
ATOM      3  C   UNL A   1      34.068  23.770  22.570  1.00  0.00     0.261 C 
BRANCH   3   4
ATOM      4  O   UNL A   1      32.724  24.284  22.593  1.00  0.00    -0.463 OA
BRANCH   4   5
ATOM      5  C   UNL A   1      32.565  25.496  21.999  1.00  0.00     0.310 C 
ATOM      6  O   UNL A   1      33.310  25.939  21.127  1.00  0.00    -0.252 OA
BRANCH   5   7
ATOM      7  C   UNL A   1      31.394  26.307  22.486  1.00  0.00     0.160 C 
BRANCH   7   8
ATOM      8  C   UNL A   1      31.483  27.100  23.778  1.00  0.00    -0.013 A 
ATOM      9  C   UNL A   1      31.413  26.505  25.055  1.00  0.00     0.042 A 
ATOM     10  C   UNL A   1      31.427  27.330  26.198  1.00  0.00     0.026 A 
ATOM     11  C   UNL A   1      31.605  28.708  26.100  1.00  0.00     0.002 A 
ATOM     12  C   UNL A   1      31.727  28.488  23.708  1.00  0.00     0.006 A 
ATOM     13  C   UNL A   1      31.784  29.285  24.852  1.00  0.00     0.000 A 
BRANCH   9  14
ATOM     14  N   UNL A   1      31.494  25.118  25.285  1.00  0.00    -0.355 N 
ATOM     15  H   UNL A   1      30.855  24.586  24.757  1.00  0.00     0.167 HD
BRANCH  14  16
ATOM     16  C   UNL A   1      32.322  24.345  26.134  1.00  0.00     0.044 A 
ATOM     17  C   UNL A   1      30.222  23.104  26.892  1.00  0.00     0.046 C 
ATOM     18  C   UNL A   1      31.718  23.291  26.866  1.00  0.00    -0.027 A 
ATOM     19  C   UNL A   1      32.518  22.359  27.548  1.00  0.00     0.005 A 
ATOM     20  C   UNL A   1      33.903  22.458  27.520  1.00  0.00     0.001 A 
ATOM     21  C   UNL A   1      33.734  24.487  26.187  1.00  0.00    -0.027 A 
ATOM     22  C   UNL A   1      34.505  23.518  26.853  1.00  0.00     0.005 A 
ATOM     23  C   UNL A   1      34.491  25.623  25.547  1.00  0.00     0.046 C 
ENDBRANCH  14  16
ENDBRANCH   9  14
ENDBRANCH   7   8
ENDBRANCH   5   7
ENDBRANCH   4   5
ENDBRANCH   3   4
ENDBRANCH   2   3
ENDBRANCH   1   2
BRANCH   1  24
ATOM     24  C   UNL A   1      35.783  20.910  24.410  1.00  0.00     0.202 C 
BRANCH  24  25
ATOM     25  C   UNL A   1      36.890  20.707  25.452  1.00  0.00     0.261 C 
BRANCH  25  26
ATOM     26  O   UNL A   1      38.081  21.444  25.126  1.00  0.00    -0.460 OA
BRANCH  26  27
ATOM     27  C   UNL A   1      39.143  21.173  25.919  1.00  0.00     0.338 C 
ATOM     28  O   UNL A   1      39.802  20.140  25.940  1.00  0.00    -0.246 OA
BRANCH  27  29
ATOM     29  C   UNL A   1      39.563  22.381  26.652  1.00  0.00     0.060 A 
ATOM     30  C   UNL A   1      38.871  23.566  26.372  1.00  0.00     0.016 A 
ATOM     31  C   UNL A   1      40.660  22.384  27.515  1.00  0.00     0.016 A 
ATOM     32  C   UNL A   1      39.318  24.775  26.897  1.00  0.00     0.010 A 
ATOM     33  C   UNL A   1      41.114  23.603  28.033  1.00  0.00     0.010 A 
ATOM     34  C   UNL A   1      40.473  24.807  27.686  1.00  0.00    -0.014 A 
BRANCH  34  35
ATOM     35  C   UNL A   1      41.090  26.120  27.997  1.00  0.00     0.031 A 
ATOM     36  C   UNL A   1      42.486  26.403  27.509  1.00  0.00     0.074 A 
ATOM     37  C   UNL A   1      40.401  27.064  28.663  1.00  0.00     0.049 A 
ATOM     38  N   UNL A   1      43.199  27.491  27.628  1.00  0.00    -0.248 NA
ATOM     39  C   UNL A   1      43.167  25.314  26.788  1.00  0.00     0.031 C 
ATOM     40  C   UNL A   1      39.041  26.908  29.178  1.00  0.00     0.029 A 
ATOM     41  N   UNL A   1      40.758  28.336  29.029  1.00  0.00    -0.354 N 
ATOM     42  C   UNL A   1      44.418  27.214  27.021  1.00  0.00     0.074 A 
ATOM     43  C   UNL A   1      44.355  25.850  26.546  1.00  0.00     0.031 C 
ATOM     44  C   UNL A   1      38.688  28.036  29.817  1.00  0.00     0.029 A 
ATOM     45  C   UNL A   1      39.798  28.986  29.768  1.00  0.00     0.049 A 
ATOM     46  H   UNL A   1      41.620  28.745  28.786  1.00  0.00     0.167 HD
ATOM     47  C   UNL A   1      45.487  28.028  26.855  1.00  0.00     0.034 A 
ATOM     48  C   UNL A   1      39.822  30.201  30.350  1.00  0.00     0.034 A 
ATOM     49  C   UNL A   1      45.540  29.391  27.307  1.00  0.00     0.049 A 
ATOM     50  C   UNL A   1      41.030  31.082  30.165  1.00  0.00     0.074 A 
ATOM     51  C   UNL A   1      46.558  30.313  27.143  1.00  0.00     0.029 A 
ATOM     52  N   UNL A   1      44.536  30.026  28.021  1.00  0.00    -0.354 N 
ATOM     53  N   UNL A   1      42.123  30.850  29.479  1.00  0.00    -0.248 NA
ATOM     54  C   UNL A   1      40.994  32.406  30.804  1.00  0.00     0.031 C 
ATOM     55  C   UNL A   1      46.180  31.500  27.781  1.00  0.00     0.029 A 
ATOM     56  C   UNL A   1      44.914  31.324  28.319  1.00  0.00     0.049 A 
ATOM     57  H   UNL A   1      43.679  29.615  28.277  1.00  0.00     0.167 HD
ATOM     58  C   UNL A   1      42.889  32.008  29.575  1.00  0.00     0.074 A 
ATOM     59  C   UNL A   1      42.124  32.947  30.368  1.00  0.00     0.031 C 
ATOM     60  C   UNL A   1      44.120  32.265  29.066  1.00  0.00     0.034 A 
BRANCH  47  61
ATOM     61  C   UNL A   1      46.683  27.471  26.129  1.00  0.00     0.023 A 
ATOM     62  C   UNL A   1      46.791  27.635  24.734  1.00  0.00     0.012 A 
ATOM     63  C   UNL A   1      47.725  26.833  26.833  1.00  0.00     0.148 A 
ATOM     64  C   UNL A   1      47.901  27.149  24.044  1.00  0.00     0.002 A 
ATOM     65  C   UNL A   1      48.846  26.387  26.144  1.00  0.00     0.091 A 
ATOM     66  F   UNL A   1      47.592  26.664  28.155  1.00  0.00    -0.205 F 
ATOM     67  C   UNL A   1      48.932  26.535  24.749  1.00  0.00     0.022 A 
BRANCH  65  68
ATOM     68  S   UNL A   1      50.258  25.647  26.973  1.00  0.00     0.127 S 
ATOM     69  O   UNL A   1      49.678  24.413  27.500  1.00  0.00    -0.237 OA
ATOM     70  O   UNL A   1      51.199  25.456  25.868  1.00  0.00    -0.237 OA
ATOM     71  O   UNL A   1      50.687  26.614  27.973  1.00  0.00    -0.744 OA
ENDBRANCH  65  68
ENDBRANCH  47  61
BRANCH  48  72
ATOM     72  C   UNL A   1      38.643  30.672  31.132  1.00  0.00     0.023 A 
ATOM     73  C   UNL A   1      38.616  30.497  32.528  1.00  0.00     0.012 A 
ATOM     74  C   UNL A   1      37.560  31.313  30.499  1.00  0.00     0.148 A 
ATOM     75  C   UNL A   1      37.521  30.929  33.278  1.00  0.00     0.002 A 
ATOM     76  C   UNL A   1      36.498  31.792  31.258  1.00  0.00     0.091 A 
ATOM     77  F   UNL A   1      37.593  31.451  29.166  1.00  0.00    -0.205 F 
ATOM     78  C   UNL A   1      36.468  31.587  32.645  1.00  0.00     0.022 A 
BRANCH  76  79
ATOM     79  S   UNL A   1      35.169  32.764  30.541  1.00  0.00     0.127 S 
ATOM     80  O   UNL A   1      34.185  32.768  31.620  1.00  0.00    -0.237 OA
ATOM     81  O   UNL A   1      35.827  34.048  30.302  1.00  0.00    -0.237 OA
ATOM     82  O   UNL A   1      34.777  32.059  29.328  1.00  0.00    -0.744 OA
ENDBRANCH  76  79
ENDBRANCH  48  72
BRANCH  60  83
ATOM     83  C   UNL A   1      44.715  33.626  29.324  1.00  0.00     0.023 A 
ATOM     84  C   UNL A   1      45.605  33.805  30.400  1.00  0.00     0.012 A 
ATOM     85  C   UNL A   1      44.455  34.703  28.453  1.00  0.00     0.148 A 
ATOM     86  C   UNL A   1      46.206  35.044  30.625  1.00  0.00     0.002 A 
ATOM     87  C   UNL A   1      45.094  35.920  28.655  1.00  0.00     0.091 A 
ATOM     88  F   UNL A   1      43.592  34.517  27.444  1.00  0.00    -0.205 F 
ATOM     89  C   UNL A   1      45.960  36.097  29.746  1.00  0.00     0.022 A 
BRANCH  87  90
ATOM     90  S   UNL A   1      44.911  37.301  27.520  1.00  0.00     0.127 S 
ATOM     91  O   UNL A   1      45.028  38.446  28.421  1.00  0.00    -0.237 OA
ATOM     92  O   UNL A   1      46.049  37.117  26.618  1.00  0.00    -0.237 OA
ATOM     93  O   UNL A   1      43.609  37.130  26.889  1.00  0.00    -0.744 OA
ENDBRANCH  87  90
ENDBRANCH  60  83
ENDBRANCH  34  35
ENDBRANCH  27  29
ENDBRANCH  26  27
ENDBRANCH  25  26
ENDBRANCH  24  25
ENDBRANCH   1  24
TORSDOF 20
ENDMDL
MODEL 3
REMARK VINA RESULT:     -11.0      5.027      8.441
REMARK SMILES Cc1cccc(C)c1Nc1ccccc1CC(=O)OCCOCCOC(=O)c1ccc(-c2c3nc(c(-c4cccc(S(=O)(=O)[O-])c4F)c4ccc([nH]4)c(-c4cccc(S(=O)(=O)[O-])c4F)c4nc(c(-c5cccc(S(=O)(=O)[O-])c5F)c5ccc2[nH]5)C=C4)C=C3)cc1
REMARK SMILES IDX 22 1 21 2 20 3 19 4 17 5 18 6 16 7 15 8 10 9 11 10 12 11
REMARK SMILES IDX 14 12 13 13 9 14 8 16 1 17 2 18 3 19 4 20 6 21 5 22 7 23
REMARK SMILES IDX 23 24 24 25 25 26 26 27 27 28 28 29 29 30 90 31 30 32 89 33
REMARK SMILES IDX 31 34 32 35 33 36 83 37 34 38 88 39 82 40 84 41 35 42 87 43
REMARK SMILES IDX 81 44 80 45 36 47 68 48 48 49 67 50 49 51 52 52 66 53 85 54
REMARK SMILES IDX 50 55 51 56 65 58 86 59 53 60 37 61 38 62 46 63 39 64 41 65
REMARK SMILES IDX 47 66 40 67 42 68 43 69 44 70 45 71 69 72 70 73 78 74 71 75
REMARK SMILES IDX 73 76 79 77 72 78 74 79 75 80 76 81 77 82 54 83 55 84 63 85
REMARK SMILES IDX 56 86 58 87 64 88 57 89 59 90 60 91 61 92 62 93
REMARK H PARENT 9 15 84 46 52 57
REMARK Flexibility Score: inf
ROOT
ATOM      1  O   UNL A   1      31.957  27.317  24.340  1.00  0.00    -0.374 OA
ENDROOT
BRANCH   1   2
ATOM      2  C   UNL A   1      32.379  25.955  24.277  1.00  0.00     0.202 C 
BRANCH   2   3
ATOM      3  C   UNL A   1      31.815  24.981  25.320  1.00  0.00     0.261 C 
BRANCH   3   4
ATOM      4  O   UNL A   1      32.671  23.853  25.575  1.00  0.00    -0.463 OA
BRANCH   4   5
ATOM      5  C   UNL A   1      32.638  23.385  26.850  1.00  0.00     0.310 C 
ATOM      6  O   UNL A   1      31.755  23.659  27.662  1.00  0.00    -0.252 OA
BRANCH   5   7
ATOM      7  C   UNL A   1      33.783  22.489  27.241  1.00  0.00     0.160 C 
BRANCH   7   8
ATOM      8  C   UNL A   1      34.995  22.340  26.337  1.00  0.00    -0.013 A 
ATOM      9  C   UNL A   1      35.333  21.131  25.695  1.00  0.00     0.042 A 
ATOM     10  C   UNL A   1      36.520  21.066  24.936  1.00  0.00     0.026 A 
ATOM     11  C   UNL A   1      37.315  22.191  24.729  1.00  0.00     0.002 A 
ATOM     12  C   UNL A   1      35.780  23.478  26.060  1.00  0.00     0.006 A 
ATOM     13  C   UNL A   1      36.927  23.407  25.268  1.00  0.00     0.000 A 
BRANCH   9  14
ATOM     14  N   UNL A   1      34.481  20.012  25.617  1.00  0.00    -0.355 N 
ATOM     15  H   UNL A   1      34.222  19.644  26.493  1.00  0.00     0.167 HD
BRANCH  14  16
ATOM     16  C   UNL A   1      33.925  19.319  24.515  1.00  0.00     0.044 A 
ATOM     17  C   UNL A   1      35.581  17.433  24.992  1.00  0.00     0.046 C 
ATOM     18  C   UNL A   1      34.401  18.009  24.251  1.00  0.00    -0.027 A 
ATOM     19  C   UNL A   1      33.739  17.195  23.317  1.00  0.00     0.005 A 
ATOM     20  C   UNL A   1      32.620  17.659  22.638  1.00  0.00     0.001 A 
ATOM     21  C   UNL A   1      32.836  19.813  23.751  1.00  0.00    -0.027 A 
ATOM     22  C   UNL A   1      32.178  18.960  22.847  1.00  0.00     0.005 A 
ATOM     23  C   UNL A   1      32.304  21.220  23.853  1.00  0.00     0.046 C 
ENDBRANCH  14  16
ENDBRANCH   9  14
ENDBRANCH   7   8
ENDBRANCH   5   7
ENDBRANCH   4   5
ENDBRANCH   3   4
ENDBRANCH   2   3
ENDBRANCH   1   2
BRANCH   1  24
ATOM     24  C   UNL A   1      32.174  28.005  25.570  1.00  0.00     0.202 C 
BRANCH  24  25
ATOM     25  C   UNL A   1      33.386  28.942  25.649  1.00  0.00     0.261 C 
BRANCH  25  26
ATOM     26  O   UNL A   1      34.122  28.773  26.872  1.00  0.00    -0.460 OA
BRANCH  26  27
ATOM     27  C   UNL A   1      34.414  29.926  27.515  1.00  0.00     0.338 C 
ATOM     28  O   UNL A   1      33.659  30.871  27.713  1.00  0.00    -0.246 OA
BRANCH  27  29
ATOM     29  C   UNL A   1      35.740  29.841  28.154  1.00  0.00     0.060 A 
ATOM     30  C   UNL A   1      36.851  30.111  27.346  1.00  0.00     0.016 A 
ATOM     31  C   UNL A   1      35.905  29.419  29.474  1.00  0.00     0.016 A 
ATOM     32  C   UNL A   1      38.136  29.889  27.831  1.00  0.00     0.010 A 
ATOM     33  C   UNL A   1      37.199  29.186  29.957  1.00  0.00     0.010 A 
ATOM     34  C   UNL A   1      38.315  29.375  29.121  1.00  0.00    -0.014 A 
BRANCH  34  35
ATOM     35  C   UNL A   1      39.657  28.883  29.514  1.00  0.00     0.031 A 
ATOM     36  C   UNL A   1      40.399  29.592  30.616  1.00  0.00     0.074 A 
ATOM     37  C   UNL A   1      40.188  27.792  28.934  1.00  0.00     0.049 A 
ATOM     38  N   UNL A   1      41.559  29.310  31.148  1.00  0.00    -0.248 NA
ATOM     39  C   UNL A   1      39.744  30.777  31.197  1.00  0.00     0.031 C 
ATOM     40  C   UNL A   1      39.562  27.019  27.863  1.00  0.00     0.029 A 
ATOM     41  N   UNL A   1      41.383  27.156  29.157  1.00  0.00    -0.354 N 
ATOM     42  C   UNL A   1      41.786  30.290  32.107  1.00  0.00     0.074 A 
ATOM     43  C   UNL A   1      40.650  31.184  32.075  1.00  0.00     0.031 C 
ATOM     44  C   UNL A   1      40.391  26.023  27.504  1.00  0.00     0.029 A 
ATOM     45  C   UNL A   1      41.609  26.098  28.309  1.00  0.00     0.049 A 
ATOM     46  H   UNL A   1      42.017  27.431  29.858  1.00  0.00     0.167 HD
ATOM     47  C   UNL A   1      42.835  30.423  32.952  1.00  0.00     0.034 A 
ATOM     48  C   UNL A   1      42.684  25.293  28.188  1.00  0.00     0.034 A 
ATOM     49  C   UNL A   1      43.951  29.520  32.998  1.00  0.00     0.049 A 
ATOM     50  C   UNL A   1      43.846  25.472  29.129  1.00  0.00     0.074 A 
ATOM     51  C   UNL A   1      45.039  29.540  33.853  1.00  0.00     0.029 A 
ATOM     52  N   UNL A   1      44.129  28.440  32.148  1.00  0.00    -0.354 N 
ATOM     53  N   UNL A   1      43.987  26.326  30.115  1.00  0.00    -0.248 NA
ATOM     54  C   UNL A   1      44.983  24.554  28.967  1.00  0.00     0.031 C 
ATOM     55  C   UNL A   1      45.890  28.486  33.502  1.00  0.00     0.029 A 
ATOM     56  C   UNL A   1      45.317  27.793  32.447  1.00  0.00     0.049 A 
ATOM     57  H   UNL A   1      43.504  28.171  31.438  1.00  0.00     0.167 HD
ATOM     58  C   UNL A   1      45.209  26.028  30.709  1.00  0.00     0.074 A 
ATOM     59  C   UNL A   1      45.758  24.900  29.986  1.00  0.00     0.031 C 
ATOM     60  C   UNL A   1      45.827  26.640  31.750  1.00  0.00     0.034 A 
BRANCH  47  61
ATOM     61  C   UNL A   1      42.811  31.578  33.919  1.00  0.00     0.023 A 
ATOM     62  C   UNL A   1      43.341  32.824  33.530  1.00  0.00     0.012 A 
ATOM     63  C   UNL A   1      42.218  31.445  35.190  1.00  0.00     0.148 A 
ATOM     64  C   UNL A   1      43.308  33.914  34.400  1.00  0.00     0.002 A 
ATOM     65  C   UNL A   1      42.153  32.545  36.037  1.00  0.00     0.091 A 
ATOM     66  F   UNL A   1      41.743  30.245  35.552  1.00  0.00    -0.205 F 
ATOM     67  C   UNL A   1      42.706  33.777  35.647  1.00  0.00     0.022 A 
BRANCH  65  68
ATOM     68  S   UNL A   1      41.334  32.488  37.635  1.00  0.00     0.127 S 
ATOM     69  O   UNL A   1      41.353  33.897  38.027  1.00  0.00    -0.237 OA
ATOM     70  O   UNL A   1      40.010  31.971  37.285  1.00  0.00    -0.237 OA
ATOM     71  O   UNL A   1      42.133  31.597  38.463  1.00  0.00    -0.744 OA
ENDBRANCH  65  68
ENDBRANCH  47  61
BRANCH  48  72
ATOM     72  C   UNL A   1      42.692  24.218  27.155  1.00  0.00     0.023 A 
ATOM     73  C   UNL A   1      43.364  24.426  25.936  1.00  0.00     0.012 A 
ATOM     74  C   UNL A   1      42.058  22.982  27.388  1.00  0.00     0.148 A 
ATOM     75  C   UNL A   1      43.382  23.432  24.956  1.00  0.00     0.002 A 
ATOM     76  C   UNL A   1      42.127  21.976  26.431  1.00  0.00     0.091 A 
ATOM     77  F   UNL A   1      41.404  22.811  28.546  1.00  0.00    -0.205 F 
ATOM     78  C   UNL A   1      42.775  22.204  25.208  1.00  0.00     0.022 A 
BRANCH  76  79
ATOM     79  S   UNL A   1      41.488  20.324  26.729  1.00  0.00     0.127 S 
ATOM     80  O   UNL A   1      41.724  19.675  25.441  1.00  0.00    -0.237 OA
ATOM     81  O   UNL A   1      42.344  19.860  27.820  1.00  0.00    -0.237 OA
ATOM     82  O   UNL A   1      40.091  20.505  27.101  1.00  0.00    -0.744 OA
ENDBRANCH  76  79
ENDBRANCH  48  72
BRANCH  60  83
ATOM     83  C   UNL A   1      47.159  26.093  32.194  1.00  0.00     0.023 A 
ATOM     84  C   UNL A   1      48.345  26.596  31.623  1.00  0.00     0.012 A 
ATOM     85  C   UNL A   1      47.239  25.143  33.232  1.00  0.00     0.148 A 
ATOM     86  C   UNL A   1      49.589  26.139  32.058  1.00  0.00     0.002 A 
ATOM     87  C   UNL A   1      48.483  24.729  33.691  1.00  0.00     0.091 A 
ATOM     88  F   UNL A   1      46.099  24.664  33.751  1.00  0.00    -0.205 F 
ATOM     89  C   UNL A   1      49.659  25.216  33.099  1.00  0.00     0.022 A 
BRANCH  87  90
ATOM     90  S   UNL A   1      48.669  23.616  35.091  1.00  0.00     0.127 S 
ATOM     91  O   UNL A   1      47.928  24.322  36.134  1.00  0.00    -0.237 OA
ATOM     92  O   UNL A   1      48.026  22.395  34.606  1.00  0.00    -0.237 OA
ATOM     93  O   UNL A   1      50.103  23.494  35.315  1.00  0.00    -0.744 OA
ENDBRANCH  87  90
ENDBRANCH  60  83
ENDBRANCH  34  35
ENDBRANCH  27  29
ENDBRANCH  26  27
ENDBRANCH  25  26
ENDBRANCH  24  25
ENDBRANCH   1  24
TORSDOF 20
ENDMDL
