MODEL 1
REMARK VINA RESULT:     -10.8      0.000      0.000
REMARK SMILES C[C@H](NC(=O)OCc1ccccc1)C(=O)NCC(=O)N1CCC[C@H]1C(=O)OCCOCCOC(=O)c1ccc(-c2c3nc(c(-c4cccc(S(=O)(=O)[O-])c4F)c4ccc([nH]4)c(-c4cccc(S(=O)(=O)[O-])c4F)c4nc(c(-c5cccc(S(=O)(=O)[O-])c5F)c5ccc2[nH]5)C=C4)C=C3)cc1
REMARK SMILES IDX 28 1 27 2 25 3 26 4 24 5 20 6 21 7 22 8 23 9 18 10 19 11
REMARK SMILES IDX 17 12 16 13 14 14 15 15 2 17 1 18 3 19 4 20 5 22 6 23 7 24
REMARK SMILES IDX 8 25 9 26 13 27 10 28 12 29 11 30 29 31 30 32 31 33 32 34
REMARK SMILES IDX 33 35 34 36 35 37 36 38 37 39 98 40 38 41 97 42 39 43 40 44
REMARK SMILES IDX 41 45 91 46 42 47 96 48 90 49 92 50 43 51 95 52 89 53 88 54
REMARK SMILES IDX 44 56 76 57 56 58 75 59 57 60 60 61 74 62 93 63 58 64 59 65
REMARK SMILES IDX 73 67 94 68 61 69 45 70 46 71 54 72 47 73 49 74 55 75 48 76
REMARK SMILES IDX 50 77 51 78 52 79 53 80 77 81 78 82 86 83 79 84 81 85 87 86
REMARK SMILES IDX 80 87 82 88 83 89 84 90 85 91 62 92 63 93 71 94 64 95 66 96
REMARK SMILES IDX 72 97 65 98 67 99 68 100 69 101 70 102
REMARK H PARENT 16 16 3 21 92 55 60 66
REMARK Flexibility Score: inf
ROOT
ATOM      1  C   UNL A   1      33.074  28.423  26.972  1.00  0.00     0.261 C 
ENDROOT
BRANCH   1   2
ATOM      2  O   UNL A   1      32.402  27.458  26.147  1.00  0.00    -0.462 OA
BRANCH   2   3
ATOM      3  C   UNL A   1      33.033  26.260  25.995  1.00  0.00     0.328 C 
ATOM      4  O   UNL A   1      34.150  26.130  25.508  1.00  0.00    -0.250 OA
BRANCH   3   5
ATOM      5  C   UNL A   1      32.212  25.092  26.592  1.00  0.00     0.195 C 
ATOM      6  N   UNL A   1      31.021  24.574  25.865  1.00  0.00    -0.327 N 
ATOM      7  C   UNL A   1      31.038  23.117  25.839  1.00  0.00     0.120 C 
ATOM      8  C   UNL A   1      32.048  22.712  26.895  1.00  0.00     0.024 C 
ATOM      9  C   UNL A   1      33.064  23.837  26.849  1.00  0.00     0.039 C 
BRANCH   6  10
ATOM     10  C   UNL A   1      30.016  25.427  25.468  1.00  0.00     0.242 C 
ATOM     11  O   UNL A   1      29.113  25.745  26.246  1.00  0.00    -0.273 OA
BRANCH  10  12
ATOM     12  C   UNL A   1      29.829  25.837  23.996  1.00  0.00     0.216 C 
BRANCH  12  13
ATOM     13  N   UNL A   1      29.801  27.224  23.593  1.00  0.00    -0.345 N 
ATOM     14  C   UNL A   1      30.741  27.978  22.957  1.00  0.00     0.242 C 
ATOM     15  O   UNL A   1      30.372  29.075  22.525  1.00  0.00    -0.273 OA
ATOM     16  H   UNL A   1      28.969  27.702  23.814  1.00  0.00     0.164 HD
BRANCH  14  17
ATOM     17  C   UNL A   1      32.168  27.465  22.664  1.00  0.00     0.171 C 
ATOM     18  C   UNL A   1      33.192  28.592  22.752  1.00  0.00     0.042 C 
BRANCH  17  19
ATOM     19  N   UNL A   1      32.334  26.748  21.403  1.00  0.00    -0.310 N 
ATOM     20  C   UNL A   1      32.810  25.476  21.302  1.00  0.00     0.408 C 
ATOM     21  H   UNL A   1      32.087  27.214  20.572  1.00  0.00     0.167 HD
ATOM     22  O   UNL A   1      33.108  24.993  20.215  1.00  0.00    -0.225 OA
BRANCH  20  23
ATOM     23  O   UNL A   1      32.886  24.850  22.497  1.00  0.00    -0.445 OA
BRANCH  23  24
ATOM     24  C   UNL A   1      34.019  24.001  22.708  1.00  0.00     0.270 C 
BRANCH  24  25
ATOM     25  C   UNL A   1      33.695  22.661  23.331  1.00  0.00    -0.011 A 
ATOM     26  C   UNL A   1      32.577  21.902  22.957  1.00  0.00     0.007 A 
ATOM     27  C   UNL A   1      34.601  22.105  24.248  1.00  0.00     0.007 A 
ATOM     28  C   UNL A   1      32.377  20.621  23.474  1.00  0.00     0.000 A 
ATOM     29  C   UNL A   1      34.399  20.825  24.769  1.00  0.00     0.000 A 
ATOM     30  C   UNL A   1      33.289  20.081  24.375  1.00  0.00     0.000 A 
ENDBRANCH  24  25
ENDBRANCH  23  24
ENDBRANCH  20  23
ENDBRANCH  17  19
ENDBRANCH  14  17
ENDBRANCH  12  13
ENDBRANCH  10  12
ENDBRANCH   6  10
ENDBRANCH   3   5
ENDBRANCH   2   3
ENDBRANCH   1   2
BRANCH   1  31
ATOM     31  C   UNL A   1      33.327  29.716  26.193  1.00  0.00     0.202 C 
BRANCH  31  32
ATOM     32  O   UNL A   1      32.205  30.367  25.594  1.00  0.00    -0.374 OA
BRANCH  32  33
ATOM     33  C   UNL A   1      31.400  31.211  26.412  1.00  0.00     0.202 C 
BRANCH  33  34
ATOM     34  C   UNL A   1      31.931  32.608  26.760  1.00  0.00     0.261 C 
BRANCH  34  35
ATOM     35  O   UNL A   1      32.633  32.679  28.006  1.00  0.00    -0.460 OA
BRANCH  35  36
ATOM     36  C   UNL A   1      33.691  33.529  27.981  1.00  0.00     0.338 C 
ATOM     37  O   UNL A   1      33.658  34.746  27.908  1.00  0.00    -0.246 OA
BRANCH  36  38
ATOM     38  C   UNL A   1      34.939  32.791  28.224  1.00  0.00     0.060 A 
ATOM     39  C   UNL A   1      34.825  31.462  28.651  1.00  0.00     0.016 A 
ATOM     40  C   UNL A   1      36.185  33.415  28.140  1.00  0.00     0.016 A 
ATOM     41  C   UNL A   1      35.956  30.768  29.063  1.00  0.00     0.010 A 
ATOM     42  C   UNL A   1      37.320  32.715  28.557  1.00  0.00     0.010 A 
ATOM     43  C   UNL A   1      37.200  31.410  29.067  1.00  0.00    -0.014 A 
BRANCH  43  44
ATOM     44  C   UNL A   1      38.336  30.771  29.772  1.00  0.00     0.031 A 
ATOM     45  C   UNL A   1      38.611  31.157  31.199  1.00  0.00     0.074 A 
ATOM     46  C   UNL A   1      39.081  29.837  29.158  1.00  0.00     0.049 A 
ATOM     47  N   UNL A   1      39.546  30.731  32.007  1.00  0.00    -0.248 NA
ATOM     48  C   UNL A   1      37.714  32.162  31.796  1.00  0.00     0.031 C 
ATOM     49  C   UNL A   1      38.891  29.374  27.784  1.00  0.00     0.029 A 
ATOM     50  N   UNL A   1      40.160  29.122  29.610  1.00  0.00    -0.354 N 
ATOM     51  C   UNL A   1      39.371  31.434  33.193  1.00  0.00     0.074 A 
ATOM     52  C   UNL A   1      38.255  32.332  32.993  1.00  0.00     0.031 C 
ATOM     53  C   UNL A   1      39.831  28.457  27.499  1.00  0.00     0.029 A 
ATOM     54  C   UNL A   1      40.706  28.294  28.658  1.00  0.00     0.049 A 
ATOM     55  H   UNL A   1      40.508  29.193  30.527  1.00  0.00     0.167 HD
ATOM     56  C   UNL A   1      40.065  31.328  34.351  1.00  0.00     0.034 A 
ATOM     57  C   UNL A   1      41.799  27.509  28.716  1.00  0.00     0.034 A 
ATOM     58  C   UNL A   1      41.165  30.423  34.542  1.00  0.00     0.049 A 
ATOM     59  C   UNL A   1      42.579  27.440  30.002  1.00  0.00     0.074 A 
ATOM     60  C   UNL A   1      41.918  30.212  35.683  1.00  0.00     0.029 A 
ATOM     61  N   UNL A   1      41.680  29.587  33.562  1.00  0.00    -0.354 N 
ATOM     62  N   UNL A   1      42.347  28.042  31.144  1.00  0.00    -0.248 NA
ATOM     63  C   UNL A   1      43.752  26.554  30.018  1.00  0.00     0.031 C 
ATOM     64  C   UNL A   1      42.915  29.279  35.380  1.00  0.00     0.029 A 
ATOM     65  C   UNL A   1      42.750  28.868  34.066  1.00  0.00     0.049 A 
ATOM     66  H   UNL A   1      41.336  29.517  32.643  1.00  0.00     0.167 HD
ATOM     67  C   UNL A   1      43.314  27.572  32.027  1.00  0.00     0.074 A 
ATOM     68  C   UNL A   1      44.126  26.627  31.289  1.00  0.00     0.031 C 
ATOM     69  C   UNL A   1      43.515  27.895  33.329  1.00  0.00     0.034 A 
BRANCH  56  70
ATOM     70  C   UNL A   1      39.645  32.211  35.499  1.00  0.00     0.023 A 
ATOM     71  C   UNL A   1      38.677  31.758  36.419  1.00  0.00     0.012 A 
ATOM     72  C   UNL A   1      40.231  33.478  35.684  1.00  0.00     0.148 A 
ATOM     73  C   UNL A   1      38.268  32.569  37.478  1.00  0.00     0.002 A 
ATOM     74  C   UNL A   1      39.856  34.260  36.771  1.00  0.00     0.091 A 
ATOM     75  F   UNL A   1      41.135  33.902  34.788  1.00  0.00    -0.205 F 
ATOM     76  C   UNL A   1      38.864  33.814  37.658  1.00  0.00     0.022 A 
BRANCH  74  77
ATOM     77  S   UNL A   1      40.622  35.842  37.136  1.00  0.00     0.127 S 
ATOM     78  O   UNL A   1      39.782  36.761  36.366  1.00  0.00    -0.237 OA
ATOM     79  O   UNL A   1      40.456  35.935  38.586  1.00  0.00    -0.237 OA
ATOM     80  O   UNL A   1      42.003  35.736  36.687  1.00  0.00    -0.744 OA
ENDBRANCH  74  77
ENDBRANCH  56  70
BRANCH  57  81
ATOM     81  C   UNL A   1      42.197  26.697  27.533  1.00  0.00     0.023 A 
ATOM     82  C   UNL A   1      42.915  27.302  26.484  1.00  0.00     0.012 A 
ATOM     83  C   UNL A   1      41.879  25.328  27.447  1.00  0.00     0.148 A 
ATOM     84  C   UNL A   1      43.280  26.568  25.355  1.00  0.00     0.002 A 
ATOM     85  C   UNL A   1      42.292  24.589  26.346  1.00  0.00     0.091 A 
ATOM     86  F   UNL A   1      41.188  24.773  28.453  1.00  0.00    -0.205 F 
ATOM     87  C   UNL A   1      42.976  25.210  25.289  1.00  0.00     0.022 A 
BRANCH  85  88
ATOM     88  S   UNL A   1      42.055  22.812  26.231  1.00  0.00     0.127 S 
ATOM     89  O   UNL A   1      40.600  22.700  26.305  1.00  0.00    -0.237 OA
ATOM     90  O   UNL A   1      42.631  22.518  24.919  1.00  0.00    -0.237 OA
ATOM     91  O   UNL A   1      42.788  22.242  27.354  1.00  0.00    -0.744 OA
ENDBRANCH  85  88
ENDBRANCH  57  81
BRANCH  69  92
ATOM     92  C   UNL A   1      44.615  27.175  34.066  1.00  0.00     0.023 A 
ATOM     93  C   UNL A   1      45.934  27.669  34.038  1.00  0.00     0.012 A 
ATOM     94  C   UNL A   1      44.319  26.039  34.847  1.00  0.00     0.148 A 
ATOM     95  C   UNL A   1      46.948  27.021  34.741  1.00  0.00     0.002 A 
ATOM     96  C   UNL A   1      45.323  25.433  35.591  1.00  0.00     0.091 A 
ATOM     97  F   UNL A   1      43.062  25.574  34.848  1.00  0.00    -0.205 F 
ATOM     98  C   UNL A   1      46.641  25.911  35.527  1.00  0.00     0.022 A 
BRANCH  96  99
ATOM     99  S   UNL A   1      45.000  24.066  36.709  1.00  0.00     0.127 S 
ATOM    100  O   UNL A   1      46.351  23.704  37.136  1.00  0.00    -0.237 OA
ATOM    101  O   UNL A   1      44.184  24.701  37.745  1.00  0.00    -0.237 OA
ATOM    102  O   UNL A   1      44.304  23.056  35.924  1.00  0.00    -0.744 OA
ENDBRANCH  96  99
ENDBRANCH  69  92
ENDBRANCH  43  44
ENDBRANCH  36  38
ENDBRANCH  35  36
ENDBRANCH  34  35
ENDBRANCH  33  34
ENDBRANCH  32  33
ENDBRANCH  31  32
ENDBRANCH   1  31
TORSDOF 25
ENDMDL
MODEL 2
REMARK VINA RESULT:     -10.6      1.521      3.535
REMARK SMILES C[C@H](NC(=O)OCc1ccccc1)C(=O)NCC(=O)N1CCC[C@H]1C(=O)OCCOCCOC(=O)c1ccc(-c2c3nc(c(-c4cccc(S(=O)(=O)[O-])c4F)c4ccc([nH]4)c(-c4cccc(S(=O)(=O)[O-])c4F)c4nc(c(-c5cccc(S(=O)(=O)[O-])c5F)c5ccc2[nH]5)C=C4)C=C3)cc1
REMARK SMILES IDX 28 1 27 2 25 3 26 4 24 5 20 6 21 7 22 8 23 9 18 10 19 11
REMARK SMILES IDX 17 12 16 13 14 14 15 15 2 17 1 18 3 19 4 20 5 22 6 23 7 24
REMARK SMILES IDX 8 25 9 26 13 27 10 28 12 29 11 30 29 31 30 32 31 33 32 34
REMARK SMILES IDX 33 35 34 36 35 37 36 38 37 39 98 40 38 41 97 42 39 43 40 44
REMARK SMILES IDX 41 45 91 46 42 47 96 48 90 49 92 50 43 51 95 52 89 53 88 54
REMARK SMILES IDX 44 56 76 57 56 58 75 59 57 60 60 61 74 62 93 63 58 64 59 65
REMARK SMILES IDX 73 67 94 68 61 69 45 70 46 71 54 72 47 73 49 74 55 75 48 76
REMARK SMILES IDX 50 77 51 78 52 79 53 80 77 81 78 82 86 83 79 84 81 85 87 86
REMARK SMILES IDX 80 87 82 88 83 89 84 90 85 91 62 92 63 93 71 94 64 95 66 96
REMARK SMILES IDX 72 97 65 98 67 99 68 100 69 101 70 102
REMARK H PARENT 16 16 3 21 92 55 60 66
REMARK Flexibility Score: inf
ROOT
ATOM      1  C   UNL A   1      32.397  25.829  25.989  1.00  0.00     0.261 C 
ENDROOT
BRANCH   1   2
ATOM      2  O   UNL A   1      33.245  24.950  26.744  1.00  0.00    -0.462 OA
BRANCH   2   3
ATOM      3  C   UNL A   1      33.974  24.054  26.021  1.00  0.00     0.328 C 
ATOM      4  O   UNL A   1      35.135  24.237  25.673  1.00  0.00    -0.250 OA
BRANCH   3   5
ATOM      5  C   UNL A   1      33.196  22.740  25.768  1.00  0.00     0.195 C 
ATOM      6  N   UNL A   1      33.015  22.241  24.378  1.00  0.00    -0.327 N 
ATOM      7  C   UNL A   1      33.298  20.813  24.313  1.00  0.00     0.120 C 
ATOM      8  C   UNL A   1      33.279  20.337  25.753  1.00  0.00     0.024 C 
ATOM      9  C   UNL A   1      33.796  21.540  26.519  1.00  0.00     0.039 C 
BRANCH   6  10
ATOM     10  C   UNL A   1      32.484  23.055  23.404  1.00  0.00     0.242 C 
ATOM     11  O   UNL A   1      31.279  23.022  23.140  1.00  0.00    -0.273 OA
BRANCH  10  12
ATOM     12  C   UNL A   1      33.373  23.862  22.442  1.00  0.00     0.216 C 
BRANCH  12  13
ATOM     13  N   UNL A   1      32.876  24.343  21.173  1.00  0.00    -0.345 N 
ATOM     14  C   UNL A   1      32.248  25.509  20.855  1.00  0.00     0.242 C 
ATOM     15  O   UNL A   1      32.136  25.770  19.653  1.00  0.00    -0.273 OA
ATOM     16  H   UNL A   1      33.014  23.729  20.415  1.00  0.00     0.164 HD
BRANCH  14  17
ATOM     17  C   UNL A   1      31.800  26.535  21.920  1.00  0.00     0.171 C 
ATOM     18  C   UNL A   1      32.999  27.216  22.574  1.00  0.00     0.042 C 
BRANCH  17  19
ATOM     19  N   UNL A   1      30.901  26.025  22.951  1.00  0.00    -0.310 N 
ATOM     20  C   UNL A   1      29.937  26.767  23.562  1.00  0.00     0.408 C 
ATOM     21  H   UNL A   1      30.999  25.083  23.221  1.00  0.00     0.167 HD
ATOM     22  O   UNL A   1      29.342  26.346  24.549  1.00  0.00    -0.225 OA
BRANCH  20  23
ATOM     23  O   UNL A   1      29.727  27.954  22.955  1.00  0.00    -0.445 OA
BRANCH  23  24
ATOM     24  C   UNL A   1      28.365  28.349  22.763  1.00  0.00     0.270 C 
BRANCH  24  25
ATOM     25  C   UNL A   1      28.167  29.825  22.498  1.00  0.00    -0.011 A 
ATOM     26  C   UNL A   1      27.804  30.734  23.503  1.00  0.00     0.007 A 
ATOM     27  C   UNL A   1      28.454  30.327  21.219  1.00  0.00     0.007 A 
ATOM     28  C   UNL A   1      27.743  32.104  23.241  1.00  0.00     0.000 A 
ATOM     29  C   UNL A   1      28.388  31.697  20.955  1.00  0.00     0.000 A 
ATOM     30  C   UNL A   1      28.039  32.585  21.970  1.00  0.00     0.000 A 
ENDBRANCH  24  25
ENDBRANCH  23  24
ENDBRANCH  20  23
ENDBRANCH  17  19
ENDBRANCH  14  17
ENDBRANCH  12  13
ENDBRANCH  10  12
ENDBRANCH   6  10
ENDBRANCH   3   5
ENDBRANCH   2   3
ENDBRANCH   1   2
BRANCH   1  31
ATOM     31  C   UNL A   1      32.339  27.213  26.641  1.00  0.00     0.202 C 
BRANCH  31  32
ATOM     32  O   UNL A   1      32.843  28.324  25.897  1.00  0.00    -0.374 OA
BRANCH  32  33
ATOM     33  C   UNL A   1      31.913  29.282  25.402  1.00  0.00     0.202 C 
BRANCH  33  34
ATOM     34  C   UNL A   1      31.770  30.613  26.153  1.00  0.00     0.261 C 
BRANCH  34  35
ATOM     35  O   UNL A   1      32.485  30.670  27.393  1.00  0.00    -0.460 OA
BRANCH  35  36
ATOM     36  C   UNL A   1      33.283  31.762  27.505  1.00  0.00     0.338 C 
ATOM     37  O   UNL A   1      32.941  32.932  27.479  1.00  0.00    -0.246 OA
BRANCH  36  38
ATOM     38  C   UNL A   1      34.656  31.353  27.836  1.00  0.00     0.060 A 
ATOM     39  C   UNL A   1      34.931  29.980  27.848  1.00  0.00     0.016 A 
ATOM     40  C   UNL A   1      35.620  32.283  28.229  1.00  0.00     0.016 A 
ATOM     41  C   UNL A   1      36.156  29.523  28.319  1.00  0.00     0.010 A 
ATOM     42  C   UNL A   1      36.849  31.820  28.706  1.00  0.00     0.010 A 
ATOM     43  C   UNL A   1      37.099  30.439  28.799  1.00  0.00    -0.014 A 
BRANCH  43  44
ATOM     44  C   UNL A   1      38.266  29.936  29.560  1.00  0.00     0.031 A 
ATOM     45  C   UNL A   1      38.466  30.406  30.974  1.00  0.00     0.074 A 
ATOM     46  C   UNL A   1      39.109  29.048  29.007  1.00  0.00     0.049 A 
ATOM     47  N   UNL A   1      39.411  30.101  31.823  1.00  0.00    -0.248 NA
ATOM     48  C   UNL A   1      37.466  31.351  31.503  1.00  0.00     0.031 C 
ATOM     49  C   UNL A   1      39.000  28.511  27.652  1.00  0.00     0.029 A 
ATOM     50  N   UNL A   1      40.234  28.453  29.518  1.00  0.00    -0.354 N 
ATOM     51  C   UNL A   1      39.141  30.836  32.972  1.00  0.00     0.074 A 
ATOM     52  C   UNL A   1      37.956  31.621  32.704  1.00  0.00     0.031 C 
ATOM     53  C   UNL A   1      40.025  27.671  27.432  1.00  0.00     0.029 A 
ATOM     54  C   UNL A   1      40.878  27.637  28.618  1.00  0.00     0.049 A 
ATOM     55  H   UNL A   1      40.548  28.594  30.439  1.00  0.00     0.167 HD
ATOM     56  C   UNL A   1      39.808  30.843  34.150  1.00  0.00     0.034 A 
ATOM     57  C   UNL A   1      42.034  26.957  28.738  1.00  0.00     0.034 A 
ATOM     58  C   UNL A   1      40.979  30.050  34.409  1.00  0.00     0.049 A 
ATOM     59  C   UNL A   1      42.781  27.014  30.045  1.00  0.00     0.074 A 
ATOM     60  C   UNL A   1      41.715  29.957  35.577  1.00  0.00     0.029 A 
ATOM     61  N   UNL A   1      41.593  29.223  33.481  1.00  0.00    -0.354 N 
ATOM     62  N   UNL A   1      42.464  27.641  31.153  1.00  0.00    -0.248 NA
ATOM     63  C   UNL A   1      44.027  26.239  30.130  1.00  0.00     0.031 C 
ATOM     64  C   UNL A   1      42.799  29.105  35.340  1.00  0.00     0.029 A 
ATOM     65  C   UNL A   1      42.708  28.625  34.043  1.00  0.00     0.049 A 
ATOM     66  H   UNL A   1      41.283  29.082  32.557  1.00  0.00     0.167 HD
ATOM     67  C   UNL A   1      43.443  27.298  32.080  1.00  0.00     0.074 A 
ATOM     68  C   UNL A   1      44.356  26.400  31.405  1.00  0.00     0.031 C 
ATOM     69  C   UNL A   1      43.577  27.694  33.370  1.00  0.00     0.034 A 
BRANCH  56  70
ATOM     70  C   UNL A   1      39.279  31.733  35.246  1.00  0.00     0.023 A 
ATOM     71  C   UNL A   1      38.287  31.254  36.127  1.00  0.00     0.012 A 
ATOM     72  C   UNL A   1      39.785  33.036  35.423  1.00  0.00     0.148 A 
ATOM     73  C   UNL A   1      37.778  32.070  37.137  1.00  0.00     0.002 A 
ATOM     74  C   UNL A   1      39.309  33.825  36.463  1.00  0.00     0.091 A 
ATOM     75  F   UNL A   1      40.712  33.484  34.563  1.00  0.00    -0.205 F 
ATOM     76  C   UNL A   1      38.296  33.350  37.310  1.00  0.00     0.022 A 
BRANCH  74  77
ATOM     77  S   UNL A   1      39.968  35.458  36.819  1.00  0.00     0.127 S 
ATOM     78  O   UNL A   1      39.239  35.811  38.038  1.00  0.00    -0.237 OA
ATOM     79  O   UNL A   1      41.390  35.177  37.020  1.00  0.00    -0.237 OA
ATOM     80  O   UNL A   1      39.669  36.277  35.654  1.00  0.00    -0.744 OA
ENDBRANCH  74  77
ENDBRANCH  56  70
BRANCH  57  81
ATOM     81  C   UNL A   1      42.537  26.134  27.604  1.00  0.00     0.023 A 
ATOM     82  C   UNL A   1      43.451  26.693  26.690  1.00  0.00     0.012 A 
ATOM     83  C   UNL A   1      42.124  24.799  27.432  1.00  0.00     0.148 A 
ATOM     84  C   UNL A   1      43.918  25.950  25.606  1.00  0.00     0.002 A 
ATOM     85  C   UNL A   1      42.635  24.046  26.382  1.00  0.00     0.091 A 
ATOM     86  F   UNL A   1      41.247  24.288  28.308  1.00  0.00    -0.205 F 
ATOM     87  C   UNL A   1      43.517  24.624  25.457  1.00  0.00     0.022 A 
BRANCH  85  88
ATOM     88  S   UNL A   1      42.273  22.298  26.181  1.00  0.00     0.127 S 
ATOM     89  O   UNL A   1      43.088  21.957  25.018  1.00  0.00    -0.237 OA
ATOM     90  O   UNL A   1      42.747  21.747  27.450  1.00  0.00    -0.237 OA
ATOM     91  O   UNL A   1      40.831  22.212  25.987  1.00  0.00    -0.744 OA
ENDBRANCH  85  88
ENDBRANCH  57  81
BRANCH  69  92
ATOM     92  C   UNL A   1      44.716  27.108  34.166  1.00  0.00     0.023 A 
ATOM     93  C   UNL A   1      45.944  27.791  34.260  1.00  0.00     0.012 A 
ATOM     94  C   UNL A   1      44.536  25.906  34.880  1.00  0.00     0.148 A 
ATOM     95  C   UNL A   1      46.990  27.265  35.017  1.00  0.00     0.002 A 
ATOM     96  C   UNL A   1      45.562  25.419  35.678  1.00  0.00     0.091 A 
ATOM     97  F   UNL A   1      43.365  25.263  34.764  1.00  0.00    -0.205 F 
ATOM     98  C   UNL A   1      46.795  26.086  35.737  1.00  0.00     0.022 A 
BRANCH  96  99
ATOM     99  S   UNL A   1      45.366  23.968  36.718  1.00  0.00     0.127 S 
ATOM    100  O   UNL A   1      46.747  23.694  37.111  1.00  0.00    -0.237 OA
ATOM    101  O   UNL A   1      44.514  24.473  37.796  1.00  0.00    -0.237 OA
ATOM    102  O   UNL A   1      44.744  22.952  35.881  1.00  0.00    -0.744 OA
ENDBRANCH  96  99
ENDBRANCH  69  92
ENDBRANCH  43  44
ENDBRANCH  36  38
ENDBRANCH  35  36
ENDBRANCH  34  35
ENDBRANCH  33  34
ENDBRANCH  32  33
ENDBRANCH  31  32
ENDBRANCH   1  31
TORSDOF 25
ENDMDL
MODEL 3
REMARK VINA RESULT:      -9.7      2.418      8.201
REMARK SMILES C[C@H](NC(=O)OCc1ccccc1)C(=O)NCC(=O)N1CCC[C@H]1C(=O)OCCOCCOC(=O)c1ccc(-c2c3nc(c(-c4cccc(S(=O)(=O)[O-])c4F)c4ccc([nH]4)c(-c4cccc(S(=O)(=O)[O-])c4F)c4nc(c(-c5cccc(S(=O)(=O)[O-])c5F)c5ccc2[nH]5)C=C4)C=C3)cc1
REMARK SMILES IDX 28 1 27 2 25 3 26 4 24 5 20 6 21 7 22 8 23 9 18 10 19 11
REMARK SMILES IDX 17 12 16 13 14 14 15 15 2 17 1 18 3 19 4 20 5 22 6 23 7 24
REMARK SMILES IDX 8 25 9 26 13 27 10 28 12 29 11 30 29 31 30 32 31 33 32 34
REMARK SMILES IDX 33 35 34 36 35 37 36 38 37 39 98 40 38 41 97 42 39 43 40 44
REMARK SMILES IDX 41 45 91 46 42 47 96 48 90 49 92 50 43 51 95 52 89 53 88 54
REMARK SMILES IDX 44 56 76 57 56 58 75 59 57 60 60 61 74 62 93 63 58 64 59 65
REMARK SMILES IDX 73 67 94 68 61 69 45 70 46 71 54 72 47 73 49 74 55 75 48 76
REMARK SMILES IDX 50 77 51 78 52 79 53 80 77 81 78 82 86 83 79 84 81 85 87 86
REMARK SMILES IDX 80 87 82 88 83 89 84 90 85 91 62 92 63 93 71 94 64 95 66 96
REMARK SMILES IDX 72 97 65 98 67 99 68 100 69 101 70 102
REMARK H PARENT 16 16 3 21 92 55 60 66
REMARK Flexibility Score: inf
ROOT
ATOM      1  C   UNL A   1      31.740  26.560  26.100  1.00  0.00     0.261 C 
ENDROOT
BRANCH   1   2
ATOM      2  O   UNL A   1      32.001  25.272  26.679  1.00  0.00    -0.462 OA
BRANCH   2   3
ATOM      3  C   UNL A   1      33.031  24.568  26.130  1.00  0.00     0.328 C 
ATOM      4  O   UNL A   1      34.112  25.059  25.824  1.00  0.00    -0.250 OA
BRANCH   3   5
ATOM      5  C   UNL A   1      32.710  23.057  26.024  1.00  0.00     0.195 C 
ATOM      6  N   UNL A   1      33.109  22.298  24.808  1.00  0.00    -0.327 N 
ATOM      7  C   UNL A   1      33.727  21.032  25.182  1.00  0.00     0.120 C 
ATOM      8  C   UNL A   1      33.361  20.826  26.639  1.00  0.00     0.024 C 
ATOM      9  C   UNL A   1      33.304  22.240  27.184  1.00  0.00     0.039 C 
BRANCH   6  10
ATOM     10  C   UNL A   1      32.741  22.735  23.556  1.00  0.00     0.242 C 
ATOM     11  O   UNL A   1      31.669  22.388  23.055  1.00  0.00    -0.273 OA
BRANCH  10  12
ATOM     12  C   UNL A   1      33.724  23.471  22.628  1.00  0.00     0.216 C 
BRANCH  12  13
ATOM     13  N   UNL A   1      33.327  23.936  21.318  1.00  0.00    -0.345 N 
ATOM     14  C   UNL A   1      32.831  25.141  20.922  1.00  0.00     0.242 C 
ATOM     15  O   UNL A   1      32.793  25.351  19.705  1.00  0.00    -0.273 OA
ATOM     16  H   UNL A   1      33.433  23.275  20.596  1.00  0.00     0.164 HD
BRANCH  14  17
ATOM     17  C   UNL A   1      32.445  26.256  21.918  1.00  0.00     0.171 C 
ATOM     18  C   UNL A   1      33.632  26.657  22.790  1.00  0.00     0.042 C 
BRANCH  17  19
ATOM     19  N   UNL A   1      31.288  25.977  22.763  1.00  0.00    -0.310 N 
ATOM     20  C   UNL A   1      30.223  26.814  22.905  1.00  0.00     0.408 C 
ATOM     21  H   UNL A   1      31.277  25.129  23.262  1.00  0.00     0.167 HD
ATOM     22  O   UNL A   1      29.373  26.620  23.767  1.00  0.00    -0.225 OA
BRANCH  20  23
ATOM     23  O   UNL A   1      30.225  27.819  22.003  1.00  0.00    -0.445 OA
BRANCH  23  24
ATOM     24  C   UNL A   1      30.735  29.081  22.445  1.00  0.00     0.270 C 
BRANCH  24  25
ATOM     25  C   UNL A   1      29.720  30.203  22.454  1.00  0.00    -0.011 A 
ATOM     26  C   UNL A   1      29.357  30.905  21.297  1.00  0.00     0.007 A 
ATOM     27  C   UNL A   1      29.040  30.490  23.649  1.00  0.00     0.007 A 
ATOM     28  C   UNL A   1      28.335  31.856  21.327  1.00  0.00     0.000 A 
ATOM     29  C   UNL A   1      28.021  31.444  23.681  1.00  0.00     0.000 A 
ATOM     30  C   UNL A   1      27.664  32.122  22.517  1.00  0.00     0.000 A 
ENDBRANCH  24  25
ENDBRANCH  23  24
ENDBRANCH  20  23
ENDBRANCH  17  19
ENDBRANCH  14  17
ENDBRANCH  12  13
ENDBRANCH  10  12
ENDBRANCH   6  10
ENDBRANCH   3   5
ENDBRANCH   2   3
ENDBRANCH   1   2
BRANCH   1  31
ATOM     31  C   UNL A   1      32.406  27.666  26.922  1.00  0.00     0.202 C 
BRANCH  31  32
ATOM     32  O   UNL A   1      33.361  28.503  26.265  1.00  0.00    -0.374 OA
BRANCH  32  33
ATOM     33  C   UNL A   1      32.882  29.625  25.531  1.00  0.00     0.202 C 
BRANCH  33  34
ATOM     34  C   UNL A   1      32.232  30.778  26.307  1.00  0.00     0.261 C 
BRANCH  34  35
ATOM     35  O   UNL A   1      32.757  30.973  27.625  1.00  0.00    -0.460 OA
BRANCH  35  36
ATOM     36  C   UNL A   1      33.621  32.016  27.712  1.00  0.00     0.338 C 
ATOM     37  O   UNL A   1      33.349  33.205  27.668  1.00  0.00    -0.246 OA
BRANCH  36  38
ATOM     38  C   UNL A   1      34.969  31.531  28.042  1.00  0.00     0.060 A 
ATOM     39  C   UNL A   1      35.089  30.196  28.446  1.00  0.00     0.016 A 
ATOM     40  C   UNL A   1      36.070  32.388  28.057  1.00  0.00     0.016 A 
ATOM     41  C   UNL A   1      36.302  29.726  28.935  1.00  0.00     0.010 A 
ATOM     42  C   UNL A   1      37.288  31.915  28.552  1.00  0.00     0.010 A 
ATOM     43  C   UNL A   1      37.392  30.599  29.039  1.00  0.00    -0.014 A 
BRANCH  43  44
ATOM     44  C   UNL A   1      38.577  30.179  29.821  1.00  0.00     0.031 A 
ATOM     45  C   UNL A   1      39.528  29.183  29.216  1.00  0.00     0.074 A 
ATOM     46  C   UNL A   1      38.816  30.706  31.033  1.00  0.00     0.049 A 
ATOM     47  N   UNL A   1      40.623  28.674  29.715  1.00  0.00    -0.248 NA
ATOM     48  C   UNL A   1      39.199  28.693  27.866  1.00  0.00     0.031 C 
ATOM     49  C   UNL A   1      37.972  31.691  31.707  1.00  0.00     0.029 A 
ATOM     50  N   UNL A   1      39.836  30.472  31.919  1.00  0.00    -0.354 N 
ATOM     51  C   UNL A   1      41.097  27.783  28.759  1.00  0.00     0.074 A 
ATOM     52  C   UNL A   1      40.158  27.803  27.659  1.00  0.00     0.031 C 
ATOM     53  C   UNL A   1      38.503  31.971  32.909  1.00  0.00     0.029 A 
ATOM     54  C   UNL A   1      39.704  31.162  33.101  1.00  0.00     0.049 A 
ATOM     55  H   UNL A   1      40.591  29.870  31.727  1.00  0.00     0.167 HD
ATOM     56  C   UNL A   1      42.221  27.030  28.786  1.00  0.00     0.034 A 
ATOM     57  C   UNL A   1      40.461  31.126  34.214  1.00  0.00     0.034 A 
ATOM     58  C   UNL A   1      43.154  27.027  29.880  1.00  0.00     0.049 A 
ATOM     59  C   UNL A   1      41.685  30.249  34.236  1.00  0.00     0.074 A 
ATOM     60  C   UNL A   1      44.341  26.327  29.998  1.00  0.00     0.029 A 
ATOM     61  N   UNL A   1      42.997  27.751  31.053  1.00  0.00    -0.354 N 
ATOM     62  N   UNL A   1      42.170  29.481  33.290  1.00  0.00    -0.248 NA
ATOM     63  C   UNL A   1      42.486  30.260  35.468  1.00  0.00     0.031 C 
ATOM     64  C   UNL A   1      44.880  26.595  31.261  1.00  0.00     0.029 A 
ATOM     65  C   UNL A   1      44.058  27.504  31.907  1.00  0.00     0.049 A 
ATOM     66  H   UNL A   1      42.242  28.351  31.250  1.00  0.00     0.167 HD
ATOM     67  C   UNL A   1      43.357  28.957  33.792  1.00  0.00     0.074 A 
ATOM     68  C   UNL A   1      43.521  29.505  35.123  1.00  0.00     0.031 C 
ATOM     69  C   UNL A   1      44.229  28.099  33.209  1.00  0.00     0.034 A 
BRANCH  56  70
ATOM     70  C   UNL A   1      42.504  26.154  27.592  1.00  0.00     0.023 A 
ATOM     71  C   UNL A   1      43.240  26.664  26.502  1.00  0.00     0.012 A 
ATOM     72  C   UNL A   1      42.065  24.816  27.560  1.00  0.00     0.148 A 
ATOM     73  C   UNL A   1      43.497  25.870  25.384  1.00  0.00     0.002 A 
ATOM     74  C   UNL A   1      42.368  24.016  26.465  1.00  0.00     0.091 A 
ATOM     75  F   UNL A   1      41.347  24.354  28.595  1.00  0.00    -0.205 F 
ATOM     76  C   UNL A   1      43.070  24.546  25.370  1.00  0.00     0.022 A 
BRANCH  74  77
ATOM     77  S   UNL A   1      41.933  22.276  26.387  1.00  0.00     0.127 S 
ATOM     78  O   UNL A   1      40.476  22.341  26.264  1.00  0.00    -0.237 OA
ATOM     79  O   UNL A   1      42.628  21.840  25.175  1.00  0.00    -0.237 OA
ATOM     80  O   UNL A   1      42.428  21.680  27.619  1.00  0.00    -0.744 OA
ENDBRANCH  74  77
ENDBRANCH  56  70
BRANCH  57  81
ATOM     81  C   UNL A   1      40.106  31.975  35.385  1.00  0.00     0.023 A 
ATOM     82  C   UNL A   1      40.775  33.197  35.587  1.00  0.00     0.012 A 
ATOM     83  C   UNL A   1      39.103  31.583  36.293  1.00  0.00     0.148 A 
ATOM     84  C   UNL A   1      40.477  33.999  36.689  1.00  0.00     0.002 A 
ATOM     85  C   UNL A   1      38.771  32.411  37.358  1.00  0.00     0.091 A 
ATOM     86  F   UNL A   1      38.485  30.412  36.087  1.00  0.00    -0.205 F 
ATOM     87  C   UNL A   1      39.470  33.610  37.569  1.00  0.00     0.022 A 
BRANCH  85  88
ATOM     88  S   UNL A   1      37.407  32.054  38.470  1.00  0.00     0.127 S 
ATOM     89  O   UNL A   1      36.353  32.911  37.932  1.00  0.00    -0.237 OA
ATOM     90  O   UNL A   1      37.210  30.622  38.250  1.00  0.00    -0.237 OA
ATOM     91  O   UNL A   1      37.882  32.402  39.803  1.00  0.00    -0.744 OA
ENDBRANCH  85  88
ENDBRANCH  57  81
BRANCH  69  92
ATOM     92  C   UNL A   1      45.479  27.745  33.974  1.00  0.00     0.023 A 
ATOM     93  C   UNL A   1      45.501  26.618  34.820  1.00  0.00     0.012 A 
ATOM     94  C   UNL A   1      46.656  28.499  33.795  1.00  0.00     0.148 A 
ATOM     95  C   UNL A   1      46.664  26.273  35.508  1.00  0.00     0.002 A 
ATOM     96  C   UNL A   1      47.825  28.115  34.438  1.00  0.00     0.091 A 
ATOM     97  F   UNL A   1      46.610  29.577  32.999  1.00  0.00    -0.205 F 
ATOM     98  C   UNL A   1      47.829  27.012  35.307  1.00  0.00     0.022 A 
BRANCH  96  99
ATOM     99  S   UNL A   1      49.394  28.944  34.160  1.00  0.00     0.127 S 
ATOM    100  O   UNL A   1      49.108  30.293  34.646  1.00  0.00    -0.237 OA
ATOM    101  O   UNL A   1      50.305  28.171  35.006  1.00  0.00    -0.237 OA
ATOM    102  O   UNL A   1      49.659  28.839  32.732  1.00  0.00    -0.744 OA
ENDBRANCH  96  99
ENDBRANCH  69  92
ENDBRANCH  43  44
ENDBRANCH  36  38
ENDBRANCH  35  36
ENDBRANCH  34  35
ENDBRANCH  33  34
ENDBRANCH  32  33
ENDBRANCH  31  32
ENDBRANCH   1  31
TORSDOF 25
ENDMDL
