MODEL 1
REMARK VINA RESULT:     -10.4      0.000      0.000
REMARK SMILES O=C(OCCOCCOC(=O)c1cc(SCc2csc(-c3ccsc3)n2)ccn1)c1ccc(-c2c3nc(c(-c4cccc(S(=O)(=O)[O-])c4F)c4ccc([nH]4)c(-c4cccc(S(=O)(=O)[O-])c4F)c4nc(c(-c5cccc(S(=O)(=O)[O-])c5F)c5ccc2[nH]5)C=C4)C=C3)cc1
REMARK SMILES IDX 7 1 6 2 5 3 4 4 3 5 2 6 1 7 30 8 31 9 92 10 32 11 91 12
REMARK SMILES IDX 33 13 34 14 35 15 85 16 36 17 90 18 84 19 86 20 37 21 89 22
REMARK SMILES IDX 83 23 82 24 38 26 70 27 50 28 69 29 51 30 54 31 68 32 87 33
REMARK SMILES IDX 52 34 53 35 67 37 88 38 55 39 39 40 40 41 48 42 41 43 43 44
REMARK SMILES IDX 49 45 42 46 44 47 45 48 46 49 47 50 71 51 72 52 80 53 73 54
REMARK SMILES IDX 75 55 81 56 74 57 76 58 77 59 78 60 79 61 56 62 57 63 65 64
REMARK SMILES IDX 58 65 60 66 66 67 59 68 61 69 62 70 63 71 64 72 8 73 9 74
REMARK SMILES IDX 10 75 11 76 12 77 13 78 29 79 14 80 28 81 27 82 15 83 16 84
REMARK SMILES IDX 17 85 18 86 26 87 19 88 20 89 21 90 22 91 25 92 23 93 24 94
REMARK H PARENT 86 25 54 36
REMARK Flexibility Score: inf
ROOT
ATOM      1  C   UNL A   1      30.326  30.914  24.528  1.00  0.00     0.202 C 
ENDROOT
BRANCH   1   2
ATOM      2  O   UNL A   1      31.265  31.132  25.584  1.00  0.00    -0.374 OA
BRANCH   2   3
ATOM      3  C   UNL A   1      31.122  32.348  26.316  1.00  0.00     0.202 C 
BRANCH   3   4
ATOM      4  C   UNL A   1      32.093  32.477  27.491  1.00  0.00     0.261 C 
BRANCH   4   5
ATOM      5  O   UNL A   1      32.494  33.847  27.643  1.00  0.00    -0.460 OA
BRANCH   5   6
ATOM      6  C   UNL A   1      33.550  34.355  28.320  1.00  0.00     0.338 C 
ATOM      7  O   UNL A   1      33.622  35.579  28.434  1.00  0.00    -0.246 OA
BRANCH   6   8
ATOM      8  C   UNL A   1      34.636  33.528  28.934  1.00  0.00     0.060 A 
ATOM      9  C   UNL A   1      34.447  32.370  29.695  1.00  0.00     0.016 A 
ATOM     10  C   UNL A   1      35.957  33.904  28.634  1.00  0.00     0.016 A 
ATOM     11  C   UNL A   1      35.520  31.637  30.191  1.00  0.00     0.010 A 
ATOM     12  C   UNL A   1      37.042  33.158  29.104  1.00  0.00     0.010 A 
ATOM     13  C   UNL A   1      36.821  32.032  29.903  1.00  0.00    -0.014 A 
BRANCH  13  14
ATOM     14  C   UNL A   1      37.940  31.315  30.533  1.00  0.00     0.031 A 
ATOM     15  C   UNL A   1      38.275  31.635  31.954  1.00  0.00     0.074 A 
ATOM     16  C   UNL A   1      38.603  30.371  29.845  1.00  0.00     0.049 A 
ATOM     17  N   UNL A   1      39.250  31.187  32.695  1.00  0.00    -0.248 NA
ATOM     18  C   UNL A   1      37.382  32.588  32.639  1.00  0.00     0.031 C 
ATOM     19  C   UNL A   1      38.292  29.953  28.477  1.00  0.00     0.029 A 
ATOM     20  N   UNL A   1      39.679  29.600  30.196  1.00  0.00    -0.354 N 
ATOM     21  C   UNL A   1      39.120  31.836  33.914  1.00  0.00     0.074 A 
ATOM     22  C   UNL A   1      37.961  32.696  33.825  1.00  0.00     0.031 C 
ATOM     23  C   UNL A   1      39.175  29.016  28.096  1.00  0.00     0.029 A 
ATOM     24  C   UNL A   1      40.134  28.801  29.174  1.00  0.00     0.049 A 
ATOM     25  H   UNL A   1      40.087  29.617  31.092  1.00  0.00     0.167 HD
ATOM     26  C   UNL A   1      39.904  31.722  35.009  1.00  0.00     0.034 A 
ATOM     27  C   UNL A   1      41.225  28.013  29.116  1.00  0.00     0.034 A 
ATOM     28  C   UNL A   1      41.048  30.858  35.071  1.00  0.00     0.049 A 
ATOM     29  C   UNL A   1      42.098  27.919  30.339  1.00  0.00     0.074 A 
ATOM     30  C   UNL A   1      41.941  30.677  36.110  1.00  0.00     0.029 A 
ATOM     31  N   UNL A   1      41.459  30.030  34.034  1.00  0.00    -0.354 N 
ATOM     32  N   UNL A   1      41.946  28.505  31.505  1.00  0.00    -0.248 NA
ATOM     33  C   UNL A   1      43.277  27.048  30.255  1.00  0.00     0.031 C 
ATOM     34  C   UNL A   1      42.902  29.749  35.693  1.00  0.00     0.029 A 
ATOM     35  C   UNL A   1      42.594  29.335  34.404  1.00  0.00     0.049 A 
ATOM     36  H   UNL A   1      41.007  29.949  33.163  1.00  0.00     0.167 HD
ATOM     37  C   UNL A   1      42.990  28.055  32.301  1.00  0.00     0.074 A 
ATOM     38  C   UNL A   1      43.761  27.134  31.488  1.00  0.00     0.031 C 
ATOM     39  C   UNL A   1      43.297  28.382  33.581  1.00  0.00     0.034 A 
BRANCH  26  40
ATOM     40  C   UNL A   1      39.545  32.573  36.195  1.00  0.00     0.023 A 
ATOM     41  C   UNL A   1      40.147  33.837  36.360  1.00  0.00     0.012 A 
ATOM     42  C   UNL A   1      38.642  32.105  37.168  1.00  0.00     0.148 A 
ATOM     43  C   UNL A   1      39.888  34.604  37.496  1.00  0.00     0.002 A 
ATOM     44  C   UNL A   1      38.361  32.890  38.280  1.00  0.00     0.091 A 
ATOM     45  F   UNL A   1      38.107  30.885  37.012  1.00  0.00    -0.205 F 
ATOM     46  C   UNL A   1      38.990  34.133  38.452  1.00  0.00     0.022 A 
BRANCH  44  47
ATOM     47  S   UNL A   1      37.183  32.381  39.537  1.00  0.00     0.127 S 
ATOM     48  O   UNL A   1      37.137  33.564  40.396  1.00  0.00    -0.237 OA
ATOM     49  O   UNL A   1      35.969  32.152  38.752  1.00  0.00    -0.237 OA
ATOM     50  O   UNL A   1      37.744  31.182  40.143  1.00  0.00    -0.744 OA
ENDBRANCH  44  47
ENDBRANCH  26  40
BRANCH  27  51
ATOM     51  C   UNL A   1      41.519  27.249  27.870  1.00  0.00     0.023 A 
ATOM     52  C   UNL A   1      42.119  27.902  26.777  1.00  0.00     0.012 A 
ATOM     53  C   UNL A   1      41.273  25.863  27.787  1.00  0.00     0.148 A 
ATOM     54  C   UNL A   1      42.457  27.192  25.622  1.00  0.00     0.002 A 
ATOM     55  C   UNL A   1      41.661  25.152  26.656  1.00  0.00     0.091 A 
ATOM     56  F   UNL A   1      40.682  25.260  28.829  1.00  0.00    -0.205 F 
ATOM     57  C   UNL A   1      42.241  25.818  25.566  1.00  0.00     0.022 A 
BRANCH  55  58
ATOM     58  S   UNL A   1      41.547  23.362  26.556  1.00  0.00     0.127 S 
ATOM     59  O   UNL A   1      42.354  23.075  25.373  1.00  0.00    -0.237 OA
ATOM     60  O   UNL A   1      42.146  22.947  27.826  1.00  0.00    -0.237 OA
ATOM     61  O   UNL A   1      40.125  23.064  26.441  1.00  0.00    -0.744 OA
ENDBRANCH  55  58
ENDBRANCH  27  51
BRANCH  39  62
ATOM     62  C   UNL A   1      44.496  27.720  34.199  1.00  0.00     0.023 A 
ATOM     63  C   UNL A   1      45.751  28.354  34.136  1.00  0.00     0.012 A 
ATOM     64  C   UNL A   1      44.346  26.539  34.953  1.00  0.00     0.148 A 
ATOM     65  C   UNL A   1      46.847  27.815  34.807  1.00  0.00     0.002 A 
ATOM     66  C   UNL A   1      45.431  26.032  35.654  1.00  0.00     0.091 A 
ATOM     67  F   UNL A   1      43.144  25.945  34.978  1.00  0.00    -0.205 F 
ATOM     68  C   UNL A   1      46.683  26.665  35.578  1.00  0.00     0.022 A 
BRANCH  66  69
ATOM     69  S   UNL A   1      45.286  24.618  36.752  1.00  0.00     0.127 S 
ATOM     70  O   UNL A   1      44.781  23.588  35.845  1.00  0.00    -0.237 OA
ATOM     71  O   UNL A   1      46.667  24.421  37.193  1.00  0.00    -0.237 OA
ATOM     72  O   UNL A   1      44.369  25.025  37.810  1.00  0.00    -0.744 OA
ENDBRANCH  66  69
ENDBRANCH  39  62
ENDBRANCH  13  14
ENDBRANCH   6   8
ENDBRANCH   5   6
ENDBRANCH   4   5
ENDBRANCH   3   4
ENDBRANCH   2   3
ENDBRANCH   1   2
BRANCH   1  73
ATOM     73  C   UNL A   1      30.336  29.423  24.171  1.00  0.00     0.261 C 
BRANCH  73  74
ATOM     74  O   UNL A   1      31.360  28.781  24.952  1.00  0.00    -0.459 OA
BRANCH  74  75
ATOM     75  C   UNL A   1      32.285  28.076  24.234  1.00  0.00     0.357 C 
ATOM     76  O   UNL A   1      33.410  28.438  23.939  1.00  0.00    -0.244 OA
BRANCH  75  77
ATOM     77  C   UNL A   1      31.722  26.706  24.044  1.00  0.00     0.149 A 
ATOM     78  C   UNL A   1      31.392  25.939  25.154  1.00  0.00     0.051 A 
ATOM     79  N   UNL A   1      31.724  26.224  22.776  1.00  0.00    -0.249 NA
ATOM     80  C   UNL A   1      31.157  24.581  24.983  1.00  0.00     0.012 A 
ATOM     81  C   UNL A   1      31.440  24.918  22.625  1.00  0.00     0.113 A 
ATOM     82  C   UNL A   1      31.173  24.067  23.684  1.00  0.00     0.035 A 
BRANCH  80  83
ATOM     83  S   UNL A   1      30.858  23.423  26.311  1.00  0.00    -0.120 SA
BRANCH  83  84
ATOM     84  C   UNL A   1      32.477  23.205  27.127  1.00  0.00     0.132 C 
BRANCH  84  85
ATOM     85  C   UNL A   1      33.447  22.355  26.364  1.00  0.00     0.062 A 
ATOM     86  C   UNL A   1      34.827  22.419  26.420  1.00  0.00     0.091 A 
ATOM     87  N   UNL A   1      32.962  21.302  25.593  1.00  0.00    -0.240 NA
ATOM     88  S   UNL A   1      35.528  21.143  25.526  1.00  0.00    -0.122 S 
ATOM     89  C   UNL A   1      33.957  20.562  25.143  1.00  0.00     0.124 A 
BRANCH  89  90
ATOM     90  C   UNL A   1      33.700  19.286  24.392  1.00  0.00     0.021 A 
ATOM     91  C   UNL A   1      32.525  19.039  23.616  1.00  0.00     0.023 A 
ATOM     92  C   UNL A   1      34.547  18.197  24.391  1.00  0.00     0.076 A 
ATOM     93  C   UNL A   1      32.525  17.780  23.055  1.00  0.00     0.065 A 
ATOM     94  S   UNL A   1      33.922  16.889  23.477  1.00  0.00    -0.152 S 
ENDBRANCH  89  90
ENDBRANCH  84  85
ENDBRANCH  83  84
ENDBRANCH  80  83
ENDBRANCH  75  77
ENDBRANCH  74  75
ENDBRANCH  73  74
ENDBRANCH   1  73
TORSDOF 21
ENDMDL
MODEL 2
REMARK VINA RESULT:     -10.3      5.135     10.385
REMARK SMILES O=C(OCCOCCOC(=O)c1cc(SCc2csc(-c3ccsc3)n2)ccn1)c1ccc(-c2c3nc(c(-c4cccc(S(=O)(=O)[O-])c4F)c4ccc([nH]4)c(-c4cccc(S(=O)(=O)[O-])c4F)c4nc(c(-c5cccc(S(=O)(=O)[O-])c5F)c5ccc2[nH]5)C=C4)C=C3)cc1
REMARK SMILES IDX 7 1 6 2 5 3 4 4 3 5 2 6 1 7 30 8 31 9 92 10 32 11 91 12
REMARK SMILES IDX 33 13 34 14 35 15 85 16 36 17 90 18 84 19 86 20 37 21 89 22
REMARK SMILES IDX 83 23 82 24 38 26 70 27 50 28 69 29 51 30 54 31 68 32 87 33
REMARK SMILES IDX 52 34 53 35 67 37 88 38 55 39 39 40 40 41 48 42 41 43 43 44
REMARK SMILES IDX 49 45 42 46 44 47 45 48 46 49 47 50 71 51 72 52 80 53 73 54
REMARK SMILES IDX 75 55 81 56 74 57 76 58 77 59 78 60 79 61 56 62 57 63 65 64
REMARK SMILES IDX 58 65 60 66 66 67 59 68 61 69 62 70 63 71 64 72 8 73 9 74
REMARK SMILES IDX 10 75 11 76 12 77 13 78 29 79 14 80 28 81 27 82 15 83 16 84
REMARK SMILES IDX 17 85 18 86 26 87 19 88 20 89 21 90 22 91 25 92 23 93 24 94
REMARK H PARENT 86 25 54 36
REMARK Flexibility Score: inf
ROOT
ATOM      1  C   UNL A   1      36.672  23.130  24.965  1.00  0.00     0.202 C 
ENDROOT
BRANCH   1   2
ATOM      2  O   UNL A   1      36.858  21.832  25.537  1.00  0.00    -0.374 OA
BRANCH   2   3
ATOM      3  C   UNL A   1      37.062  20.761  24.618  1.00  0.00     0.202 C 
BRANCH   3   4
ATOM      4  C   UNL A   1      38.223  19.838  24.996  1.00  0.00     0.261 C 
BRANCH   4   5
ATOM      5  O   UNL A   1      38.778  20.245  26.257  1.00  0.00    -0.460 OA
BRANCH   5   6
ATOM      6  C   UNL A   1      40.033  20.663  26.539  1.00  0.00     0.338 C 
ATOM      7  O   UNL A   1      40.924  19.814  26.574  1.00  0.00    -0.246 OA
BRANCH   6   8
ATOM      8  C   UNL A   1      40.408  22.085  26.816  1.00  0.00     0.060 A 
ATOM      9  C   UNL A   1      39.879  23.208  26.171  1.00  0.00     0.016 A 
ATOM     10  C   UNL A   1      41.299  22.304  27.882  1.00  0.00     0.016 A 
ATOM     11  C   UNL A   1      40.253  24.499  26.525  1.00  0.00     0.010 A 
ATOM     12  C   UNL A   1      41.661  23.599  28.263  1.00  0.00     0.010 A 
ATOM     13  C   UNL A   1      41.151  24.699  27.567  1.00  0.00    -0.014 A 
BRANCH  13  14
ATOM     14  C   UNL A   1      41.625  26.063  27.848  1.00  0.00     0.031 A 
ATOM     15  C   UNL A   1      42.996  26.444  27.387  1.00  0.00     0.074 A 
ATOM     16  C   UNL A   1      40.817  26.940  28.466  1.00  0.00     0.049 A 
ATOM     17  N   UNL A   1      43.652  27.555  27.575  1.00  0.00    -0.248 NA
ATOM     18  C   UNL A   1      43.726  25.436  26.597  1.00  0.00     0.031 C 
ATOM     19  C   UNL A   1      39.442  26.664  28.886  1.00  0.00     0.029 A 
ATOM     20  N   UNL A   1      41.036  28.234  28.857  1.00  0.00    -0.354 N 
ATOM     21  C   UNL A   1      44.887  27.365  26.972  1.00  0.00     0.074 A 
ATOM     22  C   UNL A   1      44.886  26.040  26.394  1.00  0.00     0.031 C 
ATOM     23  C   UNL A   1      38.947  27.752  29.498  1.00  0.00     0.029 A 
ATOM     24  C   UNL A   1      39.982  28.779  29.551  1.00  0.00     0.049 A 
ATOM     25  H   UNL A   1      41.867  28.725  28.662  1.00  0.00     0.167 HD
ATOM     26  C   UNL A   1      45.928  28.224  26.911  1.00  0.00     0.034 A 
ATOM     27  C   UNL A   1      39.886  29.966  30.182  1.00  0.00     0.034 A 
ATOM     28  C   UNL A   1      45.901  29.536  27.492  1.00  0.00     0.049 A 
ATOM     29  C   UNL A   1      41.067  30.898  30.122  1.00  0.00     0.074 A 
ATOM     30  C   UNL A   1      46.901  30.489  27.526  1.00  0.00     0.029 A 
ATOM     31  N   UNL A   1      44.803  30.076  28.151  1.00  0.00    -0.354 N 
ATOM     32  N   UNL A   1      42.219  30.728  29.514  1.00  0.00    -0.248 NA
ATOM     33  C   UNL A   1      40.937  32.188  30.810  1.00  0.00     0.031 C 
ATOM     34  C   UNL A   1      46.410  31.601  28.221  1.00  0.00     0.029 A 
ATOM     35  C   UNL A   1      45.099  31.348  28.599  1.00  0.00     0.049 A 
ATOM     36  H   UNL A   1      43.941  29.619  28.279  1.00  0.00     0.167 HD
ATOM     37  C   UNL A   1      42.941  31.896  29.722  1.00  0.00     0.074 A 
ATOM     38  C   UNL A   1      42.088  32.774  30.501  1.00  0.00     0.031 C 
ATOM     39  C   UNL A   1      44.197  32.211  29.322  1.00  0.00     0.034 A 
BRANCH  26  40
ATOM     40  C   UNL A   1      47.168  27.742  26.213  1.00  0.00     0.023 A 
ATOM     41  C   UNL A   1      48.228  27.193  26.963  1.00  0.00     0.012 A 
ATOM     42  C   UNL A   1      47.303  27.869  24.817  1.00  0.00     0.148 A 
ATOM     43  C   UNL A   1      49.419  26.817  26.341  1.00  0.00     0.002 A 
ATOM     44  C   UNL A   1      48.479  27.459  24.199  1.00  0.00     0.091 A 
ATOM     45  F   UNL A   1      46.300  28.427  24.125  1.00  0.00    -0.205 F 
ATOM     46  C   UNL A   1      49.541  26.944  24.959  1.00  0.00     0.022 A 
BRANCH  44  47
ATOM     47  S   UNL A   1      48.704  27.545  22.419  1.00  0.00     0.127 S 
ATOM     48  O   UNL A   1      48.682  26.130  22.050  1.00  0.00    -0.237 OA
ATOM     49  O   UNL A   1      47.528  28.304  21.993  1.00  0.00    -0.237 OA
ATOM     50  O   UNL A   1      49.971  28.232  22.213  1.00  0.00    -0.744 OA
ENDBRANCH  44  47
ENDBRANCH  26  40
BRANCH  27  51
ATOM     51  C   UNL A   1      38.625  30.327  30.891  1.00  0.00     0.023 A 
ATOM     52  C   UNL A   1      38.473  29.999  32.251  1.00  0.00     0.012 A 
ATOM     53  C   UNL A   1      37.606  31.054  30.244  1.00  0.00     0.148 A 
ATOM     54  C   UNL A   1      37.324  30.379  32.950  1.00  0.00     0.002 A 
ATOM     55  C   UNL A   1      36.490  31.477  30.959  1.00  0.00     0.091 A 
ATOM     56  F   UNL A   1      37.758  31.340  28.943  1.00  0.00    -0.205 F 
ATOM     57  C   UNL A   1      36.340  31.128  32.309  1.00  0.00     0.022 A 
BRANCH  55  58
ATOM     58  S   UNL A   1      35.244  32.561  30.250  1.00  0.00     0.127 S 
ATOM     59  O   UNL A   1      34.734  31.751  29.147  1.00  0.00    -0.237 OA
ATOM     60  O   UNL A   1      34.317  32.731  31.369  1.00  0.00    -0.237 OA
ATOM     61  O   UNL A   1      35.952  33.777  29.870  1.00  0.00    -0.744 OA
ENDBRANCH  55  58
ENDBRANCH  27  51
BRANCH  39  62
ATOM     62  C   UNL A   1      44.721  33.572  29.687  1.00  0.00     0.023 A 
ATOM     63  C   UNL A   1      45.473  33.735  30.866  1.00  0.00     0.012 A 
ATOM     64  C   UNL A   1      44.579  34.652  28.794  1.00  0.00     0.148 A 
ATOM     65  C   UNL A   1      46.068  34.961  31.158  1.00  0.00     0.002 A 
ATOM     66  C   UNL A   1      45.212  35.856  29.069  1.00  0.00     0.091 A 
ATOM     67  F   UNL A   1      43.841  34.474  27.689  1.00  0.00    -0.205 F 
ATOM     68  C   UNL A   1      45.951  36.015  30.253  1.00  0.00     0.022 A 
BRANCH  66  69
ATOM     69  S   UNL A   1      45.200  37.230  27.912  1.00  0.00     0.127 S 
ATOM     70  O   UNL A   1      46.104  38.176  28.563  1.00  0.00    -0.237 OA
ATOM     71  O   UNL A   1      45.729  36.617  26.694  1.00  0.00    -0.237 OA
ATOM     72  O   UNL A   1      43.810  37.658  27.814  1.00  0.00    -0.744 OA
ENDBRANCH  66  69
ENDBRANCH  39  62
ENDBRANCH  13  14
ENDBRANCH   6   8
ENDBRANCH   5   6
ENDBRANCH   4   5
ENDBRANCH   3   4
ENDBRANCH   2   3
ENDBRANCH   1   2
BRANCH   1  73
ATOM     73  C   UNL A   1      35.836  22.981  23.689  1.00  0.00     0.261 C 
BRANCH  73  74
ATOM     74  O   UNL A   1      34.980  24.132  23.576  1.00  0.00    -0.459 OA
BRANCH  74  75
ATOM     75  C   UNL A   1      34.003  24.040  22.623  1.00  0.00     0.357 C 
ATOM     76  O   UNL A   1      34.001  23.311  21.648  1.00  0.00    -0.244 OA
BRANCH  75  77
ATOM     77  C   UNL A   1      32.857  24.866  23.109  1.00  0.00     0.149 A 
ATOM     78  C   UNL A   1      32.407  24.715  24.414  1.00  0.00     0.051 A 
ATOM     79  N   UNL A   1      32.210  25.606  22.175  1.00  0.00    -0.249 NA
ATOM     80  C   UNL A   1      31.175  25.254  24.763  1.00  0.00     0.012 A 
ATOM     81  C   UNL A   1      31.045  26.166  22.548  1.00  0.00     0.113 A 
ATOM     82  C   UNL A   1      30.488  26.005  23.805  1.00  0.00     0.035 A 
BRANCH  80  83
ATOM     83  S   UNL A   1      30.381  25.039  26.349  1.00  0.00    -0.120 SA
BRANCH  83  84
ATOM     84  C   UNL A   1      30.156  23.235  26.528  1.00  0.00     0.132 C 
BRANCH  84  85
ATOM     85  C   UNL A   1      31.403  22.430  26.325  1.00  0.00     0.062 A 
ATOM     86  C   UNL A   1      32.537  22.446  27.116  1.00  0.00     0.091 A 
ATOM     87  N   UNL A   1      31.431  21.470  25.318  1.00  0.00    -0.240 NA
ATOM     88  S   UNL A   1      33.638  21.238  26.618  1.00  0.00    -0.122 S 
ATOM     89  C   UNL A   1      32.530  20.744  25.402  1.00  0.00     0.124 A 
BRANCH  89  90
ATOM     90  C   UNL A   1      32.744  19.552  24.512  1.00  0.00     0.021 A 
ATOM     91  C   UNL A   1      32.163  19.410  23.214  1.00  0.00     0.023 A 
ATOM     92  C   UNL A   1      33.497  18.447  24.856  1.00  0.00     0.076 A 
ATOM     93  C   UNL A   1      32.496  18.211  22.622  1.00  0.00     0.065 A 
ATOM     94  S   UNL A   1      33.486  17.249  23.631  1.00  0.00    -0.152 S 
ENDBRANCH  89  90
ENDBRANCH  84  85
ENDBRANCH  83  84
ENDBRANCH  80  83
ENDBRANCH  75  77
ENDBRANCH  74  75
ENDBRANCH  73  74
ENDBRANCH   1  73
TORSDOF 21
ENDMDL
MODEL 3
REMARK VINA RESULT:     -10.2      5.914      9.822
REMARK SMILES O=C(OCCOCCOC(=O)c1cc(SCc2csc(-c3ccsc3)n2)ccn1)c1ccc(-c2c3nc(c(-c4cccc(S(=O)(=O)[O-])c4F)c4ccc([nH]4)c(-c4cccc(S(=O)(=O)[O-])c4F)c4nc(c(-c5cccc(S(=O)(=O)[O-])c5F)c5ccc2[nH]5)C=C4)C=C3)cc1
REMARK SMILES IDX 7 1 6 2 5 3 4 4 3 5 2 6 1 7 30 8 31 9 92 10 32 11 91 12
REMARK SMILES IDX 33 13 34 14 35 15 85 16 36 17 90 18 84 19 86 20 37 21 89 22
REMARK SMILES IDX 83 23 82 24 38 26 70 27 50 28 69 29 51 30 54 31 68 32 87 33
REMARK SMILES IDX 52 34 53 35 67 37 88 38 55 39 39 40 40 41 48 42 41 43 43 44
REMARK SMILES IDX 49 45 42 46 44 47 45 48 46 49 47 50 71 51 72 52 80 53 73 54
REMARK SMILES IDX 75 55 81 56 74 57 76 58 77 59 78 60 79 61 56 62 57 63 65 64
REMARK SMILES IDX 58 65 60 66 66 67 59 68 61 69 62 70 63 71 64 72 8 73 9 74
REMARK SMILES IDX 10 75 11 76 12 77 13 78 29 79 14 80 28 81 27 82 15 83 16 84
REMARK SMILES IDX 17 85 18 86 26 87 19 88 20 89 21 90 22 91 25 92 23 93 24 94
REMARK H PARENT 86 25 54 36
REMARK Flexibility Score: inf
ROOT
ATOM      1  C   UNL A   1      37.327  22.430  25.716  1.00  0.00     0.202 C 
ENDROOT
BRANCH   1   2
ATOM      2  O   UNL A   1      38.374  21.523  25.362  1.00  0.00    -0.374 OA
BRANCH   2   3
ATOM      3  C   UNL A   1      37.965  20.241  24.889  1.00  0.00     0.202 C 
BRANCH   3   4
ATOM      4  C   UNL A   1      38.877  19.099  25.340  1.00  0.00     0.261 C 
BRANCH   4   5
ATOM      5  O   UNL A   1      39.813  19.581  26.318  1.00  0.00    -0.460 OA
BRANCH   5   6
ATOM      6  C   UNL A   1      41.128  19.864  26.170  1.00  0.00     0.338 C 
ATOM      7  O   UNL A   1      41.848  18.997  25.674  1.00  0.00    -0.246 OA
BRANCH   6   8
ATOM      8  C   UNL A   1      41.763  21.158  26.573  1.00  0.00     0.060 A 
ATOM      9  C   UNL A   1      42.249  21.465  27.848  1.00  0.00     0.016 A 
ATOM     10  C   UNL A   1      41.969  22.102  25.551  1.00  0.00     0.016 A 
ATOM     11  C   UNL A   1      42.868  22.680  28.122  1.00  0.00     0.010 A 
ATOM     12  C   UNL A   1      42.614  23.314  25.809  1.00  0.00     0.010 A 
ATOM     13  C   UNL A   1      43.046  23.611  27.105  1.00  0.00    -0.014 A 
BRANCH  13  14
ATOM     14  C   UNL A   1      43.593  24.935  27.440  1.00  0.00     0.031 A 
ATOM     15  C   UNL A   1      42.654  25.980  27.953  1.00  0.00     0.074 A 
ATOM     16  C   UNL A   1      44.911  25.166  27.319  1.00  0.00     0.049 A 
ATOM     17  N   UNL A   1      42.888  27.228  28.249  1.00  0.00    -0.248 NA
ATOM     18  C   UNL A   1      41.259  25.556  28.172  1.00  0.00     0.031 C 
ATOM     19  C   UNL A   1      45.901  24.177  26.890  1.00  0.00     0.029 A 
ATOM     20  N   UNL A   1      45.642  26.303  27.536  1.00  0.00    -0.354 N 
ATOM     21  C   UNL A   1      41.665  27.753  28.641  1.00  0.00     0.074 A 
ATOM     22  C   UNL A   1      40.693  26.686  28.565  1.00  0.00     0.031 C 
ATOM     23  C   UNL A   1      47.111  24.759  26.853  1.00  0.00     0.029 A 
ATOM     24  C   UNL A   1      46.971  26.166  27.212  1.00  0.00     0.049 A 
ATOM     25  H   UNL A   1      45.254  27.136  27.889  1.00  0.00     0.167 HD
ATOM     26  C   UNL A   1      41.384  29.018  29.027  1.00  0.00     0.034 A 
ATOM     27  C   UNL A   1      47.951  27.091  27.183  1.00  0.00     0.034 A 
ATOM     28  C   UNL A   1      42.371  30.057  29.095  1.00  0.00     0.049 A 
ATOM     29  C   UNL A   1      47.610  28.499  27.594  1.00  0.00     0.074 A 
ATOM     30  C   UNL A   1      42.207  31.385  29.440  1.00  0.00     0.029 A 
ATOM     31  N   UNL A   1      43.717  29.878  28.802  1.00  0.00    -0.354 N 
ATOM     32  N   UNL A   1      46.459  28.980  28.004  1.00  0.00    -0.248 NA
ATOM     33  C   UNL A   1      48.696  29.487  27.561  1.00  0.00     0.031 C 
ATOM     34  C   UNL A   1      43.454  32.012  29.339  1.00  0.00     0.029 A 
ATOM     35  C   UNL A   1      44.398  31.069  28.954  1.00  0.00     0.049 A 
ATOM     36  H   UNL A   1      44.126  29.026  28.526  1.00  0.00     0.167 HD
ATOM     37  C   UNL A   1      46.685  30.317  28.303  1.00  0.00     0.074 A 
ATOM     38  C   UNL A   1      48.090  30.566  28.041  1.00  0.00     0.031 C 
ATOM     39  C   UNL A   1      45.812  31.258  28.738  1.00  0.00     0.034 A 
BRANCH  26  40
ATOM     40  C   UNL A   1      39.954  29.321  29.374  1.00  0.00     0.023 A 
ATOM     41  C   UNL A   1      39.037  29.646  28.353  1.00  0.00     0.012 A 
ATOM     42  C   UNL A   1      39.524  29.325  30.715  1.00  0.00     0.148 A 
ATOM     43  C   UNL A   1      37.727  30.010  28.664  1.00  0.00     0.002 A 
ATOM     44  C   UNL A   1      38.207  29.654  31.014  1.00  0.00     0.091 A 
ATOM     45  F   UNL A   1      40.419  29.049  31.674  1.00  0.00    -0.205 F 
ATOM     46  C   UNL A   1      37.312  30.008  29.993  1.00  0.00     0.022 A 
BRANCH  44  47
ATOM     47  S   UNL A   1      37.576  29.633  32.695  1.00  0.00     0.127 S 
ATOM     48  O   UNL A   1      37.668  28.212  33.028  1.00  0.00    -0.237 OA
ATOM     49  O   UNL A   1      38.534  30.486  33.399  1.00  0.00    -0.237 OA
ATOM     50  O   UNL A   1      36.227  30.178  32.618  1.00  0.00    -0.744 OA
ENDBRANCH  44  47
ENDBRANCH  26  40
BRANCH  27  51
ATOM     51  C   UNL A   1      49.329  26.695  26.773  1.00  0.00     0.023 A 
ATOM     52  C   UNL A   1      50.080  25.835  27.597  1.00  0.00     0.012 A 
ATOM     53  C   UNL A   1      49.872  27.108  25.540  1.00  0.00     0.148 A 
ATOM     54  C   UNL A   1      51.350  25.405  27.205  1.00  0.00     0.002 A 
ATOM     55  C   UNL A   1      51.113  26.632  25.130  1.00  0.00     0.091 A 
ATOM     56  F   UNL A   1      49.151  27.943  24.777  1.00  0.00    -0.205 F 
ATOM     57  C   UNL A   1      51.860  25.791  25.968  1.00  0.00     0.022 A 
BRANCH  55  58
ATOM     58  S   UNL A   1      51.784  26.967  23.497  1.00  0.00     0.127 S 
ATOM     59  O   UNL A   1      50.656  26.626  22.634  1.00  0.00    -0.237 OA
ATOM     60  O   UNL A   1      52.086  28.396  23.580  1.00  0.00    -0.237 OA
ATOM     61  O   UNL A   1      52.959  26.114  23.372  1.00  0.00    -0.744 OA
ENDBRANCH  55  58
ENDBRANCH  27  51
BRANCH  39  62
ATOM     62  C   UNL A   1      46.348  32.639  28.993  1.00  0.00     0.023 A 
ATOM     63  C   UNL A   1      46.922  32.942  30.243  1.00  0.00     0.012 A 
ATOM     64  C   UNL A   1      46.402  33.585  27.952  1.00  0.00     0.148 A 
ATOM     65  C   UNL A   1      47.533  34.176  30.456  1.00  0.00     0.002 A 
ATOM     66  C   UNL A   1      47.050  34.795  28.158  1.00  0.00     0.091 A 
ATOM     67  F   UNL A   1      45.829  33.278  26.779  1.00  0.00    -0.205 F 
ATOM     68  C   UNL A   1      47.611  35.095  29.411  1.00  0.00     0.022 A 
BRANCH  66  69
ATOM     69  S   UNL A   1      47.288  35.991  26.839  1.00  0.00     0.127 S 
ATOM     70  O   UNL A   1      47.839  35.155  25.774  1.00  0.00    -0.237 OA
ATOM     71  O   UNL A   1      45.925  36.466  26.600  1.00  0.00    -0.237 OA
ATOM     72  O   UNL A   1      48.192  37.002  27.374  1.00  0.00    -0.744 OA
ENDBRANCH  66  69
ENDBRANCH  39  62
ENDBRANCH  13  14
ENDBRANCH   6   8
ENDBRANCH   5   6
ENDBRANCH   4   5
ENDBRANCH   3   4
ENDBRANCH   2   3
ENDBRANCH   1   2
BRANCH   1  73
ATOM     73  C   UNL A   1      36.013  21.645  25.800  1.00  0.00     0.261 C 
BRANCH  73  74
ATOM     74  O   UNL A   1      34.985  22.419  25.156  1.00  0.00    -0.459 OA
BRANCH  74  75
ATOM     75  C   UNL A   1      34.071  21.694  24.442  1.00  0.00     0.357 C 
ATOM     76  O   UNL A   1      33.921  20.486  24.463  1.00  0.00    -0.244 OA
BRANCH  75  77
ATOM     77  C   UNL A   1      33.168  22.683  23.780  1.00  0.00     0.149 A 
ATOM     78  C   UNL A   1      33.711  23.810  23.174  1.00  0.00     0.051 A 
ATOM     79  N   UNL A   1      31.837  22.499  23.960  1.00  0.00    -0.249 NA
ATOM     80  C   UNL A   1      32.866  24.857  22.831  1.00  0.00     0.012 A 
ATOM     81  C   UNL A   1      31.029  23.502  23.570  1.00  0.00     0.113 A 
ATOM     82  C   UNL A   1      31.492  24.688  23.026  1.00  0.00     0.035 A 
BRANCH  80  83
ATOM     83  S   UNL A   1      33.405  26.429  22.175  1.00  0.00    -0.120 SA
BRANCH  83  84
ATOM     84  C   UNL A   1      33.992  27.374  23.623  1.00  0.00     0.132 C 
BRANCH  84  85
ATOM     85  C   UNL A   1      32.952  28.245  24.259  1.00  0.00     0.062 A 
ATOM     86  C   UNL A   1      33.082  28.970  25.430  1.00  0.00     0.091 A 
ATOM     87  N   UNL A   1      31.757  28.473  23.584  1.00  0.00    -0.240 NA
ATOM     88  S   UNL A   1      31.713  29.962  25.679  1.00  0.00    -0.122 S 
ATOM     89  C   UNL A   1      31.045  29.396  24.202  1.00  0.00     0.124 A 
BRANCH  89  90
ATOM     90  C   UNL A   1      29.769  29.921  23.608  1.00  0.00     0.021 A 
ATOM     91  C   UNL A   1      29.242  31.224  23.871  1.00  0.00     0.023 A 
ATOM     92  C   UNL A   1      28.944  29.200  22.768  1.00  0.00     0.076 A 
ATOM     93  C   UNL A   1      28.045  31.443  23.224  1.00  0.00     0.065 A 
ATOM     94  S   UNL A   1      27.545  30.082  22.319  1.00  0.00    -0.152 S 
ENDBRANCH  89  90
ENDBRANCH  84  85
ENDBRANCH  83  84
ENDBRANCH  80  83
ENDBRANCH  75  77
ENDBRANCH  74  75
ENDBRANCH  73  74
ENDBRANCH   1  73
TORSDOF 21
ENDMDL
