MODEL 1
REMARK VINA RESULT:     -10.1      0.000      0.000
REMARK SMILES CCCN(C(=O)Cc1c(C(=O)OCCOCCOC(=O)c2ccc(-c3c4nc(c(-c5cccc(S(=O)(=O)[O-])c5F)c5ccc([nH]5)c(-c5cccc(S(=O)(=O)[O-])c5F)c5nc(c(-c6cccc(S(=O)(=O)[O-])c6F)c6ccc3[nH]6)C=C5)C=C4)cc2)c(C)cn1CC)c1cccc(Cl)c1
REMARK SMILES IDX 14 1 13 2 12 3 10 4 11 5 9 6 8 7 87 8 84 9 86 10 85 11 7 12
REMARK SMILES IDX 5 13 6 14 4 15 3 16 2 17 1 18 90 19 91 20 96 21 92 22 94 23
REMARK SMILES IDX 93 24 95 25 88 26 89 27 15 28 16 29 17 30 18 31 19 32 20 33
REMARK SMILES IDX 21 34 22 35 83 36 23 37 82 38 24 39 25 40 26 41 76 42 27 43
REMARK SMILES IDX 81 44 75 45 77 46 28 47 80 48 74 49 73 50 29 52 61 53 41 54
REMARK SMILES IDX 60 55 42 56 45 57 59 58 78 59 43 60 44 61 58 63 79 64 46 65
REMARK SMILES IDX 30 66 31 67 39 68 32 69 34 70 40 71 33 72 35 73 36 74 37 75
REMARK SMILES IDX 38 76 62 77 63 78 71 79 64 80 66 81 72 82 65 83 67 84 68 85
REMARK SMILES IDX 69 86 70 87 47 88 48 89 56 90 49 91 51 92 57 93 50 94 52 95
REMARK SMILES IDX 53 96 54 97 55 98
REMARK H PARENT 77 51 45 62
REMARK Flexibility Score: inf
ROOT
ATOM      1  C   UNL A   1      38.083  23.226  25.604  1.00  0.00     0.202 C 
ENDROOT
BRANCH   1   2
ATOM      2  C   UNL A   1      36.726  23.596  26.203  1.00  0.00     0.261 C 
BRANCH   2   3
ATOM      3  O   UNL A   1      35.654  23.216  25.329  1.00  0.00    -0.460 OA
BRANCH   3   4
ATOM      4  C   UNL A   1      34.795  22.255  25.787  1.00  0.00     0.340 C 
ATOM      5  O   UNL A   1      35.129  21.287  26.443  1.00  0.00    -0.246 OA
BRANCH   4   6
ATOM      6  C   UNL A   1      33.397  22.583  25.467  1.00  0.00     0.084 A 
ATOM      7  C   UNL A   1      32.735  23.805  25.707  1.00  0.00     0.042 A 
ATOM      8  N   UNL A   1      31.405  23.459  25.656  1.00  0.00    -0.350 N 
ATOM      9  C   UNL A   1      32.452  21.761  24.741  1.00  0.00    -0.019 A 
ATOM     10  C   UNL A   1      31.240  22.412  24.805  1.00  0.00     0.090 A 
ATOM     11  C   UNL A   1      32.672  20.452  24.067  1.00  0.00     0.047 C 
BRANCH   7  12
ATOM     12  C   UNL A   1      33.223  25.241  25.879  1.00  0.00     0.155 C 
BRANCH  12  13
ATOM     13  C   UNL A   1      33.453  26.048  24.595  1.00  0.00     0.232 C 
ATOM     14  O   UNL A   1      33.922  25.436  23.623  1.00  0.00    -0.274 OA
BRANCH  13  15
ATOM     15  N   UNL A   1      33.181  27.444  24.521  1.00  0.00    -0.312 N 
BRANCH  15  16
ATOM     16  C   UNL A   1      33.820  28.532  25.331  1.00  0.00     0.125 C 
BRANCH  16  17
ATOM     17  C   UNL A   1      33.412  28.877  26.797  1.00  0.00     0.019 C 
ATOM     18  C   UNL A   1      33.030  30.299  27.189  1.00  0.00     0.006 C 
ENDBRANCH  16  17
ENDBRANCH  15  16
BRANCH  15  19
ATOM     19  C   UNL A   1      31.927  27.808  23.899  1.00  0.00     0.045 A 
ATOM     20  C   UNL A   1      31.811  28.962  23.110  1.00  0.00     0.026 A 
ATOM     21  C   UNL A   1      30.773  27.069  24.149  1.00  0.00     0.046 A 
ATOM     22  C   UNL A   1      30.573  29.348  22.579  1.00  0.00     0.004 A 
ATOM     23  C   UNL A   1      29.543  27.442  23.608  1.00  0.00     0.043 A 
ATOM     24  C   UNL A   1      29.435  28.582  22.824  1.00  0.00     0.020 A 
ATOM     25  Cl  UNL A   1      28.145  26.497  23.952  1.00  0.00    -0.084 Cl
ENDBRANCH  15  19
ENDBRANCH  13  15
ENDBRANCH  12  13
ENDBRANCH   7  12
BRANCH   8  26
ATOM     26  C   UNL A   1      30.348  23.983  26.486  1.00  0.00     0.118 C 
ATOM     27  C   UNL A   1      29.524  22.902  27.161  1.00  0.00     0.027 C 
ENDBRANCH   8  26
ENDBRANCH   4   6
ENDBRANCH   3   4
ENDBRANCH   2   3
ENDBRANCH   1   2
BRANCH   1  28
ATOM     28  O   UNL A   1      38.795  22.147  26.212  1.00  0.00    -0.374 OA
BRANCH  28  29
ATOM     29  C   UNL A   1      39.391  21.147  25.394  1.00  0.00     0.202 C 
BRANCH  29  30
ATOM     30  C   UNL A   1      39.629  19.767  25.981  1.00  0.00     0.261 C 
BRANCH  30  31
ATOM     31  O   UNL A   1      40.846  19.693  26.704  1.00  0.00    -0.460 OA
BRANCH  31  32
ATOM     32  C   UNL A   1      41.924  20.072  25.981  1.00  0.00     0.338 C 
ATOM     33  O   UNL A   1      42.405  19.494  25.022  1.00  0.00    -0.246 OA
BRANCH  32  34
ATOM     34  C   UNL A   1      42.554  21.212  26.649  1.00  0.00     0.060 A 
ATOM     35  C   UNL A   1      42.560  21.169  28.043  1.00  0.00     0.016 A 
ATOM     36  C   UNL A   1      42.817  22.392  25.933  1.00  0.00     0.016 A 
ATOM     37  C   UNL A   1      42.588  22.363  28.721  1.00  0.00     0.010 A 
ATOM     38  C   UNL A   1      42.845  23.583  26.614  1.00  0.00     0.010 A 
ATOM     39  C   UNL A   1      42.632  23.557  27.987  1.00  0.00    -0.014 A 
BRANCH  39  40
ATOM     40  C   UNL A   1      42.587  24.796  28.726  1.00  0.00     0.031 A 
ATOM     41  C   UNL A   1      41.357  25.553  28.426  1.00  0.00     0.074 A 
ATOM     42  C   UNL A   1      43.541  25.180  29.594  1.00  0.00     0.049 A 
ATOM     43  N   UNL A   1      41.260  26.568  27.636  1.00  0.00    -0.248 NA
ATOM     44  C   UNL A   1      40.066  24.976  28.832  1.00  0.00     0.031 C 
ATOM     45  C   UNL A   1      44.658  24.399  30.132  1.00  0.00     0.029 A 
ATOM     46  N   UNL A   1      43.640  26.354  30.269  1.00  0.00    -0.354 N 
ATOM     47  C   UNL A   1      39.920  26.922  27.667  1.00  0.00     0.074 A 
ATOM     48  C   UNL A   1      39.214  25.790  28.206  1.00  0.00     0.031 C 
ATOM     49  C   UNL A   1      45.153  25.030  31.224  1.00  0.00     0.029 A 
ATOM     50  C   UNL A   1      44.488  26.314  31.369  1.00  0.00     0.049 A 
ATOM     51  H   UNL A   1      43.150  27.165  30.001  1.00  0.00     0.167 HD
ATOM     52  C   UNL A   1      39.550  28.222  27.527  1.00  0.00     0.034 A 
ATOM     53  C   UNL A   1      44.568  27.248  32.352  1.00  0.00     0.034 A 
ATOM     54  C   UNL A   1      40.640  29.020  27.020  1.00  0.00     0.049 A 
ATOM     55  C   UNL A   1      44.019  28.509  31.798  1.00  0.00     0.074 A 
ATOM     56  C   UNL A   1      41.394  29.033  25.865  1.00  0.00     0.029 A 
ATOM     57  N   UNL A   1      41.354  29.728  27.957  1.00  0.00    -0.354 N 
ATOM     58  N   UNL A   1      44.597  29.172  30.837  1.00  0.00    -0.248 NA
ATOM     59  C   UNL A   1      42.604  28.780  31.984  1.00  0.00     0.031 C 
ATOM     60  C   UNL A   1      42.713  29.369  26.288  1.00  0.00     0.029 A 
ATOM     61  C   UNL A   1      42.686  29.611  27.663  1.00  0.00     0.049 A 
ATOM     62  H   UNL A   1      40.973  30.232  28.712  1.00  0.00     0.167 HD
ATOM     63  C   UNL A   1      43.549  29.549  30.008  1.00  0.00     0.074 A 
ATOM     64  C   UNL A   1      42.344  29.382  30.820  1.00  0.00     0.031 C 
ATOM     65  C   UNL A   1      43.734  29.667  28.660  1.00  0.00     0.034 A 
BRANCH  52  66
ATOM     66  C   UNL A   1      38.383  28.857  28.242  1.00  0.00     0.023 A 
ATOM     67  C   UNL A   1      37.503  29.632  27.457  1.00  0.00     0.012 A 
ATOM     68  C   UNL A   1      38.272  28.978  29.647  1.00  0.00     0.148 A 
ATOM     69  C   UNL A   1      36.600  30.526  28.040  1.00  0.00     0.002 A 
ATOM     70  C   UNL A   1      37.322  29.811  30.222  1.00  0.00     0.091 A 
ATOM     71  F   UNL A   1      39.169  28.396  30.445  1.00  0.00    -0.205 F 
ATOM     72  C   UNL A   1      36.505  30.612  29.424  1.00  0.00     0.022 A 
BRANCH  70  73
ATOM     73  S   UNL A   1      37.132  29.939  32.006  1.00  0.00     0.127 S 
ATOM     74  O   UNL A   1      38.263  30.791  32.359  1.00  0.00    -0.237 OA
ATOM     75  O   UNL A   1      35.818  30.573  32.116  1.00  0.00    -0.237 OA
ATOM     76  O   UNL A   1      37.181  28.573  32.510  1.00  0.00    -0.744 OA
ENDBRANCH  70  73
ENDBRANCH  52  66
BRANCH  53  77
ATOM     77  C   UNL A   1      44.791  27.078  33.808  1.00  0.00     0.023 A 
ATOM     78  C   UNL A   1      45.915  27.671  34.422  1.00  0.00     0.012 A 
ATOM     79  C   UNL A   1      43.755  26.602  34.640  1.00  0.00     0.148 A 
ATOM     80  C   UNL A   1      45.987  27.814  35.815  1.00  0.00     0.002 A 
ATOM     81  C   UNL A   1      43.831  26.746  36.023  1.00  0.00     0.091 A 
ATOM     82  F   UNL A   1      42.654  26.097  34.070  1.00  0.00    -0.205 F 
ATOM     83  C   UNL A   1      44.941  27.362  36.613  1.00  0.00     0.022 A 
BRANCH  81  84
ATOM     84  S   UNL A   1      42.502  26.225  37.117  1.00  0.00     0.127 S 
ATOM     85  O   UNL A   1      43.073  26.500  38.436  1.00  0.00    -0.237 OA
ATOM     86  O   UNL A   1      41.416  27.118  36.721  1.00  0.00    -0.237 OA
ATOM     87  O   UNL A   1      42.285  24.811  36.840  1.00  0.00    -0.744 OA
ENDBRANCH  81  84
ENDBRANCH  53  77
BRANCH  65  88
ATOM     88  C   UNL A   1      45.152  29.641  28.143  1.00  0.00     0.023 A 
ATOM     89  C   UNL A   1      46.000  30.769  28.173  1.00  0.00     0.012 A 
ATOM     90  C   UNL A   1      45.686  28.400  27.761  1.00  0.00     0.148 A 
ATOM     91  C   UNL A   1      47.345  30.662  27.804  1.00  0.00     0.002 A 
ATOM     92  C   UNL A   1      47.032  28.288  27.440  1.00  0.00     0.091 A 
ATOM     93  F   UNL A   1      44.867  27.338  27.747  1.00  0.00    -0.205 F 
ATOM     94  C   UNL A   1      47.864  29.420  27.449  1.00  0.00     0.022 A 
BRANCH  92  95
ATOM     95  S   UNL A   1      47.781  26.697  27.092  1.00  0.00     0.127 S 
ATOM     96  O   UNL A   1      49.133  27.078  26.689  1.00  0.00    -0.237 OA
ATOM     97  O   UNL A   1      47.695  26.022  28.388  1.00  0.00    -0.237 OA
ATOM     98  O   UNL A   1      46.966  26.088  26.049  1.00  0.00    -0.744 OA
ENDBRANCH  92  95
ENDBRANCH  65  88
ENDBRANCH  39  40
ENDBRANCH  32  34
ENDBRANCH  31  32
ENDBRANCH  30  31
ENDBRANCH  29  30
ENDBRANCH  28  29
ENDBRANCH   1  28
TORSDOF 24
ENDMDL
MODEL 2
REMARK VINA RESULT:      -9.0      1.797      2.090
REMARK SMILES CCCN(C(=O)Cc1c(C(=O)OCCOCCOC(=O)c2ccc(-c3c4nc(c(-c5cccc(S(=O)(=O)[O-])c5F)c5ccc([nH]5)c(-c5cccc(S(=O)(=O)[O-])c5F)c5nc(c(-c6cccc(S(=O)(=O)[O-])c6F)c6ccc3[nH]6)C=C5)C=C4)cc2)c(C)cn1CC)c1cccc(Cl)c1
REMARK SMILES IDX 14 1 13 2 12 3 10 4 11 5 9 6 8 7 87 8 84 9 86 10 85 11 7 12
REMARK SMILES IDX 5 13 6 14 4 15 3 16 2 17 1 18 90 19 91 20 96 21 92 22 94 23
REMARK SMILES IDX 93 24 95 25 88 26 89 27 15 28 16 29 17 30 18 31 19 32 20 33
REMARK SMILES IDX 21 34 22 35 83 36 23 37 82 38 24 39 25 40 26 41 76 42 27 43
REMARK SMILES IDX 81 44 75 45 77 46 28 47 80 48 74 49 73 50 29 52 61 53 41 54
REMARK SMILES IDX 60 55 42 56 45 57 59 58 78 59 43 60 44 61 58 63 79 64 46 65
REMARK SMILES IDX 30 66 31 67 39 68 32 69 34 70 40 71 33 72 35 73 36 74 37 75
REMARK SMILES IDX 38 76 62 77 63 78 71 79 64 80 66 81 72 82 65 83 67 84 68 85
REMARK SMILES IDX 69 86 70 87 47 88 48 89 56 90 49 91 51 92 57 93 50 94 52 95
REMARK SMILES IDX 53 96 54 97 55 98
REMARK H PARENT 77 51 45 62
REMARK Flexibility Score: inf
ROOT
ATOM      1  C   UNL A   1      37.863  22.931  25.386  1.00  0.00     0.202 C 
ENDROOT
BRANCH   1   2
ATOM      2  C   UNL A   1      36.612  23.296  26.186  1.00  0.00     0.261 C 
BRANCH   2   3
ATOM      3  O   UNL A   1      35.420  22.924  25.481  1.00  0.00    -0.460 OA
BRANCH   3   4
ATOM      4  C   UNL A   1      34.531  22.126  26.149  1.00  0.00     0.340 C 
ATOM      5  O   UNL A   1      34.838  21.315  27.002  1.00  0.00    -0.246 OA
BRANCH   4   6
ATOM      6  C   UNL A   1      33.142  22.433  25.774  1.00  0.00     0.084 A 
ATOM      7  C   UNL A   1      32.464  23.656  25.957  1.00  0.00     0.042 A 
ATOM      8  N   UNL A   1      31.138  23.299  25.873  1.00  0.00    -0.350 N 
ATOM      9  C   UNL A   1      32.227  21.584  25.042  1.00  0.00    -0.019 A 
ATOM     10  C   UNL A   1      31.010  22.226  25.047  1.00  0.00     0.090 A 
ATOM     11  C   UNL A   1      32.478  20.257  24.413  1.00  0.00     0.047 C 
BRANCH   7  12
ATOM     12  C   UNL A   1      32.936  25.101  26.103  1.00  0.00     0.155 C 
BRANCH  12  13
ATOM     13  C   UNL A   1      33.259  25.854  24.806  1.00  0.00     0.232 C 
ATOM     14  O   UNL A   1      33.723  25.186  23.869  1.00  0.00    -0.274 OA
BRANCH  13  15
ATOM     15  N   UNL A   1      33.075  27.260  24.684  1.00  0.00    -0.312 N 
BRANCH  15  16
ATOM     16  C   UNL A   1      33.729  28.332  25.504  1.00  0.00     0.125 C 
BRANCH  16  17
ATOM     17  C   UNL A   1      33.230  28.770  26.916  1.00  0.00     0.019 C 
ATOM     18  C   UNL A   1      31.991  29.643  27.072  1.00  0.00     0.006 C 
ENDBRANCH  16  17
ENDBRANCH  15  16
BRANCH  15  19
ATOM     19  C   UNL A   1      31.883  27.680  23.980  1.00  0.00     0.045 A 
ATOM     20  C   UNL A   1      31.888  28.799  23.136  1.00  0.00     0.026 A 
ATOM     21  C   UNL A   1      30.668  27.034  24.200  1.00  0.00     0.046 A 
ATOM     22  C   UNL A   1      30.709  29.244  22.523  1.00  0.00     0.004 A 
ATOM     23  C   UNL A   1      29.496  27.464  23.578  1.00  0.00     0.043 A 
ATOM     24  C   UNL A   1      29.508  28.570  22.739  1.00  0.00     0.020 A 
ATOM     25  Cl  UNL A   1      28.019  26.634  23.888  1.00  0.00    -0.084 Cl
ENDBRANCH  15  19
ENDBRANCH  13  15
ENDBRANCH  12  13
ENDBRANCH   7  12
BRANCH   8  26
ATOM     26  C   UNL A   1      30.051  23.838  26.652  1.00  0.00     0.118 C 
ATOM     27  C   UNL A   1      29.254  22.774  27.385  1.00  0.00     0.027 C 
ENDBRANCH   8  26
ENDBRANCH   4   6
ENDBRANCH   3   4
ENDBRANCH   2   3
ENDBRANCH   1   2
BRANCH   1  28
ATOM     28  O   UNL A   1      38.863  22.157  26.050  1.00  0.00    -0.374 OA
BRANCH  28  29
ATOM     29  C   UNL A   1      39.523  21.109  25.351  1.00  0.00     0.202 C 
BRANCH  29  30
ATOM     30  C   UNL A   1      39.725  19.776  26.050  1.00  0.00     0.261 C 
BRANCH  30  31
ATOM     31  O   UNL A   1      40.956  19.720  26.752  1.00  0.00    -0.460 OA
BRANCH  31  32
ATOM     32  C   UNL A   1      42.023  20.055  25.992  1.00  0.00     0.338 C 
ATOM     33  O   UNL A   1      42.539  19.386  25.114  1.00  0.00    -0.246 OA
BRANCH  32  34
ATOM     34  C   UNL A   1      42.595  21.296  26.518  1.00  0.00     0.060 A 
ATOM     35  C   UNL A   1      43.013  21.255  27.847  1.00  0.00     0.016 A 
ATOM     36  C   UNL A   1      42.414  22.505  25.825  1.00  0.00     0.016 A 
ATOM     37  C   UNL A   1      43.012  22.431  28.556  1.00  0.00     0.010 A 
ATOM     38  C   UNL A   1      42.414  23.679  26.537  1.00  0.00     0.010 A 
ATOM     39  C   UNL A   1      42.617  23.611  27.909  1.00  0.00    -0.014 A 
BRANCH  39  40
ATOM     40  C   UNL A   1      42.558  24.817  28.700  1.00  0.00     0.031 A 
ATOM     41  C   UNL A   1      41.353  25.606  28.382  1.00  0.00     0.074 A 
ATOM     42  C   UNL A   1      43.479  25.147  29.624  1.00  0.00     0.049 A 
ATOM     43  N   UNL A   1      41.305  26.655  27.634  1.00  0.00    -0.248 NA
ATOM     44  C   UNL A   1      40.038  25.033  28.707  1.00  0.00     0.031 C 
ATOM     45  C   UNL A   1      44.560  24.325  30.174  1.00  0.00     0.029 A 
ATOM     46  N   UNL A   1      43.565  26.289  30.354  1.00  0.00    -0.354 N 
ATOM     47  C   UNL A   1      39.969  27.029  27.624  1.00  0.00     0.074 A 
ATOM     48  C   UNL A   1      39.225  25.886  28.082  1.00  0.00     0.031 C 
ATOM     49  C   UNL A   1      45.016  24.900  31.314  1.00  0.00     0.029 A 
ATOM     50  C   UNL A   1      44.364  26.187  31.487  1.00  0.00     0.049 A 
ATOM     51  H   UNL A   1      43.099  27.118  30.102  1.00  0.00     0.167 HD
ATOM     52  C   UNL A   1      39.625  28.340  27.526  1.00  0.00     0.034 A 
ATOM     53  C   UNL A   1      44.414  27.076  32.513  1.00  0.00     0.034 A 
ATOM     54  C   UNL A   1      40.746  29.142  27.102  1.00  0.00     0.049 A 
ATOM     55  C   UNL A   1      43.908  28.368  31.992  1.00  0.00     0.074 A 
ATOM     56  C   UNL A   1      41.550  29.194  25.982  1.00  0.00     0.029 A 
ATOM     57  N   UNL A   1      41.430  29.796  28.099  1.00  0.00    -0.354 N 
ATOM     58  N   UNL A   1      44.537  29.064  31.088  1.00  0.00    -0.248 NA
ATOM     59  C   UNL A   1      42.490  28.653  32.130  1.00  0.00     0.031 C 
ATOM     60  C   UNL A   1      42.854  29.489  26.475  1.00  0.00     0.029 A 
ATOM     61  C   UNL A   1      42.772  29.671  27.857  1.00  0.00     0.049 A 
ATOM     62  H   UNL A   1      41.024  30.273  28.859  1.00  0.00     0.167 HD
ATOM     63  C   UNL A   1      43.530  29.493  30.231  1.00  0.00     0.074 A 
ATOM     64  C   UNL A   1      42.290  29.310  30.983  1.00  0.00     0.031 C 
ATOM     65  C   UNL A   1      43.776  29.667  28.899  1.00  0.00     0.034 A 
BRANCH  52  66
ATOM     66  C   UNL A   1      38.437  28.962  28.218  1.00  0.00     0.023 A 
ATOM     67  C   UNL A   1      37.554  29.712  27.412  1.00  0.00     0.012 A 
ATOM     68  C   UNL A   1      38.304  29.097  29.619  1.00  0.00     0.148 A 
ATOM     69  C   UNL A   1      36.627  30.597  27.973  1.00  0.00     0.002 A 
ATOM     70  C   UNL A   1      37.332  29.919  30.173  1.00  0.00     0.091 A 
ATOM     71  F   UNL A   1      39.201  28.540  30.437  1.00  0.00    -0.205 F 
ATOM     72  C   UNL A   1      36.512  30.696  29.354  1.00  0.00     0.022 A 
BRANCH  70  73
ATOM     73  S   UNL A   1      37.116  30.064  31.952  1.00  0.00     0.127 S 
ATOM     74  O   UNL A   1      37.249  28.674  32.377  1.00  0.00    -0.237 OA
ATOM     75  O   UNL A   1      38.235  30.935  32.313  1.00  0.00    -0.237 OA
ATOM     76  O   UNL A   1      35.803  30.666  32.145  1.00  0.00    -0.744 OA
ENDBRANCH  70  73
ENDBRANCH  52  66
BRANCH  53  77
ATOM     77  C   UNL A   1      44.572  26.839  33.968  1.00  0.00     0.023 A 
ATOM     78  C   UNL A   1      43.469  26.406  34.736  1.00  0.00     0.012 A 
ATOM     79  C   UNL A   1      45.859  26.738  34.541  1.00  0.00     0.148 A 
ATOM     80  C   UNL A   1      43.647  25.863  36.015  1.00  0.00     0.002 A 
ATOM     81  C   UNL A   1      46.030  26.199  35.813  1.00  0.00     0.091 A 
ATOM     82  F   UNL A   1      46.920  27.083  33.801  1.00  0.00    -0.205 F 
ATOM     83  C   UNL A   1      44.927  25.749  36.549  1.00  0.00     0.022 A 
BRANCH  81  84
ATOM     84  S   UNL A   1      47.655  25.980  36.552  1.00  0.00     0.127 S 
ATOM     85  O   UNL A   1      48.141  27.359  36.622  1.00  0.00    -0.237 OA
ATOM     86  O   UNL A   1      47.324  25.381  37.842  1.00  0.00    -0.237 OA
ATOM     87  O   UNL A   1      48.401  25.126  35.636  1.00  0.00    -0.744 OA
ENDBRANCH  81  84
ENDBRANCH  53  77
BRANCH  65  88
ATOM     88  C   UNL A   1      45.214  29.641  28.443  1.00  0.00     0.023 A 
ATOM     89  C   UNL A   1      45.902  28.445  28.140  1.00  0.00     0.012 A 
ATOM     90  C   UNL A   1      45.835  30.869  28.167  1.00  0.00     0.148 A 
ATOM     91  C   UNL A   1      47.191  28.480  27.598  1.00  0.00     0.002 A 
ATOM     92  C   UNL A   1      47.096  30.900  27.586  1.00  0.00     0.091 A 
ATOM     93  F   UNL A   1      45.163  31.994  28.455  1.00  0.00    -0.205 F 
ATOM     94  C   UNL A   1      47.783  29.707  27.310  1.00  0.00     0.022 A 
BRANCH  92  95
ATOM     95  S   UNL A   1      47.856  32.444  27.084  1.00  0.00     0.127 S 
ATOM     96  O   UNL A   1      46.869  32.980  26.150  1.00  0.00    -0.237 OA
ATOM     97  O   UNL A   1      47.956  33.168  28.352  1.00  0.00    -0.237 OA
ATOM     98  O   UNL A   1      49.142  32.088  26.499  1.00  0.00    -0.744 OA
ENDBRANCH  92  95
ENDBRANCH  65  88
ENDBRANCH  39  40
ENDBRANCH  32  34
ENDBRANCH  31  32
ENDBRANCH  30  31
ENDBRANCH  29  30
ENDBRANCH  28  29
ENDBRANCH   1  28
TORSDOF 24
ENDMDL
MODEL 3
REMARK VINA RESULT:      -7.9      8.781     14.329
REMARK SMILES CCCN(C(=O)Cc1c(C(=O)OCCOCCOC(=O)c2ccc(-c3c4nc(c(-c5cccc(S(=O)(=O)[O-])c5F)c5ccc([nH]5)c(-c5cccc(S(=O)(=O)[O-])c5F)c5nc(c(-c6cccc(S(=O)(=O)[O-])c6F)c6ccc3[nH]6)C=C5)C=C4)cc2)c(C)cn1CC)c1cccc(Cl)c1
REMARK SMILES IDX 14 1 13 2 12 3 10 4 11 5 9 6 8 7 87 8 84 9 86 10 85 11 7 12
REMARK SMILES IDX 5 13 6 14 4 15 3 16 2 17 1 18 90 19 91 20 96 21 92 22 94 23
REMARK SMILES IDX 93 24 95 25 88 26 89 27 15 28 16 29 17 30 18 31 19 32 20 33
REMARK SMILES IDX 21 34 22 35 83 36 23 37 82 38 24 39 25 40 26 41 76 42 27 43
REMARK SMILES IDX 81 44 75 45 77 46 28 47 80 48 74 49 73 50 29 52 61 53 41 54
REMARK SMILES IDX 60 55 42 56 45 57 59 58 78 59 43 60 44 61 58 63 79 64 46 65
REMARK SMILES IDX 30 66 31 67 39 68 32 69 34 70 40 71 33 72 35 73 36 74 37 75
REMARK SMILES IDX 38 76 62 77 63 78 71 79 64 80 66 81 72 82 65 83 67 84 68 85
REMARK SMILES IDX 69 86 70 87 47 88 48 89 56 90 49 91 51 92 57 93 50 94 52 95
REMARK SMILES IDX 53 96 54 97 55 98
REMARK H PARENT 77 51 45 62
REMARK Flexibility Score: inf
ROOT
ATOM      1  C   UNL A   1      46.786  40.120  25.079  1.00  0.00     0.202 C 
ENDROOT
BRANCH   1   2
ATOM      2  C   UNL A   1      45.469  40.186  25.854  1.00  0.00     0.261 C 
BRANCH   2   3
ATOM      3  O   UNL A   1      45.147  41.537  26.212  1.00  0.00    -0.460 OA
BRANCH   3   4
ATOM      4  C   UNL A   1      44.056  42.094  25.602  1.00  0.00     0.340 C 
ATOM      5  O   UNL A   1      42.961  41.570  25.532  1.00  0.00    -0.246 OA
BRANCH   4   6
ATOM      6  C   UNL A   1      44.344  43.452  25.115  1.00  0.00     0.084 A 
ATOM      7  C   UNL A   1      43.821  44.070  23.960  1.00  0.00     0.042 A 
ATOM      8  N   UNL A   1      44.708  45.092  23.718  1.00  0.00    -0.350 N 
ATOM      9  C   UNL A   1      45.132  44.469  25.779  1.00  0.00    -0.019 A 
ATOM     10  C   UNL A   1      45.241  45.518  24.895  1.00  0.00     0.090 A 
ATOM     11  C   UNL A   1      45.756  44.438  27.131  1.00  0.00     0.047 C 
BRANCH   7  12
ATOM     12  C   UNL A   1      42.550  43.851  23.144  1.00  0.00     0.155 C 
BRANCH  12  13
ATOM     13  C   UNL A   1      42.555  42.668  22.166  1.00  0.00     0.232 C 
ATOM     14  O   UNL A   1      41.949  41.645  22.518  1.00  0.00    -0.274 OA
BRANCH  13  15
ATOM     15  N   UNL A   1      43.250  42.718  20.924  1.00  0.00    -0.312 N 
BRANCH  15  16
ATOM     16  C   UNL A   1      44.627  42.196  20.639  1.00  0.00     0.125 C 
BRANCH  16  17
ATOM     17  C   UNL A   1      45.844  42.386  21.596  1.00  0.00     0.019 C 
ATOM     18  C   UNL A   1      47.046  41.451  21.529  1.00  0.00     0.006 C 
ENDBRANCH  16  17
ENDBRANCH  15  16
BRANCH  15  19
ATOM     19  C   UNL A   1      42.759  43.684  19.966  1.00  0.00     0.045 A 
ATOM     20  C   UNL A   1      41.411  43.708  19.579  1.00  0.00     0.026 A 
ATOM     21  C   UNL A   1      43.637  44.557  19.328  1.00  0.00     0.046 A 
ATOM     22  C   UNL A   1      40.962  44.594  18.590  1.00  0.00     0.004 A 
ATOM     23  C   UNL A   1      43.189  45.452  18.356  1.00  0.00     0.043 A 
ATOM     24  C   UNL A   1      41.854  45.475  17.980  1.00  0.00     0.020 A 
ATOM     25  Cl  UNL A   1      44.317  46.507  17.593  1.00  0.00    -0.084 Cl
ENDBRANCH  15  19
ENDBRANCH  13  15
ENDBRANCH  12  13
ENDBRANCH   7  12
BRANCH   8  26
ATOM     26  C   UNL A   1      45.158  45.554  22.428  1.00  0.00     0.118 C 
ATOM     27  C   UNL A   1      46.581  46.080  22.443  1.00  0.00     0.027 C 
ENDBRANCH   8  26
ENDBRANCH   4   6
ENDBRANCH   3   4
ENDBRANCH   2   3
ENDBRANCH   1   2
BRANCH   1  28
ATOM     28  O   UNL A   1      47.237  38.830  24.663  1.00  0.00    -0.374 OA
BRANCH  28  29
ATOM     29  C   UNL A   1      48.288  38.189  25.375  1.00  0.00     0.202 C 
BRANCH  29  30
ATOM     30  C   UNL A   1      48.102  36.748  25.816  1.00  0.00     0.261 C 
BRANCH  30  31
ATOM     31  O   UNL A   1      47.392  36.648  27.039  1.00  0.00    -0.460 OA
BRANCH  31  32
ATOM     32  C   UNL A   1      46.082  36.357  26.877  1.00  0.00     0.338 C 
ATOM     33  O   UNL A   1      45.169  37.147  26.709  1.00  0.00    -0.246 OA
BRANCH  32  34
ATOM     34  C   UNL A   1      45.891  34.926  27.122  1.00  0.00     0.060 A 
ATOM     35  C   UNL A   1      44.771  34.353  26.520  1.00  0.00     0.016 A 
ATOM     36  C   UNL A   1      46.599  34.286  28.152  1.00  0.00     0.016 A 
ATOM     37  C   UNL A   1      44.215  33.249  27.119  1.00  0.00     0.010 A 
ATOM     38  C   UNL A   1      46.041  33.182  28.748  1.00  0.00     0.010 A 
ATOM     39  C   UNL A   1      44.809  32.740  28.283  1.00  0.00    -0.014 A 
BRANCH  39  40
ATOM     40  C   UNL A   1      44.160  31.625  28.929  1.00  0.00     0.031 A 
ATOM     41  C   UNL A   1      44.408  30.367  28.199  1.00  0.00     0.074 A 
ATOM     42  C   UNL A   1      43.447  31.734  30.065  1.00  0.00     0.049 A 
ATOM     43  N   UNL A   1      43.587  29.775  27.400  1.00  0.00    -0.248 NA
ATOM     44  C   UNL A   1      45.785  29.853  28.143  1.00  0.00     0.031 C 
ATOM     45  C   UNL A   1      43.349  32.875  30.979  1.00  0.00     0.029 A 
ATOM     46  N   UNL A   1      42.730  30.773  30.703  1.00  0.00    -0.354 N 
ATOM     47  C   UNL A   1      44.268  28.652  26.952  1.00  0.00     0.074 A 
ATOM     48  C   UNL A   1      45.659  28.880  27.239  1.00  0.00     0.031 C 
ATOM     49  C   UNL A   1      42.834  32.453  32.159  1.00  0.00     0.029 A 
ATOM     50  C   UNL A   1      42.437  31.062  32.031  1.00  0.00     0.049 A 
ATOM     51  H   UNL A   1      42.442  29.942  30.261  1.00  0.00     0.167 HD
ATOM     52  C   UNL A   1      43.590  27.511  26.660  1.00  0.00     0.034 A 
ATOM     53  C   UNL A   1      41.971  30.183  32.956  1.00  0.00     0.034 A 
ATOM     54  C   UNL A   1      42.174  27.762  26.545  1.00  0.00     0.049 A 
ATOM     55  C   UNL A   1      41.345  29.063  32.213  1.00  0.00     0.074 A 
ATOM     56  C   UNL A   1      41.376  28.534  25.725  1.00  0.00     0.029 A 
ATOM     57  N   UNL A   1      41.419  27.466  27.654  1.00  0.00    -0.354 N 
ATOM     58  N   UNL A   1      40.265  29.200  31.499  1.00  0.00    -0.248 NA
ATOM     59  C   UNL A   1      42.171  27.912  31.886  1.00  0.00     0.031 C 
ATOM     60  C   UNL A   1      40.342  29.026  26.574  1.00  0.00     0.029 A 
ATOM     61  C   UNL A   1      40.518  28.479  27.847  1.00  0.00     0.049 A 
ATOM     62  H   UNL A   1      41.510  26.662  28.216  1.00  0.00     0.167 HD
ATOM     63  C   UNL A   1      40.526  28.471  30.346  1.00  0.00     0.074 A 
ATOM     64  C   UNL A   1      41.657  27.611  30.690  1.00  0.00     0.031 C 
ATOM     65  C   UNL A   1      39.999  28.852  29.145  1.00  0.00     0.034 A 
BRANCH  52  66
ATOM     66  C   UNL A   1      44.119  26.120  26.905  1.00  0.00     0.023 A 
ATOM     67  C   UNL A   1      44.631  25.852  28.193  1.00  0.00     0.012 A 
ATOM     68  C   UNL A   1      44.408  25.180  25.888  1.00  0.00     0.148 A 
ATOM     69  C   UNL A   1      45.438  24.738  28.441  1.00  0.00     0.002 A 
ATOM     70  C   UNL A   1      45.146  24.036  26.156  1.00  0.00     0.091 A 
ATOM     71  F   UNL A   1      44.090  25.444  24.618  1.00  0.00    -0.205 F 
ATOM     72  C   UNL A   1      45.692  23.826  27.423  1.00  0.00     0.022 A 
BRANCH  70  73
ATOM     73  S   UNL A   1      45.481  22.806  24.888  1.00  0.00     0.127 S 
ATOM     74  O   UNL A   1      44.132  22.480  24.435  1.00  0.00    -0.237 OA
ATOM     75  O   UNL A   1      46.286  23.575  23.939  1.00  0.00    -0.237 OA
ATOM     76  O   UNL A   1      46.206  21.733  25.556  1.00  0.00    -0.744 OA
ENDBRANCH  70  73
ENDBRANCH  52  66
BRANCH  53  77
ATOM     77  C   UNL A   1      42.280  30.073  34.402  1.00  0.00     0.023 A 
ATOM     78  C   UNL A   1      43.360  29.274  34.833  1.00  0.00     0.012 A 
ATOM     79  C   UNL A   1      41.718  30.983  35.324  1.00  0.00     0.148 A 
ATOM     80  C   UNL A   1      43.883  29.401  36.128  1.00  0.00     0.002 A 
ATOM     81  C   UNL A   1      42.240  31.105  36.609  1.00  0.00     0.091 A 
ATOM     82  F   UNL A   1      40.736  31.793  34.910  1.00  0.00    -0.205 F 
ATOM     83  C   UNL A   1      43.330  30.324  37.011  1.00  0.00     0.022 A 
BRANCH  81  84
ATOM     84  S   UNL A   1      41.607  32.303  37.792  1.00  0.00     0.127 S 
ATOM     85  O   UNL A   1      40.167  32.049  37.736  1.00  0.00    -0.237 OA
ATOM     86  O   UNL A   1      42.257  31.880  39.030  1.00  0.00    -0.237 OA
ATOM     87  O   UNL A   1      42.006  33.612  37.289  1.00  0.00    -0.744 OA
ENDBRANCH  81  84
ENDBRANCH  53  77
BRANCH  65  88
ATOM     88  C   UNL A   1      38.925  29.912  29.157  1.00  0.00     0.023 A 
ATOM     89  C   UNL A   1      39.171  31.251  29.533  1.00  0.00     0.012 A 
ATOM     90  C   UNL A   1      37.669  29.577  28.627  1.00  0.00     0.148 A 
ATOM     91  C   UNL A   1      38.175  32.224  29.404  1.00  0.00     0.002 A 
ATOM     92  C   UNL A   1      36.698  30.555  28.457  1.00  0.00     0.091 A 
ATOM     93  F   UNL A   1      37.457  28.302  28.268  1.00  0.00    -0.205 F 
ATOM     94  C   UNL A   1      36.943  31.879  28.855  1.00  0.00     0.022 A 
BRANCH  92  95
ATOM     95  S   UNL A   1      35.140  30.194  27.647  1.00  0.00     0.127 S 
ATOM     96  O   UNL A   1      34.479  29.336  28.628  1.00  0.00    -0.237 OA
ATOM     97  O   UNL A   1      34.549  31.526  27.501  1.00  0.00    -0.237 OA
ATOM     98  O   UNL A   1      35.481  29.553  26.384  1.00  0.00    -0.744 OA
ENDBRANCH  92  95
ENDBRANCH  65  88
ENDBRANCH  39  40
ENDBRANCH  32  34
ENDBRANCH  31  32
ENDBRANCH  30  31
ENDBRANCH  29  30
ENDBRANCH  28  29
ENDBRANCH   1  28
TORSDOF 24
ENDMDL
