MODEL 1
REMARK VINA RESULT:     -11.6      0.000      0.000
REMARK SMILES O=C(NCc1ccc(C(=O)OCCOCCOC(=O)c2ccc(-c3c4nc(c(-c5cccc(S(=O)(=O)[O-])c5F)c5ccc([nH]5)c(-c5cccc(S(=O)(=O)[O-])c5F)c5nc(c(-c6cccc(S(=O)(=O)[O-])c6F)c6ccc3[nH]6)C=C5)C=C4)cc2)o1)Nc1ccc(F)c(Cl)c1
REMARK SMILES IDX 14 1 13 2 12 3 11 4 9 5 10 6 8 7 5 8 6 9 83 10 7 11 4 12
REMARK SMILES IDX 3 13 1 14 2 15 84 16 85 19 86 20 92 21 87 22 90 23 88 24
REMARK SMILES IDX 91 25 89 26 15 27 16 28 17 29 18 30 19 31 20 32 21 33 82 34
REMARK SMILES IDX 22 35 81 36 23 37 24 38 25 39 75 40 26 41 80 42 74 43 76 44
REMARK SMILES IDX 27 45 79 46 73 47 72 48 28 50 60 51 40 52 59 53 41 54 44 55
REMARK SMILES IDX 58 56 77 57 42 58 43 59 57 61 78 62 45 63 29 64 30 65 38 66
REMARK SMILES IDX 31 67 33 68 39 69 32 70 34 71 35 72 36 73 37 74 61 75 62 76
REMARK SMILES IDX 70 77 63 78 65 79 71 80 64 81 66 82 67 83 68 84 69 85 46 86
REMARK SMILES IDX 47 87 55 88 48 89 50 90 56 91 49 92 51 93 52 94 53 95 54 96
REMARK H PARENT 3 17 84 18 76 49 44 60
REMARK Flexibility Score: inf
ROOT
ATOM      1  O   UNL A   1      34.435  21.108  26.499  1.00  0.00    -0.374 OA
ENDROOT
BRANCH   1   2
ATOM      2  C   UNL A   1      33.882  21.818  27.610  1.00  0.00     0.202 C 
BRANCH   2   3
ATOM      3  C   UNL A   1      33.011  23.015  27.220  1.00  0.00     0.261 C 
BRANCH   3   4
ATOM      4  O   UNL A   1      31.870  22.567  26.470  1.00  0.00    -0.457 OA
BRANCH   4   5
ATOM      5  C   UNL A   1      30.710  23.247  26.698  1.00  0.00     0.374 C 
ATOM      6  O   UNL A   1      29.938  23.026  27.623  1.00  0.00    -0.242 OA
BRANCH   5   7
ATOM      7  C   UNL A   1      30.605  24.344  25.764  1.00  0.00     0.211 A 
ATOM      8  C   UNL A   1      30.878  25.271  23.778  1.00  0.00     0.124 A 
ATOM      9  C   UNL A   1      30.173  26.182  24.535  1.00  0.00     0.048 A 
ATOM     10  O   UNL A   1      31.140  24.160  24.521  1.00  0.00    -0.452 OA
ATOM     11  C   UNL A   1      29.991  25.585  25.810  1.00  0.00     0.058 A 
BRANCH   8  12
ATOM     12  C   UNL A   1      31.386  25.248  22.383  1.00  0.00     0.193 C 
BRANCH  12  13
ATOM     13  N   UNL A   1      32.712  24.665  22.392  1.00  0.00    -0.331 N 
ATOM     14  O   UNL A   1      34.268  23.129  22.782  1.00  0.00    -0.248 OA
ATOM     15  C   UNL A   1      33.094  23.368  22.512  1.00  0.00     0.319 C 
ATOM     16  N   UNL A   1      32.134  22.426  22.265  1.00  0.00    -0.308 N 
ATOM     17  H   UNL A   1      33.450  25.309  22.298  1.00  0.00     0.165 HD
ATOM     18  H   UNL A   1      31.294  22.738  21.858  1.00  0.00     0.171 HD
BRANCH  16  19
ATOM     19  C   UNL A   1      32.238  21.046  22.539  1.00  0.00     0.044 A 
ATOM     20  C   UNL A   1      32.055  20.154  21.473  1.00  0.00     0.029 A 
ATOM     21  C   UNL A   1      32.488  20.539  23.821  1.00  0.00     0.049 A 
ATOM     22  C   UNL A   1      32.161  18.776  21.678  1.00  0.00     0.043 A 
ATOM     23  C   UNL A   1      32.578  19.160  24.026  1.00  0.00     0.078 A 
ATOM     24  C   UNL A   1      32.424  18.287  22.953  1.00  0.00     0.141 A 
ATOM     25  Cl  UNL A   1      32.873  18.551  25.610  1.00  0.00    -0.081 Cl
ATOM     26  F   UNL A   1      32.523  16.960  23.125  1.00  0.00    -0.205 F 
ENDBRANCH  16  19
ENDBRANCH  12  13
ENDBRANCH   8  12
ENDBRANCH   5   7
ENDBRANCH   4   5
ENDBRANCH   3   4
ENDBRANCH   2   3
ENDBRANCH   1   2
BRANCH   1  27
ATOM     27  C   UNL A   1      35.541  21.730  25.842  1.00  0.00     0.202 C 
BRANCH  27  28
ATOM     28  C   UNL A   1      36.503  20.762  25.145  1.00  0.00     0.261 C 
BRANCH  28  29
ATOM     29  O   UNL A   1      37.777  21.387  24.908  1.00  0.00    -0.460 OA
BRANCH  29  30
ATOM     30  C   UNL A   1      38.770  21.009  25.751  1.00  0.00     0.338 C 
ATOM     31  O   UNL A   1      39.226  19.888  25.893  1.00  0.00    -0.246 OA
BRANCH  30  32
ATOM     32  C   UNL A   1      39.373  22.206  26.373  1.00  0.00     0.060 A 
ATOM     33  C   UNL A   1      38.853  23.455  26.009  1.00  0.00     0.016 A 
ATOM     34  C   UNL A   1      40.446  22.118  27.264  1.00  0.00     0.016 A 
ATOM     35  C   UNL A   1      39.434  24.625  26.498  1.00  0.00     0.010 A 
ATOM     36  C   UNL A   1      41.032  23.291  27.747  1.00  0.00     0.010 A 
ATOM     37  C   UNL A   1      40.550  24.549  27.341  1.00  0.00    -0.014 A 
BRANCH  37  38
ATOM     38  C   UNL A   1      41.299  25.778  27.694  1.00  0.00     0.031 A 
ATOM     39  C   UNL A   1      40.587  26.878  28.432  1.00  0.00     0.074 A 
ATOM     40  C   UNL A   1      42.589  25.925  27.338  1.00  0.00     0.049 A 
ATOM     41  N   UNL A   1      41.026  28.059  28.780  1.00  0.00    -0.248 NA
ATOM     42  C   UNL A   1      39.194  26.611  28.826  1.00  0.00     0.031 C 
ATOM     43  C   UNL A   1      43.386  24.928  26.626  1.00  0.00     0.029 A 
ATOM     44  N   UNL A   1      43.443  26.986  27.505  1.00  0.00    -0.354 N 
ATOM     45  C   UNL A   1      39.957  28.689  29.407  1.00  0.00     0.074 A 
ATOM     46  C   UNL A   1      38.846  27.761  29.385  1.00  0.00     0.031 C 
ATOM     47  C   UNL A   1      44.605  25.439  26.384  1.00  0.00     0.029 A 
ATOM     48  C   UNL A   1      44.665  26.805  26.903  1.00  0.00     0.049 A 
ATOM     49  H   UNL A   1      43.204  27.798  28.006  1.00  0.00     0.167 HD
ATOM     50  C   UNL A   1      39.910  29.921  29.965  1.00  0.00     0.034 A 
ATOM     51  C   UNL A   1      45.703  27.655  26.764  1.00  0.00     0.034 A 
ATOM     52  C   UNL A   1      41.021  30.830  30.008  1.00  0.00     0.049 A 
ATOM     53  C   UNL A   1      45.617  29.031  27.372  1.00  0.00     0.074 A 
ATOM     54  C   UNL A   1      41.085  32.081  30.596  1.00  0.00     0.029 A 
ATOM     55  N   UNL A   1      42.260  30.592  29.434  1.00  0.00    -0.354 N 
ATOM     56  N   UNL A   1      44.643  29.566  28.068  1.00  0.00    -0.248 NA
ATOM     57  C   UNL A   1      46.783  29.911  27.200  1.00  0.00     0.031 C 
ATOM     58  C   UNL A   1      42.359  32.608  30.361  1.00  0.00     0.029 A 
ATOM     59  C   UNL A   1      43.093  31.677  29.642  1.00  0.00     0.049 A 
ATOM     60  H   UNL A   1      42.509  29.772  28.950  1.00  0.00     0.167 HD
ATOM     61  C   UNL A   1      45.091  30.825  28.449  1.00  0.00     0.074 A 
ATOM     62  C   UNL A   1      46.431  30.971  27.916  1.00  0.00     0.031 C 
ATOM     63  C   UNL A   1      44.447  31.783  29.162  1.00  0.00     0.034 A 
BRANCH  50  64
ATOM     64  C   UNL A   1      38.618  30.345  30.608  1.00  0.00     0.023 A 
ATOM     65  C   UNL A   1      38.395  30.060  31.970  1.00  0.00     0.012 A 
ATOM     66  C   UNL A   1      37.653  31.073  29.885  1.00  0.00     0.148 A 
ATOM     67  C   UNL A   1      37.220  30.471  32.597  1.00  0.00     0.002 A 
ATOM     68  C   UNL A   1      36.500  31.512  30.526  1.00  0.00     0.091 A 
ATOM     69  F   UNL A   1      37.873  31.309  28.583  1.00  0.00    -0.205 F 
ATOM     70  C   UNL A   1      36.279  31.205  31.879  1.00  0.00     0.022 A 
BRANCH  68  71
ATOM     71  S   UNL A   1      35.265  32.521  29.701  1.00  0.00     0.127 S 
ATOM     72  O   UNL A   1      34.774  31.604  28.674  1.00  0.00    -0.237 OA
ATOM     73  O   UNL A   1      34.314  32.791  30.780  1.00  0.00    -0.237 OA
ATOM     74  O   UNL A   1      35.972  33.694  29.210  1.00  0.00    -0.744 OA
ENDBRANCH  68  71
ENDBRANCH  50  64
BRANCH  51  75
ATOM     75  C   UNL A   1      46.932  27.213  26.046  1.00  0.00     0.023 A 
ATOM     76  C   UNL A   1      47.045  27.442  24.661  1.00  0.00     0.012 A 
ATOM     77  C   UNL A   1      47.997  26.595  26.730  1.00  0.00     0.148 A 
ATOM     78  C   UNL A   1      48.186  27.038  23.965  1.00  0.00     0.002 A 
ATOM     79  C   UNL A   1      49.152  26.244  26.040  1.00  0.00     0.091 A 
ATOM     80  F   UNL A   1      47.862  26.366  28.043  1.00  0.00    -0.205 F 
ATOM     81  C   UNL A   1      49.243  26.452  24.655  1.00  0.00     0.022 A 
BRANCH  79  82
ATOM     82  S   UNL A   1      50.609  25.603  26.875  1.00  0.00     0.127 S 
ATOM     83  O   UNL A   1      50.061  24.455  27.592  1.00  0.00    -0.237 OA
ATOM     84  O   UNL A   1      51.482  25.269  25.750  1.00  0.00    -0.237 OA
ATOM     85  O   UNL A   1      51.096  26.698  27.704  1.00  0.00    -0.744 OA
ENDBRANCH  79  82
ENDBRANCH  51  75
BRANCH  63  86
ATOM     86  C   UNL A   1      45.182  33.064  29.451  1.00  0.00     0.023 A 
ATOM     87  C   UNL A   1      45.980  33.164  30.607  1.00  0.00     0.012 A 
ATOM     88  C   UNL A   1      45.168  34.126  28.524  1.00  0.00     0.148 A 
ATOM     89  C   UNL A   1      46.738  34.309  30.846  1.00  0.00     0.002 A 
ATOM     90  C   UNL A   1      45.960  35.245  28.747  1.00  0.00     0.091 A 
ATOM     91  F   UNL A   1      44.388  34.016  27.438  1.00  0.00    -0.205 F 
ATOM     92  C   UNL A   1      46.739  35.343  29.911  1.00  0.00     0.022 A 
BRANCH  90  93
ATOM     93  S   UNL A   1      46.097  36.582  27.554  1.00  0.00     0.127 S 
ATOM     94  O   UNL A   1      46.637  37.662  28.379  1.00  0.00    -0.237 OA
ATOM     95  O   UNL A   1      47.037  36.032  26.578  1.00  0.00    -0.237 OA
ATOM     96  O   UNL A   1      44.752  36.801  27.041  1.00  0.00    -0.744 OA
ENDBRANCH  90  93
ENDBRANCH  63  86
ENDBRANCH  37  38
ENDBRANCH  30  32
ENDBRANCH  29  30
ENDBRANCH  28  29
ENDBRANCH  27  28
ENDBRANCH   1  27
TORSDOF 20
ENDMDL
MODEL 2
REMARK VINA RESULT:     -11.1      3.015      4.453
REMARK SMILES O=C(NCc1ccc(C(=O)OCCOCCOC(=O)c2ccc(-c3c4nc(c(-c5cccc(S(=O)(=O)[O-])c5F)c5ccc([nH]5)c(-c5cccc(S(=O)(=O)[O-])c5F)c5nc(c(-c6cccc(S(=O)(=O)[O-])c6F)c6ccc3[nH]6)C=C5)C=C4)cc2)o1)Nc1ccc(F)c(Cl)c1
REMARK SMILES IDX 14 1 13 2 12 3 11 4 9 5 10 6 8 7 5 8 6 9 83 10 7 11 4 12
REMARK SMILES IDX 3 13 1 14 2 15 84 16 85 19 86 20 92 21 87 22 90 23 88 24
REMARK SMILES IDX 91 25 89 26 15 27 16 28 17 29 18 30 19 31 20 32 21 33 82 34
REMARK SMILES IDX 22 35 81 36 23 37 24 38 25 39 75 40 26 41 80 42 74 43 76 44
REMARK SMILES IDX 27 45 79 46 73 47 72 48 28 50 60 51 40 52 59 53 41 54 44 55
REMARK SMILES IDX 58 56 77 57 42 58 43 59 57 61 78 62 45 63 29 64 30 65 38 66
REMARK SMILES IDX 31 67 33 68 39 69 32 70 34 71 35 72 36 73 37 74 61 75 62 76
REMARK SMILES IDX 70 77 63 78 65 79 71 80 64 81 66 82 67 83 68 84 69 85 46 86
REMARK SMILES IDX 47 87 55 88 48 89 50 90 56 91 49 92 51 93 52 94 53 95 54 96
REMARK H PARENT 3 17 84 18 76 49 44 60
REMARK Flexibility Score: inf
ROOT
ATOM      1  O   UNL A   1      38.348  22.256  26.234  1.00  0.00    -0.374 OA
ENDROOT
BRANCH   1   2
ATOM      2  C   UNL A   1      37.665  23.496  26.035  1.00  0.00     0.202 C 
BRANCH   2   3
ATOM      3  C   UNL A   1      37.025  23.646  24.652  1.00  0.00     0.261 C 
BRANCH   3   4
ATOM      4  O   UNL A   1      35.608  23.848  24.787  1.00  0.00    -0.457 OA
BRANCH   4   5
ATOM      5  C   UNL A   1      34.833  23.238  23.845  1.00  0.00     0.374 C 
ATOM      6  O   UNL A   1      35.013  23.311  22.635  1.00  0.00    -0.242 OA
BRANCH   5   7
ATOM      7  C   UNL A   1      33.859  22.394  24.497  1.00  0.00     0.211 A 
ATOM      8  C   UNL A   1      31.912  22.027  25.473  1.00  0.00     0.124 A 
ATOM      9  C   UNL A   1      32.518  20.796  25.346  1.00  0.00     0.048 A 
ATOM     10  O   UNL A   1      32.723  22.994  24.960  1.00  0.00    -0.452 OA
ATOM     11  C   UNL A   1      33.767  21.029  24.713  1.00  0.00     0.058 A 
BRANCH   8  12
ATOM     12  C   UNL A   1      30.616  22.498  26.023  1.00  0.00     0.193 C 
BRANCH  12  13
ATOM     13  N   UNL A   1      30.841  23.763  26.694  1.00  0.00    -0.331 N 
ATOM     14  O   UNL A   1      31.300  25.928  26.875  1.00  0.00    -0.248 OA
ATOM     15  C   UNL A   1      30.799  25.029  26.205  1.00  0.00     0.319 C 
ATOM     16  N   UNL A   1      30.145  25.201  25.016  1.00  0.00    -0.308 N 
ATOM     17  H   UNL A   1      31.057  23.693  27.651  1.00  0.00     0.165 HD
ATOM     18  H   UNL A   1      29.612  24.443  24.684  1.00  0.00     0.171 HD
BRANCH  16  19
ATOM     19  C   UNL A   1      30.166  26.366  24.221  1.00  0.00     0.044 A 
ATOM     20  C   UNL A   1      28.936  26.886  23.795  1.00  0.00     0.029 A 
ATOM     21  C   UNL A   1      31.351  26.999  23.825  1.00  0.00     0.049 A 
ATOM     22  C   UNL A   1      28.890  28.047  23.019  1.00  0.00     0.043 A 
ATOM     23  C   UNL A   1      31.303  28.150  23.035  1.00  0.00     0.078 A 
ATOM     24  C   UNL A   1      30.074  28.674  22.645  1.00  0.00     0.141 A 
ATOM     25  Cl  UNL A   1      32.769  28.911  22.545  1.00  0.00    -0.081 Cl
ATOM     26  F   UNL A   1      30.004  29.787  21.900  1.00  0.00    -0.205 F 
ENDBRANCH  16  19
ENDBRANCH  12  13
ENDBRANCH   8  12
ENDBRANCH   5   7
ENDBRANCH   4   5
ENDBRANCH   3   4
ENDBRANCH   2   3
ENDBRANCH   1   2
BRANCH   1  27
ATOM     27  C   UNL A   1      38.165  21.267  25.219  1.00  0.00     0.202 C 
BRANCH  27  28
ATOM     28  C   UNL A   1      38.907  19.948  25.464  1.00  0.00     0.261 C 
BRANCH  28  29
ATOM     29  O   UNL A   1      39.824  20.073  26.566  1.00  0.00    -0.460 OA
BRANCH  29  30
ATOM     30  C   UNL A   1      41.118  19.799  26.273  1.00  0.00     0.338 C 
ATOM     31  O   UNL A   1      41.560  18.773  25.785  1.00  0.00    -0.246 OA
BRANCH  30  32
ATOM     32  C   UNL A   1      41.937  21.015  26.463  1.00  0.00     0.060 A 
ATOM     33  C   UNL A   1      42.391  21.292  27.759  1.00  0.00     0.016 A 
ATOM     34  C   UNL A   1      42.226  21.886  25.410  1.00  0.00     0.016 A 
ATOM     35  C   UNL A   1      43.096  22.466  28.018  1.00  0.00     0.010 A 
ATOM     36  C   UNL A   1      42.927  23.067  25.672  1.00  0.00     0.010 A 
ATOM     37  C   UNL A   1      43.337  23.377  26.982  1.00  0.00    -0.014 A 
BRANCH  37  38
ATOM     38  C   UNL A   1      43.896  24.716  27.285  1.00  0.00     0.031 A 
ATOM     39  C   UNL A   1      42.980  25.783  27.817  1.00  0.00     0.074 A 
ATOM     40  C   UNL A   1      45.196  24.986  27.064  1.00  0.00     0.049 A 
ATOM     41  N   UNL A   1      43.238  27.036  28.086  1.00  0.00    -0.248 NA
ATOM     42  C   UNL A   1      41.587  25.386  28.077  1.00  0.00     0.031 C 
ATOM     43  C   UNL A   1      46.181  24.033  26.556  1.00  0.00     0.029 A 
ATOM     44  N   UNL A   1      45.900  26.155  27.213  1.00  0.00    -0.354 N 
ATOM     45  C   UNL A   1      42.037  27.585  28.518  1.00  0.00     0.074 A 
ATOM     46  C   UNL A   1      41.046  26.531  28.468  1.00  0.00     0.031 C 
ATOM     47  C   UNL A   1      47.356  24.666  26.401  1.00  0.00     0.029 A 
ATOM     48  C   UNL A   1      47.200  26.071  26.776  1.00  0.00     0.049 A 
ATOM     49  H   UNL A   1      45.511  26.974  27.596  1.00  0.00     0.167 HD
ATOM     50  C   UNL A   1      41.784  28.848  28.933  1.00  0.00     0.034 A 
ATOM     51  C   UNL A   1      48.147  27.025  26.667  1.00  0.00     0.034 A 
ATOM     52  C   UNL A   1      42.774  29.887  29.006  1.00  0.00     0.049 A 
ATOM     53  C   UNL A   1      47.834  28.430  27.112  1.00  0.00     0.074 A 
ATOM     54  C   UNL A   1      42.625  31.184  29.461  1.00  0.00     0.029 A 
ATOM     55  N   UNL A   1      44.093  29.750  28.604  1.00  0.00    -0.354 N 
ATOM     56  N   UNL A   1      46.727  28.903  27.633  1.00  0.00    -0.248 NA
ATOM     57  C   UNL A   1      48.907  29.427  26.982  1.00  0.00     0.031 C 
ATOM     58  C   UNL A   1      43.852  31.840  29.317  1.00  0.00     0.029 A 
ATOM     59  C   UNL A   1      44.769  30.944  28.789  1.00  0.00     0.049 A 
ATOM     60  H   UNL A   1      44.490  28.927  28.240  1.00  0.00     0.167 HD
ATOM     61  C   UNL A   1      46.982  30.237  27.927  1.00  0.00     0.074 A 
ATOM     62  C   UNL A   1      48.353  30.497  27.537  1.00  0.00     0.031 C 
ATOM     63  C   UNL A   1      46.152  31.170  28.457  1.00  0.00     0.034 A 
BRANCH  50  64
ATOM     64  C   UNL A   1      40.383  29.168  29.377  1.00  0.00     0.023 A 
ATOM     65  C   UNL A   1      39.447  29.637  28.435  1.00  0.00     0.012 A 
ATOM     66  C   UNL A   1      39.977  28.951  30.708  1.00  0.00     0.148 A 
ATOM     67  C   UNL A   1      38.134  29.909  28.815  1.00  0.00     0.002 A 
ATOM     68  C   UNL A   1      38.657  29.189  31.072  1.00  0.00     0.091 A 
ATOM     69  F   UNL A   1      40.891  28.530  31.595  1.00  0.00    -0.205 F 
ATOM     70  C   UNL A   1      37.736  29.676  30.129  1.00  0.00     0.022 A 
BRANCH  68  71
ATOM     71  S   UNL A   1      38.037  28.853  32.724  1.00  0.00     0.127 S 
ATOM     72  O   UNL A   1      36.646  29.288  32.610  1.00  0.00    -0.237 OA
ATOM     73  O   UNL A   1      38.215  27.405  32.834  1.00  0.00    -0.237 OA
ATOM     74  O   UNL A   1      38.868  29.635  33.628  1.00  0.00    -0.744 OA
ENDBRANCH  68  71
ENDBRANCH  50  64
BRANCH  51  75
ATOM     75  C   UNL A   1      49.497  26.673  26.144  1.00  0.00     0.023 A 
ATOM     76  C   UNL A   1      50.349  25.859  26.915  1.00  0.00     0.012 A 
ATOM     77  C   UNL A   1      49.930  27.118  24.880  1.00  0.00     0.148 A 
ATOM     78  C   UNL A   1      51.619  25.515  26.447  1.00  0.00     0.002 A 
ATOM     79  C   UNL A   1      51.174  26.727  24.397  1.00  0.00     0.091 A 
ATOM     80  F   UNL A   1      49.115  27.910  24.170  1.00  0.00    -0.205 F 
ATOM     81  C   UNL A   1      52.026  25.938  25.185  1.00  0.00     0.022 A 
BRANCH  79  82
ATOM     82  S   UNL A   1      51.722  27.121  22.731  1.00  0.00     0.127 S 
ATOM     83  O   UNL A   1      51.953  28.560  22.824  1.00  0.00    -0.237 OA
ATOM     84  O   UNL A   1      52.932  26.308  22.608  1.00  0.00    -0.237 OA
ATOM     85  O   UNL A   1      50.634  26.706  21.855  1.00  0.00    -0.744 OA
ENDBRANCH  79  82
ENDBRANCH  51  75
BRANCH  63  86
ATOM     86  C   UNL A   1      46.699  32.553  28.691  1.00  0.00     0.023 A 
ATOM     87  C   UNL A   1      47.309  32.862  29.921  1.00  0.00     0.012 A 
ATOM     88  C   UNL A   1      46.704  33.508  27.655  1.00  0.00     0.148 A 
ATOM     89  C   UNL A   1      47.901  34.109  30.124  1.00  0.00     0.002 A 
ATOM     90  C   UNL A   1      47.334  34.732  27.848  1.00  0.00     0.091 A 
ATOM     91  F   UNL A   1      46.103  33.198  26.496  1.00  0.00    -0.205 F 
ATOM     92  C   UNL A   1      47.925  35.037  29.085  1.00  0.00     0.022 A 
BRANCH  90  93
ATOM     93  S   UNL A   1      47.497  35.951  26.539  1.00  0.00     0.127 S 
ATOM     94  O   UNL A   1      48.313  36.977  27.187  1.00  0.00    -0.237 OA
ATOM     95  O   UNL A   1      48.186  35.193  25.493  1.00  0.00    -0.237 OA
ATOM     96  O   UNL A   1      46.140  36.355  26.196  1.00  0.00    -0.744 OA
ENDBRANCH  90  93
ENDBRANCH  63  86
ENDBRANCH  37  38
ENDBRANCH  30  32
ENDBRANCH  29  30
ENDBRANCH  28  29
ENDBRANCH  27  28
ENDBRANCH   1  27
TORSDOF 20
ENDMDL
MODEL 3
REMARK VINA RESULT:     -11.0      1.460      7.592
REMARK SMILES O=C(NCc1ccc(C(=O)OCCOCCOC(=O)c2ccc(-c3c4nc(c(-c5cccc(S(=O)(=O)[O-])c5F)c5ccc([nH]5)c(-c5cccc(S(=O)(=O)[O-])c5F)c5nc(c(-c6cccc(S(=O)(=O)[O-])c6F)c6ccc3[nH]6)C=C5)C=C4)cc2)o1)Nc1ccc(F)c(Cl)c1
REMARK SMILES IDX 14 1 13 2 12 3 11 4 9 5 10 6 8 7 5 8 6 9 83 10 7 11 4 12
REMARK SMILES IDX 3 13 1 14 2 15 84 16 85 19 86 20 92 21 87 22 90 23 88 24
REMARK SMILES IDX 91 25 89 26 15 27 16 28 17 29 18 30 19 31 20 32 21 33 82 34
REMARK SMILES IDX 22 35 81 36 23 37 24 38 25 39 75 40 26 41 80 42 74 43 76 44
REMARK SMILES IDX 27 45 79 46 73 47 72 48 28 50 60 51 40 52 59 53 41 54 44 55
REMARK SMILES IDX 58 56 77 57 42 58 43 59 57 61 78 62 45 63 29 64 30 65 38 66
REMARK SMILES IDX 31 67 33 68 39 69 32 70 34 71 35 72 36 73 37 74 61 75 62 76
REMARK SMILES IDX 70 77 63 78 65 79 71 80 64 81 66 82 67 83 68 84 69 85 46 86
REMARK SMILES IDX 47 87 55 88 48 89 50 90 56 91 49 92 51 93 52 94 53 95 54 96
REMARK H PARENT 3 17 84 18 76 49 44 60
REMARK Flexibility Score: inf
ROOT
ATOM      1  O   UNL A   1      35.271  21.123  26.006  1.00  0.00    -0.374 OA
ENDROOT
BRANCH   1   2
ATOM      2  C   UNL A   1      34.457  21.681  27.041  1.00  0.00     0.202 C 
BRANCH   2   3
ATOM      3  C   UNL A   1      33.739  22.975  26.649  1.00  0.00     0.261 C 
BRANCH   3   4
ATOM      4  O   UNL A   1      32.464  22.669  26.060  1.00  0.00    -0.457 OA
BRANCH   4   5
ATOM      5  C   UNL A   1      31.404  23.371  26.550  1.00  0.00     0.374 C 
ATOM      6  O   UNL A   1      30.907  23.207  27.658  1.00  0.00    -0.242 OA
BRANCH   5   7
ATOM      7  C   UNL A   1      31.049  24.418  25.620  1.00  0.00     0.211 A 
ATOM      8  C   UNL A   1      31.059  25.363  23.624  1.00  0.00     0.124 A 
ATOM      9  C   UNL A   1      30.217  26.124  24.407  1.00  0.00     0.048 A 
ATOM     10  O   UNL A   1      31.563  24.332  24.357  1.00  0.00    -0.452 OA
ATOM     11  C   UNL A   1      30.204  25.514  25.689  1.00  0.00     0.058 A 
BRANCH   8  12
ATOM     12  C   UNL A   1      31.508  25.429  22.211  1.00  0.00     0.193 C 
BRANCH  12  13
ATOM     13  N   UNL A   1      32.806  24.792  22.117  1.00  0.00    -0.331 N 
ATOM     14  O   UNL A   1      34.333  23.208  22.416  1.00  0.00    -0.248 OA
ATOM     15  C   UNL A   1      33.149  23.485  22.249  1.00  0.00     0.319 C 
ATOM     16  N   UNL A   1      32.134  22.576  22.129  1.00  0.00    -0.308 N 
ATOM     17  H   UNL A   1      33.555  25.402  21.929  1.00  0.00     0.165 HD
ATOM     18  H   UNL A   1      31.272  22.908  21.793  1.00  0.00     0.171 HD
BRANCH  16  19
ATOM     19  C   UNL A   1      32.212  21.203  22.445  1.00  0.00     0.044 A 
ATOM     20  C   UNL A   1      32.024  20.283  21.404  1.00  0.00     0.029 A 
ATOM     21  C   UNL A   1      32.441  20.730  23.743  1.00  0.00     0.049 A 
ATOM     22  C   UNL A   1      32.105  18.910  21.649  1.00  0.00     0.043 A 
ATOM     23  C   UNL A   1      32.505  19.356  23.990  1.00  0.00     0.078 A 
ATOM     24  C   UNL A   1      32.347  18.454  22.941  1.00  0.00     0.141 A 
ATOM     25  Cl  UNL A   1      32.775  18.788  25.593  1.00  0.00    -0.081 Cl
ATOM     26  F   UNL A   1      32.421  17.132  23.153  1.00  0.00    -0.205 F 
ENDBRANCH  16  19
ENDBRANCH  12  13
ENDBRANCH   8  12
ENDBRANCH   5   7
ENDBRANCH   4   5
ENDBRANCH   3   4
ENDBRANCH   2   3
ENDBRANCH   1   2
BRANCH   1  27
ATOM     27  C   UNL A   1      36.501  21.801  25.740  1.00  0.00     0.202 C 
BRANCH  27  28
ATOM     28  C   UNL A   1      37.671  20.885  25.365  1.00  0.00     0.261 C 
BRANCH  28  29
ATOM     29  O   UNL A   1      38.911  21.616  25.354  1.00  0.00    -0.460 OA
BRANCH  29  30
ATOM     30  C   UNL A   1      39.678  21.466  26.462  1.00  0.00     0.338 C 
ATOM     31  O   UNL A   1      40.154  20.429  26.891  1.00  0.00    -0.246 OA
BRANCH  30  32
ATOM     32  C   UNL A   1      40.024  22.796  27.007  1.00  0.00     0.060 A 
ATOM     33  C   UNL A   1      39.370  23.908  26.462  1.00  0.00     0.016 A 
ATOM     34  C   UNL A   1      40.991  22.959  28.003  1.00  0.00     0.016 A 
ATOM     35  C   UNL A   1      39.714  25.194  26.876  1.00  0.00     0.010 A 
ATOM     36  C   UNL A   1      41.339  24.250  28.412  1.00  0.00     0.010 A 
ATOM     37  C   UNL A   1      40.726  25.374  27.827  1.00  0.00    -0.014 A 
BRANCH  37  38
ATOM     38  C   UNL A   1      41.241  26.733  28.117  1.00  0.00     0.031 A 
ATOM     39  C   UNL A   1      42.668  27.058  27.770  1.00  0.00     0.074 A 
ATOM     40  C   UNL A   1      40.458  27.656  28.703  1.00  0.00     0.049 A 
ATOM     41  N   UNL A   1      43.344  28.154  27.995  1.00  0.00    -0.248 NA
ATOM     42  C   UNL A   1      43.436  26.006  27.084  1.00  0.00     0.031 C 
ATOM     43  C   UNL A   1      39.060  27.460  29.081  1.00  0.00     0.029 A 
ATOM     44  N   UNL A   1      40.743  28.936  29.111  1.00  0.00    -0.354 N 
ATOM     45  C   UNL A   1      44.623  27.917  27.505  1.00  0.00     0.074 A 
ATOM     46  C   UNL A   1      44.631  26.568  26.978  1.00  0.00     0.031 C 
ATOM     47  C   UNL A   1      38.617  28.568  29.698  1.00  0.00     0.029 A 
ATOM     48  C   UNL A   1      39.706  29.541  29.780  1.00  0.00     0.049 A 
ATOM     49  H   UNL A   1      41.606  29.377  28.941  1.00  0.00     0.167 HD
ATOM     50  C   UNL A   1      45.689  28.750  27.481  1.00  0.00     0.034 A 
ATOM     51  C   UNL A   1      39.652  30.733  30.409  1.00  0.00     0.034 A 
ATOM     52  C   UNL A   1      45.671  30.096  27.982  1.00  0.00     0.049 A 
ATOM     53  C   UNL A   1      40.860  31.633  30.391  1.00  0.00     0.074 A 
ATOM     54  C   UNL A   1      46.687  31.035  27.956  1.00  0.00     0.029 A 
ATOM     55  N   UNL A   1      44.587  30.693  28.605  1.00  0.00    -0.354 N 
ATOM     56  N   UNL A   1      42.024  31.440  29.817  1.00  0.00    -0.248 NA
ATOM     57  C   UNL A   1      40.741  32.925  31.083  1.00  0.00     0.031 C 
ATOM     58  C   UNL A   1      46.223  32.197  28.583  1.00  0.00     0.029 A 
ATOM     59  C   UNL A   1      44.912  31.985  28.981  1.00  0.00     0.049 A 
ATOM     60  H   UNL A   1      43.716  30.262  28.759  1.00  0.00     0.167 HD
ATOM     61  C   UNL A   1      42.759  32.598  30.044  1.00  0.00     0.074 A 
ATOM     62  C   UNL A   1      41.906  33.494  30.799  1.00  0.00     0.031 C 
ATOM     63  C   UNL A   1      44.031  32.889  29.675  1.00  0.00     0.034 A 
BRANCH  50  64
ATOM     64  C   UNL A   1      46.959  28.238  26.860  1.00  0.00     0.023 A 
ATOM     65  C   UNL A   1      48.006  27.791  27.690  1.00  0.00     0.012 A 
ATOM     66  C   UNL A   1      47.096  28.144  25.461  1.00  0.00     0.148 A 
ATOM     67  C   UNL A   1      49.181  27.282  27.138  1.00  0.00     0.002 A 
ATOM     68  C   UNL A   1      48.255  27.601  24.919  1.00  0.00     0.091 A 
ATOM     69  F   UNL A   1      46.098  28.600  24.689  1.00  0.00    -0.205 F 
ATOM     70  C   UNL A   1      49.301  27.177  25.755  1.00  0.00     0.022 A 
BRANCH  68  71
ATOM     71  S   UNL A   1      48.471  27.363  23.152  1.00  0.00     0.127 S 
ATOM     72  O   UNL A   1      47.359  28.145  22.612  1.00  0.00    -0.237 OA
ATOM     73  O   UNL A   1      49.793  27.944  22.919  1.00  0.00    -0.237 OA
ATOM     74  O   UNL A   1      48.393  25.926  22.931  1.00  0.00    -0.744 OA
ENDBRANCH  68  71
ENDBRANCH  50  64
BRANCH  51  75
ATOM     75  C   UNL A   1      38.392  31.160  31.081  1.00  0.00     0.023 A 
ATOM     76  C   UNL A   1      38.255  30.984  32.472  1.00  0.00     0.012 A 
ATOM     77  C   UNL A   1      37.344  31.761  30.357  1.00  0.00     0.148 A 
ATOM     78  C   UNL A   1      37.085  31.376  33.125  1.00  0.00     0.002 A 
ATOM     79  C   UNL A   1      36.205  32.198  31.023  1.00  0.00     0.091 A 
ATOM     80  F   UNL A   1      37.485  31.900  29.032  1.00  0.00    -0.205 F 
ATOM     81  C   UNL A   1      36.067  31.993  32.404  1.00  0.00     0.022 A 
BRANCH  79  82
ATOM     82  S   UNL A   1      34.903  33.118  30.191  1.00  0.00     0.127 S 
ATOM     83  O   UNL A   1      35.659  34.185  29.543  1.00  0.00    -0.237 OA
ATOM     84  O   UNL A   1      34.352  32.112  29.284  1.00  0.00    -0.237 OA
ATOM     85  O   UNL A   1      33.988  33.535  31.245  1.00  0.00    -0.744 OA
ENDBRANCH  79  82
ENDBRANCH  51  75
BRANCH  63  86
ATOM     86  C   UNL A   1      44.581  34.242  30.040  1.00  0.00     0.023 A 
ATOM     87  C   UNL A   1      45.301  34.402  31.239  1.00  0.00     0.012 A 
ATOM     88  C   UNL A   1      44.478  35.326  29.144  1.00  0.00     0.148 A 
ATOM     89  C   UNL A   1      45.894  35.625  31.551  1.00  0.00     0.002 A 
ATOM     90  C   UNL A   1      45.108  36.528  29.441  1.00  0.00     0.091 A 
ATOM     91  F   UNL A   1      43.773  35.157  28.015  1.00  0.00    -0.205 F 
ATOM     92  C   UNL A   1      45.809  36.682  30.648  1.00  0.00     0.022 A 
BRANCH  90  93
ATOM     93  S   UNL A   1      45.133  37.912  28.296  1.00  0.00     0.127 S 
ATOM     94  O   UNL A   1      43.800  38.482  28.489  1.00  0.00    -0.237 OA
ATOM     95  O   UNL A   1      46.228  38.730  28.820  1.00  0.00    -0.237 OA
ATOM     96  O   UNL A   1      45.383  37.340  26.980  1.00  0.00    -0.744 OA
ENDBRANCH  90  93
ENDBRANCH  63  86
ENDBRANCH  37  38
ENDBRANCH  30  32
ENDBRANCH  29  30
ENDBRANCH  28  29
ENDBRANCH  27  28
ENDBRANCH   1  27
TORSDOF 20
ENDMDL
