MODEL 1
REMARK VINA RESULT:     -11.1      0.000      0.000
REMARK SMILES CC[C@H](CNC(=O)[C@H]1CSc2ccccc21)C(=O)OCCOCCOC(=O)c1ccc(-c2c3nc(c(-c4cccc(S(=O)(=O)[O-])c4F)c4ccc([nH]4)c(-c4cccc(S(=O)(=O)[O-])c4F)c4nc(c(-c5cccc(S(=O)(=O)[O-])c5F)c5ccc2[nH]5)C=C4)C=C3)cc1
REMARK SMILES IDX 22 1 21 2 20 3 19 4 17 5 18 6 3 7 2 8 1 9 4 10 5 11 6 12
REMARK SMILES IDX 7 14 8 15 9 16 16 17 10 18 11 19 15 20 12 21 14 22 13 23
REMARK SMILES IDX 23 24 24 25 25 26 26 27 27 28 28 29 29 30 90 31 30 32 89 33
REMARK SMILES IDX 31 34 32 35 33 36 83 37 34 38 88 39 82 40 84 41 35 42 87 43
REMARK SMILES IDX 81 44 80 45 36 47 68 48 48 49 67 50 49 51 52 52 66 53 85 54
REMARK SMILES IDX 50 55 51 56 65 58 86 59 53 60 37 61 38 62 46 63 39 64 41 65
REMARK SMILES IDX 47 66 40 67 42 68 43 69 44 70 45 71 69 72 70 73 78 74 71 75
REMARK SMILES IDX 73 76 79 77 72 78 74 79 75 80 76 81 77 82 54 83 55 84 63 85
REMARK SMILES IDX 56 86 58 87 64 88 57 89 59 90 60 91 61 92 62 93
REMARK H PARENT 5 13 84 46 52 57
REMARK Flexibility Score: inf
ROOT
ATOM      1  O   UNL A   1      37.497  21.346  24.760  1.00  0.00    -0.374 OA
ENDROOT
BRANCH   1   2
ATOM      2  C   UNL A   1      36.482  22.291  24.478  1.00  0.00     0.202 C 
BRANCH   2   3
ATOM      3  C   UNL A   1      36.283  23.705  25.081  1.00  0.00     0.261 C 
BRANCH   3   4
ATOM      4  O   UNL A   1      34.995  24.178  25.506  1.00  0.00    -0.463 OA
BRANCH   4   5
ATOM      5  C   UNL A   1      34.093  24.539  24.570  1.00  0.00     0.310 C 
ATOM      6  O   UNL A   1      34.364  25.238  23.602  1.00  0.00    -0.252 OA
BRANCH   5   7
ATOM      7  C   UNL A   1      32.667  24.087  24.903  1.00  0.00     0.118 C 
BRANCH   7   8
ATOM      8  C   UNL A   1      32.810  23.119  26.094  1.00  0.00     0.014 C 
ATOM      9  C   UNL A   1      31.624  23.192  27.042  1.00  0.00     0.005 C 
ENDBRANCH   7   8
BRANCH   7  10
ATOM     10  C   UNL A   1      31.794  23.482  23.765  1.00  0.00     0.131 C 
BRANCH  10  11
ATOM     11  N   UNL A   1      31.672  24.359  22.581  1.00  0.00    -0.355 N 
ATOM     12  C   UNL A   1      31.377  25.638  22.235  1.00  0.00     0.228 C 
ATOM     13  H   UNL A   1      31.874  23.840  21.769  1.00  0.00     0.163 HD
ATOM     14  O   UNL A   1      31.811  25.895  21.093  1.00  0.00    -0.274 OA
BRANCH  12  15
ATOM     15  C   UNL A   1      30.675  26.794  22.995  1.00  0.00     0.120 C 
ATOM     16  C   UNL A   1      29.398  26.192  23.707  1.00  0.00     0.093 C 
ATOM     17  C   UNL A   1      31.400  27.576  24.065  1.00  0.00    -0.021 A 
ATOM     18  S   UNL A   1      29.577  25.884  25.529  1.00  0.00    -0.125 SA
ATOM     19  C   UNL A   1      30.908  27.026  25.703  1.00  0.00     0.011 A 
ATOM     20  C   UNL A   1      32.936  28.455  23.836  1.00  0.00     0.006 A 
ATOM     21  C   UNL A   1      31.948  27.345  27.136  1.00  0.00     0.015 A 
ATOM     22  C   UNL A   1      34.038  28.739  25.241  1.00  0.00     0.000 A 
ATOM     23  C   UNL A   1      33.546  28.173  26.892  1.00  0.00     0.001 A 
ENDBRANCH  12  15
ENDBRANCH  10  11
ENDBRANCH   7  10
ENDBRANCH   5   7
ENDBRANCH   4   5
ENDBRANCH   3   4
ENDBRANCH   2   3
ENDBRANCH   1   2
BRANCH   1  24
ATOM     24  C   UNL A   1      37.239  19.973  24.933  1.00  0.00     0.202 C 
BRANCH  24  25
ATOM     25  C   UNL A   1      38.485  19.038  25.391  1.00  0.00     0.261 C 
BRANCH  25  26
ATOM     26  O   UNL A   1      40.186  19.442  26.369  1.00  0.00    -0.460 OA
BRANCH  26  27
ATOM     27  C   UNL A   1      41.281  19.970  27.124  1.00  0.00     0.338 C 
ATOM     28  O   UNL A   1      42.033  19.247  27.763  1.00  0.00    -0.246 OA
BRANCH  27  29
ATOM     29  C   UNL A   1      41.481  21.460  27.200  1.00  0.00     0.060 A 
ATOM     30  C   UNL A   1      42.148  21.967  28.319  1.00  0.00     0.016 A 
ATOM     31  C   UNL A   1      40.903  22.351  26.276  1.00  0.00     0.016 A 
ATOM     32  C   UNL A   1      42.157  23.343  28.563  1.00  0.00     0.010 A 
ATOM     33  C   UNL A   1      40.906  23.733  26.524  1.00  0.00     0.010 A 
ATOM     34  C   UNL A   1      41.538  24.241  27.668  1.00  0.00    -0.014 A 
BRANCH  34  35
ATOM     35  C   UNL A   1      41.870  25.685  27.782  1.00  0.00     0.031 A 
ATOM     36  C   UNL A   1      41.021  26.698  28.489  1.00  0.00     0.074 A 
ATOM     37  C   UNL A   1      43.045  26.053  27.236  1.00  0.00     0.049 A 
ATOM     38  N   UNL A   1      41.327  27.929  28.812  1.00  0.00    -0.248 NA
ATOM     39  C   UNL A   1      39.660  26.299  28.877  1.00  0.00     0.031 C 
ATOM     40  C   UNL A   1      43.918  25.156  26.472  1.00  0.00     0.029 A 
ATOM     41  N   UNL A   1      43.718  27.244  27.253  1.00  0.00    -0.354 N 
ATOM     42  C   UNL A   1      40.207  28.459  29.440  1.00  0.00     0.074 A 
ATOM     43  C   UNL A   1      39.201  27.415  29.440  1.00  0.00     0.031 C 
ATOM     44  C   UNL A   1      45.029  25.816  26.129  1.00  0.00     0.029 A 
ATOM     45  C   UNL A   1      44.943  27.180  26.633  1.00  0.00     0.049 A 
ATOM     46  H   UNL A   1      43.362  28.063  27.667  1.00  0.00     0.167 HD
ATOM     47  C   UNL A   1      40.048  29.696  29.976  1.00  0.00     0.034 A 
ATOM     48  C   UNL A   1      45.909  28.106  26.502  1.00  0.00     0.034 A 
ATOM     49  C   UNL A   1      41.062  30.723  29.967  1.00  0.00     0.049 A 
ATOM     50  C   UNL A   1      45.724  29.448  27.135  1.00  0.00     0.074 A 
ATOM     51  C   UNL A   1      41.016  31.981  30.544  1.00  0.00     0.029 A 
ATOM     52  N   UNL A   1      42.293  30.621  29.337  1.00  0.00    -0.354 N 
ATOM     53  N   UNL A   1      44.718  29.878  27.857  1.00  0.00    -0.248 NA
ATOM     54  C   UNL A   1      46.809  30.420  26.964  1.00  0.00     0.031 C 
ATOM     55  C   UNL A   1      42.211  32.645  30.248  1.00  0.00     0.029 A 
ATOM     56  C   UNL A   1      43.010  31.795  29.500  1.00  0.00     0.049 A 
ATOM     57  H   UNL A   1      42.611  29.829  28.845  1.00  0.00     0.167 HD
ATOM     58  C   UNL A   1      45.050  31.170  28.235  1.00  0.00     0.074 A 
ATOM     59  C   UNL A   1      46.361  31.445  27.680  1.00  0.00     0.031 C 
ATOM     60  C   UNL A   1      44.325  32.049  28.966  1.00  0.00     0.034 A 
BRANCH  47  61
ATOM     61  C   UNL A   1      38.756  30.011  30.688  1.00  0.00     0.023 A 
ATOM     62  C   UNL A   1      38.592  29.583  32.021  1.00  0.00     0.012 A 
ATOM     63  C   UNL A   1      37.773  30.835  30.101  1.00  0.00     0.148 A 
ATOM     64  C   UNL A   1      37.466  29.958  32.755  1.00  0.00     0.002 A 
ATOM     65  C   UNL A   1      36.664  31.222  30.847  1.00  0.00     0.091 A 
ATOM     66  F   UNL A   1      37.949  31.231  28.833  1.00  0.00    -0.205 F 
ATOM     67  C   UNL A   1      36.508  30.783  32.171  1.00  0.00     0.022 A 
BRANCH  65  68
ATOM     68  S   UNL A   1      35.391  32.321  30.211  1.00  0.00     0.127 S 
ATOM     69  O   UNL A   1      36.167  33.524  29.908  1.00  0.00    -0.237 OA
ATOM     70  O   UNL A   1      34.914  31.592  29.036  1.00  0.00    -0.237 OA
ATOM     71  O   UNL A   1      34.414  32.468  31.280  1.00  0.00    -0.744 OA
ENDBRANCH  65  68
ENDBRANCH  47  61
BRANCH  48  72
ATOM     72  C   UNL A   1      47.164  27.722  25.806  1.00  0.00     0.023 A 
ATOM     73  C   UNL A   1      48.140  26.988  26.502  1.00  0.00     0.012 A 
ATOM     74  C   UNL A   1      47.319  27.957  24.426  1.00  0.00     0.148 A 
ATOM     75  C   UNL A   1      49.257  26.488  25.832  1.00  0.00     0.002 A 
ATOM     76  C   UNL A   1      48.412  27.423  23.757  1.00  0.00     0.091 A 
ATOM     77  F   UNL A   1      46.362  28.649  23.791  1.00  0.00    -0.205 F 
ATOM     78  C   UNL A   1      49.386  26.696  24.459  1.00  0.00     0.022 A 
BRANCH  76  79
ATOM     79  S   UNL A   1      48.606  27.537  21.976  1.00  0.00     0.127 S 
ATOM     80  O   UNL A   1      49.692  28.508  21.858  1.00  0.00    -0.237 OA
ATOM     81  O   UNL A   1      48.966  26.163  21.627  1.00  0.00    -0.237 OA
ATOM     82  O   UNL A   1      47.317  27.976  21.462  1.00  0.00    -0.744 OA
ENDBRANCH  76  79
ENDBRANCH  48  72
BRANCH  60  83
ATOM     83  C   UNL A   1      44.916  33.409  29.209  1.00  0.00     0.023 A 
ATOM     84  C   UNL A   1      45.765  33.605  30.314  1.00  0.00     0.012 A 
ATOM     85  C   UNL A   1      44.722  34.454  28.285  1.00  0.00     0.148 A 
ATOM     86  C   UNL A   1      46.410  34.826  30.503  1.00  0.00     0.002 A 
ATOM     87  C   UNL A   1      45.395  35.657  28.460  1.00  0.00     0.091 A 
ATOM     88  F   UNL A   1      43.899  34.244  27.248  1.00  0.00    -0.205 F 
ATOM     89  C   UNL A   1      46.235  35.847  29.570  1.00  0.00     0.022 A 
BRANCH  87  90
ATOM     90  S   UNL A   1      45.292  37.006  27.279  1.00  0.00     0.127 S 
ATOM     91  O   UNL A   1      45.839  38.121  28.051  1.00  0.00    -0.237 OA
ATOM     92  O   UNL A   1      46.154  36.533  26.196  1.00  0.00    -0.237 OA
ATOM     93  O   UNL A   1      43.884  37.131  26.927  1.00  0.00    -0.744 OA
ENDBRANCH  87  90
ENDBRANCH  60  83
ENDBRANCH  34  35
ENDBRANCH  27  29
ENDBRANCH  26  27
ENDBRANCH  25  26
ENDBRANCH  24  25
ENDBRANCH   1  24
TORSDOF 21
ENDMDL
MODEL 2
REMARK VINA RESULT:     -10.9      2.128      7.699
REMARK SMILES CC[C@H](CNC(=O)[C@H]1CSc2ccccc21)C(=O)OCCOCCOC(=O)c1ccc(-c2c3nc(c(-c4cccc(S(=O)(=O)[O-])c4F)c4ccc([nH]4)c(-c4cccc(S(=O)(=O)[O-])c4F)c4nc(c(-c5cccc(S(=O)(=O)[O-])c5F)c5ccc2[nH]5)C=C4)C=C3)cc1
REMARK SMILES IDX 22 1 21 2 20 3 19 4 17 5 18 6 3 7 2 8 1 9 4 10 5 11 6 12
REMARK SMILES IDX 7 14 8 15 9 16 16 17 10 18 11 19 15 20 12 21 14 22 13 23
REMARK SMILES IDX 23 24 24 25 25 26 26 27 27 28 28 29 29 30 90 31 30 32 89 33
REMARK SMILES IDX 31 34 32 35 33 36 83 37 34 38 88 39 82 40 84 41 35 42 87 43
REMARK SMILES IDX 81 44 80 45 36 47 68 48 48 49 67 50 49 51 52 52 66 53 85 54
REMARK SMILES IDX 50 55 51 56 65 58 86 59 53 60 37 61 38 62 46 63 39 64 41 65
REMARK SMILES IDX 47 66 40 67 42 68 43 69 44 70 45 71 69 72 70 73 78 74 71 75
REMARK SMILES IDX 73 76 79 77 72 78 74 79 75 80 76 81 77 82 54 83 55 84 63 85
REMARK SMILES IDX 56 86 58 87 64 88 57 89 59 90 60 91 61 92 62 93
REMARK H PARENT 5 13 84 46 52 57
REMARK Flexibility Score: inf
ROOT
ATOM      1  O   UNL A   1      34.591  20.986  26.073  1.00  0.00    -0.374 OA
ENDROOT
BRANCH   1   2
ATOM      2  C   UNL A   1      33.307  20.394  26.018  1.00  0.00     0.202 C 
BRANCH   2   3
ATOM      3  C   UNL A   1      32.113  20.758  25.099  1.00  0.00     0.261 C 
BRANCH   3   4
ATOM      4  O   UNL A   1      31.054  21.626  25.533  1.00  0.00    -0.463 OA
BRANCH   4   5
ATOM      5  C   UNL A   1      31.363  22.869  25.956  1.00  0.00     0.310 C 
ATOM      6  O   UNL A   1      31.005  23.327  27.033  1.00  0.00    -0.252 OA
BRANCH   5   7
ATOM      7  C   UNL A   1      32.107  23.695  24.901  1.00  0.00     0.118 C 
BRANCH   7   8
ATOM      8  C   UNL A   1      32.739  24.871  25.671  1.00  0.00     0.014 C 
ATOM      9  C   UNL A   1      34.257  24.850  25.611  1.00  0.00     0.005 C 
ENDBRANCH   7   8
BRANCH   7  10
ATOM     10  C   UNL A   1      31.323  24.179  23.645  1.00  0.00     0.131 C 
BRANCH  10  11
ATOM     11  N   UNL A   1      32.182  24.793  22.610  1.00  0.00    -0.355 N 
ATOM     12  C   UNL A   1      32.638  26.001  22.191  1.00  0.00     0.228 C 
ATOM     13  H   UNL A   1      32.549  24.088  22.029  1.00  0.00     0.163 HD
ATOM     14  O   UNL A   1      33.655  25.865  21.481  1.00  0.00    -0.274 OA
BRANCH  12  15
ATOM     15  C   UNL A   1      32.167  27.454  22.470  1.00  0.00     0.120 C 
ATOM     16  C   UNL A   1      30.588  27.468  22.390  1.00  0.00     0.093 C 
ATOM     17  C   UNL A   1      32.510  28.148  23.767  1.00  0.00    -0.021 A 
ATOM     18  S   UNL A   1      29.712  27.492  24.027  1.00  0.00    -0.125 SA
ATOM     19  C   UNL A   1      31.107  28.135  24.890  1.00  0.00     0.011 A 
ATOM     20  C   UNL A   1      34.161  28.400  24.395  1.00  0.00     0.006 A 
ATOM     21  C   UNL A   1      31.338  28.371  26.658  1.00  0.00     0.015 A 
ATOM     22  C   UNL A   1      34.440  28.578  26.172  1.00  0.00     0.000 A 
ATOM     23  C   UNL A   1      33.025  28.552  27.306  1.00  0.00     0.001 A 
ENDBRANCH  12  15
ENDBRANCH  10  11
ENDBRANCH   7  10
ENDBRANCH   5   7
ENDBRANCH   4   5
ENDBRANCH   3   4
ENDBRANCH   2   3
ENDBRANCH   1   2
BRANCH   1  24
ATOM     24  C   UNL A   1      35.383  21.206  24.929  1.00  0.00     0.202 C 
BRANCH  24  25
ATOM     25  C   UNL A   1      36.847  20.505  24.897  1.00  0.00     0.261 C 
BRANCH  25  26
ATOM     26  O   UNL A   1      38.594  20.992  25.748  1.00  0.00    -0.460 OA
BRANCH  26  27
ATOM     27  C   UNL A   1      39.806  21.110  26.501  1.00  0.00     0.338 C 
ATOM     28  O   UNL A   1      40.418  20.128  26.897  1.00  0.00    -0.246 OA
BRANCH  27  29
ATOM     29  C   UNL A   1      40.312  22.475  26.884  1.00  0.00     0.060 A 
ATOM     30  C   UNL A   1      41.256  22.549  27.912  1.00  0.00     0.016 A 
ATOM     31  C   UNL A   1      39.770  23.661  26.355  1.00  0.00     0.016 A 
ATOM     32  C   UNL A   1      41.585  23.788  28.470  1.00  0.00     0.010 A 
ATOM     33  C   UNL A   1      40.096  24.905  26.919  1.00  0.00     0.010 A 
ATOM     34  C   UNL A   1      41.011  24.978  27.979  1.00  0.00    -0.014 A 
BRANCH  34  35
ATOM     35  C   UNL A   1      41.642  26.269  28.357  1.00  0.00     0.031 A 
ATOM     36  C   UNL A   1      43.065  26.638  28.060  1.00  0.00     0.074 A 
ATOM     37  C   UNL A   1      40.829  27.154  28.966  1.00  0.00     0.049 A 
ATOM     38  N   UNL A   1      43.638  27.810  28.170  1.00  0.00    -0.248 NA
ATOM     39  C   UNL A   1      43.965  25.574  27.594  1.00  0.00     0.031 C 
ATOM     40  C   UNL A   1      39.444  26.871  29.355  1.00  0.00     0.029 A 
ATOM     41  N   UNL A   1      41.025  28.455  29.341  1.00  0.00    -0.354 N 
ATOM     42  C   UNL A   1      44.963  27.635  27.790  1.00  0.00     0.074 A 
ATOM     43  C   UNL A   1      45.114  26.232  27.458  1.00  0.00     0.031 C 
ATOM     44  C   UNL A   1      38.902  27.976  29.875  1.00  0.00     0.029 A 
ATOM     45  C   UNL A   1      39.899  29.039  29.870  1.00  0.00     0.049 A 
ATOM     46  H   UNL A   1      41.883  28.925  29.241  1.00  0.00     0.167 HD
ATOM     47  C   UNL A   1      45.948  28.565  27.713  1.00  0.00     0.034 A 
ATOM     48  C   UNL A   1      39.676  30.298  30.286  1.00  0.00     0.034 A 
ATOM     49  C   UNL A   1      45.777  29.959  28.048  1.00  0.00     0.049 A 
ATOM     50  C   UNL A   1      40.767  31.313  30.154  1.00  0.00     0.074 A 
ATOM     51  C   UNL A   1      46.698  30.988  27.937  1.00  0.00     0.029 A 
ATOM     52  N   UNL A   1      44.622  30.516  28.574  1.00  0.00    -0.354 N 
ATOM     53  N   UNL A   1      41.966  31.161  29.649  1.00  0.00    -0.248 NA
ATOM     54  C   UNL A   1      40.471  32.672  30.621  1.00  0.00     0.031 C 
ATOM     55  C   UNL A   1      46.104  32.162  28.412  1.00  0.00     0.029 A 
ATOM     56  C   UNL A   1      44.808  31.870  28.804  1.00  0.00     0.049 A 
ATOM     57  H   UNL A   1      43.790  30.022  28.757  1.00  0.00     0.167 HD
ATOM     58  C   UNL A   1      42.569  32.407  29.727  1.00  0.00     0.074 A 
ATOM     59  C   UNL A   1      41.595  33.308  30.310  1.00  0.00     0.031 C 
ATOM     60  C   UNL A   1      43.823  32.764  29.359  1.00  0.00     0.034 A 
BRANCH  47  61
ATOM     61  C   UNL A   1      47.296  28.145  27.184  1.00  0.00     0.023 A 
ATOM     62  C   UNL A   1      47.506  28.127  25.791  1.00  0.00     0.012 A 
ATOM     63  C   UNL A   1      48.384  27.903  28.049  1.00  0.00     0.148 A 
ATOM     64  C   UNL A   1      48.770  27.863  25.264  1.00  0.00     0.002 A 
ATOM     65  C   UNL A   1      49.647  27.662  27.517  1.00  0.00     0.091 A 
ATOM     66  F   UNL A   1      48.164  27.925  29.371  1.00  0.00    -0.205 F 
ATOM     67  C   UNL A   1      49.841  27.639  26.126  1.00  0.00     0.022 A 
BRANCH  65  68
ATOM     68  S   UNL A   1      51.107  27.408  28.535  1.00  0.00     0.127 S 
ATOM     69  O   UNL A   1      51.257  28.719  29.164  1.00  0.00    -0.237 OA
ATOM     70  O   UNL A   1      50.670  26.344  29.439  1.00  0.00    -0.237 OA
ATOM     71  O   UNL A   1      52.176  27.033  27.620  1.00  0.00    -0.744 OA
ENDBRANCH  65  68
ENDBRANCH  47  61
BRANCH  48  72
ATOM     72  C   UNL A   1      38.319  30.649  30.777  1.00  0.00     0.023 A 
ATOM     73  C   UNL A   1      38.012  30.470  32.138  1.00  0.00     0.012 A 
ATOM     74  C   UNL A   1      37.395  31.293  29.932  1.00  0.00     0.148 A 
ATOM     75  C   UNL A   1      36.800  30.929  32.653  1.00  0.00     0.002 A 
ATOM     76  C   UNL A   1      36.208  31.782  30.459  1.00  0.00     0.091 A 
ATOM     77  F   UNL A   1      37.726  31.459  28.643  1.00  0.00    -0.205 F 
ATOM     78  C   UNL A   1      35.905  31.595  31.817  1.00  0.00     0.022 A 
BRANCH  76  79
ATOM     79  S   UNL A   1      35.047  32.752  29.491  1.00  0.00     0.127 S 
ATOM     80  O   UNL A   1      34.493  31.741  28.593  1.00  0.00    -0.237 OA
ATOM     81  O   UNL A   1      34.128  33.232  30.522  1.00  0.00    -0.237 OA
ATOM     82  O   UNL A   1      35.836  33.793  28.848  1.00  0.00    -0.744 OA
ENDBRANCH  76  79
ENDBRANCH  48  72
BRANCH  60  83
ATOM     83  C   UNL A   1      44.235  34.192  29.582  1.00  0.00     0.023 A 
ATOM     84  C   UNL A   1      44.905  34.539  30.770  1.00  0.00     0.012 A 
ATOM     85  C   UNL A   1      44.060  35.157  28.571  1.00  0.00     0.148 A 
ATOM     86  C   UNL A   1      45.391  35.833  30.954  1.00  0.00     0.002 A 
ATOM     87  C   UNL A   1      44.577  36.435  28.747  1.00  0.00     0.091 A 
ATOM     88  F   UNL A   1      43.408  34.802  27.455  1.00  0.00    -0.205 F 
ATOM     89  C   UNL A   1      45.238  36.776  29.940  1.00  0.00     0.022 A 
BRANCH  87  90
ATOM     90  S   UNL A   1      44.495  37.698  27.474  1.00  0.00     0.127 S 
ATOM     91  O   UNL A   1      44.727  38.917  28.247  1.00  0.00    -0.237 OA
ATOM     92  O   UNL A   1      45.597  37.316  26.591  1.00  0.00    -0.237 OA
ATOM     93  O   UNL A   1      43.171  37.588  26.878  1.00  0.00    -0.744 OA
ENDBRANCH  87  90
ENDBRANCH  60  83
ENDBRANCH  34  35
ENDBRANCH  27  29
ENDBRANCH  26  27
ENDBRANCH  25  26
ENDBRANCH  24  25
ENDBRANCH   1  24
TORSDOF 21
ENDMDL
MODEL 3
REMARK VINA RESULT:     -10.8      1.832      2.439
REMARK SMILES CC[C@H](CNC(=O)[C@H]1CSc2ccccc21)C(=O)OCCOCCOC(=O)c1ccc(-c2c3nc(c(-c4cccc(S(=O)(=O)[O-])c4F)c4ccc([nH]4)c(-c4cccc(S(=O)(=O)[O-])c4F)c4nc(c(-c5cccc(S(=O)(=O)[O-])c5F)c5ccc2[nH]5)C=C4)C=C3)cc1
REMARK SMILES IDX 22 1 21 2 20 3 19 4 17 5 18 6 3 7 2 8 1 9 4 10 5 11 6 12
REMARK SMILES IDX 7 14 8 15 9 16 16 17 10 18 11 19 15 20 12 21 14 22 13 23
REMARK SMILES IDX 23 24 24 25 25 26 26 27 27 28 28 29 29 30 90 31 30 32 89 33
REMARK SMILES IDX 31 34 32 35 33 36 83 37 34 38 88 39 82 40 84 41 35 42 87 43
REMARK SMILES IDX 81 44 80 45 36 47 68 48 48 49 67 50 49 51 52 52 66 53 85 54
REMARK SMILES IDX 50 55 51 56 65 58 86 59 53 60 37 61 38 62 46 63 39 64 41 65
REMARK SMILES IDX 47 66 40 67 42 68 43 69 44 70 45 71 69 72 70 73 78 74 71 75
REMARK SMILES IDX 73 76 79 77 72 78 74 79 75 80 76 81 77 82 54 83 55 84 63 85
REMARK SMILES IDX 56 86 58 87 64 88 57 89 59 90 60 91 61 92 62 93
REMARK H PARENT 5 13 84 46 52 57
REMARK Flexibility Score: inf
ROOT
ATOM      1  O   UNL A   1      34.728  20.267  24.490  1.00  0.00    -0.374 OA
ENDROOT
BRANCH   1   2
ATOM      2  C   UNL A   1      33.549  21.050  24.481  1.00  0.00     0.202 C 
BRANCH   2   3
ATOM      3  C   UNL A   1      32.794  21.647  23.266  1.00  0.00     0.261 C 
BRANCH   3   4
ATOM      4  O   UNL A   1      32.026  22.857  23.364  1.00  0.00    -0.463 OA
BRANCH   4   5
ATOM      5  C   UNL A   1      32.435  23.944  22.679  1.00  0.00     0.310 C 
ATOM      6  O   UNL A   1      33.387  23.942  21.909  1.00  0.00    -0.252 OA
BRANCH   5   7
ATOM      7  C   UNL A   1      31.663  25.215  23.050  1.00  0.00     0.118 C 
BRANCH   7   8
ATOM      8  C   UNL A   1      30.295  24.728  23.566  1.00  0.00     0.014 C 
ATOM      9  C   UNL A   1      29.318  25.873  23.777  1.00  0.00     0.005 C 
ENDBRANCH   7   8
BRANCH   7  10
ATOM     10  C   UNL A   1      31.513  26.335  21.978  1.00  0.00     0.131 C 
BRANCH  10  11
ATOM     11  N   UNL A   1      32.747  27.122  21.767  1.00  0.00    -0.355 N 
ATOM     12  C   UNL A   1      33.751  27.724  22.453  1.00  0.00     0.228 C 
ATOM     13  H   UNL A   1      32.889  27.252  20.801  1.00  0.00     0.163 HD
ATOM     14  O   UNL A   1      34.735  27.918  21.711  1.00  0.00    -0.274 OA
BRANCH  12  15
ATOM     15  C   UNL A   1      33.899  28.145  23.940  1.00  0.00     0.120 C 
ATOM     16  C   UNL A   1      32.891  29.335  24.203  1.00  0.00     0.093 C 
ATOM     17  C   UNL A   1      33.655  27.158  25.057  1.00  0.00    -0.021 A 
ATOM     18  S   UNL A   1      31.332  28.870  25.097  1.00  0.00    -0.125 SA
ATOM     19  C   UNL A   1      32.033  27.410  25.790  1.00  0.00     0.011 A 
ATOM     20  C   UNL A   1      34.498  25.597  25.255  1.00  0.00     0.006 A 
ATOM     21  C   UNL A   1      31.231  26.101  26.729  1.00  0.00     0.015 A 
ATOM     22  C   UNL A   1      33.697  24.238  26.139  1.00  0.00     0.000 A 
ATOM     23  C   UNL A   1      32.055  24.489  26.868  1.00  0.00     0.001 A 
ENDBRANCH  12  15
ENDBRANCH  10  11
ENDBRANCH   7  10
ENDBRANCH   5   7
ENDBRANCH   4   5
ENDBRANCH   3   4
ENDBRANCH   2   3
ENDBRANCH   1   2
BRANCH   1  24
ATOM     24  C   UNL A   1      35.994  20.795  24.806  1.00  0.00     0.202 C 
BRANCH  24  25
ATOM     25  C   UNL A   1      37.209  19.735  25.003  1.00  0.00     0.261 C 
BRANCH  25  26
ATOM     26  O   UNL A   1      38.988  19.876  25.912  1.00  0.00    -0.460 OA
BRANCH  26  27
ATOM     27  C   UNL A   1      40.173  20.227  26.633  1.00  0.00     0.338 C 
ATOM     28  O   UNL A   1      40.892  19.381  27.146  1.00  0.00    -0.246 OA
BRANCH  27  29
ATOM     29  C   UNL A   1      40.518  21.679  26.836  1.00  0.00     0.060 A 
ATOM     30  C   UNL A   1      41.501  21.984  27.781  1.00  0.00     0.016 A 
ATOM     31  C   UNL A   1      39.795  22.721  26.227  1.00  0.00     0.016 A 
ATOM     32  C   UNL A   1      41.696  23.309  28.182  1.00  0.00     0.010 A 
ATOM     33  C   UNL A   1      39.987  24.052  26.634  1.00  0.00     0.010 A 
ATOM     34  C   UNL A   1      40.943  24.357  27.613  1.00  0.00    -0.014 A 
BRANCH  34  35
ATOM     35  C   UNL A   1      41.420  25.750  27.809  1.00  0.00     0.031 A 
ATOM     36  C   UNL A   1      40.652  26.816  28.532  1.00  0.00     0.074 A 
ATOM     37  C   UNL A   1      42.650  26.014  27.328  1.00  0.00     0.049 A 
ATOM     38  N   UNL A   1      41.072  27.992  28.926  1.00  0.00    -0.248 NA
ATOM     39  C   UNL A   1      39.242  26.549  28.847  1.00  0.00     0.031 C 
ATOM     40  C   UNL A   1      43.456  25.063  26.555  1.00  0.00     0.029 A 
ATOM     41  N   UNL A   1      43.443  27.124  27.428  1.00  0.00    -0.354 N 
ATOM     42  C   UNL A   1      39.988  28.611  29.535  1.00  0.00     0.074 A 
ATOM     43  C   UNL A   1      38.879  27.681  29.446  1.00  0.00     0.031 C 
ATOM     44  C   UNL A   1      44.644  25.615  26.287  1.00  0.00     0.029 A 
ATOM     45  C   UNL A   1      44.680  26.957  26.853  1.00  0.00     0.049 A 
ATOM     46  H   UNL A   1      43.158  27.957  27.867  1.00  0.00     0.167 HD
ATOM     47  C   UNL A   1      39.937  29.832  30.124  1.00  0.00     0.034 A 
ATOM     48  C   UNL A   1      45.743  27.779  26.804  1.00  0.00     0.034 A 
ATOM     49  C   UNL A   1      41.053  30.744  30.204  1.00  0.00     0.049 A 
ATOM     50  C   UNL A   1      45.673  29.104  27.495  1.00  0.00     0.074 A 
ATOM     51  C   UNL A   1      41.114  31.973  30.840  1.00  0.00     0.029 A 
ATOM     52  N   UNL A   1      42.292  30.539  29.617  1.00  0.00    -0.354 N 
ATOM     53  N   UNL A   1      44.688  29.606  28.197  1.00  0.00    -0.248 NA
ATOM     54  C   UNL A   1      46.861  29.961  27.412  1.00  0.00     0.031 C 
ATOM     55  C   UNL A   1      42.385  32.517  30.622  1.00  0.00     0.029 A 
ATOM     56  C   UNL A   1      43.122  31.621  29.865  1.00  0.00     0.049 A 
ATOM     57  H   UNL A   1      42.547  29.740  29.101  1.00  0.00     0.167 HD
ATOM     58  C   UNL A   1      45.137  30.837  28.650  1.00  0.00     0.074 A 
ATOM     59  C   UNL A   1      46.492  30.995  28.160  1.00  0.00     0.031 C 
ATOM     60  C   UNL A   1      44.477  31.756  29.395  1.00  0.00     0.034 A 
BRANCH  47  61
ATOM     61  C   UNL A   1      38.656  30.252  30.801  1.00  0.00     0.023 A 
ATOM     62  C   UNL A   1      38.509  30.022  32.184  1.00  0.00     0.012 A 
ATOM     63  C   UNL A   1      37.667  30.986  30.114  1.00  0.00     0.148 A 
ATOM     64  C   UNL A   1      37.395  30.503  32.871  1.00  0.00     0.002 A 
ATOM     65  C   UNL A   1      36.569  31.482  30.811  1.00  0.00     0.091 A 
ATOM     66  F   UNL A   1      37.825  31.194  28.800  1.00  0.00    -0.205 F 
ATOM     67  C   UNL A   1      36.430  31.239  32.187  1.00  0.00     0.022 A 
BRANCH  65  68
ATOM     68  S   UNL A   1      35.289  32.482  30.041  1.00  0.00     0.127 S 
ATOM     69  O   UNL A   1      34.830  31.597  28.970  1.00  0.00    -0.237 OA
ATOM     70  O   UNL A   1      34.336  32.660  31.135  1.00  0.00    -0.237 OA
ATOM     71  O   UNL A   1      35.945  33.703  29.596  1.00  0.00    -0.744 OA
ENDBRANCH  65  68
ENDBRANCH  47  61
BRANCH  48  72
ATOM     72  C   UNL A   1      46.980  27.294  26.139  1.00  0.00     0.023 A 
ATOM     73  C   UNL A   1      47.236  27.668  24.808  1.00  0.00     0.012 A 
ATOM     74  C   UNL A   1      47.960  26.594  26.869  1.00  0.00     0.148 A 
ATOM     75  C   UNL A   1      48.456  27.352  24.210  1.00  0.00     0.002 A 
ATOM     76  C   UNL A   1      49.186  26.318  26.281  1.00  0.00     0.091 A 
ATOM     77  F   UNL A   1      47.686  26.266  28.140  1.00  0.00    -0.205 F 
ATOM     78  C   UNL A   1      49.434  26.688  24.950  1.00  0.00     0.022 A 
BRANCH  76  79
ATOM     79  S   UNL A   1      50.546  25.572  27.187  1.00  0.00     0.127 S 
ATOM     80  O   UNL A   1      50.793  26.570  28.225  1.00  0.00    -0.237 OA
ATOM     81  O   UNL A   1      49.942  24.327  27.659  1.00  0.00    -0.237 OA
ATOM     82  O   UNL A   1      51.620  25.397  26.220  1.00  0.00    -0.744 OA
ENDBRANCH  76  79
ENDBRANCH  48  72
BRANCH  60  83
ATOM     83  C   UNL A   1      45.197  33.033  29.726  1.00  0.00     0.023 A 
ATOM     84  C   UNL A   1      45.832  33.163  30.975  1.00  0.00     0.012 A 
ATOM     85  C   UNL A   1      45.340  34.050  28.762  1.00  0.00     0.148 A 
ATOM     86  C   UNL A   1      46.595  34.292  31.266  1.00  0.00     0.002 A 
ATOM     87  C   UNL A   1      46.130  35.158  29.046  1.00  0.00     0.091 A 
ATOM     88  F   UNL A   1      44.714  33.906  27.585  1.00  0.00    -0.205 F 
ATOM     89  C   UNL A   1      46.754  35.283  30.299  1.00  0.00     0.022 A 
BRANCH  87  90
ATOM     90  S   UNL A   1      46.454  36.451  27.843  1.00  0.00     0.127 S 
ATOM     91  O   UNL A   1      47.314  37.356  28.604  1.00  0.00    -0.237 OA
ATOM     92  O   UNL A   1      47.133  35.716  26.777  1.00  0.00    -0.237 OA
ATOM     93  O   UNL A   1      45.155  36.997  27.475  1.00  0.00    -0.744 OA
ENDBRANCH  87  90
ENDBRANCH  60  83
ENDBRANCH  34  35
ENDBRANCH  27  29
ENDBRANCH  26  27
ENDBRANCH  25  26
ENDBRANCH  24  25
ENDBRANCH   1  24
TORSDOF 21
ENDMDL
