MODEL 1
REMARK VINA RESULT:     -10.4      0.000      0.000
REMARK SMILES O=C(CS[C@@H]1CCS(=O)(=O)C1)Nc1nc(CC(=O)OCCOCCOC(=O)c2ccc(-c3c4nc(c(-c5cccc(S(=O)(=O)[O-])c5F)c5ccc([nH]5)c(-c5cccc(S(=O)(=O)[O-])c5F)c5nc(c(-c6cccc(S(=O)(=O)[O-])c6F)c6ccc3[nH]6)C=C5)C=C4)cc2)cs1
REMARK SMILES IDX 21 1 20 2 19 3 17 4 18 5 16 6 15 7 13 8 14 9 92 10 91 11
REMARK SMILES IDX 12 12 1 13 2 14 3 16 4 17 5 18 6 19 11 20 7 21 8 22 9 23
REMARK SMILES IDX 10 24 22 25 23 26 24 27 25 28 26 29 27 30 28 31 29 32 90 33
REMARK SMILES IDX 30 34 89 35 31 36 32 37 33 38 83 39 34 40 88 41 82 42 84 43
REMARK SMILES IDX 35 44 87 45 81 46 80 47 36 49 68 50 48 51 67 52 49 53 52 54
REMARK SMILES IDX 66 55 85 56 50 57 51 58 65 60 86 61 53 62 37 63 38 64 46 65
REMARK SMILES IDX 39 66 41 67 47 68 40 69 42 70 43 71 44 72 45 73 69 74 70 75
REMARK SMILES IDX 78 76 71 77 73 78 79 79 72 80 74 81 75 82 76 83 77 84 54 85
REMARK SMILES IDX 55 86 63 87 56 88 58 89 64 90 57 91 59 92 60 93 61 94 62 95
REMARK H PARENT 12 15 84 48 52 59
REMARK Flexibility Score: inf
ROOT
ATOM      1  C   UNL A   1      36.503  21.417  24.742  1.00  0.00     0.202 C 
ENDROOT
BRANCH   1   2
ATOM      2  C   UNL A   1      35.185  21.069  25.443  1.00  0.00     0.261 C 
BRANCH   2   3
ATOM      3  O   UNL A   1      34.422  20.082  24.728  1.00  0.00    -0.463 OA
BRANCH   3   4
ATOM      4  C   UNL A   1      33.077  20.277  24.699  1.00  0.00     0.311 C 
ATOM      5  O   UNL A   1      32.260  19.559  25.273  1.00  0.00    -0.252 OA
BRANCH   4   6
ATOM      6  C   UNL A   1      32.633  21.481  23.907  1.00  0.00     0.179 C 
BRANCH   6   7
ATOM      7  C   UNL A   1      32.172  22.672  24.682  1.00  0.00     0.065 A 
ATOM      8  C   UNL A   1      32.332  24.808  25.224  1.00  0.00     0.189 A 
ATOM      9  N   UNL A   1      32.917  23.831  24.586  1.00  0.00    -0.224 NA
ATOM     10  S   UNL A   1      30.905  24.405  26.066  1.00  0.00    -0.105 S 
ATOM     11  C   UNL A   1      30.985  22.830  25.377  1.00  0.00     0.093 A 
BRANCH   8  12
ATOM     12  N   UNL A   1      32.593  26.147  25.159  1.00  0.00    -0.301 N 
ATOM     13  O   UNL A   1      33.497  26.128  23.021  1.00  0.00    -0.274 OA
ATOM     14  C   UNL A   1      33.018  26.722  23.982  1.00  0.00     0.236 C 
ATOM     15  H   UNL A   1      32.476  26.705  25.960  1.00  0.00     0.172 HD
BRANCH  14  16
ATOM     16  C   UNL A   1      32.844  28.232  23.914  1.00  0.00     0.170 C 
BRANCH  16  17
ATOM     17  S   UNL A   1      31.592  28.808  22.702  1.00  0.00    -0.148 SA
BRANCH  17  18
ATOM     18  C   UNL A   1      30.084  29.244  23.677  1.00  0.00     0.063 C 
ATOM     19  C   UNL A   1      28.841  28.473  23.214  1.00  0.00     0.031 C 
ATOM     20  C   UNL A   1      29.682  30.702  23.878  1.00  0.00     0.151 C 
ATOM     21  C   UNL A   1      28.108  29.339  22.204  1.00  0.00     0.138 C 
ATOM     22  S   UNL A   1      28.286  31.001  22.810  1.00  0.00     0.151 S 
ATOM     23  O   UNL A   1      28.708  31.863  21.728  1.00  0.00    -0.229 OA
ATOM     24  O   UNL A   1      27.136  31.305  23.633  1.00  0.00    -0.229 OA
ENDBRANCH  17  18
ENDBRANCH  16  17
ENDBRANCH  14  16
ENDBRANCH   8  12
ENDBRANCH   6   7
ENDBRANCH   4   6
ENDBRANCH   3   4
ENDBRANCH   2   3
ENDBRANCH   1   2
BRANCH   1  25
ATOM     25  O   UNL A   1      37.331  22.411  25.345  1.00  0.00    -0.374 OA
BRANCH  25  26
ATOM     26  C   UNL A   1      38.604  22.002  25.838  1.00  0.00     0.202 C 
BRANCH  26  27
ATOM     27  C   UNL A   1      39.002  20.531  25.653  1.00  0.00     0.261 C 
BRANCH  27  28
ATOM     28  O   UNL A   1      39.886  20.050  26.680  1.00  0.00    -0.460 OA
BRANCH  28  29
ATOM     29  C   UNL A   1      41.141  19.771  26.246  1.00  0.00     0.338 C 
ATOM     30  O   UNL A   1      41.505  18.767  25.656  1.00  0.00    -0.246 OA
BRANCH  29  31
ATOM     31  C   UNL A   1      42.024  20.939  26.412  1.00  0.00     0.060 A 
ATOM     32  C   UNL A   1      42.328  21.327  27.723  1.00  0.00     0.016 A 
ATOM     33  C   UNL A   1      42.452  21.705  25.325  1.00  0.00     0.016 A 
ATOM     34  C   UNL A   1      43.009  22.517  27.958  1.00  0.00     0.010 A 
ATOM     35  C   UNL A   1      43.134  22.903  25.566  1.00  0.00     0.010 A 
ATOM     36  C   UNL A   1      43.378  23.336  26.884  1.00  0.00    -0.014 A 
BRANCH  36  37
ATOM     37  C   UNL A   1      43.894  24.701  27.156  1.00  0.00     0.031 A 
ATOM     38  C   UNL A   1      42.964  25.745  27.711  1.00  0.00     0.074 A 
ATOM     39  C   UNL A   1      45.188  24.998  26.936  1.00  0.00     0.049 A 
ATOM     40  N   UNL A   1      43.205  26.994  28.014  1.00  0.00    -0.248 NA
ATOM     41  C   UNL A   1      41.573  25.327  27.958  1.00  0.00     0.031 C 
ATOM     42  C   UNL A   1      46.187  24.069  26.411  1.00  0.00     0.029 A 
ATOM     43  N   UNL A   1      45.876  26.171  27.112  1.00  0.00    -0.354 N 
ATOM     44  C   UNL A   1      41.997  27.520  28.455  1.00  0.00     0.074 A 
ATOM     45  C   UNL A   1      41.018  26.459  28.368  1.00  0.00     0.031 C 
ATOM     46  C   UNL A   1      47.358  24.716  26.285  1.00  0.00     0.029 A 
ATOM     47  C   UNL A   1      47.183  26.109  26.691  1.00  0.00     0.049 A 
ATOM     48  H   UNL A   1      45.473  26.981  27.501  1.00  0.00     0.167 HD
ATOM     49  C   UNL A   1      41.730  28.770  28.902  1.00  0.00     0.034 A 
ATOM     50  C   UNL A   1      48.124  27.072  26.618  1.00  0.00     0.034 A 
ATOM     51  C   UNL A   1      42.710  29.818  29.003  1.00  0.00     0.049 A 
ATOM     52  C   UNL A   1      47.791  28.461  27.094  1.00  0.00     0.074 A 
ATOM     53  C   UNL A   1      42.548  31.102  29.491  1.00  0.00     0.029 A 
ATOM     54  N   UNL A   1      44.029  29.710  28.594  1.00  0.00    -0.354 N 
ATOM     55  N   UNL A   1      46.674  28.914  27.610  1.00  0.00    -0.248 NA
ATOM     56  C   UNL A   1      48.861  29.467  27.006  1.00  0.00     0.031 C 
ATOM     57  C   UNL A   1      43.759  31.784  29.338  1.00  0.00     0.029 A 
ATOM     58  C   UNL A   1      44.690  30.909  28.799  1.00  0.00     0.049 A 
ATOM     59  H   UNL A   1      44.439  28.899  28.214  1.00  0.00     0.167 HD
ATOM     60  C   UNL A   1      46.917  30.242  27.943  1.00  0.00     0.074 A 
ATOM     61  C   UNL A   1      48.295  30.515  27.589  1.00  0.00     0.031 C 
ATOM     62  C   UNL A   1      46.074  31.156  28.485  1.00  0.00     0.034 A 
BRANCH  49  63
ATOM     63  C   UNL A   1      40.316  29.076  29.329  1.00  0.00     0.023 A 
ATOM     64  C   UNL A   1      39.361  29.475  28.372  1.00  0.00     0.012 A 
ATOM     65  C   UNL A   1      39.921  28.912  30.672  1.00  0.00     0.148 A 
ATOM     66  C   UNL A   1      38.044  29.739  28.749  1.00  0.00     0.002 A 
ATOM     67  C   UNL A   1      38.596  29.131  31.031  1.00  0.00     0.091 A 
ATOM     68  F   UNL A   1      40.846  28.552  31.571  1.00  0.00    -0.205 F 
ATOM     69  C   UNL A   1      37.660  29.558  30.075  1.00  0.00     0.022 A 
BRANCH  67  70
ATOM     70  S   UNL A   1      37.984  28.850  32.697  1.00  0.00     0.127 S 
ATOM     71  O   UNL A   1      38.125  27.400  32.821  1.00  0.00    -0.237 OA
ATOM     72  O   UNL A   1      38.927  29.625  33.504  1.00  0.00    -0.237 OA
ATOM     73  O   UNL A   1      36.616  29.346  32.714  1.00  0.00    -0.744 OA
ENDBRANCH  67  70
ENDBRANCH  49  63
BRANCH  50  74
ATOM     74  C   UNL A   1      49.478  26.751  26.088  1.00  0.00     0.023 A 
ATOM     75  C   UNL A   1      50.391  26.036  26.886  1.00  0.00     0.012 A 
ATOM     76  C   UNL A   1      49.863  27.147  24.792  1.00  0.00     0.148 A 
ATOM     77  C   UNL A   1      51.674  25.749  26.417  1.00  0.00     0.002 A 
ATOM     78  C   UNL A   1      51.121  26.809  24.310  1.00  0.00     0.091 A 
ATOM     79  F   UNL A   1      48.984  27.841  24.054  1.00  0.00    -0.205 F 
ATOM     80  C   UNL A   1      52.034  26.126  25.127  1.00  0.00     0.022 A 
BRANCH  78  81
ATOM     81  S   UNL A   1      51.630  27.148  22.622  1.00  0.00     0.127 S 
ATOM     82  O   UNL A   1      52.804  26.288  22.485  1.00  0.00    -0.237 OA
ATOM     83  O   UNL A   1      50.456  26.715  21.864  1.00  0.00    -0.237 OA
ATOM     84  O   UNL A   1      51.889  28.580  22.568  1.00  0.00    -0.744 OA
ENDBRANCH  78  81
ENDBRANCH  50  74
BRANCH  62  85
ATOM     85  C   UNL A   1      46.623  32.530  28.777  1.00  0.00     0.023 A 
ATOM     86  C   UNL A   1      47.282  32.785  29.996  1.00  0.00     0.012 A 
ATOM     87  C   UNL A   1      46.545  33.551  27.808  1.00  0.00     0.148 A 
ATOM     88  C   UNL A   1      47.821  34.044  30.262  1.00  0.00     0.002 A 
ATOM     89  C   UNL A   1      47.132  34.785  28.057  1.00  0.00     0.091 A 
ATOM     90  F   UNL A   1      45.901  33.294  26.660  1.00  0.00    -0.205 F 
ATOM     91  C   UNL A   1      47.757  35.039  29.289  1.00  0.00     0.022 A 
BRANCH  89  92
ATOM     92  S   UNL A   1      47.187  36.093  26.826  1.00  0.00     0.127 S 
ATOM     93  O   UNL A   1      45.797  36.544  26.809  1.00  0.00    -0.237 OA
ATOM     94  O   UNL A   1      48.128  37.040  27.426  1.00  0.00    -0.237 OA
ATOM     95  O   UNL A   1      47.656  35.471  25.597  1.00  0.00    -0.744 OA
ENDBRANCH  89  92
ENDBRANCH  62  85
ENDBRANCH  36  37
ENDBRANCH  29  31
ENDBRANCH  28  29
ENDBRANCH  27  28
ENDBRANCH  26  27
ENDBRANCH  25  26
ENDBRANCH   1  25
TORSDOF 22
ENDMDL
MODEL 2
REMARK VINA RESULT:     -10.4      5.845      9.196
REMARK SMILES O=C(CS[C@@H]1CCS(=O)(=O)C1)Nc1nc(CC(=O)OCCOCCOC(=O)c2ccc(-c3c4nc(c(-c5cccc(S(=O)(=O)[O-])c5F)c5ccc([nH]5)c(-c5cccc(S(=O)(=O)[O-])c5F)c5nc(c(-c6cccc(S(=O)(=O)[O-])c6F)c6ccc3[nH]6)C=C5)C=C4)cc2)cs1
REMARK SMILES IDX 21 1 20 2 19 3 17 4 18 5 16 6 15 7 13 8 14 9 92 10 91 11
REMARK SMILES IDX 12 12 1 13 2 14 3 16 4 17 5 18 6 19 11 20 7 21 8 22 9 23
REMARK SMILES IDX 10 24 22 25 23 26 24 27 25 28 26 29 27 30 28 31 29 32 90 33
REMARK SMILES IDX 30 34 89 35 31 36 32 37 33 38 83 39 34 40 88 41 82 42 84 43
REMARK SMILES IDX 35 44 87 45 81 46 80 47 36 49 68 50 48 51 67 52 49 53 52 54
REMARK SMILES IDX 66 55 85 56 50 57 51 58 65 60 86 61 53 62 37 63 38 64 46 65
REMARK SMILES IDX 39 66 41 67 47 68 40 69 42 70 43 71 44 72 45 73 69 74 70 75
REMARK SMILES IDX 78 76 71 77 73 78 79 79 72 80 74 81 75 82 76 83 77 84 54 85
REMARK SMILES IDX 55 86 63 87 56 88 58 89 64 90 57 91 59 92 60 93 61 94 62 95
REMARK H PARENT 12 15 84 48 52 59
REMARK Flexibility Score: inf
ROOT
ATOM      1  C   UNL A   1      40.093  21.441  26.785  1.00  0.00     0.202 C 
ENDROOT
BRANCH   1   2
ATOM      2  C   UNL A   1      38.981  21.393  25.732  1.00  0.00     0.261 C 
BRANCH   2   3
ATOM      3  O   UNL A   1      38.129  22.551  25.774  1.00  0.00    -0.463 OA
BRANCH   3   4
ATOM      4  C   UNL A   1      36.926  22.427  25.153  1.00  0.00     0.311 C 
ATOM      5  O   UNL A   1      36.697  22.800  24.004  1.00  0.00    -0.252 OA
BRANCH   4   6
ATOM      6  C   UNL A   1      35.857  21.763  25.983  1.00  0.00     0.179 C 
BRANCH   6   7
ATOM      7  C   UNL A   1      34.454  21.845  25.476  1.00  0.00     0.065 A 
ATOM      8  C   UNL A   1      32.547  22.934  25.232  1.00  0.00     0.189 A 
ATOM      9  N   UNL A   1      33.703  22.947  25.837  1.00  0.00    -0.224 NA
ATOM     10  S   UNL A   1      32.223  21.567  24.265  1.00  0.00    -0.105 S 
ATOM     11  C   UNL A   1      33.834  21.032  24.544  1.00  0.00     0.093 A 
BRANCH   8  12
ATOM     12  N   UNL A   1      31.636  23.943  25.109  1.00  0.00    -0.301 N 
ATOM     13  O   UNL A   1      30.734  23.734  27.239  1.00  0.00    -0.274 OA
ATOM     14  C   UNL A   1      30.902  24.362  26.198  1.00  0.00     0.236 C 
ATOM     15  H   UNL A   1      31.501  24.375  24.236  1.00  0.00     0.172 HD
BRANCH  14  16
ATOM     16  C   UNL A   1      30.276  25.740  26.049  1.00  0.00     0.170 C 
BRANCH  16  17
ATOM     17  S   UNL A   1      29.621  26.110  24.375  1.00  0.00    -0.148 SA
BRANCH  17  18
ATOM     18  C   UNL A   1      30.710  27.423  23.667  1.00  0.00     0.063 C 
ATOM     19  C   UNL A   1      31.056  27.170  22.193  1.00  0.00     0.031 C 
ATOM     20  C   UNL A   1      31.992  27.842  24.382  1.00  0.00     0.151 C 
ATOM     21  C   UNL A   1      32.379  26.428  22.149  1.00  0.00     0.138 C 
ATOM     22  S   UNL A   1      33.346  27.133  23.465  1.00  0.00     0.151 S 
ATOM     23  O   UNL A   1      33.931  26.070  24.251  1.00  0.00    -0.229 OA
ATOM     24  O   UNL A   1      34.139  28.209  22.913  1.00  0.00    -0.229 OA
ENDBRANCH  17  18
ENDBRANCH  16  17
ENDBRANCH  14  16
ENDBRANCH   8  12
ENDBRANCH   6   7
ENDBRANCH   4   6
ENDBRANCH   3   4
ENDBRANCH   2   3
ENDBRANCH   1   2
BRANCH   1  25
ATOM     25  O   UNL A   1      40.698  20.205  27.165  1.00  0.00    -0.374 OA
BRANCH  25  26
ATOM     26  C   UNL A   1      42.107  20.079  26.998  1.00  0.00     0.202 C 
BRANCH  26  27
ATOM     27  C   UNL A   1      42.741  20.733  25.762  1.00  0.00     0.261 C 
BRANCH  27  28
ATOM     28  O   UNL A   1      43.567  21.865  26.080  1.00  0.00    -0.460 OA
BRANCH  28  29
ATOM     29  C   UNL A   1      43.343  22.952  25.300  1.00  0.00     0.338 C 
ATOM     30  O   UNL A   1      43.428  23.011  24.083  1.00  0.00    -0.246 OA
BRANCH  29  31
ATOM     31  C   UNL A   1      42.785  24.061  26.095  1.00  0.00     0.060 A 
ATOM     32  C   UNL A   1      43.577  25.208  26.232  1.00  0.00     0.016 A 
ATOM     33  C   UNL A   1      41.575  23.945  26.782  1.00  0.00     0.016 A 
ATOM     34  C   UNL A   1      43.194  26.220  27.106  1.00  0.00     0.010 A 
ATOM     35  C   UNL A   1      41.195  24.964  27.663  1.00  0.00     0.010 A 
ATOM     36  C   UNL A   1      42.023  26.085  27.862  1.00  0.00    -0.014 A 
BRANCH  36  37
ATOM     37  C   UNL A   1      41.747  27.056  28.951  1.00  0.00     0.031 A 
ATOM     38  C   UNL A   1      42.583  27.021  30.200  1.00  0.00     0.074 A 
ATOM     39  C   UNL A   1      40.777  27.978  28.813  1.00  0.00     0.049 A 
ATOM     40  N   UNL A   1      42.507  27.769  31.270  1.00  0.00    -0.248 NA
ATOM     41  C   UNL A   1      43.648  26.005  30.255  1.00  0.00     0.031 C 
ATOM     42  C   UNL A   1      39.908  28.119  27.646  1.00  0.00     0.029 A 
ATOM     43  N   UNL A   1      40.352  28.959  29.672  1.00  0.00    -0.354 N 
ATOM     44  C   UNL A   1      43.487  27.298  32.136  1.00  0.00     0.074 A 
ATOM     45  C   UNL A   1      44.137  26.189  31.473  1.00  0.00     0.031 C 
ATOM     46  C   UNL A   1      39.035  29.115  27.870  1.00  0.00     0.029 A 
ATOM     47  C   UNL A   1      39.264  29.660  29.207  1.00  0.00     0.049 A 
ATOM     48  H   UNL A   1      40.782  29.144  30.537  1.00  0.00     0.167 HD
ATOM     49  C   UNL A   1      43.823  27.755  33.366  1.00  0.00     0.034 A 
ATOM     50  C   UNL A   1      38.521  30.615  29.803  1.00  0.00     0.034 A 
ATOM     51  C   UNL A   1      43.185  28.869  34.014  1.00  0.00     0.049 A 
ATOM     52  C   UNL A   1      38.898  31.084  31.183  1.00  0.00     0.074 A 
ATOM     53  C   UNL A   1      43.487  29.439  35.238  1.00  0.00     0.029 A 
ATOM     54  N   UNL A   1      42.107  29.572  33.501  1.00  0.00    -0.354 N 
ATOM     55  N   UNL A   1      39.896  30.703  31.943  1.00  0.00    -0.248 NA
ATOM     56  C   UNL A   1      38.063  32.140  31.776  1.00  0.00     0.031 C 
ATOM     57  C   UNL A   1      42.564  30.460  35.484  1.00  0.00     0.029 A 
ATOM     58  C   UNL A   1      41.716  30.558  34.392  1.00  0.00     0.049 A 
ATOM     59  H   UNL A   1      41.680  29.397  32.631  1.00  0.00     0.167 HD
ATOM     60  C   UNL A   1      39.832  31.495  33.085  1.00  0.00     0.074 A 
ATOM     61  C   UNL A   1      38.709  32.393  32.906  1.00  0.00     0.031 C 
ATOM     62  C   UNL A   1      40.626  31.476  34.184  1.00  0.00     0.034 A 
BRANCH  49  63
ATOM     63  C   UNL A   1      44.943  27.054  34.094  1.00  0.00     0.023 A 
ATOM     64  C   UNL A   1      46.258  27.556  34.013  1.00  0.00     0.012 A 
ATOM     65  C   UNL A   1      44.681  25.932  34.903  1.00  0.00     0.148 A 
ATOM     66  C   UNL A   1      47.300  26.932  34.698  1.00  0.00     0.002 A 
ATOM     67  C   UNL A   1      45.716  25.343  35.621  1.00  0.00     0.091 A 
ATOM     68  F   UNL A   1      43.429  25.456  34.951  1.00  0.00    -0.205 F 
ATOM     69  C   UNL A   1      47.027  25.833  35.509  1.00  0.00     0.022 A 
BRANCH  67  70
ATOM     70  S   UNL A   1      45.454  23.973  36.753  1.00  0.00     0.127 S 
ATOM     71  O   UNL A   1      46.809  23.739  37.250  1.00  0.00    -0.237 OA
ATOM     72  O   UNL A   1      44.538  24.557  37.733  1.00  0.00    -0.237 OA
ATOM     73  O   UNL A   1      44.888  22.894  35.957  1.00  0.00    -0.744 OA
ENDBRANCH  67  70
ENDBRANCH  49  63
BRANCH  50  74
ATOM     74  C   UNL A   1      37.356  31.207  29.088  1.00  0.00     0.023 A 
ATOM     75  C   UNL A   1      37.307  32.595  28.855  1.00  0.00     0.012 A 
ATOM     76  C   UNL A   1      36.298  30.396  28.631  1.00  0.00     0.148 A 
ATOM     77  C   UNL A   1      36.211  33.170  28.210  1.00  0.00     0.002 A 
ATOM     78  C   UNL A   1      35.237  30.968  27.940  1.00  0.00     0.091 A 
ATOM     79  F   UNL A   1      36.356  29.080  28.876  1.00  0.00    -0.205 F 
ATOM     80  C   UNL A   1      35.183  32.356  27.745  1.00  0.00     0.022 A 
BRANCH  78  81
ATOM     81  S   UNL A   1      33.928  29.988  27.199  1.00  0.00     0.127 S 
ATOM     82  O   UNL A   1      32.903  30.998  26.948  1.00  0.00    -0.237 OA
ATOM     83  O   UNL A   1      34.588  29.466  26.002  1.00  0.00    -0.237 OA
ATOM     84  O   UNL A   1      33.585  28.976  28.190  1.00  0.00    -0.744 OA
ENDBRANCH  78  81
ENDBRANCH  50  74
BRANCH  62  85
ATOM     85  C   UNL A   1      40.345  32.485  35.269  1.00  0.00     0.023 A 
ATOM     86  C   UNL A   1      40.989  33.739  35.254  1.00  0.00     0.012 A 
ATOM     87  C   UNL A   1      39.386  32.214  36.266  1.00  0.00     0.148 A 
ATOM     88  C   UNL A   1      40.711  34.691  36.236  1.00  0.00     0.002 A 
ATOM     89  C   UNL A   1      39.075  33.187  37.207  1.00  0.00     0.091 A 
ATOM     90  F   UNL A   1      38.795  31.010  36.273  1.00  0.00    -0.205 F 
ATOM     91  C   UNL A   1      39.747  34.420  37.204  1.00  0.00     0.022 A 
BRANCH  89  92
ATOM     92  S   UNL A   1      37.777  32.966  38.430  1.00  0.00     0.127 S 
ATOM     93  O   UNL A   1      36.574  33.028  37.602  1.00  0.00    -0.237 OA
ATOM     94  O   UNL A   1      38.081  31.638  38.965  1.00  0.00    -0.237 OA
ATOM     95  O   UNL A   1      37.933  34.054  39.385  1.00  0.00    -0.744 OA
ENDBRANCH  89  92
ENDBRANCH  62  85
ENDBRANCH  36  37
ENDBRANCH  29  31
ENDBRANCH  28  29
ENDBRANCH  27  28
ENDBRANCH  26  27
ENDBRANCH  25  26
ENDBRANCH   1  25
TORSDOF 22
ENDMDL
MODEL 3
REMARK VINA RESULT:     -10.3      4.911     11.300
REMARK SMILES O=C(CS[C@@H]1CCS(=O)(=O)C1)Nc1nc(CC(=O)OCCOCCOC(=O)c2ccc(-c3c4nc(c(-c5cccc(S(=O)(=O)[O-])c5F)c5ccc([nH]5)c(-c5cccc(S(=O)(=O)[O-])c5F)c5nc(c(-c6cccc(S(=O)(=O)[O-])c6F)c6ccc3[nH]6)C=C5)C=C4)cc2)cs1
REMARK SMILES IDX 21 1 20 2 19 3 17 4 18 5 16 6 15 7 13 8 14 9 92 10 91 11
REMARK SMILES IDX 12 12 1 13 2 14 3 16 4 17 5 18 6 19 11 20 7 21 8 22 9 23
REMARK SMILES IDX 10 24 22 25 23 26 24 27 25 28 26 29 27 30 28 31 29 32 90 33
REMARK SMILES IDX 30 34 89 35 31 36 32 37 33 38 83 39 34 40 88 41 82 42 84 43
REMARK SMILES IDX 35 44 87 45 81 46 80 47 36 49 68 50 48 51 67 52 49 53 52 54
REMARK SMILES IDX 66 55 85 56 50 57 51 58 65 60 86 61 53 62 37 63 38 64 46 65
REMARK SMILES IDX 39 66 41 67 47 68 40 69 42 70 43 71 44 72 45 73 69 74 70 75
REMARK SMILES IDX 78 76 71 77 73 78 79 79 72 80 74 81 75 82 76 83 77 84 54 85
REMARK SMILES IDX 55 86 63 87 56 88 58 89 64 90 57 91 59 92 60 93 61 94 62 95
REMARK H PARENT 12 15 84 48 52 59
REMARK Flexibility Score: inf
ROOT
ATOM      1  C   UNL A   1      43.081  17.839  26.492  1.00  0.00     0.202 C 
ENDROOT
BRANCH   1   2
ATOM      2  C   UNL A   1      43.922  18.375  25.329  1.00  0.00     0.261 C 
BRANCH   2   3
ATOM      3  O   UNL A   1      45.335  18.286  25.581  1.00  0.00    -0.463 OA
BRANCH   3   4
ATOM      4  C   UNL A   1      46.098  19.275  25.045  1.00  0.00     0.311 C 
ATOM      5  O   UNL A   1      47.328  19.283  25.052  1.00  0.00    -0.252 OA
BRANCH   4   6
ATOM      6  C   UNL A   1      45.317  20.393  24.402  1.00  0.00     0.179 C 
BRANCH   6   7
ATOM      7  C   UNL A   1      45.653  21.786  24.822  1.00  0.00     0.065 A 
ATOM      8  C   UNL A   1      45.875  23.336  26.381  1.00  0.00     0.189 A 
ATOM      9  N   UNL A   1      45.432  22.133  26.141  1.00  0.00    -0.224 NA
ATOM     10  S   UNL A   1      46.500  24.186  25.041  1.00  0.00    -0.105 S 
ATOM     11  C   UNL A   1      46.320  22.759  24.097  1.00  0.00     0.093 A 
BRANCH   8  12
ATOM     12  N   UNL A   1      46.085  23.945  27.585  1.00  0.00    -0.301 N 
ATOM     13  O   UNL A   1      48.361  24.304  27.295  1.00  0.00    -0.274 OA
ATOM     14  C   UNL A   1      47.302  24.523  27.875  1.00  0.00     0.236 C 
ATOM     15  H   UNL A   1      45.362  23.970  28.252  1.00  0.00     0.172 HD
BRANCH  14  16
ATOM     16  C   UNL A   1      47.271  25.527  29.018  1.00  0.00     0.170 C 
BRANCH  16  17
ATOM     17  S   UNL A   1      45.592  25.938  29.634  1.00  0.00    -0.148 SA
BRANCH  17  18
ATOM     18  C   UNL A   1      45.828  27.053  31.088  1.00  0.00     0.063 C 
ATOM     19  C   UNL A   1      45.440  28.506  30.785  1.00  0.00     0.031 C 
ATOM     20  C   UNL A   1      47.152  27.072  31.849  1.00  0.00     0.151 C 
ATOM     21  C   UNL A   1      46.697  29.243  30.359  1.00  0.00     0.138 C 
ATOM     22  S   UNL A   1      47.990  28.574  31.382  1.00  0.00     0.151 S 
ATOM     23  O   UNL A   1      49.126  28.232  30.555  1.00  0.00    -0.229 OA
ATOM     24  O   UNL A   1      48.115  29.413  32.554  1.00  0.00    -0.229 OA
ENDBRANCH  17  18
ENDBRANCH  16  17
ENDBRANCH  14  16
ENDBRANCH   8  12
ENDBRANCH   6   7
ENDBRANCH   4   6
ENDBRANCH   3   4
ENDBRANCH   2   3
ENDBRANCH   1   2
BRANCH   1  25
ATOM     25  O   UNL A   1      42.612  18.779  27.458  1.00  0.00    -0.374 OA
BRANCH  25  26
ATOM     26  C   UNL A   1      42.119  20.028  26.981  1.00  0.00     0.202 C 
BRANCH  26  27
ATOM     27  C   UNL A   1      40.823  20.017  26.157  1.00  0.00     0.261 C 
BRANCH  27  28
ATOM     28  O   UNL A   1      39.710  20.614  26.843  1.00  0.00    -0.460 OA
BRANCH  28  29
ATOM     29  C   UNL A   1      39.159  21.670  26.193  1.00  0.00     0.338 C 
ATOM     30  O   UNL A   1      38.325  21.626  25.302  1.00  0.00    -0.246 OA
BRANCH  29  31
ATOM     31  C   UNL A   1      39.556  22.941  26.825  1.00  0.00     0.060 A 
ATOM     32  C   UNL A   1      38.938  24.106  26.355  1.00  0.00     0.016 A 
ATOM     33  C   UNL A   1      40.583  23.010  27.768  1.00  0.00     0.016 A 
ATOM     34  C   UNL A   1      39.386  25.353  26.780  1.00  0.00     0.010 A 
ATOM     35  C   UNL A   1      41.034  24.266  28.190  1.00  0.00     0.010 A 
ATOM     36  C   UNL A   1      40.467  25.444  27.666  1.00  0.00    -0.014 A 
BRANCH  36  37
ATOM     37  C   UNL A   1      41.079  26.770  27.930  1.00  0.00     0.031 A 
ATOM     38  C   UNL A   1      42.418  27.098  27.328  1.00  0.00     0.074 A 
ATOM     39  C   UNL A   1      40.433  27.683  28.677  1.00  0.00     0.049 A 
ATOM     40  N   UNL A   1      43.131  28.189  27.436  1.00  0.00    -0.248 NA
ATOM     41  C   UNL A   1      43.040  26.057  26.491  1.00  0.00     0.031 C 
ATOM     42  C   UNL A   1      39.128  27.486  29.306  1.00  0.00     0.029 A 
ATOM     43  N   UNL A   1      40.799  28.952  29.048  1.00  0.00    -0.354 N 
ATOM     44  C   UNL A   1      44.294  27.957  26.712  1.00  0.00     0.074 A 
ATOM     45  C   UNL A   1      44.200  26.616  26.180  1.00  0.00     0.031 C 
ATOM     46  C   UNL A   1      38.810  28.589  30.005  1.00  0.00     0.029 A 
ATOM     47  C   UNL A   1      39.902  29.555  29.898  1.00  0.00     0.049 A 
ATOM     48  H   UNL A   1      41.624  29.389  28.736  1.00  0.00     0.167 HD
ATOM     49  C   UNL A   1      45.341  28.790  26.501  1.00  0.00     0.034 A 
ATOM     50  C   UNL A   1      39.966  30.740  30.537  1.00  0.00     0.034 A 
ATOM     51  C   UNL A   1      45.423  30.130  27.018  1.00  0.00     0.049 A 
ATOM     52  C   UNL A   1      41.156  31.635  30.308  1.00  0.00     0.074 A 
ATOM     53  C   UNL A   1      46.420  31.069  26.818  1.00  0.00     0.029 A 
ATOM     54  N   UNL A   1      44.484  30.716  27.851  1.00  0.00    -0.354 N 
ATOM     55  N   UNL A   1      42.197  31.445  29.534  1.00  0.00    -0.248 NA
ATOM     56  C   UNL A   1      41.164  32.923  31.018  1.00  0.00     0.031 C 
ATOM     57  C   UNL A   1      46.102  32.208  27.564  1.00  0.00     0.029 A 
ATOM     58  C   UNL A   1      44.885  31.997  28.191  1.00  0.00     0.049 A 
ATOM     59  H   UNL A   1      43.652  30.286  28.157  1.00  0.00     0.167 HD
ATOM     60  C   UNL A   1      42.964  32.602  29.633  1.00  0.00     0.074 A 
ATOM     61  C   UNL A   1      42.255  33.495  30.528  1.00  0.00     0.031 C 
ATOM     62  C   UNL A   1      44.150  32.895  29.045  1.00  0.00     0.034 A 
BRANCH  49  63
ATOM     63  C   UNL A   1      46.486  28.280  25.662  1.00  0.00     0.023 A 
ATOM     64  C   UNL A   1      46.347  28.186  24.262  1.00  0.00     0.012 A 
ATOM     65  C   UNL A   1      47.719  27.948  26.257  1.00  0.00     0.148 A 
ATOM     66  C   UNL A   1      47.404  27.738  23.471  1.00  0.00     0.002 A 
ATOM     67  C   UNL A   1      48.784  27.547  25.458  1.00  0.00     0.091 A 
ATOM     68  F   UNL A   1      47.827  28.023  27.590  1.00  0.00    -0.205 F 
ATOM     69  C   UNL A   1      48.624  27.428  24.068  1.00  0.00     0.022 A 
BRANCH  67  70
ATOM     70  S   UNL A   1      50.417  27.201  26.120  1.00  0.00     0.127 S 
ATOM     71  O   UNL A   1      50.133  27.065  27.548  1.00  0.00    -0.237 OA
ATOM     72  O   UNL A   1      50.762  25.949  25.447  1.00  0.00    -0.237 OA
ATOM     73  O   UNL A   1      51.250  28.337  25.757  1.00  0.00    -0.744 OA
ENDBRANCH  67  70
ENDBRANCH  49  63
BRANCH  50  74
ATOM     74  C   UNL A   1      38.860  31.160  31.442  1.00  0.00     0.023 A 
ATOM     75  C   UNL A   1      38.947  30.898  32.823  1.00  0.00     0.012 A 
ATOM     76  C   UNL A   1      37.724  31.824  30.940  1.00  0.00     0.148 A 
ATOM     77  C   UNL A   1      37.909  31.260  33.683  1.00  0.00     0.002 A 
ATOM     78  C   UNL A   1      36.720  32.232  31.809  1.00  0.00     0.091 A 
ATOM     79  F   UNL A   1      37.653  32.050  29.620  1.00  0.00    -0.205 F 
ATOM     80  C   UNL A   1      36.802  31.935  33.178  1.00  0.00     0.022 A 
BRANCH  78  81
ATOM     81  S   UNL A   1      35.315  33.211  31.269  1.00  0.00     0.127 S 
ATOM     82  O   UNL A   1      35.388  33.063  29.817  1.00  0.00    -0.237 OA
ATOM     83  O   UNL A   1      34.201  32.508  31.906  1.00  0.00    -0.237 OA
ATOM     84  O   UNL A   1      35.551  34.555  31.778  1.00  0.00    -0.744 OA
ENDBRANCH  78  81
ENDBRANCH  50  74
BRANCH  62  85
ATOM     85  C   UNL A   1      44.745  34.256  29.306  1.00  0.00     0.023 A 
ATOM     86  C   UNL A   1      45.675  34.433  30.349  1.00  0.00     0.012 A 
ATOM     87  C   UNL A   1      44.432  35.344  28.467  1.00  0.00     0.148 A 
ATOM     88  C   UNL A   1      46.255  35.682  30.578  1.00  0.00     0.002 A 
ATOM     89  C   UNL A   1      45.055  36.570  28.667  1.00  0.00     0.091 A 
ATOM     90  F   UNL A   1      43.533  35.160  27.489  1.00  0.00    -0.205 F 
ATOM     91  C   UNL A   1      45.954  36.745  29.731  1.00  0.00     0.022 A 
BRANCH  89  92
ATOM     92  S   UNL A   1      44.807  37.969  27.566  1.00  0.00     0.127 S 
ATOM     93  O   UNL A   1      45.936  37.830  26.648  1.00  0.00    -0.237 OA
ATOM     94  O   UNL A   1      43.501  37.668  26.976  1.00  0.00    -0.237 OA
ATOM     95  O   UNL A   1      44.831  39.155  28.409  1.00  0.00    -0.744 OA
ENDBRANCH  89  92
ENDBRANCH  62  85
ENDBRANCH  36  37
ENDBRANCH  29  31
ENDBRANCH  28  29
ENDBRANCH  27  28
ENDBRANCH  26  27
ENDBRANCH  25  26
ENDBRANCH   1  25
TORSDOF 22
ENDMDL
