MODEL 1
REMARK VINA RESULT:      -8.8      0.000      0.000
REMARK SMILES COC(=O)c1cc(F)cc(-c2ccc(C(=O)OCCOCCOC(=O)c3ccc(-c4c5nc(c(-c6cccc(S(=O)(=O)[O-])c6F)c6ccc([nH]6)c(-c6cccc(S(=O)(=O)[O-])c6F)c6nc(c(-c7cccc(S(=O)(=O)[O-])c7F)c7ccc4[nH]7)C=C6)C=C5)cc3)cc2C)c1
REMARK SMILES IDX 20 1 19 2 18 3 17 4 15 5 16 6 14 7 11 8 12 9 90 10 13 11
REMARK SMILES IDX 89 12 91 13 10 14 5 15 6 16 92 17 7 18 8 19 9 20 3 21 4 22
REMARK SMILES IDX 2 23 1 24 21 25 22 26 23 27 24 28 25 29 26 30 27 31 88 32
REMARK SMILES IDX 28 33 87 34 29 35 30 36 31 37 81 38 32 39 86 40 80 41 82 42
REMARK SMILES IDX 33 43 85 44 79 45 78 46 34 48 66 49 46 50 65 51 47 52 50 53
REMARK SMILES IDX 64 54 83 55 48 56 49 57 63 59 84 60 51 61 35 62 36 63 44 64
REMARK SMILES IDX 37 65 39 66 45 67 38 68 40 69 41 70 42 71 43 72 67 73 68 74
REMARK SMILES IDX 76 75 69 76 71 77 77 78 70 79 72 80 73 81 74 82 75 83 52 84
REMARK SMILES IDX 53 85 61 86 54 87 56 88 62 89 55 90 57 91 58 92 59 93 60 94
REMARK H PARENT 82 47 50 58
REMARK Flexibility Score: inf
ROOT
ATOM      1  O   UNL A   1      34.549  34.231  31.156  1.00  0.00    -0.374 OA
ENDROOT
BRANCH   1   2
ATOM      2  C   UNL A   1      34.691  32.927  31.715  1.00  0.00     0.202 C 
BRANCH   2   3
ATOM      3  C   UNL A   1      34.979  33.111  33.206  1.00  0.00     0.261 C 
BRANCH   3   4
ATOM      4  O   UNL A   1      36.376  32.847  33.409  1.00  0.00    -0.460 OA
BRANCH   4   5
ATOM      5  C   UNL A   1      37.098  33.924  33.806  1.00  0.00     0.338 C 
ATOM      6  O   UNL A   1      36.934  34.579  34.824  1.00  0.00    -0.246 OA
BRANCH   5   7
ATOM      7  C   UNL A   1      38.247  34.093  32.879  1.00  0.00     0.060 A 
ATOM      8  C   UNL A   1      40.399  34.303  31.077  1.00  0.00    -0.015 A 
ATOM      9  C   UNL A   1      40.600  34.430  32.466  1.00  0.00     0.010 A 
ATOM     10  C   UNL A   1      39.082  34.189  30.584  1.00  0.00    -0.042 A 
ATOM     11  C   UNL A   1      39.541  34.318  33.357  1.00  0.00     0.016 A 
ATOM     12  C   UNL A   1      38.015  34.092  31.499  1.00  0.00     0.019 A 
ATOM     13  C   UNL A   1      38.754  34.173  29.115  1.00  0.00     0.045 C 
BRANCH   8  14
ATOM     14  C   UNL A   1      41.588  34.073  30.250  1.00  0.00    -0.014 A 
ATOM     15  C   UNL A   1      43.163  32.423  29.364  1.00  0.00     0.063 A 
ATOM     16  C   UNL A   1      43.861  33.437  28.711  1.00  0.00     0.055 A 
ATOM     17  C   UNL A   1      42.031  32.744  30.115  1.00  0.00     0.024 A 
ATOM     18  C   UNL A   1      43.418  34.752  28.833  1.00  0.00     0.124 A 
ATOM     19  F   UNL A   1      44.084  35.725  28.197  1.00  0.00    -0.207 F 
ATOM     20  C   UNL A   1      42.299  35.083  29.600  1.00  0.00     0.048 A 
BRANCH  15  21
ATOM     21  C   UNL A   1      43.552  30.996  29.305  1.00  0.00     0.337 C 
ATOM     22  O   UNL A   1      44.064  30.401  30.240  1.00  0.00    -0.246 OA
BRANCH  21  23
ATOM     23  O   UNL A   1      43.333  30.498  28.065  1.00  0.00    -0.465 OA
ATOM     24  C   UNL A   1      43.775  29.147  27.921  1.00  0.00     0.282 C 
ENDBRANCH  21  23
ENDBRANCH  15  21
ENDBRANCH   8  14
ENDBRANCH   5   7
ENDBRANCH   4   5
ENDBRANCH   3   4
ENDBRANCH   2   3
ENDBRANCH   1   2
BRANCH   1  25
ATOM     25  C   UNL A   1      34.557  34.323  29.744  1.00  0.00     0.202 C 
BRANCH  25  26
ATOM     26  C   UNL A   1      35.189  33.127  29.033  1.00  0.00     0.261 C 
BRANCH  26  27
ATOM     27  O   UNL A   1      34.295  32.449  28.136  1.00  0.00    -0.460 OA
BRANCH  27  28
ATOM     28  C   UNL A   1      34.610  31.246  27.576  1.00  0.00     0.338 C 
ATOM     29  O   UNL A   1      33.790  30.646  26.888  1.00  0.00    -0.246 OA
BRANCH  28  30
ATOM     30  C   UNL A   1      35.778  30.508  28.139  1.00  0.00     0.060 A 
ATOM     31  C   UNL A   1      36.977  30.539  27.403  1.00  0.00     0.016 A 
ATOM     32  C   UNL A   1      35.742  29.794  29.337  1.00  0.00     0.016 A 
ATOM     33  C   UNL A   1      38.106  29.830  27.836  1.00  0.00     0.010 A 
ATOM     34  C   UNL A   1      36.845  29.034  29.738  1.00  0.00     0.010 A 
ATOM     35  C   UNL A   1      38.045  29.067  29.009  1.00  0.00    -0.014 A 
BRANCH  35  36
ATOM     36  C   UNL A   1      39.276  28.585  29.684  1.00  0.00     0.031 A 
ATOM     37  C   UNL A   1      39.938  29.306  30.820  1.00  0.00     0.074 A 
ATOM     38  C   UNL A   1      39.865  27.518  29.111  1.00  0.00     0.049 A 
ATOM     39  N   UNL A   1      41.065  29.020  31.422  1.00  0.00    -0.248 NA
ATOM     40  C   UNL A   1      39.258  30.493  31.353  1.00  0.00     0.031 C 
ATOM     41  C   UNL A   1      39.312  26.779  27.971  1.00  0.00     0.029 A 
ATOM     42  N   UNL A   1      41.073  26.919  29.345  1.00  0.00    -0.354 N 
ATOM     43  C   UNL A   1      41.236  29.988  32.407  1.00  0.00     0.074 A 
ATOM     44  C   UNL A   1      40.096  30.879  32.310  1.00  0.00     0.031 C 
ATOM     45  C   UNL A   1      40.210  25.878  27.555  1.00  0.00     0.029 A 
ATOM     46  C   UNL A   1      41.392  25.971  28.402  1.00  0.00     0.049 A 
ATOM     47  H   UNL A   1      41.652  27.144  30.107  1.00  0.00     0.167 HD
ATOM     48  C   UNL A   1      42.246  30.105  33.306  1.00  0.00     0.034 A 
ATOM     49  C   UNL A   1      42.517  25.257  28.226  1.00  0.00     0.034 A 
ATOM     50  C   UNL A   1      43.385  29.218  33.351  1.00  0.00     0.049 A 
ATOM     51  C   UNL A   1      43.620  25.404  29.227  1.00  0.00     0.074 A 
ATOM     52  C   UNL A   1      44.435  29.204  34.254  1.00  0.00     0.029 A 
ATOM     53  N   UNL A   1      43.640  28.203  32.437  1.00  0.00    -0.354 N 
ATOM     54  N   UNL A   1      43.697  26.225  30.245  1.00  0.00    -0.248 NA
ATOM     55  C   UNL A   1      44.756  24.486  29.098  1.00  0.00     0.031 C 
ATOM     56  C   UNL A   1      45.338  28.208  33.868  1.00  0.00     0.029 A 
ATOM     57  C   UNL A   1      44.830  27.563  32.750  1.00  0.00     0.049 A 
ATOM     58  H   UNL A   1      43.059  27.970  31.678  1.00  0.00     0.167 HD
ATOM     59  C   UNL A   1      44.867  25.892  30.913  1.00  0.00     0.074 A 
ATOM     60  C   UNL A   1      45.461  24.789  30.181  1.00  0.00     0.031 C 
ATOM     61  C   UNL A   1      45.396  26.448  32.031  1.00  0.00     0.034 A 
BRANCH  48  62
ATOM     62  C   UNL A   1      42.157  31.188  34.361  1.00  0.00     0.023 A 
ATOM     63  C   UNL A   1      41.449  30.928  35.554  1.00  0.00     0.012 A 
ATOM     64  C   UNL A   1      42.872  32.399  34.243  1.00  0.00     0.148 A 
ATOM     65  C   UNL A   1      41.433  31.858  36.595  1.00  0.00     0.002 A 
ATOM     66  C   UNL A   1      42.887  33.302  35.303  1.00  0.00     0.091 A 
ATOM     67  F   UNL A   1      43.539  32.639  33.105  1.00  0.00    -0.205 F 
ATOM     68  C   UNL A   1      42.160  33.037  36.475  1.00  0.00     0.022 A 
BRANCH  66  69
ATOM     69  S   UNL A   1      43.866  34.812  35.293  1.00  0.00     0.127 S 
ATOM     70  O   UNL A   1      45.215  34.291  35.072  1.00  0.00    -0.237 OA
ATOM     71  O   UNL A   1      43.302  35.538  34.154  1.00  0.00    -0.237 OA
ATOM     72  O   UNL A   1      43.648  35.445  36.586  1.00  0.00    -0.744 OA
ENDBRANCH  66  69
ENDBRANCH  48  62
BRANCH  49  73
ATOM     73  C   UNL A   1      42.559  24.255  27.128  1.00  0.00     0.023 A 
ATOM     74  C   UNL A   1      43.302  24.551  25.970  1.00  0.00     0.012 A 
ATOM     75  C   UNL A   1      41.999  22.971  27.283  1.00  0.00     0.148 A 
ATOM     76  C   UNL A   1      43.478  23.588  24.978  1.00  0.00     0.002 A 
ATOM     77  C   UNL A   1      42.221  22.001  26.313  1.00  0.00     0.091 A 
ATOM     78  F   UNL A   1      41.306  22.711  28.402  1.00  0.00    -0.205 F 
ATOM     79  C   UNL A   1      42.951  22.313  25.154  1.00  0.00     0.022 A 
BRANCH  77  80
ATOM     80  S   UNL A   1      41.710  20.291  26.515  1.00  0.00     0.127 S 
ATOM     81  O   UNL A   1      40.256  20.418  26.571  1.00  0.00    -0.237 OA
ATOM     82  O   UNL A   1      42.228  19.676  25.292  1.00  0.00    -0.237 OA
ATOM     83  O   UNL A   1      42.348  19.826  27.740  1.00  0.00    -0.744 OA
ENDBRANCH  77  80
ENDBRANCH  49  73
BRANCH  61  84
ATOM     84  C   UNL A   1      46.675  25.850  32.559  1.00  0.00     0.023 A 
ATOM     85  C   UNL A   1      47.919  26.353  32.131  1.00  0.00     0.012 A 
ATOM     86  C   UNL A   1      46.639  24.827  33.527  1.00  0.00     0.148 A 
ATOM     87  C   UNL A   1      49.108  25.821  32.628  1.00  0.00     0.002 A 
ATOM     88  C   UNL A   1      47.825  24.342  34.061  1.00  0.00     0.091 A 
ATOM     89  F   UNL A   1      45.446  24.345  33.906  1.00  0.00    -0.205 F 
ATOM     90  C   UNL A   1      49.061  24.826  33.602  1.00  0.00     0.022 A 
BRANCH  88  91
ATOM     91  S   UNL A   1      47.861  23.137  35.392  1.00  0.00     0.127 S 
ATOM     92  O   UNL A   1      47.152  22.009  34.792  1.00  0.00    -0.237 OA
ATOM     93  O   UNL A   1      49.296  22.924  35.580  1.00  0.00    -0.237 OA
ATOM     94  O   UNL A   1      47.190  23.766  36.522  1.00  0.00    -0.744 OA
ENDBRANCH  88  91
ENDBRANCH  61  84
ENDBRANCH  35  36
ENDBRANCH  28  30
ENDBRANCH  27  28
ENDBRANCH  26  27
ENDBRANCH  25  26
ENDBRANCH   1  25
TORSDOF 20
ENDMDL
MODEL 2
REMARK VINA RESULT:      -8.6      4.282      7.981
REMARK SMILES COC(=O)c1cc(F)cc(-c2ccc(C(=O)OCCOCCOC(=O)c3ccc(-c4c5nc(c(-c6cccc(S(=O)(=O)[O-])c6F)c6ccc([nH]6)c(-c6cccc(S(=O)(=O)[O-])c6F)c6nc(c(-c7cccc(S(=O)(=O)[O-])c7F)c7ccc4[nH]7)C=C6)C=C5)cc3)cc2C)c1
REMARK SMILES IDX 20 1 19 2 18 3 17 4 15 5 16 6 14 7 11 8 12 9 90 10 13 11
REMARK SMILES IDX 89 12 91 13 10 14 5 15 6 16 92 17 7 18 8 19 9 20 3 21 4 22
REMARK SMILES IDX 2 23 1 24 21 25 22 26 23 27 24 28 25 29 26 30 27 31 88 32
REMARK SMILES IDX 28 33 87 34 29 35 30 36 31 37 81 38 32 39 86 40 80 41 82 42
REMARK SMILES IDX 33 43 85 44 79 45 78 46 34 48 66 49 46 50 65 51 47 52 50 53
REMARK SMILES IDX 64 54 83 55 48 56 49 57 63 59 84 60 51 61 35 62 36 63 44 64
REMARK SMILES IDX 37 65 39 66 45 67 38 68 40 69 41 70 42 71 43 72 67 73 68 74
REMARK SMILES IDX 76 75 69 76 71 77 77 78 70 79 72 80 73 81 74 82 75 83 52 84
REMARK SMILES IDX 53 85 61 86 54 87 56 88 62 89 55 90 57 91 58 92 59 93 60 94
REMARK H PARENT 82 47 50 58
REMARK Flexibility Score: inf
ROOT
ATOM      1  O   UNL A   1      32.543  30.025  25.914  1.00  0.00    -0.374 OA
ENDROOT
BRANCH   1   2
ATOM      2  C   UNL A   1      32.561  29.329  24.669  1.00  0.00     0.202 C 
BRANCH   2   3
ATOM      3  C   UNL A   1      31.121  29.293  24.158  1.00  0.00     0.261 C 
BRANCH   3   4
ATOM      4  O   UNL A   1      30.657  27.940  24.274  1.00  0.00    -0.460 OA
BRANCH   4   5
ATOM      5  C   UNL A   1      30.763  27.210  23.136  1.00  0.00     0.338 C 
ATOM      6  O   UNL A   1      30.506  27.584  22.001  1.00  0.00    -0.246 OA
BRANCH   5   7
ATOM      7  C   UNL A   1      31.405  25.911  23.462  1.00  0.00     0.060 A 
ATOM      8  C   UNL A   1      32.699  23.509  24.154  1.00  0.00    -0.015 A 
ATOM      9  C   UNL A   1      32.583  23.909  22.808  1.00  0.00     0.010 A 
ATOM     10  C   UNL A   1      32.052  24.268  25.152  1.00  0.00    -0.042 A 
ATOM     11  C   UNL A   1      31.952  25.099  22.465  1.00  0.00     0.016 A 
ATOM     12  C   UNL A   1      31.402  25.463  24.788  1.00  0.00     0.019 A 
ATOM     13  C   UNL A   1      32.013  23.855  26.599  1.00  0.00     0.045 C 
BRANCH   8  14
ATOM     14  C   UNL A   1      33.673  22.455  24.453  1.00  0.00    -0.014 A 
ATOM     15  C   UNL A   1      34.079  20.048  24.628  1.00  0.00     0.063 A 
ATOM     16  C   UNL A   1      35.398  20.294  25.001  1.00  0.00     0.055 A 
ATOM     17  C   UNL A   1      33.233  21.121  24.347  1.00  0.00     0.024 A 
ATOM     18  C   UNL A   1      35.840  21.612  25.096  1.00  0.00     0.124 A 
ATOM     19  F   UNL A   1      37.111  21.849  25.446  1.00  0.00    -0.207 F 
ATOM     20  C   UNL A   1      34.994  22.692  24.837  1.00  0.00     0.048 A 
BRANCH  15  21
ATOM     21  C   UNL A   1      33.507  18.687  24.504  1.00  0.00     0.337 C 
ATOM     22  O   UNL A   1      33.431  18.084  23.446  1.00  0.00    -0.246 OA
BRANCH  21  23
ATOM     23  O   UNL A   1      33.022  18.269  25.698  1.00  0.00    -0.465 OA
ATOM     24  C   UNL A   1      32.530  16.929  25.661  1.00  0.00     0.282 C 
ENDBRANCH  21  23
ENDBRANCH  15  21
ENDBRANCH   8  14
ENDBRANCH   5   7
ENDBRANCH   4   5
ENDBRANCH   3   4
ENDBRANCH   2   3
ENDBRANCH   1   2
BRANCH   1  25
ATOM     25  C   UNL A   1      31.441  30.881  26.149  1.00  0.00     0.202 C 
BRANCH  25  26
ATOM     26  C   UNL A   1      31.779  32.154  26.924  1.00  0.00     0.261 C 
BRANCH  26  27
ATOM     27  O   UNL A   1      33.138  32.588  26.757  1.00  0.00    -0.460 OA
BRANCH  27  28
ATOM     28  C   UNL A   1      33.844  33.157  27.776  1.00  0.00     0.338 C 
ATOM     29  O   UNL A   1      33.765  34.362  27.992  1.00  0.00    -0.246 OA
BRANCH  28  30
ATOM     30  C   UNL A   1      34.991  32.383  28.336  1.00  0.00     0.060 A 
ATOM     31  C   UNL A   1      36.244  33.023  28.377  1.00  0.00     0.016 A 
ATOM     32  C   UNL A   1      34.888  31.073  28.806  1.00  0.00     0.016 A 
ATOM     33  C   UNL A   1      37.381  32.347  28.839  1.00  0.00     0.010 A 
ATOM     34  C   UNL A   1      36.032  30.377  29.207  1.00  0.00     0.010 A 
ATOM     35  C   UNL A   1      37.282  31.013  29.255  1.00  0.00    -0.014 A 
BRANCH  35  36
ATOM     36  C   UNL A   1      38.353  30.371  30.057  1.00  0.00     0.031 A 
ATOM     37  C   UNL A   1      38.789  30.859  31.406  1.00  0.00     0.074 A 
ATOM     38  C   UNL A   1      39.032  29.391  29.428  1.00  0.00     0.049 A 
ATOM     39  N   UNL A   1      39.774  30.426  32.152  1.00  0.00    -0.248 NA
ATOM     40  C   UNL A   1      38.030  31.967  32.000  1.00  0.00     0.031 C 
ATOM     41  C   UNL A   1      38.704  28.881  28.093  1.00  0.00     0.029 A 
ATOM     42  N   UNL A   1      40.165  28.710  29.779  1.00  0.00    -0.354 N 
ATOM     43  C   UNL A   1      39.759  31.204  33.305  1.00  0.00     0.074 A 
ATOM     44  C   UNL A   1      38.669  32.148  33.151  1.00  0.00     0.031 C 
ATOM     45  C   UNL A   1      39.657  28.026  27.705  1.00  0.00     0.029 A 
ATOM     46  C   UNL A   1      40.652  27.922  28.764  1.00  0.00     0.049 A 
ATOM     47  H   UNL A   1      40.587  28.776  30.665  1.00  0.00     0.167 HD
ATOM     48  C   UNL A   1      40.576  31.123  34.386  1.00  0.00     0.034 A 
ATOM     49  C   UNL A   1      41.783  27.199  28.682  1.00  0.00     0.034 A 
ATOM     50  C   UNL A   1      41.676  30.192  34.491  1.00  0.00     0.049 A 
ATOM     51  C   UNL A   1      42.671  27.126  29.885  1.00  0.00     0.074 A 
ATOM     52  C   UNL A   1      42.529  29.979  35.561  1.00  0.00     0.029 A 
ATOM     53  N   UNL A   1      42.093  29.336  33.479  1.00  0.00    -0.354 N 
ATOM     54  N   UNL A   1      42.556  27.758  31.027  1.00  0.00    -0.248 NA
ATOM     55  C   UNL A   1      43.801  26.195  29.816  1.00  0.00     0.031 C 
ATOM     56  C   UNL A   1      43.480  29.024  35.185  1.00  0.00     0.029 A 
ATOM     57  C   UNL A   1      43.193  28.602  33.895  1.00  0.00     0.049 A 
ATOM     58  H   UNL A   1      41.669  29.261  32.594  1.00  0.00     0.167 HD
ATOM     59  C   UNL A   1      43.570  27.266  31.836  1.00  0.00     0.074 A 
ATOM     60  C   UNL A   1      44.284  26.279  31.049  1.00  0.00     0.031 C 
ATOM     61  C   UNL A   1      43.877  27.601  33.114  1.00  0.00     0.034 A 
BRANCH  48  62
ATOM     62  C   UNL A   1      40.294  32.014  35.578  1.00  0.00     0.023 A 
ATOM     63  C   UNL A   1      41.088  33.164  35.779  1.00  0.00     0.012 A 
ATOM     64  C   UNL A   1      39.179  31.801  36.416  1.00  0.00     0.148 A 
ATOM     65  C   UNL A   1      40.794  34.067  36.802  1.00  0.00     0.002 A 
ATOM     66  C   UNL A   1      38.867  32.729  37.406  1.00  0.00     0.091 A 
ATOM     67  F   UNL A   1      38.433  30.705  36.220  1.00  0.00    -0.205 F 
ATOM     68  C   UNL A   1      39.679  33.857  37.606  1.00  0.00     0.022 A 
BRANCH  66  69
ATOM     69  S   UNL A   1      37.400  32.606  38.441  1.00  0.00     0.127 S 
ATOM     70  O   UNL A   1      37.383  31.180  38.764  1.00  0.00    -0.237 OA
ATOM     71  O   UNL A   1      37.741  33.479  39.565  1.00  0.00    -0.237 OA
ATOM     72  O   UNL A   1      36.288  33.071  37.624  1.00  0.00    -0.744 OA
ENDBRANCH  66  69
ENDBRANCH  48  62
BRANCH  49  73
ATOM     73  C   UNL A   1      42.027  26.397  27.454  1.00  0.00     0.023 A 
ATOM     74  C   UNL A   1      42.715  26.995  26.382  1.00  0.00     0.012 A 
ATOM     75  C   UNL A   1      41.719  25.023  27.401  1.00  0.00     0.148 A 
ATOM     76  C   UNL A   1      43.084  26.241  25.269  1.00  0.00     0.002 A 
ATOM     77  C   UNL A   1      42.133  24.267  26.311  1.00  0.00     0.091 A 
ATOM     78  F   UNL A   1      41.075  24.476  28.441  1.00  0.00    -0.205 F 
ATOM     79  C   UNL A   1      42.805  24.877  25.239  1.00  0.00     0.022 A 
BRANCH  77  80
ATOM     80  S   UNL A   1      41.954  22.481  26.244  1.00  0.00     0.127 S 
ATOM     81  O   UNL A   1      42.654  22.157  25.003  1.00  0.00    -0.237 OA
ATOM     82  O   UNL A   1      42.641  22.064  27.467  1.00  0.00    -0.237 OA
ATOM     83  O   UNL A   1      40.520  22.225  26.241  1.00  0.00    -0.744 OA
ENDBRANCH  77  80
ENDBRANCH  49  73
BRANCH  61  84
ATOM     84  C   UNL A   1      45.022  26.867  33.762  1.00  0.00     0.023 A 
ATOM     85  C   UNL A   1      46.328  27.392  33.692  1.00  0.00     0.012 A 
ATOM     86  C   UNL A   1      44.791  25.685  34.494  1.00  0.00     0.148 A 
ATOM     87  C   UNL A   1      47.392  26.731  34.306  1.00  0.00     0.002 A 
ATOM     88  C   UNL A   1      45.845  25.063  35.151  1.00  0.00     0.091 A 
ATOM     89  F   UNL A   1      43.546  25.188  34.531  1.00  0.00    -0.205 F 
ATOM     90  C   UNL A   1      47.148  25.576  35.045  1.00  0.00     0.022 A 
BRANCH  88  91
ATOM     91  S   UNL A   1      45.610  23.633  36.211  1.00  0.00     0.127 S 
ATOM     92  O   UNL A   1      44.518  24.078  37.075  1.00  0.00    -0.237 OA
ATOM     93  O   UNL A   1      45.241  22.593  35.250  1.00  0.00    -0.237 OA
ATOM     94  O   UNL A   1      46.885  23.414  36.879  1.00  0.00    -0.744 OA
ENDBRANCH  88  91
ENDBRANCH  61  84
ENDBRANCH  35  36
ENDBRANCH  28  30
ENDBRANCH  27  28
ENDBRANCH  26  27
ENDBRANCH  25  26
ENDBRANCH   1  25
TORSDOF 20
ENDMDL
MODEL 3
REMARK VINA RESULT:      -8.5      1.426      7.808
REMARK SMILES COC(=O)c1cc(F)cc(-c2ccc(C(=O)OCCOCCOC(=O)c3ccc(-c4c5nc(c(-c6cccc(S(=O)(=O)[O-])c6F)c6ccc([nH]6)c(-c6cccc(S(=O)(=O)[O-])c6F)c6nc(c(-c7cccc(S(=O)(=O)[O-])c7F)c7ccc4[nH]7)C=C6)C=C5)cc3)cc2C)c1
REMARK SMILES IDX 20 1 19 2 18 3 17 4 15 5 16 6 14 7 11 8 12 9 90 10 13 11
REMARK SMILES IDX 89 12 91 13 10 14 5 15 6 16 92 17 7 18 8 19 9 20 3 21 4 22
REMARK SMILES IDX 2 23 1 24 21 25 22 26 23 27 24 28 25 29 26 30 27 31 88 32
REMARK SMILES IDX 28 33 87 34 29 35 30 36 31 37 81 38 32 39 86 40 80 41 82 42
REMARK SMILES IDX 33 43 85 44 79 45 78 46 34 48 66 49 46 50 65 51 47 52 50 53
REMARK SMILES IDX 64 54 83 55 48 56 49 57 63 59 84 60 51 61 35 62 36 63 44 64
REMARK SMILES IDX 37 65 39 66 45 67 38 68 40 69 41 70 42 71 43 72 67 73 68 74
REMARK SMILES IDX 76 75 69 76 71 77 77 78 70 79 72 80 73 81 74 82 75 83 52 84
REMARK SMILES IDX 53 85 61 86 54 87 56 88 62 89 55 90 57 91 58 92 59 93 60 94
REMARK H PARENT 82 47 50 58
REMARK Flexibility Score: inf
ROOT
ATOM      1  O   UNL A   1      34.211  34.060  31.692  1.00  0.00    -0.374 OA
ENDROOT
BRANCH   1   2
ATOM      2  C   UNL A   1      34.737  32.826  32.176  1.00  0.00     0.202 C 
BRANCH   2   3
ATOM      3  C   UNL A   1      35.214  33.076  33.608  1.00  0.00     0.261 C 
BRANCH   3   4
ATOM      4  O   UNL A   1      36.637  32.888  33.625  1.00  0.00    -0.460 OA
BRANCH   4   5
ATOM      5  C   UNL A   1      37.347  34.004  33.924  1.00  0.00     0.338 C 
ATOM      6  O   UNL A   1      37.222  34.706  34.916  1.00  0.00    -0.246 OA
BRANCH   5   7
ATOM      7  C   UNL A   1      38.435  34.158  32.923  1.00  0.00     0.060 A 
ATOM      8  C   UNL A   1      40.466  34.338  30.983  1.00  0.00    -0.015 A 
ATOM      9  C   UNL A   1      40.758  34.475  32.354  1.00  0.00     0.010 A 
ATOM     10  C   UNL A   1      39.119  34.228  30.578  1.00  0.00    -0.042 A 
ATOM     11  C   UNL A   1      39.758  34.377  33.314  1.00  0.00     0.016 A 
ATOM     12  C   UNL A   1      38.113  34.147  31.561  1.00  0.00     0.019 A 
ATOM     13  C   UNL A   1      38.697  34.202  29.133  1.00  0.00     0.045 C 
BRANCH   8  14
ATOM     14  C   UNL A   1      41.597  34.093  30.082  1.00  0.00    -0.014 A 
ATOM     15  C   UNL A   1      43.287  32.493  29.325  1.00  0.00     0.063 A 
ATOM     16  C   UNL A   1      43.789  33.440  28.436  1.00  0.00     0.055 A 
ATOM     17  C   UNL A   1      42.194  32.818  30.129  1.00  0.00     0.024 A 
ATOM     18  C   UNL A   1      43.193  34.698  28.379  1.00  0.00     0.124 A 
ATOM     19  F   UNL A   1      43.670  35.605  27.516  1.00  0.00    -0.207 F 
ATOM     20  C   UNL A   1      42.113  35.038  29.195  1.00  0.00     0.048 A 
BRANCH  15  21
ATOM     21  C   UNL A   1      43.850  31.131  29.471  1.00  0.00     0.337 C 
ATOM     22  O   UNL A   1      44.801  30.871  30.188  1.00  0.00    -0.246 OA
BRANCH  21  23
ATOM     23  O   UNL A   1      43.213  30.267  28.644  1.00  0.00    -0.465 OA
ATOM     24  C   UNL A   1      43.974  29.088  28.377  1.00  0.00     0.282 C 
ENDBRANCH  21  23
ENDBRANCH  15  21
ENDBRANCH   8  14
ENDBRANCH   5   7
ENDBRANCH   4   5
ENDBRANCH   3   4
ENDBRANCH   2   3
ENDBRANCH   1   2
BRANCH   1  25
ATOM     25  C   UNL A   1      34.158  34.222  30.287  1.00  0.00     0.202 C 
BRANCH  25  26
ATOM     26  C   UNL A   1      34.915  33.157  29.495  1.00  0.00     0.261 C 
BRANCH  26  27
ATOM     27  O   UNL A   1      34.070  32.125  28.961  1.00  0.00    -0.460 OA
BRANCH  27  28
ATOM     28  C   UNL A   1      34.526  31.221  28.046  1.00  0.00     0.338 C 
ATOM     29  O   UNL A   1      33.772  30.765  27.192  1.00  0.00    -0.246 OA
BRANCH  28  30
ATOM     30  C   UNL A   1      35.803  30.513  28.354  1.00  0.00     0.060 A 
ATOM     31  C   UNL A   1      36.856  30.650  27.431  1.00  0.00     0.016 A 
ATOM     32  C   UNL A   1      36.001  29.727  29.490  1.00  0.00     0.016 A 
ATOM     33  C   UNL A   1      38.070  29.976  27.620  1.00  0.00     0.010 A 
ATOM     34  C   UNL A   1      37.186  29.003  29.648  1.00  0.00     0.010 A 
ATOM     35  C   UNL A   1      38.242  29.142  28.732  1.00  0.00    -0.014 A 
BRANCH  35  36
ATOM     36  C   UNL A   1      39.589  28.686  29.157  1.00  0.00     0.031 A 
ATOM     37  C   UNL A   1      40.277  27.481  28.590  1.00  0.00     0.074 A 
ATOM     38  C   UNL A   1      40.110  29.342  30.213  1.00  0.00     0.049 A 
ATOM     39  N   UNL A   1      41.414  26.943  28.953  1.00  0.00    -0.248 NA
ATOM     40  C   UNL A   1      39.616  26.790  27.475  1.00  0.00     0.031 C 
ATOM     41  C   UNL A   1      39.486  30.501  30.859  1.00  0.00     0.029 A 
ATOM     42  N   UNL A   1      41.222  29.093  30.971  1.00  0.00    -0.354 N 
ATOM     43  C   UNL A   1      41.612  25.850  28.116  1.00  0.00     0.074 A 
ATOM     44  C   UNL A   1      40.464  25.795  27.232  1.00  0.00     0.031 C 
ATOM     45  C   UNL A   1      40.180  30.815  31.959  1.00  0.00     0.029 A 
ATOM     46  C   UNL A   1      41.297  29.888  32.089  1.00  0.00     0.049 A 
ATOM     47  H   UNL A   1      41.897  28.416  30.740  1.00  0.00     0.167 HD
ATOM     48  C   UNL A   1      42.659  24.987  28.091  1.00  0.00     0.034 A 
ATOM     49  C   UNL A   1      42.162  29.873  33.118  1.00  0.00     0.034 A 
ATOM     50  C   UNL A   1      43.771  25.051  29.011  1.00  0.00     0.049 A 
ATOM     51  C   UNL A   1      43.307  28.911  33.071  1.00  0.00     0.074 A 
ATOM     52  C   UNL A   1      44.915  24.270  29.040  1.00  0.00     0.029 A 
ATOM     53  N   UNL A   1      43.868  25.929  30.083  1.00  0.00    -0.354 N 
ATOM     54  N   UNL A   1      43.559  27.979  32.186  1.00  0.00    -0.248 NA
ATOM     55  C   UNL A   1      44.322  29.040  34.123  1.00  0.00     0.031 C 
ATOM     56  C   UNL A   1      45.682  24.651  30.145  1.00  0.00     0.029 A 
ATOM     57  C   UNL A   1      45.044  25.705  30.782  1.00  0.00     0.049 A 
ATOM     58  H   UNL A   1      43.198  26.613  30.313  1.00  0.00     0.167 HD
ATOM     59  C   UNL A   1      44.787  27.440  32.540  1.00  0.00     0.074 A 
ATOM     60  C   UNL A   1      45.228  28.157  33.721  1.00  0.00     0.031 C 
ATOM     61  C   UNL A   1      45.485  26.445  31.940  1.00  0.00     0.034 A 
BRANCH  48  62
ATOM     62  C   UNL A   1      42.704  23.930  27.007  1.00  0.00     0.023 A 
ATOM     63  C   UNL A   1      43.460  24.173  25.841  1.00  0.00     0.012 A 
ATOM     64  C   UNL A   1      42.120  22.658  27.187  1.00  0.00     0.148 A 
ATOM     65  C   UNL A   1      43.615  23.185  24.868  1.00  0.00     0.002 A 
ATOM     66  C   UNL A   1      42.315  21.663  26.232  1.00  0.00     0.091 A 
ATOM     67  F   UNL A   1      41.400  22.437  28.296  1.00  0.00    -0.205 F 
ATOM     68  C   UNL A   1      43.053  21.929  25.068  1.00  0.00     0.022 A 
BRANCH  66  69
ATOM     69  S   UNL A   1      41.713  19.979  26.432  1.00  0.00     0.127 S 
ATOM     70  O   UNL A   1      42.328  19.306  25.288  1.00  0.00    -0.237 OA
ATOM     71  O   UNL A   1      42.275  19.603  27.730  1.00  0.00    -0.237 OA
ATOM     72  O   UNL A   1      40.260  20.061  26.398  1.00  0.00    -0.744 OA
ENDBRANCH  66  69
ENDBRANCH  48  62
BRANCH  49  73
ATOM     73  C   UNL A   1      42.020  30.901  34.182  1.00  0.00     0.023 A 
ATOM     74  C   UNL A   1      41.269  30.588  35.329  1.00  0.00     0.012 A 
ATOM     75  C   UNL A   1      42.736  32.114  34.132  1.00  0.00     0.148 A 
ATOM     76  C   UNL A   1      41.222  31.470  36.408  1.00  0.00     0.002 A 
ATOM     77  C   UNL A   1      42.726  32.965  35.231  1.00  0.00     0.091 A 
ATOM     78  F   UNL A   1      43.455  32.382  33.032  1.00  0.00    -0.205 F 
ATOM     79  C   UNL A   1      41.960  32.649  36.364  1.00  0.00     0.022 A 
BRANCH  77  80
ATOM     80  S   UNL A   1      43.757  34.433  35.331  1.00  0.00     0.127 S 
ATOM     81  O   UNL A   1      42.872  35.372  36.016  1.00  0.00    -0.237 OA
ATOM     82  O   UNL A   1      44.885  33.954  36.130  1.00  0.00    -0.237 OA
ATOM     83  O   UNL A   1      44.094  34.777  33.956  1.00  0.00    -0.744 OA
ENDBRANCH  77  80
ENDBRANCH  49  73
BRANCH  61  84
ATOM     84  C   UNL A   1      46.825  26.088  32.530  1.00  0.00     0.023 A 
ATOM     85  C   UNL A   1      46.910  25.137  33.566  1.00  0.00     0.012 A 
ATOM     86  C   UNL A   1      48.007  26.655  32.014  1.00  0.00     0.148 A 
ATOM     87  C   UNL A   1      48.147  24.786  34.106  1.00  0.00     0.002 A 
ATOM     88  C   UNL A   1      49.239  26.258  32.516  1.00  0.00     0.091 A 
ATOM     89  F   UNL A   1      47.906  27.576  31.043  1.00  0.00    -0.205 F 
ATOM     90  C   UNL A   1      49.310  25.335  33.573  1.00  0.00     0.022 A 
BRANCH  88  91
ATOM     91  S   UNL A   1      50.793  26.832  31.823  1.00  0.00     0.127 S 
ATOM     92  O   UNL A   1      51.766  26.048  32.582  1.00  0.00    -0.237 OA
ATOM     93  O   UNL A   1      50.666  26.448  30.417  1.00  0.00    -0.237 OA
ATOM     94  O   UNL A   1      50.831  28.269  32.056  1.00  0.00    -0.744 OA
ENDBRANCH  88  91
ENDBRANCH  61  84
ENDBRANCH  35  36
ENDBRANCH  28  30
ENDBRANCH  27  28
ENDBRANCH  26  27
ENDBRANCH  25  26
ENDBRANCH   1  25
TORSDOF 20
ENDMDL
