MODEL 1
REMARK VINA RESULT:     -11.6      0.000      0.000
REMARK SMILES COC(=O)c1sc(SCC(=O)OCCOCCOC(=O)c2ccc(-c3c4nc(c(-c5cccc(S(=O)(=O)[O-])c5F)c5ccc([nH]5)c(-c5cccc(S(=O)(=O)[O-])c5F)c5nc(c(-c6cccc(S(=O)(=O)[O-])c6F)c6ccc3[nH]6)C=C5)C=C4)cc2)c(NC(=O)c2ccccc2)c1O
REMARK SMILES IDX 14 1 13 2 12 3 10 4 11 5 9 6 8 7 7 8 5 9 6 10 94 11 84 12
REMARK SMILES IDX 3 13 4 14 2 15 1 16 95 17 85 19 86 20 87 22 88 23 89 24
REMARK SMILES IDX 93 25 90 26 92 27 91 28 15 29 16 30 17 31 18 32 19 33 20 34
REMARK SMILES IDX 21 35 22 36 83 37 23 38 82 39 24 40 25 41 26 42 76 43 27 44
REMARK SMILES IDX 81 45 75 46 77 47 28 48 80 49 74 50 73 51 29 53 61 54 41 55
REMARK SMILES IDX 60 56 42 57 45 58 59 59 78 60 43 61 44 62 58 64 79 65 46 66
REMARK SMILES IDX 30 67 31 68 39 69 32 70 34 71 40 72 33 73 35 74 36 75 37 76
REMARK SMILES IDX 38 77 62 78 63 79 71 80 64 81 66 82 72 83 65 84 67 85 68 86
REMARK SMILES IDX 69 87 70 88 47 89 48 90 56 91 49 92 51 93 57 94 50 95 52 96
REMARK SMILES IDX 53 97 54 98 55 99
REMARK H PARENT 95 18 85 21 77 52 45 63
REMARK Flexibility Score: inf
ROOT
ATOM      1  C   UNL A   1      36.250  21.120  25.623  1.00  0.00     0.202 C 
ENDROOT
BRANCH   1   2
ATOM      2  C   UNL A   1      35.002  21.336  24.762  1.00  0.00     0.261 C 
BRANCH   2   3
ATOM      3  O   UNL A   1      34.743  22.747  24.566  1.00  0.00    -0.463 OA
BRANCH   3   4
ATOM      4  C   UNL A   1      34.944  23.263  23.309  1.00  0.00     0.316 C 
ATOM      5  O   UNL A   1      35.810  22.862  22.540  1.00  0.00    -0.251 OA
BRANCH   4   6
ATOM      6  C   UNL A   1      33.972  24.658  23.035  1.00  0.00     0.198 C 
BRANCH   6   7
ATOM      7  S   UNL A   1      31.419  24.980  23.288  1.00  0.00    -0.101 SA
BRANCH   7   8
ATOM      8  C   UNL A   1      30.688  26.668  23.087  1.00  0.00     0.089 A 
ATOM      9  C   UNL A   1      29.056  28.570  23.068  1.00  0.00     0.157 A 
ATOM     10  S   UNL A   1      29.028  26.915  23.523  1.00  0.00    -0.116 S 
ATOM     11  C   UNL A   1      30.329  28.943  22.699  1.00  0.00     0.166 A 
ATOM     12  C   UNL A   1      31.264  27.871  22.683  1.00  0.00     0.109 A 
BRANCH   9  13
ATOM     13  C   UNL A   1      27.842  29.363  23.092  1.00  0.00     0.352 C 
ATOM     14  O   UNL A   1      26.711  29.002  22.813  1.00  0.00    -0.245 OA
BRANCH  13  15
ATOM     15  O   UNL A   1      28.164  30.641  23.480  1.00  0.00    -0.465 OA
ATOM     16  C   UNL A   1      27.729  31.691  22.609  1.00  0.00     0.282 C 
ENDBRANCH  13  15
ENDBRANCH   9  13
BRANCH  11  17
ATOM     17  O   UNL A   1      30.668  30.193  22.301  1.00  0.00    -0.504 OA
ATOM     18  H   UNL A   1      30.021  30.870  22.279  1.00  0.00     0.293 HD
ENDBRANCH  11  17
BRANCH  12  19
ATOM     19  N   UNL A   1      32.556  28.112  22.229  1.00  0.00    -0.317 N 
ATOM     20  C   UNL A   1      33.619  28.496  22.986  1.00  0.00     0.255 C 
ATOM     21  H   UNL A   1      32.717  27.993  21.265  1.00  0.00     0.170 HD
ATOM     22  O   UNL A   1      34.695  28.839  22.518  1.00  0.00    -0.269 OA
BRANCH  20  23
ATOM     23  C   UNL A   1      33.391  28.470  24.429  1.00  0.00     0.040 A 
ATOM     24  C   UNL A   1      32.612  29.912  25.145  1.00  0.00     0.014 A 
ATOM     25  C   UNL A   1      33.422  26.885  25.360  1.00  0.00     0.014 A 
ATOM     26  C   UNL A   1      31.829  29.785  26.757  1.00  0.00     0.001 A 
ATOM     27  C   UNL A   1      32.623  26.777  26.968  1.00  0.00     0.001 A 
ATOM     28  C   UNL A   1      31.827  28.238  27.655  1.00  0.00     0.000 A 
ENDBRANCH  20  23
ENDBRANCH  12  19
ENDBRANCH   7   8
ENDBRANCH   6   7
ENDBRANCH   4   6
ENDBRANCH   3   4
ENDBRANCH   2   3
ENDBRANCH   1   2
BRANCH   1  29
ATOM     29  O   UNL A   1      37.481  21.428  24.962  1.00  0.00    -0.374 OA
BRANCH  29  30
ATOM     30  C   UNL A   1      38.677  21.218  25.706  1.00  0.00     0.202 C 
BRANCH  30  31
ATOM     31  C   UNL A   1      39.367  19.883  25.421  1.00  0.00     0.261 C 
BRANCH  31  32
ATOM     32  O   UNL A   1      40.425  19.641  26.347  1.00  0.00    -0.460 OA
BRANCH  32  33
ATOM     33  C   UNL A   1      41.683  19.820  25.882  1.00  0.00     0.338 C 
ATOM     34  O   UNL A   1      42.284  19.121  25.088  1.00  0.00    -0.246 OA
BRANCH  33  35
ATOM     35  C   UNL A   1      42.256  20.979  26.584  1.00  0.00     0.060 A 
ATOM     36  C   UNL A   1      42.193  20.968  27.976  1.00  0.00     0.016 A 
ATOM     37  C   UNL A   1      42.684  22.119  25.880  1.00  0.00     0.016 A 
ATOM     38  C   UNL A   1      42.368  22.158  28.648  1.00  0.00     0.010 A 
ATOM     39  C   UNL A   1      42.866  23.307  26.549  1.00  0.00     0.010 A 
ATOM     40  C   UNL A   1      42.618  23.325  27.914  1.00  0.00    -0.014 A 
BRANCH  40  41
ATOM     41  C   UNL A   1      42.592  24.573  28.641  1.00  0.00     0.031 A 
ATOM     42  C   UNL A   1      41.422  25.421  28.348  1.00  0.00     0.074 A 
ATOM     43  C   UNL A   1      43.552  24.902  29.522  1.00  0.00     0.049 A 
ATOM     44  N   UNL A   1      41.392  26.525  27.678  1.00  0.00    -0.248 NA
ATOM     45  C   UNL A   1      40.103  24.887  28.710  1.00  0.00     0.031 C 
ATOM     46  C   UNL A   1      44.548  24.020  30.138  1.00  0.00     0.029 A 
ATOM     47  N   UNL A   1      43.747  26.087  30.155  1.00  0.00    -0.354 N 
ATOM     48  C   UNL A   1      40.064  26.939  27.727  1.00  0.00     0.074 A 
ATOM     49  C   UNL A   1      39.298  25.811  28.188  1.00  0.00     0.031 C 
ATOM     50  C   UNL A   1      45.067  24.637  31.223  1.00  0.00     0.029 A 
ATOM     51  C   UNL A   1      44.548  25.991  31.283  1.00  0.00     0.049 A 
ATOM     52  H   UNL A   1      43.357  26.934  29.841  1.00  0.00     0.167 HD
ATOM     53  C   UNL A   1      39.723  28.251  27.626  1.00  0.00     0.034 A 
ATOM     54  C   UNL A   1      44.676  26.935  32.243  1.00  0.00     0.034 A 
ATOM     55  C   UNL A   1      40.801  29.046  27.104  1.00  0.00     0.049 A 
ATOM     56  C   UNL A   1      44.207  28.222  31.676  1.00  0.00     0.074 A 
ATOM     57  C   UNL A   1      41.507  29.090  25.920  1.00  0.00     0.029 A 
ATOM     58  N   UNL A   1      41.528  29.768  28.018  1.00  0.00    -0.354 N 
ATOM     59  N   UNL A   1      44.817  28.865  30.718  1.00  0.00    -0.248 NA
ATOM     60  C   UNL A   1      42.828  28.617  31.912  1.00  0.00     0.031 C 
ATOM     61  C   UNL A   1      42.825  29.483  26.288  1.00  0.00     0.029 A 
ATOM     62  C   UNL A   1      42.849  29.679  27.671  1.00  0.00     0.049 A 
ATOM     63  H   UNL A   1      41.164  30.262  28.787  1.00  0.00     0.167 HD
ATOM     64  C   UNL A   1      43.794  29.434  29.968  1.00  0.00     0.074 A 
ATOM     65  C   UNL A   1      42.613  29.356  30.821  1.00  0.00     0.031 C 
ATOM     66  C   UNL A   1      43.937  29.650  28.628  1.00  0.00     0.034 A 
BRANCH  53  67
ATOM     67  C   UNL A   1      38.551  28.883  28.335  1.00  0.00     0.023 A 
ATOM     68  C   UNL A   1      37.614  29.582  27.543  1.00  0.00     0.012 A 
ATOM     69  C   UNL A   1      38.463  29.058  29.734  1.00  0.00     0.148 A 
ATOM     70  C   UNL A   1      36.668  30.440  28.114  1.00  0.00     0.002 A 
ATOM     71  C   UNL A   1      37.462  29.838  30.301  1.00  0.00     0.091 A 
ATOM     72  F   UNL A   1      39.428  28.595  30.535  1.00  0.00    -0.205 F 
ATOM     73  C   UNL A   1      36.582  30.559  29.495  1.00  0.00     0.022 A 
BRANCH  71  74
ATOM     74  S   UNL A   1      37.280  29.952  32.084  1.00  0.00     0.127 S 
ATOM     75  O   UNL A   1      38.507  30.645  32.461  1.00  0.00    -0.237 OA
ATOM     76  O   UNL A   1      36.054  30.741  32.213  1.00  0.00    -0.237 OA
ATOM     77  O   UNL A   1      37.146  28.574  32.541  1.00  0.00    -0.744 OA
ENDBRANCH  71  74
ENDBRANCH  53  67
BRANCH  54  78
ATOM     78  C   UNL A   1      44.894  26.746  33.693  1.00  0.00     0.023 A 
ATOM     79  C   UNL A   1      46.142  27.069  34.258  1.00  0.00     0.012 A 
ATOM     80  C   UNL A   1      43.806  26.499  34.563  1.00  0.00     0.148 A 
ATOM     81  C   UNL A   1      46.297  27.166  35.644  1.00  0.00     0.002 A 
ATOM     82  C   UNL A   1      43.969  26.585  35.941  1.00  0.00     0.091 A 
ATOM     83  F   UNL A   1      42.596  26.273  34.034  1.00  0.00    -0.205 F 
ATOM     84  C   UNL A   1      45.212  26.929  36.485  1.00  0.00     0.022 A 
BRANCH  82  85
ATOM     85  S   UNL A   1      42.612  26.322  37.091  1.00  0.00     0.127 S 
ATOM     86  O   UNL A   1      41.708  27.418  36.745  1.00  0.00    -0.237 OA
ATOM     87  O   UNL A   1      42.142  24.995  36.703  1.00  0.00    -0.237 OA
ATOM     88  O   UNL A   1      43.191  26.418  38.425  1.00  0.00    -0.744 OA
ENDBRANCH  82  85
ENDBRANCH  54  78
BRANCH  66  89
ATOM     89  C   UNL A   1      45.321  29.565  28.035  1.00  0.00     0.023 A 
ATOM     90  C   UNL A   1      46.212  30.657  28.065  1.00  0.00     0.012 A 
ATOM     91  C   UNL A   1      45.800  28.303  27.642  1.00  0.00     0.148 A 
ATOM     92  C   UNL A   1      47.550  30.495  27.700  1.00  0.00     0.002 A 
ATOM     93  C   UNL A   1      47.142  28.136  27.331  1.00  0.00     0.091 A 
ATOM     94  F   UNL A   1      44.937  27.275  27.624  1.00  0.00    -0.205 F 
ATOM     95  C   UNL A   1      48.020  29.231  27.349  1.00  0.00     0.022 A 
BRANCH  93  96
ATOM     96  S   UNL A   1      47.840  26.509  27.022  1.00  0.00     0.127 S 
ATOM     97  O   UNL A   1      49.257  26.815  26.838  1.00  0.00    -0.237 OA
ATOM     98  O   UNL A   1      47.524  25.793  28.259  1.00  0.00    -0.237 OA
ATOM     99  O   UNL A   1      47.151  25.994  25.846  1.00  0.00    -0.744 OA
ENDBRANCH  93  96
ENDBRANCH  66  89
ENDBRANCH  40  41
ENDBRANCH  33  35
ENDBRANCH  32  33
ENDBRANCH  31  32
ENDBRANCH  30  31
ENDBRANCH  29  30
ENDBRANCH   1  29
TORSDOF 24
ENDMDL
MODEL 2
REMARK VINA RESULT:     -11.0      3.277      6.787
REMARK SMILES COC(=O)c1sc(SCC(=O)OCCOCCOC(=O)c2ccc(-c3c4nc(c(-c5cccc(S(=O)(=O)[O-])c5F)c5ccc([nH]5)c(-c5cccc(S(=O)(=O)[O-])c5F)c5nc(c(-c6cccc(S(=O)(=O)[O-])c6F)c6ccc3[nH]6)C=C5)C=C4)cc2)c(NC(=O)c2ccccc2)c1O
REMARK SMILES IDX 14 1 13 2 12 3 10 4 11 5 9 6 8 7 7 8 5 9 6 10 94 11 84 12
REMARK SMILES IDX 3 13 4 14 2 15 1 16 95 17 85 19 86 20 87 22 88 23 89 24
REMARK SMILES IDX 93 25 90 26 92 27 91 28 15 29 16 30 17 31 18 32 19 33 20 34
REMARK SMILES IDX 21 35 22 36 83 37 23 38 82 39 24 40 25 41 26 42 76 43 27 44
REMARK SMILES IDX 81 45 75 46 77 47 28 48 80 49 74 50 73 51 29 53 61 54 41 55
REMARK SMILES IDX 60 56 42 57 45 58 59 59 78 60 43 61 44 62 58 64 79 65 46 66
REMARK SMILES IDX 30 67 31 68 39 69 32 70 34 71 40 72 33 73 35 74 36 75 37 76
REMARK SMILES IDX 38 77 62 78 63 79 71 80 64 81 66 82 72 83 65 84 67 85 68 86
REMARK SMILES IDX 69 87 70 88 47 89 48 90 56 91 49 92 51 93 57 94 50 95 52 96
REMARK SMILES IDX 53 97 54 98 55 99
REMARK H PARENT 95 18 85 21 77 52 45 63
REMARK Flexibility Score: inf
ROOT
ATOM      1  C   UNL A   1      34.718  20.930  25.669  1.00  0.00     0.202 C 
ENDROOT
BRANCH   1   2
ATOM      2  C   UNL A   1      33.442  20.526  24.923  1.00  0.00     0.261 C 
BRANCH   2   3
ATOM      3  O   UNL A   1      33.521  20.891  23.525  1.00  0.00    -0.463 OA
BRANCH   3   4
ATOM      4  C   UNL A   1      32.806  21.988  23.110  1.00  0.00     0.316 C 
ATOM      5  O   UNL A   1      31.619  21.949  22.805  1.00  0.00    -0.251 OA
BRANCH   4   6
ATOM      6  C   UNL A   1      33.822  23.359  22.886  1.00  0.00     0.198 C 
BRANCH   6   7
ATOM      7  S   UNL A   1      33.203  25.839  22.494  1.00  0.00    -0.101 SA
BRANCH   7   8
ATOM      8  C   UNL A   1      31.509  26.437  22.934  1.00  0.00     0.089 A 
ATOM      9  C   UNL A   1      29.471  27.881  23.135  1.00  0.00     0.157 A 
ATOM     10  S   UNL A   1      31.002  27.996  22.368  1.00  0.00    -0.116 S 
ATOM     11  C   UNL A   1      29.316  26.640  23.710  1.00  0.00     0.166 A 
ATOM     12  C   UNL A   1      30.471  25.815  23.625  1.00  0.00     0.109 A 
BRANCH   9  13
ATOM     13  C   UNL A   1      28.555  29.006  23.128  1.00  0.00     0.352 C 
ATOM     14  O   UNL A   1      27.373  29.003  22.823  1.00  0.00    -0.245 OA
BRANCH  13  15
ATOM     15  O   UNL A   1      29.242  30.130  23.518  1.00  0.00    -0.465 OA
ATOM     16  C   UNL A   1      28.596  31.382  23.263  1.00  0.00     0.282 C 
ENDBRANCH  13  15
ENDBRANCH   9  13
BRANCH  11  17
ATOM     17  O   UNL A   1      28.205  26.247  24.379  1.00  0.00    -0.504 OA
ATOM     18  H   UNL A   1      28.255  25.552  25.005  1.00  0.00     0.293 HD
ENDBRANCH  11  17
BRANCH  12  19
ATOM     19  N   UNL A   1      30.463  24.578  24.261  1.00  0.00    -0.317 N 
ATOM     20  C   UNL A   1      31.118  24.256  25.409  1.00  0.00     0.255 C 
ATOM     21  H   UNL A   1      29.931  23.866  23.838  1.00  0.00     0.170 HD
ATOM     22  O   UNL A   1      31.199  23.118  25.846  1.00  0.00    -0.269 OA
BRANCH  20  23
ATOM     23  C   UNL A   1      31.730  25.385  26.107  1.00  0.00     0.040 A 
ATOM     24  C   UNL A   1      33.458  25.699  25.765  1.00  0.00     0.014 A 
ATOM     25  C   UNL A   1      30.693  26.693  26.875  1.00  0.00     0.014 A 
ATOM     26  C   UNL A   1      34.153  27.312  26.140  1.00  0.00     0.001 A 
ATOM     27  C   UNL A   1      31.408  28.305  27.234  1.00  0.00     0.001 A 
ATOM     28  C   UNL A   1      33.143  28.601  26.859  1.00  0.00     0.000 A 
ENDBRANCH  20  23
ENDBRANCH  12  19
ENDBRANCH   7   8
ENDBRANCH   6   7
ENDBRANCH   4   6
ENDBRANCH   3   4
ENDBRANCH   2   3
ENDBRANCH   1   2
BRANCH   1  29
ATOM     29  O   UNL A   1      35.926  20.448  25.072  1.00  0.00    -0.374 OA
BRANCH  29  30
ATOM     30  C   UNL A   1      36.881  21.428  24.679  1.00  0.00     0.202 C 
BRANCH  30  31
ATOM     31  C   UNL A   1      38.234  21.302  25.379  1.00  0.00     0.261 C 
BRANCH  31  32
ATOM     32  O   UNL A   1      38.532  22.471  26.141  1.00  0.00    -0.460 OA
BRANCH  32  33
ATOM     33  C   UNL A   1      39.682  22.446  26.853  1.00  0.00     0.338 C 
ATOM     34  O   UNL A   1      40.228  21.475  27.344  1.00  0.00    -0.246 OA
BRANCH  33  35
ATOM     35  C   UNL A   1      40.131  23.837  27.023  1.00  0.00     0.060 A 
ATOM     36  C   UNL A   1      41.185  24.056  27.909  1.00  0.00     0.016 A 
ATOM     37  C   UNL A   1      39.417  24.908  26.457  1.00  0.00     0.016 A 
ATOM     38  C   UNL A   1      41.390  25.335  28.377  1.00  0.00     0.010 A 
ATOM     39  C   UNL A   1      39.624  26.188  26.918  1.00  0.00     0.010 A 
ATOM     40  C   UNL A   1      40.550  26.366  27.937  1.00  0.00    -0.014 A 
BRANCH  40  41
ATOM     41  C   UNL A   1      40.673  27.641  28.604  1.00  0.00     0.031 A 
ATOM     42  C   UNL A   1      41.749  28.500  28.077  1.00  0.00     0.074 A 
ATOM     43  C   UNL A   1      39.851  28.001  29.604  1.00  0.00     0.049 A 
ATOM     44  N   UNL A   1      42.873  28.797  28.639  1.00  0.00    -0.248 NA
ATOM     45  C   UNL A   1      41.620  28.952  26.685  1.00  0.00     0.031 C 
ATOM     46  C   UNL A   1      38.566  27.399  29.973  1.00  0.00     0.029 A 
ATOM     47  N   UNL A   1      39.939  29.081  30.422  1.00  0.00    -0.354 N 
ATOM     48  C   UNL A   1      43.503  29.663  27.748  1.00  0.00     0.074 A 
ATOM     49  C   UNL A   1      42.792  29.558  26.501  1.00  0.00     0.031 C 
ATOM     50  C   UNL A   1      37.889  28.263  30.762  1.00  0.00     0.029 A 
ATOM     51  C   UNL A   1      38.748  29.394  31.061  1.00  0.00     0.049 A 
ATOM     52  H   UNL A   1      40.769  29.593  30.548  1.00  0.00     0.167 HD
ATOM     53  C   UNL A   1      44.404  30.588  28.172  1.00  0.00     0.034 A 
ATOM     54  C   UNL A   1      38.475  30.556  31.697  1.00  0.00     0.034 A 
ATOM     55  C   UNL A   1      44.878  30.306  29.500  1.00  0.00     0.049 A 
ATOM     56  C   UNL A   1      39.766  31.223  31.992  1.00  0.00     0.074 A 
ATOM     57  C   UNL A   1      45.580  29.280  30.096  1.00  0.00     0.029 A 
ATOM     58  N   UNL A   1      44.320  31.039  30.517  1.00  0.00    -0.354 N 
ATOM     59  N   UNL A   1      40.649  30.767  32.837  1.00  0.00    -0.248 NA
ATOM     60  C   UNL A   1      40.257  32.217  31.051  1.00  0.00     0.031 C 
ATOM     61  C   UNL A   1      45.069  29.202  31.423  1.00  0.00     0.029 A 
ATOM     62  C   UNL A   1      44.098  30.197  31.572  1.00  0.00     0.049 A 
ATOM     63  H   UNL A   1      44.114  32.001  30.492  1.00  0.00     0.167 HD
ATOM     64  C   UNL A   1      41.877  31.094  32.273  1.00  0.00     0.074 A 
ATOM     65  C   UNL A   1      41.571  32.091  31.253  1.00  0.00     0.031 C 
ATOM     66  C   UNL A   1      42.981  30.320  32.487  1.00  0.00     0.034 A 
BRANCH  53  67
ATOM     67  C   UNL A   1      44.590  31.946  27.542  1.00  0.00     0.023 A 
ATOM     68  C   UNL A   1      45.698  32.117  26.684  1.00  0.00     0.012 A 
ATOM     69  C   UNL A   1      43.908  33.116  27.949  1.00  0.00     0.148 A 
ATOM     70  C   UNL A   1      46.127  33.388  26.287  1.00  0.00     0.002 A 
ATOM     71  C   UNL A   1      44.282  34.367  27.476  1.00  0.00     0.091 A 
ATOM     72  F   UNL A   1      42.982  33.057  28.910  1.00  0.00    -0.205 F 
ATOM     73  C   UNL A   1      45.412  34.514  26.672  1.00  0.00     0.022 A 
BRANCH  71  74
ATOM     74  S   UNL A   1      43.333  35.833  27.897  1.00  0.00     0.127 S 
ATOM     75  O   UNL A   1      43.803  36.110  29.250  1.00  0.00    -0.237 OA
ATOM     76  O   UNL A   1      43.777  36.785  26.877  1.00  0.00    -0.237 OA
ATOM     77  O   UNL A   1      41.937  35.433  27.764  1.00  0.00    -0.744 OA
ENDBRANCH  71  74
ENDBRANCH  53  67
BRANCH  54  78
ATOM     78  C   UNL A   1      37.181  31.262  31.802  1.00  0.00     0.023 A 
ATOM     79  C   UNL A   1      36.707  31.664  33.065  1.00  0.00     0.012 A 
ATOM     80  C   UNL A   1      36.538  31.772  30.650  1.00  0.00     0.148 A 
ATOM     81  C   UNL A   1      35.642  32.563  33.178  1.00  0.00     0.002 A 
ATOM     82  C   UNL A   1      35.472  32.657  30.768  1.00  0.00     0.091 A 
ATOM     83  F   UNL A   1      37.034  31.463  29.444  1.00  0.00    -0.205 F 
ATOM     84  C   UNL A   1      35.027  33.063  32.032  1.00  0.00     0.022 A 
BRANCH  82  85
ATOM     85  S   UNL A   1      34.645  33.368  29.338  1.00  0.00     0.127 S 
ATOM     86  O   UNL A   1      33.553  34.115  29.962  1.00  0.00    -0.237 OA
ATOM     87  O   UNL A   1      35.701  34.195  28.762  1.00  0.00    -0.237 OA
ATOM     88  O   UNL A   1      34.213  32.241  28.522  1.00  0.00    -0.744 OA
ENDBRANCH  82  85
ENDBRANCH  54  78
BRANCH  66  89
ATOM     89  C   UNL A   1      42.931  29.297  33.593  1.00  0.00     0.023 A 
ATOM     90  C   UNL A   1      42.354  28.024  33.404  1.00  0.00     0.012 A 
ATOM     91  C   UNL A   1      43.668  29.545  34.764  1.00  0.00     0.148 A 
ATOM     92  C   UNL A   1      42.502  27.025  34.369  1.00  0.00     0.002 A 
ATOM     93  C   UNL A   1      43.856  28.533  35.695  1.00  0.00     0.091 A 
ATOM     94  F   UNL A   1      44.213  30.762  34.923  1.00  0.00    -0.205 F 
ATOM     95  C   UNL A   1      43.267  27.274  35.506  1.00  0.00     0.022 A 
BRANCH  93  96
ATOM     96  S   UNL A   1      44.955  28.741  37.101  1.00  0.00     0.127 S 
ATOM     97  O   UNL A   1      46.117  29.382  36.488  1.00  0.00    -0.237 OA
ATOM     98  O   UNL A   1      44.174  29.608  37.984  1.00  0.00    -0.237 OA
ATOM     99  O   UNL A   1      45.184  27.403  37.632  1.00  0.00    -0.744 OA
ENDBRANCH  93  96
ENDBRANCH  66  89
ENDBRANCH  40  41
ENDBRANCH  33  35
ENDBRANCH  32  33
ENDBRANCH  31  32
ENDBRANCH  30  31
ENDBRANCH  29  30
ENDBRANCH   1  29
TORSDOF 24
ENDMDL
MODEL 3
REMARK VINA RESULT:     -10.5      3.183      9.060
REMARK SMILES COC(=O)c1sc(SCC(=O)OCCOCCOC(=O)c2ccc(-c3c4nc(c(-c5cccc(S(=O)(=O)[O-])c5F)c5ccc([nH]5)c(-c5cccc(S(=O)(=O)[O-])c5F)c5nc(c(-c6cccc(S(=O)(=O)[O-])c6F)c6ccc3[nH]6)C=C5)C=C4)cc2)c(NC(=O)c2ccccc2)c1O
REMARK SMILES IDX 14 1 13 2 12 3 10 4 11 5 9 6 8 7 7 8 5 9 6 10 94 11 84 12
REMARK SMILES IDX 3 13 4 14 2 15 1 16 95 17 85 19 86 20 87 22 88 23 89 24
REMARK SMILES IDX 93 25 90 26 92 27 91 28 15 29 16 30 17 31 18 32 19 33 20 34
REMARK SMILES IDX 21 35 22 36 83 37 23 38 82 39 24 40 25 41 26 42 76 43 27 44
REMARK SMILES IDX 81 45 75 46 77 47 28 48 80 49 74 50 73 51 29 53 61 54 41 55
REMARK SMILES IDX 60 56 42 57 45 58 59 59 78 60 43 61 44 62 58 64 79 65 46 66
REMARK SMILES IDX 30 67 31 68 39 69 32 70 34 71 40 72 33 73 35 74 36 75 37 76
REMARK SMILES IDX 38 77 62 78 63 79 71 80 64 81 66 82 72 83 65 84 67 85 68 86
REMARK SMILES IDX 69 87 70 88 47 89 48 90 56 91 49 92 51 93 57 94 50 95 52 96
REMARK SMILES IDX 53 97 54 98 55 99
REMARK H PARENT 95 18 85 21 77 52 45 63
REMARK Flexibility Score: inf
ROOT
ATOM      1  C   UNL A   1      31.802  30.399  26.113  1.00  0.00     0.202 C 
ENDROOT
BRANCH   1   2
ATOM      2  C   UNL A   1      31.089  29.556  25.051  1.00  0.00     0.261 C 
BRANCH   2   3
ATOM      3  O   UNL A   1      31.315  28.143  25.272  1.00  0.00    -0.463 OA
BRANCH   3   4
ATOM      4  C   UNL A   1      31.072  27.287  24.226  1.00  0.00     0.316 C 
ATOM      5  O   UNL A   1      29.988  26.751  24.024  1.00  0.00    -0.251 OA
BRANCH   4   6
ATOM      6  C   UNL A   1      32.516  26.913  23.366  1.00  0.00     0.198 C 
BRANCH   6   7
ATOM      7  S   UNL A   1      33.534  24.618  22.749  1.00  0.00    -0.101 SA
BRANCH   7   8
ATOM      8  C   UNL A   1      34.508  23.682  24.014  1.00  0.00     0.089 A 
ATOM      9  C   UNL A   1      36.405  22.567  25.213  1.00  0.00     0.157 A 
ATOM     10  S   UNL A   1      36.214  23.488  23.777  1.00  0.00    -0.116 S 
ATOM     11  C   UNL A   1      35.217  22.508  25.905  1.00  0.00     0.166 A 
ATOM     12  C   UNL A   1      34.123  23.117  25.228  1.00  0.00     0.109 A 
BRANCH   9  13
ATOM     13  C   UNL A   1      37.684  21.967  25.541  1.00  0.00     0.352 C 
ATOM     14  O   UNL A   1      38.384  22.190  26.516  1.00  0.00    -0.245 OA
BRANCH  13  15
ATOM     15  O   UNL A   1      38.018  21.081  24.546  1.00  0.00    -0.465 OA
ATOM     16  C   UNL A   1      37.943  19.693  24.889  1.00  0.00     0.282 C 
ENDBRANCH  13  15
ENDBRANCH   9  13
BRANCH  11  17
ATOM     17  O   UNL A   1      35.056  21.861  27.084  1.00  0.00    -0.504 OA
ATOM     18  H   UNL A   1      35.701  21.246  27.373  1.00  0.00     0.293 HD
ENDBRANCH  11  17
BRANCH  12  19
ATOM     19  N   UNL A   1      32.853  23.029  25.788  1.00  0.00    -0.317 N 
ATOM     20  C   UNL A   1      31.908  22.092  25.502  1.00  0.00     0.255 C 
ATOM     21  H   UNL A   1      32.614  23.711  26.456  1.00  0.00     0.170 HD
ATOM     22  O   UNL A   1      30.757  22.145  25.909  1.00  0.00    -0.269 OA
BRANCH  20  23
ATOM     23  C   UNL A   1      32.367  20.990  24.658  1.00  0.00     0.040 A 
ATOM     24  C   UNL A   1      32.780  19.461  25.490  1.00  0.00     0.014 A 
ATOM     25  C   UNL A   1      32.057  20.996  22.848  1.00  0.00     0.014 A 
ATOM     26  C   UNL A   1      32.846  17.933  24.548  1.00  0.00     0.001 A 
ATOM     27  C   UNL A   1      32.118  19.453  21.925  1.00  0.00     0.001 A 
ATOM     28  C   UNL A   1      32.514  17.926  22.790  1.00  0.00     0.000 A 
ENDBRANCH  20  23
ENDBRANCH  12  19
ENDBRANCH   7   8
ENDBRANCH   6   7
ENDBRANCH   4   6
ENDBRANCH   3   4
ENDBRANCH   2   3
ENDBRANCH   1   2
BRANCH   1  29
ATOM     29  O   UNL A   1      32.561  29.637  27.056  1.00  0.00    -0.374 OA
BRANCH  29  30
ATOM     30  C   UNL A   1      33.974  29.621  26.876  1.00  0.00     0.202 C 
BRANCH  30  31
ATOM     31  C   UNL A   1      34.716  30.721  27.637  1.00  0.00     0.261 C 
BRANCH  31  32
ATOM     32  O   UNL A   1      36.122  30.479  27.654  1.00  0.00    -0.460 OA
BRANCH  32  33
ATOM     33  C   UNL A   1      36.626  29.949  28.792  1.00  0.00     0.338 C 
ATOM     34  O   UNL A   1      36.237  30.134  29.930  1.00  0.00    -0.246 OA
BRANCH  33  35
ATOM     35  C   UNL A   1      37.815  29.162  28.428  1.00  0.00     0.060 A 
ATOM     36  C   UNL A   1      38.271  28.238  29.367  1.00  0.00     0.016 A 
ATOM     37  C   UNL A   1      38.556  29.454  27.270  1.00  0.00     0.016 A 
ATOM     38  C   UNL A   1      39.556  27.759  29.242  1.00  0.00     0.010 A 
ATOM     39  C   UNL A   1      39.838  28.971  27.138  1.00  0.00     0.010 A 
ATOM     40  C   UNL A   1      40.348  28.200  28.174  1.00  0.00    -0.014 A 
BRANCH  40  41
ATOM     41  C   UNL A   1      41.744  27.831  28.198  1.00  0.00     0.031 A 
ATOM     42  C   UNL A   1      42.032  26.508  27.615  1.00  0.00     0.074 A 
ATOM     43  C   UNL A   1      42.687  28.651  28.694  1.00  0.00     0.049 A 
ATOM     44  N   UNL A   1      42.374  25.427  28.233  1.00  0.00    -0.248 NA
ATOM     45  C   UNL A   1      41.745  26.332  26.185  1.00  0.00     0.031 C 
ATOM     46  C   UNL A   1      42.575  30.085  28.973  1.00  0.00     0.029 A 
ATOM     47  N   UNL A   1      43.998  28.386  28.926  1.00  0.00    -0.354 N 
ATOM     48  C   UNL A   1      42.561  24.482  27.229  1.00  0.00     0.074 A 
ATOM     49  C   UNL A   1      41.972  25.028  26.035  1.00  0.00     0.031 C 
ATOM     50  C   UNL A   1      43.817  30.606  29.095  1.00  0.00     0.029 A 
ATOM     51  C   UNL A   1      44.783  29.523  29.046  1.00  0.00     0.049 A 
ATOM     52  H   UNL A   1      44.357  27.473  29.002  1.00  0.00     0.167 HD
ATOM     53  C   UNL A   1      43.407  23.430  27.390  1.00  0.00     0.034 A 
ATOM     54  C   UNL A   1      46.134  29.559  28.998  1.00  0.00     0.034 A 
ATOM     55  C   UNL A   1      43.748  23.223  28.771  1.00  0.00     0.049 A 
ATOM     56  C   UNL A   1      46.631  28.186  29.259  1.00  0.00     0.074 A 
ATOM     57  C   UNL A   1      43.053  22.900  29.917  1.00  0.00     0.029 A 
ATOM     58  N   UNL A   1      44.973  23.693  29.177  1.00  0.00    -0.354 N 
ATOM     59  N   UNL A   1      46.514  27.571  30.404  1.00  0.00    -0.248 NA
ATOM     60  C   UNL A   1      46.926  27.332  28.120  1.00  0.00     0.031 C 
ATOM     61  C   UNL A   1      43.734  23.580  30.968  1.00  0.00     0.029 A 
ATOM     62  C   UNL A   1      44.818  24.263  30.410  1.00  0.00     0.049 A 
ATOM     63  H   UNL A   1      45.813  23.631  28.669  1.00  0.00     0.167 HD
ATOM     64  C   UNL A   1      46.304  26.238  30.068  1.00  0.00     0.074 A 
ATOM     65  C   UNL A   1      46.697  26.136  28.667  1.00  0.00     0.031 C 
ATOM     66  C   UNL A   1      45.566  25.416  30.870  1.00  0.00     0.034 A 
BRANCH  53  67
ATOM     67  C   UNL A   1      44.218  22.812  26.278  1.00  0.00     0.023 A 
ATOM     68  C   UNL A   1      44.980  23.682  25.469  1.00  0.00     0.012 A 
ATOM     69  C   UNL A   1      44.067  21.482  25.822  1.00  0.00     0.148 A 
ATOM     70  C   UNL A   1      45.525  23.261  24.250  1.00  0.00     0.002 A 
ATOM     71  C   UNL A   1      44.688  21.045  24.659  1.00  0.00     0.091 A 
ATOM     72  F   UNL A   1      43.204  20.657  26.423  1.00  0.00    -0.205 F 
ATOM     73  C   UNL A   1      45.390  21.938  23.851  1.00  0.00     0.022 A 
BRANCH  71  74
ATOM     74  S   UNL A   1      44.595  19.323  24.155  1.00  0.00     0.127 S 
ATOM     75  O   UNL A   1      44.592  19.442  22.701  1.00  0.00    -0.237 OA
ATOM     76  O   UNL A   1      45.822  18.772  24.732  1.00  0.00    -0.237 OA
ATOM     77  O   UNL A   1      43.373  18.814  24.768  1.00  0.00    -0.744 OA
ENDBRANCH  71  74
ENDBRANCH  53  67
BRANCH  54  78
ATOM     78  C   UNL A   1      47.006  30.622  28.455  1.00  0.00     0.023 A 
ATOM     79  C   UNL A   1      46.823  31.065  27.132  1.00  0.00     0.012 A 
ATOM     80  C   UNL A   1      47.839  31.382  29.309  1.00  0.00     0.148 A 
ATOM     81  C   UNL A   1      47.431  32.240  26.679  1.00  0.00     0.002 A 
ATOM     82  C   UNL A   1      48.451  32.543  28.850  1.00  0.00     0.091 A 
ATOM     83  F   UNL A   1      47.953  31.016  30.593  1.00  0.00    -0.205 F 
ATOM     84  C   UNL A   1      48.241  32.981  27.537  1.00  0.00     0.022 A 
BRANCH  82  85
ATOM     85  S   UNL A   1      49.486  33.569  29.903  1.00  0.00     0.127 S 
ATOM     86  O   UNL A   1      50.567  32.647  30.254  1.00  0.00    -0.237 OA
ATOM     87  O   UNL A   1      49.871  34.643  28.992  1.00  0.00    -0.237 OA
ATOM     88  O   UNL A   1      48.647  33.967  31.026  1.00  0.00    -0.744 OA
ENDBRANCH  82  85
ENDBRANCH  54  78
BRANCH  66  89
ATOM     89  C   UNL A   1      45.255  25.877  32.271  1.00  0.00     0.023 A 
ATOM     90  C   UNL A   1      44.270  26.852  32.532  1.00  0.00     0.012 A 
ATOM     91  C   UNL A   1      45.808  25.160  33.346  1.00  0.00     0.148 A 
ATOM     92  C   UNL A   1      43.854  27.113  33.840  1.00  0.00     0.002 A 
ATOM     93  C   UNL A   1      45.354  25.386  34.638  1.00  0.00     0.091 A 
ATOM     94  F   UNL A   1      46.741  24.234  33.076  1.00  0.00    -0.205 F 
ATOM     95  C   UNL A   1      44.384  26.368  34.891  1.00  0.00     0.022 A 
BRANCH  93  96
ATOM     96  S   UNL A   1      45.882  24.357  36.013  1.00  0.00     0.127 S 
ATOM     97  O   UNL A   1      47.325  24.586  36.030  1.00  0.00    -0.237 OA
ATOM     98  O   UNL A   1      45.156  24.944  37.140  1.00  0.00    -0.237 OA
ATOM     99  O   UNL A   1      45.466  23.001  35.680  1.00  0.00    -0.744 OA
ENDBRANCH  93  96
ENDBRANCH  66  89
ENDBRANCH  40  41
ENDBRANCH  33  35
ENDBRANCH  32  33
ENDBRANCH  31  32
ENDBRANCH  30  31
ENDBRANCH  29  30
ENDBRANCH   1  29
TORSDOF 24
ENDMDL
