MODEL 1
REMARK VINA RESULT:     -12.2      0.000      0.000
REMARK SMILES CS(=O)(=O)c1ccc(C2=NN(c3ccc(C(=O)OCCOCCOC(=O)c4ccc(-c5c6nc(c(-c7cccc(S(=O)(=O)[O-])c7F)c7ccc([nH]7)c(-c7cccc(S(=O)(=O)[O-])c7F)c7nc(c(-c8cccc(S(=O)(=O)[O-])c8F)c8ccc5[nH]8)C=C7)C=C6)cc4)cc3)[C@H](c3ccc(F)cc3)C2)cc1
REMARK SMILES IDX 21 1 20 2 19 3 18 4 16 5 17 6 15 7 12 8 13 9 91 10 14 11
REMARK SMILES IDX 90 12 11 13 9 14 10 15 100 16 92 17 8 18 5 19 6 20 102 21
REMARK SMILES IDX 7 22 101 23 2 24 1 25 3 26 4 27 93 28 94 29 99 30 95 31
REMARK SMILES IDX 98 32 96 33 97 34 22 35 23 36 24 37 25 38 26 39 27 40 28 41
REMARK SMILES IDX 89 42 29 43 88 44 30 45 31 46 32 47 82 48 33 49 87 50 81 51
REMARK SMILES IDX 83 52 34 53 86 54 80 55 79 56 35 58 67 59 47 60 66 61 48 62
REMARK SMILES IDX 51 63 65 64 84 65 49 66 50 67 64 69 85 70 52 71 36 72 37 73
REMARK SMILES IDX 45 74 38 75 40 76 46 77 39 78 41 79 42 80 43 81 44 82 68 83
REMARK SMILES IDX 69 84 77 85 70 86 72 87 78 88 71 89 73 90 74 91 75 92 76 93
REMARK SMILES IDX 53 94 54 95 62 96 55 97 57 98 63 99 56 100 58 101 59 102
REMARK SMILES IDX 60 103 61 104
REMARK H PARENT 83 57 51 68
REMARK Flexibility Score: inf
ROOT
ATOM      1  O   UNL A   1      34.175  33.682  29.541  1.00  0.00    -0.374 OA
ENDROOT
BRANCH   1   2
ATOM      2  C   UNL A   1      35.432  33.065  29.258  1.00  0.00     0.202 C 
BRANCH   2   3
ATOM      3  C   UNL A   1      35.501  32.205  27.993  1.00  0.00     0.261 C 
BRANCH   3   4
ATOM      4  O   UNL A   1      34.740  30.999  28.148  1.00  0.00    -0.460 OA
BRANCH   4   5
ATOM      5  C   UNL A   1      33.552  30.972  27.502  1.00  0.00     0.338 C 
ATOM      6  O   UNL A   1      32.857  31.937  27.209  1.00  0.00    -0.246 OA
BRANCH   5   7
ATOM      7  C   UNL A   1      33.227  29.591  27.067  1.00  0.00     0.060 A 
ATOM      8  C   UNL A   1      32.632  27.065  25.997  1.00  0.00     0.060 A 
ATOM      9  C   UNL A   1      33.864  27.671  25.728  1.00  0.00     0.029 A 
ATOM     10  C   UNL A   1      31.760  27.680  26.906  1.00  0.00     0.029 A 
ATOM     11  C   UNL A   1      34.157  28.930  26.254  1.00  0.00     0.018 A 
ATOM     12  C   UNL A   1      32.044  28.942  27.435  1.00  0.00     0.018 A 
BRANCH   8  13
ATOM     13  N   UNL A   1      32.189  25.967  25.251  1.00  0.00    -0.257 N 
ATOM     14  C   UNL A   1      32.630  24.040  24.453  1.00  0.00     0.071 C 
ATOM     15  N   UNL A   1      32.629  24.718  25.557  1.00  0.00    -0.176 NA
ATOM     16  C   UNL A   1      32.330  24.819  23.203  1.00  0.00     0.091 C 
ATOM     17  C   UNL A   1      31.964  26.180  23.809  1.00  0.00     0.144 C 
BRANCH  14  18
ATOM     18  C   UNL A   1      32.899  22.591  24.413  1.00  0.00    -0.002 A 
ATOM     19  C   UNL A   1      33.340  19.841  24.270  1.00  0.00     0.067 A 
ATOM     20  C   UNL A   1      32.363  20.431  23.462  1.00  0.00     0.021 A 
ATOM     21  C   UNL A   1      34.103  20.621  25.147  1.00  0.00     0.021 A 
ATOM     22  C   UNL A   1      32.133  21.805  23.545  1.00  0.00     0.011 A 
ATOM     23  C   UNL A   1      33.887  22.004  25.210  1.00  0.00     0.011 A 
BRANCH  19  24
ATOM     24  S   UNL A   1      33.569  18.083  24.125  1.00  0.00     0.175 S 
ATOM     25  C   UNL A   1      32.594  17.323  25.390  1.00  0.00     0.163 C 
ATOM     26  O   UNL A   1      34.957  17.815  24.452  1.00  0.00    -0.224 OA
ATOM     27  O   UNL A   1      33.008  17.697  22.844  1.00  0.00    -0.224 OA
ENDBRANCH  19  24
ENDBRANCH  14  18
BRANCH  17  28
ATOM     28  C   UNL A   1      30.560  26.719  23.565  1.00  0.00    -0.023 A 
ATOM     29  C   UNL A   1      29.397  26.102  24.049  1.00  0.00     0.009 A 
ATOM     30  C   UNL A   1      30.424  27.953  22.890  1.00  0.00     0.009 A 
ATOM     31  C   UNL A   1      28.147  26.701  23.868  1.00  0.00     0.039 A 
ATOM     32  C   UNL A   1      29.181  28.570  22.748  1.00  0.00     0.039 A 
ATOM     33  C   UNL A   1      28.051  27.933  23.234  1.00  0.00     0.123 A 
ATOM     34  F   UNL A   1      26.853  28.514  23.103  1.00  0.00    -0.207 F 
ENDBRANCH  17  28
ENDBRANCH   8  13
ENDBRANCH   5   7
ENDBRANCH   4   5
ENDBRANCH   3   4
ENDBRANCH   2   3
ENDBRANCH   1   2
BRANCH   1  35
ATOM     35  C   UNL A   1      33.893  34.919  28.885  1.00  0.00     0.202 C 
BRANCH  35  36
ATOM     36  C   UNL A   1      32.876  35.850  29.557  1.00  0.00     0.261 C 
BRANCH  36  37
ATOM     37  O   UNL A   1      33.344  36.360  30.817  1.00  0.00    -0.460 OA
BRANCH  37  38
ATOM     38  C   UNL A   1      32.923  35.668  31.901  1.00  0.00     0.338 C 
ATOM     39  O   UNL A   1      31.765  35.501  32.268  1.00  0.00    -0.246 OA
BRANCH  38  40
ATOM     40  C   UNL A   1      34.057  34.959  32.520  1.00  0.00     0.060 A 
ATOM     41  C   UNL A   1      35.339  35.488  32.319  1.00  0.00     0.016 A 
ATOM     42  C   UNL A   1      33.884  33.773  33.234  1.00  0.00     0.016 A 
ATOM     43  C   UNL A   1      36.457  34.811  32.799  1.00  0.00     0.010 A 
ATOM     44  C   UNL A   1      35.009  33.090  33.709  1.00  0.00     0.010 A 
ATOM     45  C   UNL A   1      36.302  33.590  33.468  1.00  0.00    -0.014 A 
BRANCH  45  46
ATOM     46  C   UNL A   1      37.497  32.792  33.834  1.00  0.00     0.031 A 
ATOM     47  C   UNL A   1      38.310  33.184  35.037  1.00  0.00     0.074 A 
ATOM     48  C   UNL A   1      37.857  31.729  33.092  1.00  0.00     0.049 A 
ATOM     49  N   UNL A   1      39.399  32.638  35.512  1.00  0.00    -0.248 NA
ATOM     50  C   UNL A   1      37.834  34.347  35.804  1.00  0.00     0.031 C 
ATOM     51  C   UNL A   1      37.154  31.254  31.902  1.00  0.00     0.029 A 
ATOM     52  N   UNL A   1      38.926  30.875  33.217  1.00  0.00    -0.354 N 
ATOM     53  C   UNL A   1      39.757  33.404  36.615  1.00  0.00     0.074 A 
ATOM     54  C   UNL A   1      38.774  34.460  36.733  1.00  0.00     0.031 C 
ATOM     55  C   UNL A   1      37.826  30.211  31.386  1.00  0.00     0.029 A 
ATOM     56  C   UNL A   1      39.019  29.961  32.194  1.00  0.00     0.049 A 
ATOM     57  H   UNL A   1      39.563  30.913  33.966  1.00  0.00     0.167 HD
ATOM     58  C   UNL A   1      40.802  33.236  37.461  1.00  0.00     0.034 A 
ATOM     59  C   UNL A   1      39.971  29.046  31.925  1.00  0.00     0.034 A 
ATOM     60  C   UNL A   1      41.767  32.176  37.352  1.00  0.00     0.049 A 
ATOM     61  C   UNL A   1      41.135  28.895  32.868  1.00  0.00     0.074 A 
ATOM     62  C   UNL A   1      42.823  31.884  38.198  1.00  0.00     0.029 A 
ATOM     63  N   UNL A   1      41.808  31.243  36.327  1.00  0.00    -0.354 N 
ATOM     64  N   UNL A   1      41.385  29.539  33.983  1.00  0.00    -0.248 NA
ATOM     65  C   UNL A   1      42.134  27.869  32.533  1.00  0.00     0.031 C 
ATOM     66  C   UNL A   1      43.521  30.795  37.665  1.00  0.00     0.029 A 
ATOM     67  C   UNL A   1      42.883  30.388  36.506  1.00  0.00     0.049 A 
ATOM     68  H   UNL A   1      41.166  31.195  35.581  1.00  0.00     0.167 HD
ATOM     69  C   UNL A   1      42.549  28.978  34.497  1.00  0.00     0.074 A 
ATOM     70  C   UNL A   1      42.942  27.923  33.584  1.00  0.00     0.031 C 
ATOM     71  C   UNL A   1      43.238  29.313  35.615  1.00  0.00     0.034 A 
BRANCH  58  72
ATOM     72  C   UNL A   1      40.944  34.211  38.600  1.00  0.00     0.023 A 
ATOM     73  C   UNL A   1      41.882  35.259  38.508  1.00  0.00     0.012 A 
ATOM     74  C   UNL A   1      40.109  34.127  39.732  1.00  0.00     0.148 A 
ATOM     75  C   UNL A   1      42.008  36.192  39.537  1.00  0.00     0.002 A 
ATOM     76  C   UNL A   1      40.211  35.085  40.734  1.00  0.00     0.091 A 
ATOM     77  F   UNL A   1      39.240  33.110  39.811  1.00  0.00    -0.205 F 
ATOM     78  C   UNL A   1      41.166  36.111  40.643  1.00  0.00     0.022 A 
BRANCH  76  79
ATOM     79  S   UNL A   1      39.120  35.112  42.161  1.00  0.00     0.127 S 
ATOM     80  O   UNL A   1      39.290  36.485  42.635  1.00  0.00    -0.237 OA
ATOM     81  O   UNL A   1      37.816  34.833  41.558  1.00  0.00    -0.237 OA
ATOM     82  O   UNL A   1      39.608  34.076  43.059  1.00  0.00    -0.744 OA
ENDBRANCH  76  79
ENDBRANCH  58  72
BRANCH  59  83
ATOM     83  C   UNL A   1      39.847  28.181  30.718  1.00  0.00     0.023 A 
ATOM     84  C   UNL A   1      38.968  27.081  30.737  1.00  0.00     0.012 A 
ATOM     85  C   UNL A   1      40.579  28.455  29.547  1.00  0.00     0.148 A 
ATOM     86  C   UNL A   1      38.841  26.253  29.621  1.00  0.00     0.002 A 
ATOM     87  C   UNL A   1      40.405  27.661  28.420  1.00  0.00     0.091 A 
ATOM     88  F   UNL A   1      41.425  29.495  29.556  1.00  0.00    -0.205 F 
ATOM     89  C   UNL A   1      39.550  26.549  28.459  1.00  0.00     0.022 A 
BRANCH  87  90
ATOM     90  S   UNL A   1      41.174  28.048  26.842  1.00  0.00     0.127 S 
ATOM     91  O   UNL A   1      40.861  26.857  26.057  1.00  0.00    -0.237 OA
ATOM     92  O   UNL A   1      40.451  29.256  26.443  1.00  0.00    -0.237 OA
ATOM     93  O   UNL A   1      42.584  28.264  27.135  1.00  0.00    -0.744 OA
ENDBRANCH  87  90
ENDBRANCH  59  83
BRANCH  71  94
ATOM     94  C   UNL A   1      44.481  28.522  35.936  1.00  0.00     0.023 A 
ATOM     95  C   UNL A   1      45.733  28.962  35.462  1.00  0.00     0.012 A 
ATOM     96  C   UNL A   1      44.418  27.385  36.766  1.00  0.00     0.148 A 
ATOM     97  C   UNL A   1      46.898  28.265  35.782  1.00  0.00     0.002 A 
ATOM     98  C   UNL A   1      45.590  26.724  37.121  1.00  0.00     0.091 A 
ATOM     99  F   UNL A   1      43.217  26.971  37.195  1.00  0.00    -0.205 F 
ATOM    100  C   UNL A   1      46.828  27.155  36.619  1.00  0.00     0.022 A 
BRANCH  98 101
ATOM    101  S   UNL A   1      45.607  25.343  38.270  1.00  0.00     0.127 S 
ATOM    102  O   UNL A   1      47.028  25.251  38.604  1.00  0.00    -0.237 OA
ATOM    103  O   UNL A   1      44.757  25.830  39.356  1.00  0.00    -0.237 OA
ATOM    104  O   UNL A   1      45.062  24.205  37.540  1.00  0.00    -0.744 OA
ENDBRANCH  98 101
ENDBRANCH  71  94
ENDBRANCH  45  46
ENDBRANCH  38  40
ENDBRANCH  37  38
ENDBRANCH  36  37
ENDBRANCH  35  36
ENDBRANCH   1  35
TORSDOF 21
ENDMDL
MODEL 2
REMARK VINA RESULT:     -11.7      1.219      7.181
REMARK SMILES CS(=O)(=O)c1ccc(C2=NN(c3ccc(C(=O)OCCOCCOC(=O)c4ccc(-c5c6nc(c(-c7cccc(S(=O)(=O)[O-])c7F)c7ccc([nH]7)c(-c7cccc(S(=O)(=O)[O-])c7F)c7nc(c(-c8cccc(S(=O)(=O)[O-])c8F)c8ccc5[nH]8)C=C7)C=C6)cc4)cc3)[C@H](c3ccc(F)cc3)C2)cc1
REMARK SMILES IDX 21 1 20 2 19 3 18 4 16 5 17 6 15 7 12 8 13 9 91 10 14 11
REMARK SMILES IDX 90 12 11 13 9 14 10 15 100 16 92 17 8 18 5 19 6 20 102 21
REMARK SMILES IDX 7 22 101 23 2 24 1 25 3 26 4 27 93 28 94 29 99 30 95 31
REMARK SMILES IDX 98 32 96 33 97 34 22 35 23 36 24 37 25 38 26 39 27 40 28 41
REMARK SMILES IDX 89 42 29 43 88 44 30 45 31 46 32 47 82 48 33 49 87 50 81 51
REMARK SMILES IDX 83 52 34 53 86 54 80 55 79 56 35 58 67 59 47 60 66 61 48 62
REMARK SMILES IDX 51 63 65 64 84 65 49 66 50 67 64 69 85 70 52 71 36 72 37 73
REMARK SMILES IDX 45 74 38 75 40 76 46 77 39 78 41 79 42 80 43 81 44 82 68 83
REMARK SMILES IDX 69 84 77 85 70 86 72 87 78 88 71 89 73 90 74 91 75 92 76 93
REMARK SMILES IDX 53 94 54 95 62 96 55 97 57 98 63 99 56 100 58 101 59 102
REMARK SMILES IDX 60 103 61 104
REMARK H PARENT 83 57 51 68
REMARK Flexibility Score: inf
ROOT
ATOM      1  O   UNL A   1      35.311  33.227  29.662  1.00  0.00    -0.374 OA
ENDROOT
BRANCH   1   2
ATOM      2  C   UNL A   1      36.245  32.455  28.904  1.00  0.00     0.202 C 
BRANCH   2   3
ATOM      3  C   UNL A   1      35.705  31.775  27.643  1.00  0.00     0.261 C 
BRANCH   3   4
ATOM      4  O   UNL A   1      34.900  30.636  27.978  1.00  0.00    -0.460 OA
BRANCH   4   5
ATOM      5  C   UNL A   1      33.618  30.682  27.548  1.00  0.00     0.338 C 
ATOM      6  O   UNL A   1      32.913  31.679  27.456  1.00  0.00    -0.246 OA
BRANCH   5   7
ATOM      7  C   UNL A   1      33.179  29.346  27.074  1.00  0.00     0.060 A 
ATOM      8  C   UNL A   1      32.400  26.904  25.930  1.00  0.00     0.060 A 
ATOM      9  C   UNL A   1      33.708  27.372  25.767  1.00  0.00     0.029 A 
ATOM     10  C   UNL A   1      31.530  27.608  26.775  1.00  0.00     0.029 A 
ATOM     11  C   UNL A   1      34.094  28.590  26.329  1.00  0.00     0.018 A 
ATOM     12  C   UNL A   1      31.907  28.830  27.339  1.00  0.00     0.018 A 
BRANCH   8  13
ATOM     13  N   UNL A   1      31.901  25.863  25.139  1.00  0.00    -0.257 N 
ATOM     14  C   UNL A   1      32.253  23.966  24.232  1.00  0.00     0.071 C 
ATOM     15  N   UNL A   1      32.300  24.585  25.370  1.00  0.00    -0.176 NA
ATOM     16  C   UNL A   1      31.956  24.819  23.031  1.00  0.00     0.091 C 
ATOM     17  C   UNL A   1      31.654  26.159  23.715  1.00  0.00     0.144 C 
BRANCH  14  18
ATOM     18  C   UNL A   1      32.467  22.512  24.111  1.00  0.00    -0.002 A 
ATOM     19  C   UNL A   1      32.905  19.762  23.973  1.00  0.00     0.067 A 
ATOM     20  C   UNL A   1      33.219  20.458  25.145  1.00  0.00     0.021 A 
ATOM     21  C   UNL A   1      32.367  20.434  22.870  1.00  0.00     0.021 A 
ATOM     22  C   UNL A   1      33.013  21.836  25.208  1.00  0.00     0.011 A 
ATOM     23  C   UNL A   1      32.138  21.815  22.945  1.00  0.00     0.011 A 
BRANCH  19  24
ATOM     24  S   UNL A   1      33.209  18.009  23.956  1.00  0.00     0.175 S 
ATOM     25  C   UNL A   1      32.385  17.322  25.362  1.00  0.00     0.163 C 
ATOM     26  O   UNL A   1      34.632  17.831  24.179  1.00  0.00    -0.224 OA
ATOM     27  O   UNL A   1      32.561  17.489  22.767  1.00  0.00    -0.224 OA
ENDBRANCH  19  24
ENDBRANCH  14  18
BRANCH  17  28
ATOM     28  C   UNL A   1      30.266  26.761  23.532  1.00  0.00    -0.023 A 
ATOM     29  C   UNL A   1      29.089  26.150  23.989  1.00  0.00     0.009 A 
ATOM     30  C   UNL A   1      30.163  28.044  22.949  1.00  0.00     0.009 A 
ATOM     31  C   UNL A   1      27.857  26.801  23.870  1.00  0.00     0.039 A 
ATOM     32  C   UNL A   1      28.941  28.711  22.870  1.00  0.00     0.039 A 
ATOM     33  C   UNL A   1      27.796  28.078  23.327  1.00  0.00     0.123 A 
ATOM     34  F   UNL A   1      26.617  28.706  23.256  1.00  0.00    -0.207 F 
ENDBRANCH  17  28
ENDBRANCH   8  13
ENDBRANCH   5   7
ENDBRANCH   4   5
ENDBRANCH   3   4
ENDBRANCH   2   3
ENDBRANCH   1   2
BRANCH   1  35
ATOM     35  C   UNL A   1      34.594  34.248  28.967  1.00  0.00     0.202 C 
BRANCH  35  36
ATOM     36  C   UNL A   1      33.282  34.731  29.598  1.00  0.00     0.261 C 
BRANCH  36  37
ATOM     37  O   UNL A   1      33.493  35.699  30.639  1.00  0.00    -0.460 OA
BRANCH  37  38
ATOM     38  C   UNL A   1      33.168  35.277  31.882  1.00  0.00     0.338 C 
ATOM     39  O   UNL A   1      32.047  35.235  32.380  1.00  0.00    -0.246 OA
BRANCH  38  40
ATOM     40  C   UNL A   1      34.346  34.683  32.539  1.00  0.00     0.060 A 
ATOM     41  C   UNL A   1      35.578  35.329  32.367  1.00  0.00     0.016 A 
ATOM     42  C   UNL A   1      34.264  33.491  33.261  1.00  0.00     0.016 A 
ATOM     43  C   UNL A   1      36.740  34.763  32.884  1.00  0.00     0.010 A 
ATOM     44  C   UNL A   1      35.435  32.920  33.773  1.00  0.00     0.010 A 
ATOM     45  C   UNL A   1      36.682  33.538  33.562  1.00  0.00    -0.014 A 
BRANCH  45  46
ATOM     46  C   UNL A   1      37.936  32.858  33.968  1.00  0.00     0.031 A 
ATOM     47  C   UNL A   1      38.455  31.711  33.146  1.00  0.00     0.074 A 
ATOM     48  C   UNL A   1      38.601  33.259  35.066  1.00  0.00     0.049 A 
ATOM     49  N   UNL A   1      39.513  30.968  33.340  1.00  0.00    -0.248 NA
ATOM     50  C   UNL A   1      37.677  31.351  31.950  1.00  0.00     0.031 C 
ATOM     51  C   UNL A   1      38.195  34.354  35.945  1.00  0.00     0.029 A 
ATOM     52  N   UNL A   1      39.746  32.768  35.644  1.00  0.00    -0.354 N 
ATOM     53  C   UNL A   1      39.516  30.035  32.311  1.00  0.00     0.074 A 
ATOM     54  C   UNL A   1      38.348  30.299  31.499  1.00  0.00     0.031 C 
ATOM     55  C   UNL A   1      39.060  34.434  36.970  1.00  0.00     0.029 A 
ATOM     56  C   UNL A   1      40.065  33.381  36.833  1.00  0.00     0.049 A 
ATOM     57  H   UNL A   1      40.285  32.047  35.247  1.00  0.00     0.167 HD
ATOM     58  C   UNL A   1      40.418  29.056  32.057  1.00  0.00     0.034 A 
ATOM     59  C   UNL A   1      41.040  33.106  37.722  1.00  0.00     0.034 A 
ATOM     60  C   UNL A   1      41.587  28.807  32.855  1.00  0.00     0.049 A 
ATOM     61  C   UNL A   1      42.014  31.997  37.428  1.00  0.00     0.074 A 
ATOM     62  C   UNL A   1      42.592  27.880  32.641  1.00  0.00     0.029 A 
ATOM     63  N   UNL A   1      41.902  29.473  34.029  1.00  0.00    -0.354 N 
ATOM     64  N   UNL A   1      42.083  31.212  36.379  1.00  0.00    -0.248 NA
ATOM     65  C   UNL A   1      43.068  31.754  38.425  1.00  0.00     0.031 C 
ATOM     66  C   UNL A   1      43.498  27.964  33.705  1.00  0.00     0.029 A 
ATOM     67  C   UNL A   1      43.074  28.964  34.564  1.00  0.00     0.049 A 
ATOM     68  H   UNL A   1      41.370  30.201  34.425  1.00  0.00     0.167 HD
ATOM     69  C   UNL A   1      43.199  30.406  36.575  1.00  0.00     0.074 A 
ATOM     70  C   UNL A   1      43.792  30.814  37.832  1.00  0.00     0.031 C 
ATOM     71  C   UNL A   1      43.681  29.409  35.793  1.00  0.00     0.034 A 
BRANCH  58  72
ATOM     72  C   UNL A   1      40.187  28.189  30.846  1.00  0.00     0.023 A 
ATOM     73  C   UNL A   1      39.134  27.252  30.849  1.00  0.00     0.012 A 
ATOM     74  C   UNL A   1      40.971  28.345  29.686  1.00  0.00     0.148 A 
ATOM     75  C   UNL A   1      38.882  26.463  29.727  1.00  0.00     0.002 A 
ATOM     76  C   UNL A   1      40.687  27.585  28.557  1.00  0.00     0.091 A 
ATOM     77  F   UNL A   1      41.982  29.225  29.712  1.00  0.00    -0.205 F 
ATOM     78  C   UNL A   1      39.651  26.637  28.580  1.00  0.00     0.022 A 
BRANCH  76  79
ATOM     79  S   UNL A   1      41.570  27.790  27.006  1.00  0.00     0.127 S 
ATOM     80  O   UNL A   1      40.841  26.874  26.130  1.00  0.00    -0.237 OA
ATOM     81  O   UNL A   1      41.357  29.209  26.716  1.00  0.00    -0.237 OA
ATOM     82  O   UNL A   1      42.952  27.426  27.280  1.00  0.00    -0.744 OA
ENDBRANCH  76  79
ENDBRANCH  58  72
BRANCH  59  83
ATOM     83  C   UNL A   1      41.158  33.917  38.967  1.00  0.00     0.023 A 
ATOM     84  C   UNL A   1      40.561  33.457  40.156  1.00  0.00     0.012 A 
ATOM     85  C   UNL A   1      41.875  35.129  38.982  1.00  0.00     0.148 A 
ATOM     86  C   UNL A   1      40.652  34.203  41.332  1.00  0.00     0.002 A 
ATOM     87  C   UNL A   1      42.011  35.838  40.170  1.00  0.00     0.091 A 
ATOM     88  F   UNL A   1      42.419  35.559  37.835  1.00  0.00    -0.205 F 
ATOM     89  C   UNL A   1      41.387  35.387  41.342  1.00  0.00     0.022 A 
BRANCH  87  90
ATOM     90  S   UNL A   1      43.049  37.298  40.305  1.00  0.00     0.127 S 
ATOM     91  O   UNL A   1      42.139  38.353  39.866  1.00  0.00    -0.237 OA
ATOM     92  O   UNL A   1      43.366  37.312  41.733  1.00  0.00    -0.237 OA
ATOM     93  O   UNL A   1      44.194  37.047  39.441  1.00  0.00    -0.744 OA
ENDBRANCH  87  90
ENDBRANCH  59  83
BRANCH  71  94
ATOM     94  C   UNL A   1      44.927  28.696  36.255  1.00  0.00     0.023 A 
ATOM     95  C   UNL A   1      46.193  29.228  35.944  1.00  0.00     0.012 A 
ATOM     96  C   UNL A   1      44.841  27.542  37.059  1.00  0.00     0.148 A 
ATOM     97  C   UNL A   1      47.357  28.605  36.397  1.00  0.00     0.002 A 
ATOM     98  C   UNL A   1      46.003  26.954  37.548  1.00  0.00     0.091 A 
ATOM     99  F   UNL A   1      43.628  27.040  37.332  1.00  0.00    -0.205 F 
ATOM    100  C   UNL A   1      47.261  27.478  37.208  1.00  0.00     0.022 A 
BRANCH  98 101
ATOM    101  S   UNL A   1      45.975  25.555  38.675  1.00  0.00     0.127 S 
ATOM    102  O   UNL A   1      45.186  26.084  39.787  1.00  0.00    -0.237 OA
ATOM    103  O   UNL A   1      45.298  24.530  37.882  1.00  0.00    -0.237 OA
ATOM    104  O   UNL A   1      47.368  25.259  38.983  1.00  0.00    -0.744 OA
ENDBRANCH  98 101
ENDBRANCH  71  94
ENDBRANCH  45  46
ENDBRANCH  38  40
ENDBRANCH  37  38
ENDBRANCH  36  37
ENDBRANCH  35  36
ENDBRANCH   1  35
TORSDOF 21
ENDMDL
MODEL 3
REMARK VINA RESULT:     -11.2      0.926      7.342
REMARK SMILES CS(=O)(=O)c1ccc(C2=NN(c3ccc(C(=O)OCCOCCOC(=O)c4ccc(-c5c6nc(c(-c7cccc(S(=O)(=O)[O-])c7F)c7ccc([nH]7)c(-c7cccc(S(=O)(=O)[O-])c7F)c7nc(c(-c8cccc(S(=O)(=O)[O-])c8F)c8ccc5[nH]8)C=C7)C=C6)cc4)cc3)[C@H](c3ccc(F)cc3)C2)cc1
REMARK SMILES IDX 21 1 20 2 19 3 18 4 16 5 17 6 15 7 12 8 13 9 91 10 14 11
REMARK SMILES IDX 90 12 11 13 9 14 10 15 100 16 92 17 8 18 5 19 6 20 102 21
REMARK SMILES IDX 7 22 101 23 2 24 1 25 3 26 4 27 93 28 94 29 99 30 95 31
REMARK SMILES IDX 98 32 96 33 97 34 22 35 23 36 24 37 25 38 26 39 27 40 28 41
REMARK SMILES IDX 89 42 29 43 88 44 30 45 31 46 32 47 82 48 33 49 87 50 81 51
REMARK SMILES IDX 83 52 34 53 86 54 80 55 79 56 35 58 67 59 47 60 66 61 48 62
REMARK SMILES IDX 51 63 65 64 84 65 49 66 50 67 64 69 85 70 52 71 36 72 37 73
REMARK SMILES IDX 45 74 38 75 40 76 46 77 39 78 41 79 42 80 43 81 44 82 68 83
REMARK SMILES IDX 69 84 77 85 70 86 72 87 78 88 71 89 73 90 74 91 75 92 76 93
REMARK SMILES IDX 53 94 54 95 62 96 55 97 57 98 63 99 56 100 58 101 59 102
REMARK SMILES IDX 60 103 61 104
REMARK H PARENT 83 57 51 68
REMARK Flexibility Score: inf
ROOT
ATOM      1  O   UNL A   1      33.185  35.630  28.797  1.00  0.00    -0.374 OA
ENDROOT
BRANCH   1   2
ATOM      2  C   UNL A   1      34.242  34.690  28.999  1.00  0.00     0.202 C 
BRANCH   2   3
ATOM      3  C   UNL A   1      34.515  33.712  27.854  1.00  0.00     0.261 C 
BRANCH   3   4
ATOM      4  O   UNL A   1      33.660  32.564  27.943  1.00  0.00    -0.460 OA
BRANCH   4   5
ATOM      5  C   UNL A   1      34.289  31.382  28.137  1.00  0.00     0.338 C 
ATOM      6  O   UNL A   1      35.060  31.105  29.048  1.00  0.00    -0.246 OA
BRANCH   5   7
ATOM      7  C   UNL A   1      33.830  30.379  27.144  1.00  0.00     0.060 A 
ATOM      8  C   UNL A   1      32.769  28.419  25.437  1.00  0.00     0.060 A 
ATOM      9  C   UNL A   1      31.995  29.523  25.808  1.00  0.00     0.029 A 
ATOM     10  C   UNL A   1      34.115  28.376  25.827  1.00  0.00     0.029 A 
ATOM     11  C   UNL A   1      32.519  30.494  26.663  1.00  0.00     0.018 A 
ATOM     12  C   UNL A   1      34.648  29.342  26.685  1.00  0.00     0.018 A 
BRANCH   8  13
ATOM     13  N   UNL A   1      32.186  27.294  24.845  1.00  0.00    -0.257 N 
ATOM     14  C   UNL A   1      32.395  25.251  24.271  1.00  0.00     0.071 C 
ATOM     15  N   UNL A   1      32.513  26.050  25.285  1.00  0.00    -0.176 NA
ATOM     16  C   UNL A   1      32.117  25.906  22.947  1.00  0.00     0.091 C 
ATOM     17  C   UNL A   1      31.916  27.359  23.397  1.00  0.00     0.144 C 
BRANCH  14  18
ATOM     18  C   UNL A   1      32.516  23.787  24.398  1.00  0.00    -0.002 A 
ATOM     19  C   UNL A   1      32.800  21.018  24.556  1.00  0.00     0.067 A 
ATOM     20  C   UNL A   1      33.391  21.717  23.500  1.00  0.00     0.021 A 
ATOM     21  C   UNL A   1      32.070  21.697  25.539  1.00  0.00     0.021 A 
ATOM     22  C   UNL A   1      33.236  23.101  23.413  1.00  0.00     0.011 A 
ATOM     23  C   UNL A   1      31.938  23.090  25.463  1.00  0.00     0.011 A 
BRANCH  19  24
ATOM     24  S   UNL A   1      33.023  19.254  24.596  1.00  0.00     0.175 S 
ATOM     25  C   UNL A   1      32.405  18.614  23.066  1.00  0.00     0.163 C 
ATOM     26  O   UNL A   1      32.153  18.746  25.640  1.00  0.00    -0.224 OA
ATOM     27  O   UNL A   1      34.454  19.018  24.626  1.00  0.00    -0.224 OA
ENDBRANCH  19  24
ENDBRANCH  14  18
BRANCH  17  28
ATOM     28  C   UNL A   1      30.563  28.010  23.137  1.00  0.00    -0.023 A 
ATOM     29  C   UNL A   1      29.340  27.430  23.507  1.00  0.00     0.009 A 
ATOM     30  C   UNL A   1      30.539  29.306  22.575  1.00  0.00     0.009 A 
ATOM     31  C   UNL A   1      28.141  28.124  23.323  1.00  0.00     0.039 A 
ATOM     32  C   UNL A   1      29.347  30.014  22.431  1.00  0.00     0.039 A 
ATOM     33  C   UNL A   1      28.155  29.412  22.802  1.00  0.00     0.123 A 
ATOM     34  F   UNL A   1      27.004  30.080  22.669  1.00  0.00    -0.207 F 
ENDBRANCH  17  28
ENDBRANCH   8  13
ENDBRANCH   5   7
ENDBRANCH   4   5
ENDBRANCH   3   4
ENDBRANCH   2   3
ENDBRANCH   1   2
BRANCH   1  35
ATOM     35  C   UNL A   1      32.527  36.131  29.961  1.00  0.00     0.202 C 
BRANCH  35  36
ATOM     36  C   UNL A   1      33.273  37.190  30.783  1.00  0.00     0.261 C 
BRANCH  36  37
ATOM     37  O   UNL A   1      33.289  36.888  32.188  1.00  0.00    -0.460 OA
BRANCH  37  38
ATOM     38  C   UNL A   1      33.021  35.597  32.494  1.00  0.00     0.338 C 
ATOM     39  O   UNL A   1      31.923  35.052  32.503  1.00  0.00    -0.246 OA
BRANCH  38  40
ATOM     40  C   UNL A   1      34.278  34.845  32.654  1.00  0.00     0.060 A 
ATOM     41  C   UNL A   1      34.206  33.584  33.260  1.00  0.00     0.016 A 
ATOM     42  C   UNL A   1      35.510  35.379  32.271  1.00  0.00     0.016 A 
ATOM     43  C   UNL A   1      35.371  32.868  33.524  1.00  0.00     0.010 A 
ATOM     44  C   UNL A   1      36.680  34.661  32.543  1.00  0.00     0.010 A 
ATOM     45  C   UNL A   1      36.618  33.416  33.197  1.00  0.00    -0.014 A 
BRANCH  45  46
ATOM     46  C   UNL A   1      37.862  32.729  33.624  1.00  0.00     0.031 A 
ATOM     47  C   UNL A   1      38.391  31.583  32.807  1.00  0.00     0.074 A 
ATOM     48  C   UNL A   1      38.508  33.122  34.736  1.00  0.00     0.049 A 
ATOM     49  N   UNL A   1      39.442  30.834  33.018  1.00  0.00    -0.248 NA
ATOM     50  C   UNL A   1      37.635  31.231  31.594  1.00  0.00     0.031 C 
ATOM     51  C   UNL A   1      38.090  34.214  35.612  1.00  0.00     0.029 A 
ATOM     52  N   UNL A   1      39.638  32.623  35.334  1.00  0.00    -0.354 N 
ATOM     53  C   UNL A   1      39.460  29.905  31.985  1.00  0.00     0.074 A 
ATOM     54  C   UNL A   1      38.309  30.178  31.152  1.00  0.00     0.031 C 
ATOM     55  C   UNL A   1      38.935  34.286  36.654  1.00  0.00     0.029 A 
ATOM     56  C   UNL A   1      39.938  33.228  36.532  1.00  0.00     0.049 A 
ATOM     57  H   UNL A   1      40.182  31.901  34.944  1.00  0.00     0.167 HD
ATOM     58  C   UNL A   1      40.362  28.923  31.743  1.00  0.00     0.034 A 
ATOM     59  C   UNL A   1      40.895  32.945  37.438  1.00  0.00     0.034 A 
ATOM     60  C   UNL A   1      41.514  28.665  32.563  1.00  0.00     0.049 A 
ATOM     61  C   UNL A   1      41.869  31.833  37.157  1.00  0.00     0.074 A 
ATOM     62  C   UNL A   1      42.519  27.735  32.364  1.00  0.00     0.029 A 
ATOM     63  N   UNL A   1      41.810  29.325  33.746  1.00  0.00    -0.354 N 
ATOM     64  N   UNL A   1      41.954  31.053  36.106  1.00  0.00    -0.248 NA
ATOM     65  C   UNL A   1      42.903  31.580  38.173  1.00  0.00     0.031 C 
ATOM     66  C   UNL A   1      43.405  27.810  33.445  1.00  0.00     0.029 A 
ATOM     67  C   UNL A   1      42.969  28.808  34.300  1.00  0.00     0.049 A 
ATOM     68  H   UNL A   1      41.274  30.054  34.135  1.00  0.00     0.167 HD
ATOM     69  C   UNL A   1      43.062  30.240  36.320  1.00  0.00     0.074 A 
ATOM     70  C   UNL A   1      43.633  30.640  37.590  1.00  0.00     0.031 C 
ATOM     71  C   UNL A   1      43.554  29.244  35.542  1.00  0.00     0.034 A 
BRANCH  58  72
ATOM     72  C   UNL A   1      40.150  28.063  30.525  1.00  0.00     0.023 A 
ATOM     73  C   UNL A   1      39.141  27.080  30.532  1.00  0.00     0.012 A 
ATOM     74  C   UNL A   1      40.908  28.269  29.355  1.00  0.00     0.148 A 
ATOM     75  C   UNL A   1      38.905  26.294  29.403  1.00  0.00     0.002 A 
ATOM     76  C   UNL A   1      40.640  27.512  28.220  1.00  0.00     0.091 A 
ATOM     77  F   UNL A   1      41.878  29.193  29.377  1.00  0.00    -0.205 F 
ATOM     78  C   UNL A   1      39.648  26.518  28.246  1.00  0.00     0.022 A 
BRANCH  76  79
ATOM     79  S   UNL A   1      41.487  27.776  26.658  1.00  0.00     0.127 S 
ATOM     80  O   UNL A   1      41.032  26.627  25.878  1.00  0.00    -0.237 OA
ATOM     81  O   UNL A   1      40.939  29.062  26.224  1.00  0.00    -0.237 OA
ATOM     82  O   UNL A   1      42.908  27.796  26.971  1.00  0.00    -0.744 OA
ENDBRANCH  76  79
ENDBRANCH  58  72
BRANCH  59  83
ATOM     83  C   UNL A   1      40.992  33.750  38.688  1.00  0.00     0.023 A 
ATOM     84  C   UNL A   1      41.932  34.795  38.772  1.00  0.00     0.012 A 
ATOM     85  C   UNL A   1      40.145  33.499  39.785  1.00  0.00     0.148 A 
ATOM     86  C   UNL A   1      42.046  35.558  39.935  1.00  0.00     0.002 A 
ATOM     87  C   UNL A   1      40.224  34.299  40.918  1.00  0.00     0.091 A 
ATOM     88  F   UNL A   1      39.271  32.487  39.693  1.00  0.00    -0.205 F 
ATOM     89  C   UNL A   1      41.185  35.317  41.003  1.00  0.00     0.022 A 
BRANCH  87  90
ATOM     90  S   UNL A   1      39.067  34.148  42.285  1.00  0.00     0.127 S 
ATOM     91  O   UNL A   1      37.792  34.422  41.628  1.00  0.00    -0.237 OA
ATOM     92  O   UNL A   1      39.263  32.756  42.694  1.00  0.00    -0.237 OA
ATOM     93  O   UNL A   1      39.497  35.127  43.273  1.00  0.00    -0.744 OA
ENDBRANCH  87  90
ENDBRANCH  59  83
BRANCH  71  94
ATOM     94  C   UNL A   1      44.788  28.523  36.026  1.00  0.00     0.023 A 
ATOM     95  C   UNL A   1      46.063  28.991  35.651  1.00  0.00     0.012 A 
ATOM     96  C   UNL A   1      44.686  27.430  36.909  1.00  0.00     0.148 A 
ATOM     97  C   UNL A   1      47.216  28.362  36.120  1.00  0.00     0.002 A 
ATOM     98  C   UNL A   1      45.840  26.839  37.412  1.00  0.00     0.091 A 
ATOM     99  F   UNL A   1      43.464  26.989  37.242  1.00  0.00    -0.205 F 
ATOM    100  C   UNL A   1      47.105  27.296  37.008  1.00  0.00     0.022 A 
BRANCH  98 101
ATOM    101  S   UNL A   1      45.795  25.521  38.632  1.00  0.00     0.127 S 
ATOM    102  O   UNL A   1      47.216  25.221  38.798  1.00  0.00    -0.237 OA
ATOM    103  O   UNL A   1      45.175  26.183  39.781  1.00  0.00    -0.237 OA
ATOM    104  O   UNL A   1      44.994  24.455  38.045  1.00  0.00    -0.744 OA
ENDBRANCH  98 101
ENDBRANCH  71  94
ENDBRANCH  45  46
ENDBRANCH  38  40
ENDBRANCH  37  38
ENDBRANCH  36  37
ENDBRANCH  35  36
ENDBRANCH   1  35
TORSDOF 21
ENDMDL
