MODEL 1
REMARK VINA RESULT:     -12.9      0.000      0.000
REMARK SMILES O=C(OCCOCCOC(=O)[C@H]1Cc2c([nH]c3ccccc23)[C@H](c2c[nH]c3ccccc23)[NH2+]1)c1ccc(-c2c3nc(c(-c4cccc(S(=O)(=O)[O-])c4F)c4ccc([nH]4)c(-c4cccc(S(=O)(=O)[O-])c4F)c4nc(c(-c5cccc(S(=O)(=O)[O-])c5F)c5ccc2[nH]5)C=C4)C=C3)cc1
REMARK SMILES IDX 5 1 4 2 3 3 2 4 1 5 34 6 35 7 96 8 36 9 95 10 37 11 38 12
REMARK SMILES IDX 39 13 89 14 40 15 94 16 88 17 90 18 41 19 93 20 87 21 86 22
REMARK SMILES IDX 42 24 74 25 54 26 73 27 55 28 58 29 72 30 91 31 56 32 57 33
REMARK SMILES IDX 71 35 92 36 59 37 43 38 44 39 52 40 45 41 47 42 53 43 46 44
REMARK SMILES IDX 48 45 49 46 50 47 51 48 75 49 76 50 84 51 77 52 79 53 85 54
REMARK SMILES IDX 78 55 80 56 81 57 82 58 83 59 60 60 61 61 69 62 62 63 64 64
REMARK SMILES IDX 70 65 63 66 65 67 66 68 67 69 68 70 6 71 7 72 8 73 9 74
REMARK SMILES IDX 10 75 11 76 12 77 13 78 33 79 14 80 23 81 15 84 22 85 16 86
REMARK SMILES IDX 17 87 21 88 18 90 20 91 19 92 24 93 25 94 32 95 26 96 27 97
REMARK SMILES IDX 31 98 28 100 30 101 29 102
REMARK H PARENT 90 23 58 34 33 82 33 83 16 89 26 99
REMARK Flexibility Score: inf
ROOT
ATOM      1  C   UNL A   1      41.791  20.780  26.452  1.00  0.00     0.202 C 
ENDROOT
BRANCH   1   2
ATOM      2  C   UNL A   1      43.014  21.377  25.735  1.00  0.00     0.261 C 
BRANCH   2   3
ATOM      3  O   UNL A   1      42.683  22.574  25.015  1.00  0.00    -0.460 OA
BRANCH   3   4
ATOM      4  C   UNL A   1      43.146  23.829  25.251  1.00  0.00     0.338 C 
ATOM      5  O   UNL A   1      44.162  24.197  24.665  1.00  0.00    -0.246 OA
BRANCH   4   6
ATOM      6  C   UNL A   1      42.480  24.781  26.193  1.00  0.00     0.060 A 
ATOM      7  C   UNL A   1      43.000  26.020  26.559  1.00  0.00     0.016 A 
ATOM      8  C   UNL A   1      41.225  24.428  26.713  1.00  0.00     0.016 A 
ATOM      9  C   UNL A   1      42.360  26.870  27.419  1.00  0.00     0.010 A 
ATOM     10  C   UNL A   1      40.556  25.279  27.600  1.00  0.00     0.010 A 
ATOM     11  C   UNL A   1      41.150  26.491  27.964  1.00  0.00    -0.014 A 
BRANCH  11  12
ATOM     12  C   UNL A   1      40.739  27.330  29.089  1.00  0.00     0.031 A 
ATOM     13  C   UNL A   1      41.676  27.402  30.251  1.00  0.00     0.074 A 
ATOM     14  C   UNL A   1      39.747  28.218  28.896  1.00  0.00     0.049 A 
ATOM     15  N   UNL A   1      41.603  28.136  31.322  1.00  0.00    -0.248 NA
ATOM     16  C   UNL A   1      42.888  26.560  30.178  1.00  0.00     0.031 C 
ATOM     17  C   UNL A   1      38.952  28.339  27.667  1.00  0.00     0.029 A 
ATOM     18  N   UNL A   1      39.286  29.223  29.693  1.00  0.00    -0.354 N 
ATOM     19  C   UNL A   1      42.707  27.785  32.085  1.00  0.00     0.074 A 
ATOM     20  C   UNL A   1      43.468  26.813  31.339  1.00  0.00     0.031 C 
ATOM     21  C   UNL A   1      38.103  29.370  27.796  1.00  0.00     0.029 A 
ATOM     22  C   UNL A   1      38.244  29.923  29.135  1.00  0.00     0.049 A 
ATOM     23  H   UNL A   1      39.662  29.425  30.579  1.00  0.00     0.167 HD
ATOM     24  C   UNL A   1      43.028  28.228  33.319  1.00  0.00     0.034 A 
ATOM     25  C   UNL A   1      37.469  30.873  29.685  1.00  0.00     0.034 A 
ATOM     26  C   UNL A   1      42.243  29.210  34.010  1.00  0.00     0.049 A 
ATOM     27  C   UNL A   1      37.796  31.284  31.095  1.00  0.00     0.074 A 
ATOM     28  C   UNL A   1      42.399  29.698  35.290  1.00  0.00     0.029 A 
ATOM     29  N   UNL A   1      41.137  29.846  33.461  1.00  0.00    -0.354 N 
ATOM     30  N   UNL A   1      38.802  30.905  31.850  1.00  0.00    -0.248 NA
ATOM     31  C   UNL A   1      36.896  32.252  31.727  1.00  0.00     0.031 C 
ATOM     32  C   UNL A   1      41.359  30.604  35.529  1.00  0.00     0.029 A 
ATOM     33  C   UNL A   1      40.590  30.719  34.378  1.00  0.00     0.049 A 
ATOM     34  H   UNL A   1      40.794  29.698  32.550  1.00  0.00     0.167 HD
ATOM     35  C   UNL A   1      38.679  31.614  33.035  1.00  0.00     0.074 A 
ATOM     36  C   UNL A   1      37.508  32.459  32.885  1.00  0.00     0.031 C 
ATOM     37  C   UNL A   1      39.449  31.571  34.151  1.00  0.00     0.034 A 
BRANCH  24  38
ATOM     38  C   UNL A   1      44.194  27.570  34.000  1.00  0.00     0.023 A 
ATOM     39  C   UNL A   1      45.512  28.024  33.788  1.00  0.00     0.012 A 
ATOM     40  C   UNL A   1      43.973  26.448  34.823  1.00  0.00     0.148 A 
ATOM     41  C   UNL A   1      46.593  27.346  34.354  1.00  0.00     0.002 A 
ATOM     42  C   UNL A   1      45.049  25.807  35.421  1.00  0.00     0.091 A 
ATOM     43  F   UNL A   1      42.715  26.008  34.977  1.00  0.00    -0.205 F 
ATOM     44  C   UNL A   1      46.361  26.244  35.175  1.00  0.00     0.022 A 
BRANCH  42  45
ATOM     45  S   UNL A   1      44.846  24.419  36.541  1.00  0.00     0.127 S 
ATOM     46  O   UNL A   1      44.501  23.341  35.615  1.00  0.00    -0.237 OA
ATOM     47  O   UNL A   1      46.178  24.312  37.135  1.00  0.00    -0.237 OA
ATOM     48  O   UNL A   1      43.793  24.801  37.471  1.00  0.00    -0.744 OA
ENDBRANCH  42  45
ENDBRANCH  24  38
BRANCH  25  49
ATOM     49  C   UNL A   1      36.320  31.452  28.933  1.00  0.00     0.023 A 
ATOM     50  C   UNL A   1      36.259  32.838  28.695  1.00  0.00     0.012 A 
ATOM     51  C   UNL A   1      35.283  30.629  28.446  1.00  0.00     0.148 A 
ATOM     52  C   UNL A   1      35.173  33.396  28.017  1.00  0.00     0.002 A 
ATOM     53  C   UNL A   1      34.233  31.183  27.722  1.00  0.00     0.091 A 
ATOM     54  F   UNL A   1      35.345  29.313  28.695  1.00  0.00    -0.205 F 
ATOM     55  C   UNL A   1      34.166  32.569  27.523  1.00  0.00     0.022 A 
BRANCH  53  56
ATOM     56  S   UNL A   1      32.957  30.179  26.954  1.00  0.00     0.127 S 
ATOM     57  O   UNL A   1      31.881  31.151  26.776  1.00  0.00    -0.237 OA
ATOM     58  O   UNL A   1      33.613  29.750  25.718  1.00  0.00    -0.237 OA
ATOM     59  O   UNL A   1      32.685  29.099  27.894  1.00  0.00    -0.744 OA
ENDBRANCH  53  56
ENDBRANCH  25  49
BRANCH  37  60
ATOM     60  C   UNL A   1      39.083  32.512  35.262  1.00  0.00     0.023 A 
ATOM     61  C   UNL A   1      38.201  32.102  36.278  1.00  0.00     0.012 A 
ATOM     62  C   UNL A   1      39.690  33.780  35.330  1.00  0.00     0.148 A 
ATOM     63  C   UNL A   1      37.897  32.960  37.332  1.00  0.00     0.002 A 
ATOM     64  C   UNL A   1      39.433  34.604  36.414  1.00  0.00     0.091 A 
ATOM     65  F   UNL A   1      40.511  34.153  34.337  1.00  0.00    -0.205 F 
ATOM     66  C   UNL A   1      38.524  34.204  37.407  1.00  0.00     0.022 A 
BRANCH  64  67
ATOM     67  S   UNL A   1      40.289  36.163  36.648  1.00  0.00     0.127 S 
ATOM     68  O   UNL A   1      39.668  36.663  37.872  1.00  0.00    -0.237 OA
ATOM     69  O   UNL A   1      41.680  35.733  36.799  1.00  0.00    -0.237 OA
ATOM     70  O   UNL A   1      40.029  36.946  35.446  1.00  0.00    -0.744 OA
ENDBRANCH  64  67
ENDBRANCH  37  60
ENDBRANCH  11  12
ENDBRANCH   4   6
ENDBRANCH   3   4
ENDBRANCH   2   3
ENDBRANCH   1   2
BRANCH   1  71
ATOM     71  O   UNL A   1      41.070  19.729  25.807  1.00  0.00    -0.374 OA
BRANCH  71  72
ATOM     72  C   UNL A   1      39.653  19.897  25.694  1.00  0.00     0.202 C 
BRANCH  72  73
ATOM     73  C   UNL A   1      39.233  21.344  25.916  1.00  0.00     0.261 C 
BRANCH  73  74
ATOM     74  O   UNL A   1      37.909  21.513  25.386  1.00  0.00    -0.459 OA
BRANCH  74  75
ATOM     75  C   UNL A   1      37.295  22.661  25.768  1.00  0.00     0.365 C 
ATOM     76  O   UNL A   1      37.852  23.620  26.299  1.00  0.00    -0.245 OA
BRANCH  75  77
ATOM     77  C   UNL A   1      35.799  22.632  25.486  1.00  0.00     0.298 C 
ATOM     78  C   UNL A   1      35.148  24.030  25.455  1.00  0.00     0.115 C 
ATOM     79  N   UNL A   1      35.565  21.830  24.255  1.00  0.00    -0.323 N 
ATOM     80  C   UNL A   1      33.763  23.925  24.949  1.00  0.00    -0.006 A 
ATOM     81  C   UNL A   1      34.146  21.530  24.063  1.00  0.00     0.264 C 
ATOM     82  H   UNL A   1      36.081  20.953  24.330  1.00  0.00     0.347 HD
ATOM     83  H   UNL A   1      35.885  22.376  23.455  1.00  0.00     0.347 HD
ATOM     84  C   UNL A   1      33.331  22.777  24.315  1.00  0.00     0.083 A 
ATOM     85  C   UNL A   1      32.687  24.843  25.026  1.00  0.00     0.003 A 
ATOM     86  N   UNL A   1      32.044  23.010  23.909  1.00  0.00    -0.353 N 
ATOM     87  C   UNL A   1      31.620  24.253  24.346  1.00  0.00     0.046 A 
ATOM     88  C   UNL A   1      32.512  26.117  25.605  1.00  0.00     0.010 A 
ATOM     89  H   UNL A   1      31.498  22.384  23.381  1.00  0.00     0.166 HD
ATOM     90  C   UNL A   1      30.386  24.897  24.198  1.00  0.00     0.026 A 
ATOM     91  C   UNL A   1      31.275  26.759  25.486  1.00  0.00     0.001 A 
ATOM     92  C   UNL A   1      30.231  26.158  24.785  1.00  0.00     0.002 A 
BRANCH  81  93
ATOM     93  C   UNL A   1      33.699  20.309  24.859  1.00  0.00     0.041 A 
ATOM     94  C   UNL A   1      33.223  20.418  26.159  1.00  0.00     0.093 A 
ATOM     95  C   UNL A   1      33.591  18.888  24.531  1.00  0.00     0.009 A 
ATOM     96  N   UNL A   1      32.903  19.180  26.631  1.00  0.00    -0.361 N 
ATOM     97  C   UNL A   1      33.136  18.226  25.675  1.00  0.00     0.046 A 
ATOM     98  C   UNL A   1      33.816  18.066  23.398  1.00  0.00     0.011 A 
ATOM     99  H   UNL A   1      32.553  18.996  27.532  1.00  0.00     0.166 HD
ATOM    100  C   UNL A   1      32.960  16.835  25.749  1.00  0.00     0.026 A 
ATOM    101  C   UNL A   1      33.687  16.672  23.459  1.00  0.00     0.001 A 
ATOM    102  C   UNL A   1      33.265  16.064  24.627  1.00  0.00     0.002 A 
ENDBRANCH  81  93
ENDBRANCH  75  77
ENDBRANCH  74  75
ENDBRANCH  73  74
ENDBRANCH  72  73
ENDBRANCH  71  72
ENDBRANCH   1  71
TORSDOF 18
ENDMDL
MODEL 2
REMARK VINA RESULT:     -12.8      2.536      8.943
REMARK SMILES O=C(OCCOCCOC(=O)[C@H]1Cc2c([nH]c3ccccc23)[C@H](c2c[nH]c3ccccc23)[NH2+]1)c1ccc(-c2c3nc(c(-c4cccc(S(=O)(=O)[O-])c4F)c4ccc([nH]4)c(-c4cccc(S(=O)(=O)[O-])c4F)c4nc(c(-c5cccc(S(=O)(=O)[O-])c5F)c5ccc2[nH]5)C=C4)C=C3)cc1
REMARK SMILES IDX 5 1 4 2 3 3 2 4 1 5 34 6 35 7 96 8 36 9 95 10 37 11 38 12
REMARK SMILES IDX 39 13 89 14 40 15 94 16 88 17 90 18 41 19 93 20 87 21 86 22
REMARK SMILES IDX 42 24 74 25 54 26 73 27 55 28 58 29 72 30 91 31 56 32 57 33
REMARK SMILES IDX 71 35 92 36 59 37 43 38 44 39 52 40 45 41 47 42 53 43 46 44
REMARK SMILES IDX 48 45 49 46 50 47 51 48 75 49 76 50 84 51 77 52 79 53 85 54
REMARK SMILES IDX 78 55 80 56 81 57 82 58 83 59 60 60 61 61 69 62 62 63 64 64
REMARK SMILES IDX 70 65 63 66 65 67 66 68 67 69 68 70 6 71 7 72 8 73 9 74
REMARK SMILES IDX 10 75 11 76 12 77 13 78 33 79 14 80 23 81 15 84 22 85 16 86
REMARK SMILES IDX 17 87 21 88 18 90 20 91 19 92 24 93 25 94 32 95 26 96 27 97
REMARK SMILES IDX 31 98 28 100 30 101 29 102
REMARK H PARENT 90 23 58 34 33 82 33 83 16 89 26 99
REMARK Flexibility Score: inf
ROOT
ATOM      1  C   UNL A   1      32.307  28.206  27.437  1.00  0.00     0.202 C 
ENDROOT
BRANCH   1   2
ATOM      2  C   UNL A   1      31.851  29.660  27.224  1.00  0.00     0.261 C 
BRANCH   2   3
ATOM      3  O   UNL A   1      32.911  30.487  26.721  1.00  0.00    -0.460 OA
BRANCH   3   4
ATOM      4  C   UNL A   1      33.707  31.324  27.434  1.00  0.00     0.338 C 
ATOM      5  O   UNL A   1      33.279  32.444  27.709  1.00  0.00    -0.246 OA
BRANCH   4   6
ATOM      6  C   UNL A   1      35.079  30.951  27.898  1.00  0.00     0.060 A 
ATOM      7  C   UNL A   1      35.525  29.643  28.071  1.00  0.00     0.016 A 
ATOM      8  C   UNL A   1      36.001  31.984  28.135  1.00  0.00     0.016 A 
ATOM      9  C   UNL A   1      36.790  29.338  28.491  1.00  0.00     0.010 A 
ATOM     10  C   UNL A   1      37.298  31.695  28.573  1.00  0.00     0.010 A 
ATOM     11  C   UNL A   1      37.673  30.362  28.770  1.00  0.00    -0.014 A 
BRANCH  11  12
ATOM     12  C   UNL A   1      38.858  29.917  29.500  1.00  0.00     0.031 A 
ATOM     13  C   UNL A   1      38.912  30.246  30.957  1.00  0.00     0.074 A 
ATOM     14  C   UNL A   1      39.647  28.987  28.933  1.00  0.00     0.049 A 
ATOM     15  N   UNL A   1      39.791  29.892  31.848  1.00  0.00    -0.248 NA
ATOM     16  C   UNL A   1      37.799  31.053  31.496  1.00  0.00     0.031 C 
ATOM     17  C   UNL A   1      39.482  28.457  27.573  1.00  0.00     0.029 A 
ATOM     18  N   UNL A   1      40.693  28.278  29.443  1.00  0.00    -0.354 N 
ATOM     19  C   UNL A   1      39.385  30.499  33.028  1.00  0.00     0.074 A 
ATOM     20  C   UNL A   1      38.154  31.201  32.761  1.00  0.00     0.031 C 
ATOM     21  C   UNL A   1      40.397  27.499  27.363  1.00  0.00     0.029 A 
ATOM     22  C   UNL A   1      41.252  27.408  28.538  1.00  0.00     0.049 A 
ATOM     23  H   UNL A   1      41.017  28.380  30.367  1.00  0.00     0.167 HD
ATOM     24  C   UNL A   1      40.017  30.483  34.220  1.00  0.00     0.034 A 
ATOM     25  C   UNL A   1      42.364  26.662  28.653  1.00  0.00     0.034 A 
ATOM     26  C   UNL A   1      41.233  29.753  34.435  1.00  0.00     0.049 A 
ATOM     27  C   UNL A   1      43.097  26.734  29.964  1.00  0.00     0.074 A 
ATOM     28  C   UNL A   1      42.026  29.705  35.562  1.00  0.00     0.029 A 
ATOM     29  N   UNL A   1      41.832  28.944  33.477  1.00  0.00    -0.354 N 
ATOM     30  N   UNL A   1      42.754  27.362  31.066  1.00  0.00    -0.248 NA
ATOM     31  C   UNL A   1      44.359  25.994  30.057  1.00  0.00     0.031 C 
ATOM     32  C   UNL A   1      43.130  28.894  35.270  1.00  0.00     0.029 A 
ATOM     33  C   UNL A   1      42.994  28.396  33.980  1.00  0.00     0.049 A 
ATOM     34  H   UNL A   1      41.479  28.784  32.572  1.00  0.00     0.167 HD
ATOM     35  C   UNL A   1      43.738  27.066  31.997  1.00  0.00     0.074 A 
ATOM     36  C   UNL A   1      44.680  26.186  31.329  1.00  0.00     0.031 C 
ATOM     37  C   UNL A   1      43.865  27.485  33.281  1.00  0.00     0.034 A 
BRANCH  24  38
ATOM     38  C   UNL A   1      39.452  31.356  35.305  1.00  0.00     0.023 A 
ATOM     39  C   UNL A   1      38.453  30.880  36.176  1.00  0.00     0.012 A 
ATOM     40  C   UNL A   1      39.893  32.690  35.420  1.00  0.00     0.148 A 
ATOM     41  C   UNL A   1      37.872  31.730  37.119  1.00  0.00     0.002 A 
ATOM     42  C   UNL A   1      39.345  33.517  36.391  1.00  0.00     0.091 A 
ATOM     43  F   UNL A   1      40.815  33.134  34.553  1.00  0.00    -0.205 F 
ATOM     44  C   UNL A   1      38.324  33.044  37.231  1.00  0.00     0.022 A 
BRANCH  42  45
ATOM     45  S   UNL A   1      39.904  35.202  36.650  1.00  0.00     0.127 S 
ATOM     46  O   UNL A   1      39.246  35.540  37.912  1.00  0.00    -0.237 OA
ATOM     47  O   UNL A   1      41.353  35.030  36.744  1.00  0.00    -0.237 OA
ATOM     48  O   UNL A   1      39.454  35.961  35.492  1.00  0.00    -0.744 OA
ENDBRANCH  42  45
ENDBRANCH  24  38
BRANCH  25  49
ATOM     49  C   UNL A   1      42.855  25.842  27.509  1.00  0.00     0.023 A 
ATOM     50  C   UNL A   1      43.741  26.401  26.569  1.00  0.00     0.012 A 
ATOM     51  C   UNL A   1      42.449  24.500  27.351  1.00  0.00     0.148 A 
ATOM     52  C   UNL A   1      44.185  25.652  25.477  1.00  0.00     0.002 A 
ATOM     53  C   UNL A   1      42.938  23.743  26.294  1.00  0.00     0.091 A 
ATOM     54  F   UNL A   1      41.591  23.986  28.244  1.00  0.00    -0.205 F 
ATOM     55  C   UNL A   1      43.792  24.322  25.345  1.00  0.00     0.022 A 
BRANCH  53  56
ATOM     56  S   UNL A   1      42.574  21.993  26.113  1.00  0.00     0.127 S 
ATOM     57  O   UNL A   1      42.953  21.473  27.425  1.00  0.00    -0.237 OA
ATOM     58  O   UNL A   1      41.135  22.009  25.848  1.00  0.00    -0.237 OA
ATOM     59  O   UNL A   1      43.385  21.534  24.993  1.00  0.00    -0.744 OA
ENDBRANCH  53  56
ENDBRANCH  25  49
BRANCH  37  60
ATOM     60  C   UNL A   1      45.028  26.939  34.058  1.00  0.00     0.023 A 
ATOM     61  C   UNL A   1      46.253  27.631  34.082  1.00  0.00     0.012 A 
ATOM     62  C   UNL A   1      44.865  25.775  34.831  1.00  0.00     0.148 A 
ATOM     63  C   UNL A   1      47.317  27.147  34.839  1.00  0.00     0.002 A 
ATOM     64  C   UNL A   1      45.907  25.335  35.632  1.00  0.00     0.091 A 
ATOM     65  F   UNL A   1      43.693  25.125  34.773  1.00  0.00    -0.205 F 
ATOM     66  C   UNL A   1      47.139  26.009  35.625  1.00  0.00     0.022 A 
BRANCH  64  67
ATOM     67  S   UNL A   1      45.719  23.953  36.761  1.00  0.00     0.127 S 
ATOM     68  O   UNL A   1      45.052  22.966  35.915  1.00  0.00    -0.237 OA
ATOM     69  O   UNL A   1      47.108  23.634  37.094  1.00  0.00    -0.237 OA
ATOM     70  O   UNL A   1      44.933  24.455  37.880  1.00  0.00    -0.744 OA
ENDBRANCH  64  67
ENDBRANCH  37  60
ENDBRANCH  11  12
ENDBRANCH   4   6
ENDBRANCH   3   4
ENDBRANCH   2   3
ENDBRANCH   1   2
BRANCH   1  71
ATOM     71  O   UNL A   1      31.376  27.155  27.179  1.00  0.00    -0.374 OA
BRANCH  71  72
ATOM     72  C   UNL A   1      30.536  27.308  26.030  1.00  0.00     0.202 C 
BRANCH  72  73
ATOM     73  C   UNL A   1      29.970  25.973  25.558  1.00  0.00     0.261 C 
BRANCH  73  74
ATOM     74  O   UNL A   1      29.890  25.096  26.692  1.00  0.00    -0.459 OA
BRANCH  74  75
ATOM     75  C   UNL A   1      30.361  23.844  26.465  1.00  0.00     0.365 C 
ATOM     76  O   UNL A   1      29.888  22.812  26.938  1.00  0.00    -0.245 OA
BRANCH  75  77
ATOM     77  C   UNL A   1      31.583  23.847  25.557  1.00  0.00     0.298 C 
ATOM     78  C   UNL A   1      32.751  22.991  26.088  1.00  0.00     0.115 C 
ATOM     79  N   UNL A   1      31.150  23.491  24.180  1.00  0.00    -0.323 N 
ATOM     80  C   UNL A   1      33.791  22.864  25.045  1.00  0.00    -0.006 A 
ATOM     81  C   UNL A   1      32.208  23.729  23.198  1.00  0.00     0.264 C 
ATOM     82  H   UNL A   1      30.337  24.056  23.933  1.00  0.00     0.347 HD
ATOM     83  H   UNL A   1      30.923  22.497  24.166  1.00  0.00     0.347 HD
ATOM     84  C   UNL A   1      33.519  23.203  23.734  1.00  0.00     0.083 A 
ATOM     85  C   UNL A   1      35.145  22.458  25.145  1.00  0.00     0.003 A 
ATOM     86  N   UNL A   1      34.645  22.916  23.010  1.00  0.00    -0.353 N 
ATOM     87  C   UNL A   1      35.656  22.479  23.846  1.00  0.00     0.046 A 
ATOM     88  C   UNL A   1      35.987  22.073  26.209  1.00  0.00     0.010 A 
ATOM     89  H   UNL A   1      34.723  23.007  22.032  1.00  0.00     0.166 HD
ATOM     90  C   UNL A   1      36.975  22.106  23.561  1.00  0.00     0.026 A 
ATOM     91  C   UNL A   1      37.314  21.724  25.939  1.00  0.00     0.001 A 
ATOM     92  C   UNL A   1      37.796  21.734  24.632  1.00  0.00     0.002 A 
BRANCH  81  93
ATOM     93  C   UNL A   1      32.250  25.181  22.733  1.00  0.00     0.041 A 
ATOM     94  C   UNL A   1      31.526  25.618  21.632  1.00  0.00     0.093 A 
ATOM     95  C   UNL A   1      32.906  26.378  23.258  1.00  0.00     0.009 A 
ATOM     96  N   UNL A   1      31.751  26.948  21.439  1.00  0.00    -0.361 N 
ATOM     97  C   UNL A   1      32.602  27.435  22.396  1.00  0.00     0.046 A 
ATOM     98  C   UNL A   1      33.723  26.710  24.368  1.00  0.00     0.011 A 
ATOM     99  H   UNL A   1      31.356  27.485  20.714  1.00  0.00     0.166 HD
ATOM    100  C   UNL A   1      33.104  28.737  22.557  1.00  0.00     0.026 A 
ATOM    101  C   UNL A   1      34.269  27.991  24.527  1.00  0.00     0.001 A 
ATOM    102  C   UNL A   1      33.963  28.993  23.625  1.00  0.00     0.002 A 
ENDBRANCH  81  93
ENDBRANCH  75  77
ENDBRANCH  74  75
ENDBRANCH  73  74
ENDBRANCH  72  73
ENDBRANCH  71  72
ENDBRANCH   1  71
TORSDOF 18
ENDMDL
MODEL 3
REMARK VINA RESULT:     -12.8      2.579      8.606
REMARK SMILES O=C(OCCOCCOC(=O)[C@H]1Cc2c([nH]c3ccccc23)[C@H](c2c[nH]c3ccccc23)[NH2+]1)c1ccc(-c2c3nc(c(-c4cccc(S(=O)(=O)[O-])c4F)c4ccc([nH]4)c(-c4cccc(S(=O)(=O)[O-])c4F)c4nc(c(-c5cccc(S(=O)(=O)[O-])c5F)c5ccc2[nH]5)C=C4)C=C3)cc1
REMARK SMILES IDX 5 1 4 2 3 3 2 4 1 5 34 6 35 7 96 8 36 9 95 10 37 11 38 12
REMARK SMILES IDX 39 13 89 14 40 15 94 16 88 17 90 18 41 19 93 20 87 21 86 22
REMARK SMILES IDX 42 24 74 25 54 26 73 27 55 28 58 29 72 30 91 31 56 32 57 33
REMARK SMILES IDX 71 35 92 36 59 37 43 38 44 39 52 40 45 41 47 42 53 43 46 44
REMARK SMILES IDX 48 45 49 46 50 47 51 48 75 49 76 50 84 51 77 52 79 53 85 54
REMARK SMILES IDX 78 55 80 56 81 57 82 58 83 59 60 60 61 61 69 62 62 63 64 64
REMARK SMILES IDX 70 65 63 66 65 67 66 68 67 69 68 70 6 71 7 72 8 73 9 74
REMARK SMILES IDX 10 75 11 76 12 77 13 78 33 79 14 80 23 81 15 84 22 85 16 86
REMARK SMILES IDX 17 87 21 88 18 90 20 91 19 92 24 93 25 94 32 95 26 96 27 97
REMARK SMILES IDX 31 98 28 100 30 101 29 102
REMARK H PARENT 90 23 58 34 33 82 33 83 16 89 26 99
REMARK Flexibility Score: inf
ROOT
ATOM      1  C   UNL A   1      32.605  28.432  25.752  1.00  0.00     0.202 C 
ENDROOT
BRANCH   1   2
ATOM      2  C   UNL A   1      32.256  29.930  25.724  1.00  0.00     0.261 C 
BRANCH   2   3
ATOM      3  O   UNL A   1      32.397  30.539  27.016  1.00  0.00    -0.460 OA
BRANCH   3   4
ATOM      4  C   UNL A   1      33.295  31.491  27.381  1.00  0.00     0.338 C 
ATOM      5  O   UNL A   1      32.954  32.670  27.318  1.00  0.00    -0.246 OA
BRANCH   4   6
ATOM      6  C   UNL A   1      34.678  31.171  27.852  1.00  0.00     0.060 A 
ATOM      7  C   UNL A   1      35.168  29.882  28.044  1.00  0.00     0.016 A 
ATOM      8  C   UNL A   1      35.562  32.239  28.077  1.00  0.00     0.016 A 
ATOM      9  C   UNL A   1      36.442  29.627  28.470  1.00  0.00     0.010 A 
ATOM     10  C   UNL A   1      36.868  32.000  28.520  1.00  0.00     0.010 A 
ATOM     11  C   UNL A   1      37.288  30.684  28.737  1.00  0.00    -0.014 A 
BRANCH  11  12
ATOM     12  C   UNL A   1      38.486  30.290  29.475  1.00  0.00     0.031 A 
ATOM     13  C   UNL A   1      38.550  30.689  30.914  1.00  0.00     0.074 A 
ATOM     14  C   UNL A   1      39.283  29.346  28.944  1.00  0.00     0.049 A 
ATOM     15  N   UNL A   1      39.442  30.389  31.812  1.00  0.00    -0.248 NA
ATOM     16  C   UNL A   1      37.430  31.505  31.426  1.00  0.00     0.031 C 
ATOM     17  C   UNL A   1      39.113  28.750  27.613  1.00  0.00     0.029 A 
ATOM     18  N   UNL A   1      40.344  28.676  29.476  1.00  0.00    -0.354 N 
ATOM     19  C   UNL A   1      39.039  31.045  32.966  1.00  0.00     0.074 A 
ATOM     20  C   UNL A   1      37.795  31.717  32.678  1.00  0.00     0.031 C 
ATOM     21  C   UNL A   1      40.039  27.795  27.439  1.00  0.00     0.029 A 
ATOM     22  C   UNL A   1      40.906  27.772  28.608  1.00  0.00     0.049 A 
ATOM     23  H   UNL A   1      40.675  28.826  30.391  1.00  0.00     0.167 HD
ATOM     24  C   UNL A   1      39.682  31.094  34.151  1.00  0.00     0.034 A 
ATOM     25  C   UNL A   1      42.030  27.048  28.746  1.00  0.00     0.034 A 
ATOM     26  C   UNL A   1      40.910  30.392  34.388  1.00  0.00     0.049 A 
ATOM     27  C   UNL A   1      42.775  27.191  30.045  1.00  0.00     0.074 A 
ATOM     28  C   UNL A   1      41.715  30.408  35.507  1.00  0.00     0.029 A 
ATOM     29  N   UNL A   1      41.511  29.547  33.463  1.00  0.00    -0.354 N 
ATOM     30  N   UNL A   1      42.433  27.866  31.120  1.00  0.00    -0.248 NA
ATOM     31  C   UNL A   1      44.048  26.474  30.160  1.00  0.00     0.031 C 
ATOM     32  C   UNL A   1      42.827  29.600  35.243  1.00  0.00     0.029 A 
ATOM     33  C   UNL A   1      42.686  29.040  33.980  1.00  0.00     0.049 A 
ATOM     34  H   UNL A   1      41.152  29.339  32.570  1.00  0.00     0.167 HD
ATOM     35  C   UNL A   1      43.430  27.628  32.053  1.00  0.00     0.074 A 
ATOM     36  C   UNL A   1      44.378  26.730  31.418  1.00  0.00     0.031 C 
ATOM     37  C   UNL A   1      43.563  28.109  33.315  1.00  0.00     0.034 A 
BRANCH  24  38
ATOM     38  C   UNL A   1      39.115  32.010  35.199  1.00  0.00     0.023 A 
ATOM     39  C   UNL A   1      39.252  33.408  35.094  1.00  0.00     0.012 A 
ATOM     40  C   UNL A   1      38.482  31.459  36.331  1.00  0.00     0.148 A 
ATOM     41  C   UNL A   1      38.801  34.242  36.119  1.00  0.00     0.002 A 
ATOM     42  C   UNL A   1      37.995  32.297  37.325  1.00  0.00     0.091 A 
ATOM     43  F   UNL A   1      38.401  30.124  36.430  1.00  0.00    -0.205 F 
ATOM     44  C   UNL A   1      38.167  33.687  37.229  1.00  0.00     0.022 A 
BRANCH  42  45
ATOM     45  S   UNL A   1      37.111  31.679  38.760  1.00  0.00     0.127 S 
ATOM     46  O   UNL A   1      38.096  31.880  39.822  1.00  0.00    -0.237 OA
ATOM     47  O   UNL A   1      35.959  32.579  38.817  1.00  0.00    -0.237 OA
ATOM     48  O   UNL A   1      36.786  30.291  38.468  1.00  0.00    -0.744 OA
ENDBRANCH  42  45
ENDBRANCH  24  38
BRANCH  25  49
ATOM     49  C   UNL A   1      42.522  26.182  27.638  1.00  0.00     0.023 A 
ATOM     50  C   UNL A   1      43.445  26.687  26.703  1.00  0.00     0.012 A 
ATOM     51  C   UNL A   1      42.079  24.848  27.508  1.00  0.00     0.148 A 
ATOM     52  C   UNL A   1      43.891  25.895  25.643  1.00  0.00     0.002 A 
ATOM     53  C   UNL A   1      42.570  24.047  26.483  1.00  0.00     0.091 A 
ATOM     54  F   UNL A   1      41.186  24.385  28.394  1.00  0.00    -0.205 F 
ATOM     55  C   UNL A   1      43.461  24.574  25.539  1.00  0.00     0.022 A 
BRANCH  53  56
ATOM     56  S   UNL A   1      42.157  22.304  26.343  1.00  0.00     0.127 S 
ATOM     57  O   UNL A   1      42.557  21.797  27.654  1.00  0.00    -0.237 OA
ATOM     58  O   UNL A   1      40.712  22.352  26.114  1.00  0.00    -0.237 OA
ATOM     59  O   UNL A   1      42.927  21.806  25.210  1.00  0.00    -0.744 OA
ENDBRANCH  53  56
ENDBRANCH  25  49
BRANCH  37  60
ATOM     60  C   UNL A   1      44.741  27.616  34.105  1.00  0.00     0.023 A 
ATOM     61  C   UNL A   1      45.948  28.340  34.106  1.00  0.00     0.012 A 
ATOM     62  C   UNL A   1      44.609  26.471  34.913  1.00  0.00     0.148 A 
ATOM     63  C   UNL A   1      47.025  27.906  34.875  1.00  0.00     0.002 A 
ATOM     64  C   UNL A   1      45.663  26.082  35.723  1.00  0.00     0.091 A 
ATOM     65  F   UNL A   1      43.455  25.789  34.876  1.00  0.00    -0.205 F 
ATOM     66  C   UNL A   1      46.877  26.787  35.694  1.00  0.00     0.022 A 
BRANCH  64  67
ATOM     67  S   UNL A   1      45.513  24.729  36.893  1.00  0.00     0.127 S 
ATOM     68  O   UNL A   1      46.822  24.751  37.542  1.00  0.00    -0.237 OA
ATOM     69  O   UNL A   1      44.404  25.172  37.738  1.00  0.00    -0.237 OA
ATOM     70  O   UNL A   1      45.226  23.543  36.097  1.00  0.00    -0.744 OA
ENDBRANCH  64  67
ENDBRANCH  37  60
ENDBRANCH  11  12
ENDBRANCH   4   6
ENDBRANCH   3   4
ENDBRANCH   2   3
ENDBRANCH   1   2
BRANCH   1  71
ATOM     71  O   UNL A   1      32.177  27.654  26.871  1.00  0.00    -0.374 OA
BRANCH  71  72
ATOM     72  C   UNL A   1      31.486  26.435  26.579  1.00  0.00     0.202 C 
BRANCH  72  73
ATOM     73  C   UNL A   1      32.415  25.228  26.635  1.00  0.00     0.261 C 
BRANCH  73  74
ATOM     74  O   UNL A   1      31.723  24.160  27.297  1.00  0.00    -0.459 OA
BRANCH  74  75
ATOM     75  C   UNL A   1      32.438  23.012  27.408  1.00  0.00     0.365 C 
ATOM     76  O   UNL A   1      32.976  22.609  28.438  1.00  0.00    -0.245 OA
BRANCH  75  77
ATOM     77  C   UNL A   1      32.529  22.263  26.086  1.00  0.00     0.298 C 
ATOM     78  C   UNL A   1      32.993  20.800  26.233  1.00  0.00     0.115 C 
ATOM     79  N   UNL A   1      31.237  22.418  25.365  1.00  0.00    -0.323 N 
ATOM     80  C   UNL A   1      32.828  20.091  24.946  1.00  0.00    -0.006 A 
ATOM     81  C   UNL A   1      31.329  21.957  23.979  1.00  0.00     0.264 C 
ATOM     82  H   UNL A   1      30.973  23.403  25.368  1.00  0.00     0.347 HD
ATOM     83  H   UNL A   1      30.538  21.849  25.842  1.00  0.00     0.347 HD
ATOM     84  C   UNL A   1      32.062  20.637  23.936  1.00  0.00     0.083 A 
ATOM     85  C   UNL A   1      33.381  18.866  24.497  1.00  0.00     0.003 A 
ATOM     86  N   UNL A   1      32.049  19.725  22.914  1.00  0.00    -0.353 N 
ATOM     87  C   UNL A   1      32.860  18.647  23.221  1.00  0.00     0.046 A 
ATOM     88  C   UNL A   1      34.273  17.922  25.047  1.00  0.00     0.010 A 
ATOM     89  H   UNL A   1      31.536  19.823  22.079  1.00  0.00     0.166 HD
ATOM     90  C   UNL A   1      33.174  17.504  22.476  1.00  0.00     0.026 A 
ATOM     91  C   UNL A   1      34.614  16.789  24.301  1.00  0.00     0.001 A 
ATOM     92  C   UNL A   1      34.065  16.582  23.037  1.00  0.00     0.002 A 
BRANCH  81  93
ATOM     93  C   UNL A   1      31.895  23.027  23.050  1.00  0.00     0.041 A 
ATOM     94  C   UNL A   1      32.878  22.737  22.113  1.00  0.00     0.093 A 
ATOM     95  C   UNL A   1      31.581  24.441  22.849  1.00  0.00     0.009 A 
ATOM     96  N   UNL A   1      33.201  23.870  21.428  1.00  0.00    -0.361 N 
ATOM     97  C   UNL A   1      32.448  24.927  21.866  1.00  0.00     0.046 A 
ATOM     98  C   UNL A   1      30.660  25.384  23.372  1.00  0.00     0.011 A 
ATOM     99  H   UNL A   1      33.879  23.921  20.717  1.00  0.00     0.166 HD
ATOM    100  C   UNL A   1      32.471  26.267  21.444  1.00  0.00     0.026 A 
ATOM    101  C   UNL A   1      30.692  26.734  22.998  1.00  0.00     0.001 A 
ATOM    102  C   UNL A   1      31.593  27.169  22.045  1.00  0.00     0.002 A 
ENDBRANCH  81  93
ENDBRANCH  75  77
ENDBRANCH  74  75
ENDBRANCH  73  74
ENDBRANCH  72  73
ENDBRANCH  71  72
ENDBRANCH   1  71
TORSDOF 18
ENDMDL
