MODEL 1
REMARK VINA RESULT:     -10.7      0.000      0.000
REMARK SMILES Cc1cccc(OCC(=O)Nc2cc(C(=O)OCCOCCOC(=O)c3ccc(-c4c5nc(c(-c6cccc(S(=O)(=O)[O-])c6F)c6ccc([nH]6)c(-c6cccc(S(=O)(=O)[O-])c6F)c6nc(c(-c7cccc(S(=O)(=O)[O-])c7F)c7ccc4[nH]7)C=C6)C=C5)cc3)c(Cl)cc2Cl)c1
REMARK SMILES IDX 19 1 18 2 17 3 15 4 16 5 14 6 12 7 13 8 92 9 91 10 93 11
REMARK SMILES IDX 89 12 90 13 11 14 9 15 10 16 8 18 7 19 6 20 1 21 2 22 3 23
REMARK SMILES IDX 94 24 4 25 5 26 20 27 21 28 22 29 23 30 24 31 25 32 26 33
REMARK SMILES IDX 27 34 88 35 28 36 87 37 29 38 30 39 31 40 81 41 32 42 86 43
REMARK SMILES IDX 80 44 82 45 33 46 85 47 79 48 78 49 34 51 66 52 46 53 65 54
REMARK SMILES IDX 47 55 50 56 64 57 83 58 48 59 49 60 63 62 84 63 51 64 35 65
REMARK SMILES IDX 36 66 44 67 37 68 39 69 45 70 38 71 40 72 41 73 42 74 43 75
REMARK SMILES IDX 67 76 68 77 76 78 69 79 71 80 77 81 70 82 72 83 73 84 74 85
REMARK SMILES IDX 75 86 52 87 53 88 61 89 54 90 56 91 62 92 55 93 57 94 58 95
REMARK SMILES IDX 59 96 60 97
REMARK H PARENT 11 17 82 50 50 61
REMARK Flexibility Score: inf
ROOT
ATOM      1  C   UNL A   1      36.009  20.735  24.851  1.00  0.00     0.202 C 
ENDROOT
BRANCH   1   2
ATOM      2  C   UNL A   1      34.652  21.199  25.187  1.00  0.00     0.261 C 
BRANCH   2   3
ATOM      3  O   UNL A   1      34.403  22.433  24.516  1.00  0.00    -0.460 OA
BRANCH   3   4
ATOM      4  C   UNL A   1      33.330  23.176  24.931  1.00  0.00     0.339 C 
ATOM      5  O   UNL A   1      32.356  22.800  25.520  1.00  0.00    -0.246 OA
BRANCH   4   6
ATOM      6  C   UNL A   1      33.658  24.564  24.533  1.00  0.00     0.080 A 
ATOM      7  C   UNL A   1      34.153  26.816  25.335  1.00  0.00     0.061 A 
ATOM      8  C   UNL A   1      34.095  25.454  25.546  1.00  0.00     0.045 A 
ATOM      9  C   UNL A   1      33.806  27.279  24.048  1.00  0.00     0.066 A 
ATOM     10  C   UNL A   1      33.466  26.398  23.010  1.00  0.00     0.044 A 
ATOM     11  Cl  UNL A   1      33.744  28.973  23.702  1.00  0.00    -0.082 Cl
ATOM     12  C   UNL A   1      33.385  25.030  23.249  1.00  0.00     0.057 A 
ATOM     13  Cl  UNL A   1      32.857  24.038  21.939  1.00  0.00    -0.083 Cl
BRANCH   7  14
ATOM     14  N   UNL A   1      34.377  27.740  26.376  1.00  0.00    -0.322 N 
ATOM     15  C   UNL A   1      33.637  28.643  27.101  1.00  0.00     0.262 C 
ATOM     16  O   UNL A   1      34.313  29.421  27.787  1.00  0.00    -0.271 OA
ATOM     17  H   UNL A   1      35.319  27.737  26.663  1.00  0.00     0.170 HD
BRANCH  15  18
ATOM     18  C   UNL A   1      32.082  28.598  27.244  1.00  0.00     0.329 C 
BRANCH  18  19
ATOM     19  O   UNL A   1      31.227  27.454  27.175  1.00  0.00    -0.484 OA
BRANCH  19  20
ATOM     20  C   UNL A   1      30.814  27.001  25.957  1.00  0.00     0.120 A 
ATOM     21  C   UNL A   1      29.140  28.315  22.872  1.00  0.00     0.044 C 
ATOM     22  C   UNL A   1      29.922  27.384  23.743  1.00  0.00    -0.047 A 
ATOM     23  C   UNL A   1      29.807  26.013  23.514  1.00  0.00     0.003 A 
ATOM     24  C   UNL A   1      30.524  27.865  24.920  1.00  0.00     0.049 A 
ATOM     25  C   UNL A   1      29.964  25.165  24.590  1.00  0.00     0.004 A 
ATOM     26  C   UNL A   1      30.340  25.699  25.828  1.00  0.00     0.046 A 
ENDBRANCH  19  20
ENDBRANCH  18  19
ENDBRANCH  15  18
ENDBRANCH   7  14
ENDBRANCH   4   6
ENDBRANCH   3   4
ENDBRANCH   2   3
ENDBRANCH   1   2
BRANCH   1  27
ATOM     27  O   UNL A   1      36.580  21.933  24.365  1.00  0.00    -0.374 OA
BRANCH  27  28
ATOM     28  C   UNL A   1      37.534  22.534  25.190  1.00  0.00     0.202 C 
BRANCH  28  29
ATOM     29  C   UNL A   1      38.543  21.520  25.728  1.00  0.00     0.261 C 
BRANCH  29  30
ATOM     30  O   UNL A   1      39.847  22.145  25.793  1.00  0.00    -0.460 OA
BRANCH  30  31
ATOM     31  C   UNL A   1      40.258  22.555  27.032  1.00  0.00     0.338 C 
ATOM     32  O   UNL A   1      40.467  21.799  27.967  1.00  0.00    -0.246 OA
BRANCH  31  33
ATOM     33  C   UNL A   1      40.086  24.040  27.164  1.00  0.00     0.060 A 
ATOM     34  C   UNL A   1      40.965  24.909  26.484  1.00  0.00     0.016 A 
ATOM     35  C   UNL A   1      39.301  24.536  28.206  1.00  0.00     0.016 A 
ATOM     36  C   UNL A   1      41.198  26.208  26.965  1.00  0.00     0.010 A 
ATOM     37  C   UNL A   1      39.573  25.796  28.711  1.00  0.00     0.010 A 
ATOM     38  C   UNL A   1      40.574  26.610  28.138  1.00  0.00    -0.014 A 
BRANCH  38  39
ATOM     39  C   UNL A   1      40.867  27.831  28.897  1.00  0.00     0.031 A 
ATOM     40  C   UNL A   1      39.987  28.972  28.645  1.00  0.00     0.074 A 
ATOM     41  C   UNL A   1      41.693  27.851  29.973  1.00  0.00     0.049 A 
ATOM     42  N   UNL A   1      40.193  30.146  29.117  1.00  0.00    -0.248 NA
ATOM     43  C   UNL A   1      38.813  28.894  27.777  1.00  0.00     0.031 C 
ATOM     44  C   UNL A   1      41.690  28.687  31.176  1.00  0.00     0.029 A 
ATOM     45  N   UNL A   1      42.817  27.075  30.193  1.00  0.00    -0.354 N 
ATOM     46  C   UNL A   1      38.989  30.792  29.018  1.00  0.00     0.074 A 
ATOM     47  C   UNL A   1      38.287  30.104  27.971  1.00  0.00     0.031 C 
ATOM     48  C   UNL A   1      42.887  28.602  31.797  1.00  0.00     0.029 A 
ATOM     49  C   UNL A   1      43.741  27.814  30.926  1.00  0.00     0.049 A 
ATOM     50  H   UNL A   1      42.943  26.149  29.883  1.00  0.00     0.167 HD
ATOM     51  C   UNL A   1      38.653  31.643  30.023  1.00  0.00     0.034 A 
ATOM     52  C   UNL A   1      44.961  28.080  30.389  1.00  0.00     0.034 A 
ATOM     53  C   UNL A   1      39.815  31.879  30.915  1.00  0.00     0.049 A 
ATOM     54  C   UNL A   1      45.093  29.566  30.383  1.00  0.00     0.074 A 
ATOM     55  C   UNL A   1      40.095  31.587  32.241  1.00  0.00     0.029 A 
ATOM     56  N   UNL A   1      41.035  32.263  30.346  1.00  0.00    -0.354 N 
ATOM     57  N   UNL A   1      44.048  30.338  30.268  1.00  0.00    -0.248 NA
ATOM     58  C   UNL A   1      46.305  30.291  30.741  1.00  0.00     0.031 C 
ATOM     59  C   UNL A   1      41.504  31.745  32.441  1.00  0.00     0.029 A 
ATOM     60  C   UNL A   1      42.081  32.142  31.242  1.00  0.00     0.049 A 
ATOM     61  H   UNL A   1      41.136  32.580  29.420  1.00  0.00     0.167 HD
ATOM     62  C   UNL A   1      44.372  31.589  30.681  1.00  0.00     0.074 A 
ATOM     63  C   UNL A   1      45.812  31.533  30.901  1.00  0.00     0.031 C 
ATOM     64  C   UNL A   1      43.432  32.559  30.866  1.00  0.00     0.034 A 
BRANCH  51  65
ATOM     65  C   UNL A   1      37.232  32.090  30.354  1.00  0.00     0.023 A 
ATOM     66  C   UNL A   1      36.719  31.684  31.606  1.00  0.00     0.012 A 
ATOM     67  C   UNL A   1      36.332  32.828  29.540  1.00  0.00     0.148 A 
ATOM     68  C   UNL A   1      35.416  31.981  32.024  1.00  0.00     0.002 A 
ATOM     69  C   UNL A   1      35.050  33.177  29.978  1.00  0.00     0.091 A 
ATOM     70  F   UNL A   1      36.660  33.172  28.298  1.00  0.00    -0.205 F 
ATOM     71  C   UNL A   1      34.585  32.743  31.217  1.00  0.00     0.022 A 
BRANCH  69  72
ATOM     72  S   UNL A   1      33.928  34.199  28.998  1.00  0.00     0.127 S 
ATOM     73  O   UNL A   1      33.415  33.242  28.018  1.00  0.00    -0.237 OA
ATOM     74  O   UNL A   1      32.951  34.627  29.997  1.00  0.00    -0.237 OA
ATOM     75  O   UNL A   1      34.729  35.276  28.428  1.00  0.00    -0.744 OA
ENDBRANCH  69  72
ENDBRANCH  51  65
BRANCH  52  76
ATOM     76  C   UNL A   1      45.332  27.054  29.354  1.00  0.00     0.023 A 
ATOM     77  C   UNL A   1      45.210  25.698  29.768  1.00  0.00     0.012 A 
ATOM     78  C   UNL A   1      45.406  27.288  27.978  1.00  0.00     0.148 A 
ATOM     79  C   UNL A   1      45.074  24.634  28.870  1.00  0.00     0.002 A 
ATOM     80  C   UNL A   1      45.243  26.217  27.080  1.00  0.00     0.091 A 
ATOM     81  F   UNL A   1      45.595  28.541  27.548  1.00  0.00    -0.205 F 
ATOM     82  C   UNL A   1      45.054  24.898  27.520  1.00  0.00     0.022 A 
BRANCH  80  83
ATOM     83  S   UNL A   1      45.103  26.498  25.312  1.00  0.00     0.127 S 
ATOM     84  O   UNL A   1      46.441  26.981  24.986  1.00  0.00    -0.237 OA
ATOM     85  O   UNL A   1      44.793  25.162  24.795  1.00  0.00    -0.237 OA
ATOM     86  O   UNL A   1      44.010  27.449  25.184  1.00  0.00    -0.744 OA
ENDBRANCH  80  83
ENDBRANCH  52  76
BRANCH  64  87
ATOM     87  C   UNL A   1      43.722  34.020  30.630  1.00  0.00     0.023 A 
ATOM     88  C   UNL A   1      43.265  34.692  29.481  1.00  0.00     0.012 A 
ATOM     89  C   UNL A   1      44.249  34.818  31.675  1.00  0.00     0.148 A 
ATOM     90  C   UNL A   1      43.358  36.077  29.352  1.00  0.00     0.002 A 
ATOM     91  C   UNL A   1      44.211  36.201  31.597  1.00  0.00     0.091 A 
ATOM     92  F   UNL A   1      44.794  34.247  32.756  1.00  0.00    -0.205 F 
ATOM     93  C   UNL A   1      43.798  36.835  30.424  1.00  0.00     0.022 A 
BRANCH  91  94
ATOM     94  S   UNL A   1      44.519  37.221  33.041  1.00  0.00     0.127 S 
ATOM     95  O   UNL A   1      43.173  37.692  33.359  1.00  0.00    -0.237 OA
ATOM     96  O   UNL A   1      45.069  36.249  33.988  1.00  0.00    -0.237 OA
ATOM     97  O   UNL A   1      45.466  38.240  32.611  1.00  0.00    -0.744 OA
ENDBRANCH  91  94
ENDBRANCH  64  87
ENDBRANCH  38  39
ENDBRANCH  31  33
ENDBRANCH  30  31
ENDBRANCH  29  30
ENDBRANCH  28  29
ENDBRANCH  27  28
ENDBRANCH   1  27
TORSDOF 21
ENDMDL
MODEL 2
REMARK VINA RESULT:     -10.4      5.102      9.017
REMARK SMILES Cc1cccc(OCC(=O)Nc2cc(C(=O)OCCOCCOC(=O)c3ccc(-c4c5nc(c(-c6cccc(S(=O)(=O)[O-])c6F)c6ccc([nH]6)c(-c6cccc(S(=O)(=O)[O-])c6F)c6nc(c(-c7cccc(S(=O)(=O)[O-])c7F)c7ccc4[nH]7)C=C6)C=C5)cc3)c(Cl)cc2Cl)c1
REMARK SMILES IDX 19 1 18 2 17 3 15 4 16 5 14 6 12 7 13 8 92 9 91 10 93 11
REMARK SMILES IDX 89 12 90 13 11 14 9 15 10 16 8 18 7 19 6 20 1 21 2 22 3 23
REMARK SMILES IDX 94 24 4 25 5 26 20 27 21 28 22 29 23 30 24 31 25 32 26 33
REMARK SMILES IDX 27 34 88 35 28 36 87 37 29 38 30 39 31 40 81 41 32 42 86 43
REMARK SMILES IDX 80 44 82 45 33 46 85 47 79 48 78 49 34 51 66 52 46 53 65 54
REMARK SMILES IDX 47 55 50 56 64 57 83 58 48 59 49 60 63 62 84 63 51 64 35 65
REMARK SMILES IDX 36 66 44 67 37 68 39 69 45 70 38 71 40 72 41 73 42 74 43 75
REMARK SMILES IDX 67 76 68 77 76 78 69 79 71 80 77 81 70 82 72 83 73 84 74 85
REMARK SMILES IDX 75 86 52 87 53 88 61 89 54 90 56 91 62 92 55 93 57 94 58 95
REMARK SMILES IDX 59 96 60 97
REMARK H PARENT 11 17 82 50 50 61
REMARK Flexibility Score: inf
ROOT
ATOM      1  C   UNL A   1      42.428  26.415  28.488  1.00  0.00     0.202 C 
ENDROOT
BRANCH   1   2
ATOM      2  C   UNL A   1      43.425  25.520  27.877  1.00  0.00     0.261 C 
BRANCH   2   3
ATOM      3  O   UNL A   1      42.776  24.684  26.921  1.00  0.00    -0.460 OA
BRANCH   3   4
ATOM      4  C   UNL A   1      42.989  24.951  25.595  1.00  0.00     0.339 C 
ATOM      5  O   UNL A   1      42.585  25.883  24.956  1.00  0.00    -0.246 OA
BRANCH   4   6
ATOM      6  C   UNL A   1      43.871  23.857  25.128  1.00  0.00     0.080 A 
ATOM      7  C   UNL A   1      44.111  21.441  24.883  1.00  0.00     0.061 A 
ATOM      8  C   UNL A   1      43.315  22.557  25.033  1.00  0.00     0.045 A 
ATOM      9  C   UNL A   1      45.502  21.657  24.777  1.00  0.00     0.066 A 
ATOM     10  C   UNL A   1      46.054  22.947  24.771  1.00  0.00     0.044 A 
ATOM     11  Cl  UNL A   1      46.601  20.323  24.689  1.00  0.00    -0.082 Cl
ATOM     12  C   UNL A   1      45.238  24.060  24.951  1.00  0.00     0.057 A 
ATOM     13  Cl  UNL A   1      46.021  25.596  25.035  1.00  0.00    -0.083 Cl
BRANCH   7  14
ATOM     14  N   UNL A   1      43.612  20.127  25.000  1.00  0.00    -0.322 N 
ATOM     15  C   UNL A   1      42.672  19.468  25.753  1.00  0.00     0.262 C 
ATOM     16  O   UNL A   1      42.725  18.234  25.668  1.00  0.00    -0.271 OA
ATOM     17  H   UNL A   1      44.057  19.517  24.368  1.00  0.00     0.170 HD
BRANCH  15  18
ATOM     18  C   UNL A   1      41.490  20.166  26.500  1.00  0.00     0.329 C 
BRANCH  18  19
ATOM     19  O   UNL A   1      40.111  20.195  26.126  1.00  0.00    -0.484 OA
BRANCH  19  20
ATOM     20  C   UNL A   1      39.423  21.371  26.202  1.00  0.00     0.120 A 
ATOM     21  C   UNL A   1      36.826  23.257  24.268  1.00  0.00     0.044 C 
ATOM     22  C   UNL A   1      37.699  22.873  25.420  1.00  0.00    -0.047 A 
ATOM     23  C   UNL A   1      38.138  23.881  26.279  1.00  0.00     0.003 A 
ATOM     24  C   UNL A   1      38.277  21.591  25.466  1.00  0.00     0.049 A 
ATOM     25  C   UNL A   1      39.354  23.708  26.905  1.00  0.00     0.004 A 
ATOM     26  C   UNL A   1      40.036  22.496  26.746  1.00  0.00     0.046 A 
ENDBRANCH  19  20
ENDBRANCH  18  19
ENDBRANCH  15  18
ENDBRANCH   7  14
ENDBRANCH   4   6
ENDBRANCH   3   4
ENDBRANCH   2   3
ENDBRANCH   1   2
BRANCH   1  27
ATOM     27  O   UNL A   1      42.848  27.663  27.973  1.00  0.00    -0.374 OA
BRANCH  27  28
ATOM     28  C   UNL A   1      41.859  28.433  27.356  1.00  0.00     0.202 C 
BRANCH  28  29
ATOM     29  C   UNL A   1      40.510  28.300  28.061  1.00  0.00     0.261 C 
BRANCH  29  30
ATOM     30  O   UNL A   1      40.029  29.621  28.405  1.00  0.00    -0.460 OA
BRANCH  30  31
ATOM     31  C   UNL A   1      38.840  29.672  29.081  1.00  0.00     0.338 C 
ATOM     32  O   UNL A   1      37.828  29.089  28.728  1.00  0.00    -0.246 OA
BRANCH  31  33
ATOM     33  C   UNL A   1      38.870  30.784  30.089  1.00  0.00     0.060 A 
ATOM     34  C   UNL A   1      38.747  32.122  29.660  1.00  0.00     0.016 A 
ATOM     35  C   UNL A   1      39.359  30.517  31.369  1.00  0.00     0.016 A 
ATOM     36  C   UNL A   1      39.284  33.169  30.425  1.00  0.00     0.010 A 
ATOM     37  C   UNL A   1      39.936  31.544  32.096  1.00  0.00     0.010 A 
ATOM     38  C   UNL A   1      39.967  32.863  31.594  1.00  0.00    -0.014 A 
BRANCH  38  39
ATOM     39  C   UNL A   1      40.773  33.794  32.392  1.00  0.00     0.031 A 
ATOM     40  C   UNL A   1      40.069  34.500  33.462  1.00  0.00     0.074 A 
ATOM     41  C   UNL A   1      42.129  33.806  32.365  1.00  0.00     0.049 A 
ATOM     42  N   UNL A   1      40.592  35.446  34.153  1.00  0.00    -0.248 NA
ATOM     43  C   UNL A   1      38.674  34.233  33.808  1.00  0.00     0.031 C 
ATOM     44  C   UNL A   1      43.113  34.147  33.396  1.00  0.00     0.029 A 
ATOM     45  N   UNL A   1      42.958  33.521  31.294  1.00  0.00    -0.354 N 
ATOM     46  C   UNL A   1      39.811  35.548  35.274  1.00  0.00     0.074 A 
ATOM     47  C   UNL A   1      38.540  35.001  34.889  1.00  0.00     0.031 C 
ATOM     48  C   UNL A   1      44.319  34.361  32.828  1.00  0.00     0.029 A 
ATOM     49  C   UNL A   1      44.108  34.300  31.392  1.00  0.00     0.049 A 
ATOM     50  H   UNL A   1      42.767  32.872  30.579  1.00  0.00     0.167 HD
ATOM     51  C   UNL A   1      40.438  35.830  36.448  1.00  0.00     0.034 A 
ATOM     52  C   UNL A   1      44.401  35.187  30.405  1.00  0.00     0.034 A 
ATOM     53  C   UNL A   1      41.848  36.221  36.202  1.00  0.00     0.049 A 
ATOM     54  C   UNL A   1      44.500  36.521  31.067  1.00  0.00     0.074 A 
ATOM     55  C   UNL A   1      43.077  35.668  36.523  1.00  0.00     0.029 A 
ATOM     56  N   UNL A   1      42.117  37.221  35.259  1.00  0.00    -0.354 N 
ATOM     57  N   UNL A   1      43.802  36.800  32.133  1.00  0.00    -0.248 NA
ATOM     58  C   UNL A   1      45.517  37.520  30.768  1.00  0.00     0.031 C 
ATOM     59  C   UNL A   1      44.074  36.307  35.719  1.00  0.00     0.029 A 
ATOM     60  C   UNL A   1      43.456  37.256  34.916  1.00  0.00     0.049 A 
ATOM     61  H   UNL A   1      41.435  37.824  34.885  1.00  0.00     0.167 HD
ATOM     62  C   UNL A   1      44.348  37.878  32.751  1.00  0.00     0.074 A 
ATOM     63  C   UNL A   1      45.376  38.340  31.827  1.00  0.00     0.031 C 
ATOM     64  C   UNL A   1      43.958  38.276  33.996  1.00  0.00     0.034 A 
BRANCH  51  65
ATOM     65  C   UNL A   1      39.872  35.539  37.834  1.00  0.00     0.023 A 
ATOM     66  C   UNL A   1      39.541  36.659  38.628  1.00  0.00     0.012 A 
ATOM     67  C   UNL A   1      39.677  34.276  38.454  1.00  0.00     0.148 A 
ATOM     68  C   UNL A   1      39.056  36.544  39.936  1.00  0.00     0.002 A 
ATOM     69  C   UNL A   1      39.138  34.155  39.739  1.00  0.00     0.091 A 
ATOM     70  F   UNL A   1      40.054  33.153  37.850  1.00  0.00    -0.205 F 
ATOM     71  C   UNL A   1      38.837  35.291  40.488  1.00  0.00     0.022 A 
BRANCH  69  72
ATOM     72  S   UNL A   1      38.789  32.557  40.506  1.00  0.00     0.127 S 
ATOM     73  O   UNL A   1      37.992  32.941  41.671  1.00  0.00    -0.237 OA
ATOM     74  O   UNL A   1      38.038  31.869  39.457  1.00  0.00    -0.237 OA
ATOM     75  O   UNL A   1      40.077  31.954  40.829  1.00  0.00    -0.744 OA
ENDBRANCH  69  72
ENDBRANCH  51  65
BRANCH  52  76
ATOM     76  C   UNL A   1      43.769  34.778  29.104  1.00  0.00     0.023 A 
ATOM     77  C   UNL A   1      42.769  35.659  28.607  1.00  0.00     0.012 A 
ATOM     78  C   UNL A   1      44.317  33.868  28.194  1.00  0.00     0.148 A 
ATOM     79  C   UNL A   1      42.393  35.708  27.260  1.00  0.00     0.002 A 
ATOM     80  C   UNL A   1      43.953  33.939  26.836  1.00  0.00     0.091 A 
ATOM     81  F   UNL A   1      45.207  32.973  28.636  1.00  0.00    -0.205 F 
ATOM     82  C   UNL A   1      43.013  34.868  26.363  1.00  0.00     0.022 A 
BRANCH  80  83
ATOM     83  S   UNL A   1      44.794  32.950  25.595  1.00  0.00     0.127 S 
ATOM     84  O   UNL A   1      46.153  33.475  25.676  1.00  0.00    -0.237 OA
ATOM     85  O   UNL A   1      44.636  31.585  26.106  1.00  0.00    -0.237 OA
ATOM     86  O   UNL A   1      44.058  33.210  24.368  1.00  0.00    -0.744 OA
ENDBRANCH  80  83
ENDBRANCH  52  76
BRANCH  64  87
ATOM     87  C   UNL A   1      43.964  39.723  34.419  1.00  0.00     0.023 A 
ATOM     88  C   UNL A   1      44.637  40.157  35.577  1.00  0.00     0.012 A 
ATOM     89  C   UNL A   1      43.503  40.726  33.532  1.00  0.00     0.148 A 
ATOM     90  C   UNL A   1      44.813  41.510  35.865  1.00  0.00     0.002 A 
ATOM     91  C   UNL A   1      43.801  42.060  33.754  1.00  0.00     0.091 A 
ATOM     92  F   UNL A   1      42.767  40.398  32.462  1.00  0.00    -0.205 F 
ATOM     93  C   UNL A   1      44.426  42.461  34.935  1.00  0.00     0.022 A 
BRANCH  91  94
ATOM     94  S   UNL A   1      43.558  43.292  32.471  1.00  0.00     0.127 S 
ATOM     95  O   UNL A   1      42.107  43.264  32.309  1.00  0.00    -0.237 OA
ATOM     96  O   UNL A   1      44.082  44.502  33.108  1.00  0.00    -0.237 OA
ATOM     97  O   UNL A   1      44.336  42.833  31.329  1.00  0.00    -0.744 OA
ENDBRANCH  91  94
ENDBRANCH  64  87
ENDBRANCH  38  39
ENDBRANCH  31  33
ENDBRANCH  30  31
ENDBRANCH  29  30
ENDBRANCH  28  29
ENDBRANCH  27  28
ENDBRANCH   1  27
TORSDOF 21
ENDMDL
MODEL 3
REMARK VINA RESULT:     -10.4      1.830      2.315
REMARK SMILES Cc1cccc(OCC(=O)Nc2cc(C(=O)OCCOCCOC(=O)c3ccc(-c4c5nc(c(-c6cccc(S(=O)(=O)[O-])c6F)c6ccc([nH]6)c(-c6cccc(S(=O)(=O)[O-])c6F)c6nc(c(-c7cccc(S(=O)(=O)[O-])c7F)c7ccc4[nH]7)C=C6)C=C5)cc3)c(Cl)cc2Cl)c1
REMARK SMILES IDX 19 1 18 2 17 3 15 4 16 5 14 6 12 7 13 8 92 9 91 10 93 11
REMARK SMILES IDX 89 12 90 13 11 14 9 15 10 16 8 18 7 19 6 20 1 21 2 22 3 23
REMARK SMILES IDX 94 24 4 25 5 26 20 27 21 28 22 29 23 30 24 31 25 32 26 33
REMARK SMILES IDX 27 34 88 35 28 36 87 37 29 38 30 39 31 40 81 41 32 42 86 43
REMARK SMILES IDX 80 44 82 45 33 46 85 47 79 48 78 49 34 51 66 52 46 53 65 54
REMARK SMILES IDX 47 55 50 56 64 57 83 58 48 59 49 60 63 62 84 63 51 64 35 65
REMARK SMILES IDX 36 66 44 67 37 68 39 69 45 70 38 71 40 72 41 73 42 74 43 75
REMARK SMILES IDX 67 76 68 77 76 78 69 79 71 80 77 81 70 82 72 83 73 84 74 85
REMARK SMILES IDX 75 86 52 87 53 88 61 89 54 90 56 91 62 92 55 93 57 94 58 95
REMARK SMILES IDX 59 96 60 97
REMARK H PARENT 11 17 82 50 50 61
REMARK Flexibility Score: inf
ROOT
ATOM      1  C   UNL A   1      37.103  20.445  24.808  1.00  0.00     0.202 C 
ENDROOT
BRANCH   1   2
ATOM      2  C   UNL A   1      35.675  20.525  25.163  1.00  0.00     0.261 C 
BRANCH   2   3
ATOM      3  O   UNL A   1      35.052  21.526  24.359  1.00  0.00    -0.460 OA
BRANCH   3   4
ATOM      4  C   UNL A   1      34.488  22.596  25.002  1.00  0.00     0.339 C 
ATOM      5  O   UNL A   1      34.545  22.869  26.168  1.00  0.00    -0.246 OA
BRANCH   4   6
ATOM      6  C   UNL A   1      33.825  23.372  23.929  1.00  0.00     0.080 A 
ATOM      7  C   UNL A   1      33.656  25.552  22.844  1.00  0.00     0.061 A 
ATOM      8  C   UNL A   1      34.356  24.648  23.615  1.00  0.00     0.045 A 
ATOM      9  C   UNL A   1      32.408  25.129  22.338  1.00  0.00     0.066 A 
ATOM     10  C   UNL A   1      31.918  23.833  22.562  1.00  0.00     0.044 A 
ATOM     11  Cl  UNL A   1      31.399  26.215  21.445  1.00  0.00    -0.082 Cl
ATOM     12  C   UNL A   1      32.625  22.944  23.365  1.00  0.00     0.057 A 
ATOM     13  Cl  UNL A   1      31.892  21.411  23.668  1.00  0.00    -0.083 Cl
BRANCH   7  14
ATOM     14  N   UNL A   1      34.056  26.896  22.692  1.00  0.00    -0.322 N 
ATOM     15  C   UNL A   1      33.819  28.096  23.316  1.00  0.00     0.262 C 
ATOM     16  O   UNL A   1      34.222  29.084  22.688  1.00  0.00    -0.271 OA
ATOM     17  H   UNL A   1      34.673  27.002  21.932  1.00  0.00     0.170 HD
BRANCH  15  18
ATOM     18  C   UNL A   1      33.286  28.241  24.777  1.00  0.00     0.329 C 
BRANCH  18  19
ATOM     19  O   UNL A   1      33.234  27.241  25.797  1.00  0.00    -0.484 OA
BRANCH  19  20
ATOM     20  C   UNL A   1      32.108  26.484  25.934  1.00  0.00     0.120 A 
ATOM     21  C   UNL A   1      31.155  22.960  26.778  1.00  0.00     0.044 C 
ATOM     22  C   UNL A   1      30.995  24.430  26.553  1.00  0.00    -0.047 A 
ATOM     23  C   UNL A   1      29.782  24.891  26.043  1.00  0.00     0.003 A 
ATOM     24  C   UNL A   1      32.123  25.271  26.592  1.00  0.00     0.049 A 
ATOM     25  C   UNL A   1      29.802  26.033  25.270  1.00  0.00     0.004 A 
ATOM     26  C   UNL A   1      31.003  26.737  25.126  1.00  0.00     0.046 A 
ENDBRANCH  19  20
ENDBRANCH  18  19
ENDBRANCH  15  18
ENDBRANCH   7  14
ENDBRANCH   4   6
ENDBRANCH   3   4
ENDBRANCH   2   3
ENDBRANCH   1   2
BRANCH   1  27
ATOM     27  O   UNL A   1      37.366  21.796  24.485  1.00  0.00    -0.374 OA
BRANCH  27  28
ATOM     28  C   UNL A   1      38.168  22.496  25.390  1.00  0.00     0.202 C 
BRANCH  28  29
ATOM     29  C   UNL A   1      39.179  21.583  26.081  1.00  0.00     0.261 C 
BRANCH  29  30
ATOM     30  O   UNL A   1      40.471  22.235  26.090  1.00  0.00    -0.460 OA
BRANCH  30  31
ATOM     31  C   UNL A   1      40.889  22.728  27.296  1.00  0.00     0.338 C 
ATOM     32  O   UNL A   1      41.157  22.032  28.262  1.00  0.00    -0.246 OA
BRANCH  31  33
ATOM     33  C   UNL A   1      40.649  24.208  27.357  1.00  0.00     0.060 A 
ATOM     34  C   UNL A   1      41.512  25.087  26.669  1.00  0.00     0.016 A 
ATOM     35  C   UNL A   1      39.808  24.712  28.351  1.00  0.00     0.016 A 
ATOM     36  C   UNL A   1      41.671  26.413  27.100  1.00  0.00     0.010 A 
ATOM     37  C   UNL A   1      40.007  26.003  28.808  1.00  0.00     0.010 A 
ATOM     38  C   UNL A   1      40.990  26.836  28.233  1.00  0.00    -0.014 A 
BRANCH  38  39
ATOM     39  C   UNL A   1      41.203  28.100  28.947  1.00  0.00     0.031 A 
ATOM     40  C   UNL A   1      40.236  29.163  28.676  1.00  0.00     0.074 A 
ATOM     41  C   UNL A   1      42.043  28.217  30.006  1.00  0.00     0.049 A 
ATOM     42  N   UNL A   1      40.362  30.365  29.106  1.00  0.00    -0.248 NA
ATOM     43  C   UNL A   1      39.057  28.970  27.833  1.00  0.00     0.031 C 
ATOM     44  C   UNL A   1      41.998  29.090  31.182  1.00  0.00     0.029 A 
ATOM     45  N   UNL A   1      43.226  27.535  30.229  1.00  0.00    -0.354 N 
ATOM     46  C   UNL A   1      39.111  30.916  29.010  1.00  0.00     0.074 A 
ATOM     47  C   UNL A   1      38.445  30.143  27.999  1.00  0.00     0.031 C 
ATOM     48  C   UNL A   1      43.208  29.115  31.782  1.00  0.00     0.029 A 
ATOM     49  C   UNL A   1      44.104  28.364  30.920  1.00  0.00     0.049 A 
ATOM     50  H   UNL A   1      43.415  26.610  29.947  1.00  0.00     0.167 HD
ATOM     51  C   UNL A   1      38.728  31.772  29.994  1.00  0.00     0.034 A 
ATOM     52  C   UNL A   1      45.292  28.702  30.352  1.00  0.00     0.034 A 
ATOM     53  C   UNL A   1      39.885  32.123  30.855  1.00  0.00     0.049 A 
ATOM     54  C   UNL A   1      45.312  30.193  30.297  1.00  0.00     0.074 A 
ATOM     55  C   UNL A   1      40.208  31.897  32.184  1.00  0.00     0.029 A 
ATOM     56  N   UNL A   1      41.063  32.578  30.250  1.00  0.00    -0.354 N 
ATOM     57  N   UNL A   1      44.210  30.881  30.176  1.00  0.00    -0.248 NA
ATOM     58  C   UNL A   1      46.472  31.017  30.608  1.00  0.00     0.031 C 
ATOM     59  C   UNL A   1      41.604  32.166  32.352  1.00  0.00     0.029 A 
ATOM     60  C   UNL A   1      42.130  32.565  31.130  1.00  0.00     0.049 A 
ATOM     61  H   UNL A   1      41.124  32.870  29.313  1.00  0.00     0.167 HD
ATOM     62  C   UNL A   1      44.446  32.166  30.543  1.00  0.00     0.074 A 
ATOM     63  C   UNL A   1      45.889  32.225  30.738  1.00  0.00     0.031 C 
ATOM     64  C   UNL A   1      43.439  33.069  30.716  1.00  0.00     0.034 A 
BRANCH  51  65
ATOM     65  C   UNL A   1      37.284  32.122  30.338  1.00  0.00     0.023 A 
ATOM     66  C   UNL A   1      36.775  31.587  31.541  1.00  0.00     0.012 A 
ATOM     67  C   UNL A   1      36.361  32.886  29.574  1.00  0.00     0.148 A 
ATOM     68  C   UNL A   1      35.454  31.787  31.960  1.00  0.00     0.002 A 
ATOM     69  C   UNL A   1      35.058  33.136  30.018  1.00  0.00     0.091 A 
ATOM     70  F   UNL A   1      36.688  33.350  28.372  1.00  0.00    -0.205 F 
ATOM     71  C   UNL A   1      34.598  32.576  31.208  1.00  0.00     0.022 A 
BRANCH  69  72
ATOM     72  S   UNL A   1      33.902  34.186  29.110  1.00  0.00     0.127 S 
ATOM     73  O   UNL A   1      32.976  34.607  30.162  1.00  0.00    -0.237 OA
ATOM     74  O   UNL A   1      34.776  35.247  28.611  1.00  0.00    -0.237 OA
ATOM     75  O   UNL A   1      33.301  33.354  28.074  1.00  0.00    -0.744 OA
ENDBRANCH  69  72
ENDBRANCH  51  65
BRANCH  52  76
ATOM     76  C   UNL A   1      45.721  27.673  29.344  1.00  0.00     0.023 A 
ATOM     77  C   UNL A   1      45.760  26.332  29.819  1.00  0.00     0.012 A 
ATOM     78  C   UNL A   1      45.709  27.850  27.957  1.00  0.00     0.148 A 
ATOM     79  C   UNL A   1      45.696  25.219  28.974  1.00  0.00     0.002 A 
ATOM     80  C   UNL A   1      45.618  26.727  27.113  1.00  0.00     0.091 A 
ATOM     81  F   UNL A   1      45.746  29.094  27.466  1.00  0.00    -0.205 F 
ATOM     82  C   UNL A   1      45.589  25.417  27.616  1.00  0.00     0.022 A 
BRANCH  80  83
ATOM     83  S   UNL A   1      45.370  26.910  25.344  1.00  0.00     0.127 S 
ATOM     84  O   UNL A   1      46.684  27.376  24.912  1.00  0.00    -0.237 OA
ATOM     85  O   UNL A   1      45.037  25.547  24.921  1.00  0.00    -0.237 OA
ATOM     86  O   UNL A   1      44.266  27.850  25.230  1.00  0.00    -0.744 OA
ENDBRANCH  80  83
ENDBRANCH  52  76
BRANCH  64  87
ATOM     87  C   UNL A   1      43.614  34.538  30.428  1.00  0.00     0.023 A 
ATOM     88  C   UNL A   1      44.106  35.432  31.397  1.00  0.00     0.012 A 
ATOM     89  C   UNL A   1      43.524  35.018  29.098  1.00  0.00     0.148 A 
ATOM     90  C   UNL A   1      44.455  36.744  31.080  1.00  0.00     0.002 A 
ATOM     91  C   UNL A   1      44.002  36.276  28.766  1.00  0.00     0.091 A 
ATOM     92  F   UNL A   1      42.973  34.263  28.140  1.00  0.00    -0.205 F 
ATOM     93  C   UNL A   1      44.437  37.155  29.758  1.00  0.00     0.022 A 
BRANCH  91  94
ATOM     94  S   UNL A   1      44.244  36.754  27.053  1.00  0.00     0.127 S 
ATOM     95  O   UNL A   1      45.301  35.835  26.639  1.00  0.00    -0.237 OA
ATOM     96  O   UNL A   1      42.929  36.478  26.472  1.00  0.00    -0.237 OA
ATOM     97  O   UNL A   1      44.601  38.165  27.082  1.00  0.00    -0.744 OA
ENDBRANCH  91  94
ENDBRANCH  64  87
ENDBRANCH  38  39
ENDBRANCH  31  33
ENDBRANCH  30  31
ENDBRANCH  29  30
ENDBRANCH  28  29
ENDBRANCH  27  28
ENDBRANCH   1  27
TORSDOF 21
ENDMDL
