MODEL 1
REMARK VINA RESULT:      -9.9      0.000      0.000
REMARK SMILES CC(C)[C@H](NC(=O)CCNC(=O)c1ccoc1)C(=O)OCCOCCOC(=O)c1ccc(-c2c3nc(c(-c4cccc(S(=O)(=O)[O-])c4F)c4ccc([nH]4)c(-c4cccc(S(=O)(=O)[O-])c4F)c4nc(c(-c5cccc(S(=O)(=O)[O-])c5F)c5ccc2[nH]5)C=C4)C=C3)cc1
REMARK SMILES IDX 22 1 21 2 20 3 18 4 19 5 4 6 2 7 1 8 3 9 5 10 6 11 7 13 8 14
REMARK SMILES IDX 9 15 10 16 11 17 12 19 13 20 14 21 17 22 15 23 16 24 23 25
REMARK SMILES IDX 24 26 25 27 26 28 27 29 28 30 29 31 30 32 91 33 31 34 90 35
REMARK SMILES IDX 32 36 33 37 34 38 84 39 35 40 89 41 83 42 85 43 36 44 88 45
REMARK SMILES IDX 82 46 81 47 37 49 69 50 49 51 68 52 50 53 53 54 67 55 86 56
REMARK SMILES IDX 51 57 52 58 66 60 87 61 54 62 38 63 39 64 47 65 40 66 42 67
REMARK SMILES IDX 48 68 41 69 43 70 44 71 45 72 46 73 70 74 71 75 79 76 72 77
REMARK SMILES IDX 74 78 80 79 73 80 75 81 76 82 77 83 78 84 55 85 56 86 64 87
REMARK SMILES IDX 57 88 59 89 65 90 58 91 60 92 61 93 62 94 63 95
REMARK H PARENT 5 12 10 18 85 48 53 59
REMARK Flexibility Score: inf
ROOT
ATOM      1  C   UNL A   1      37.125  20.268  24.623  1.00  0.00     0.202 C 
ENDROOT
BRANCH   1   2
ATOM      2  C   UNL A   1      36.690  21.529  25.380  1.00  0.00     0.261 C 
BRANCH   2   3
ATOM      3  O   UNL A   1      35.866  22.405  24.594  1.00  0.00    -0.462 OA
BRANCH   3   4
ATOM      4  C   UNL A   1      35.555  23.587  25.195  1.00  0.00     0.328 C 
ATOM      5  O   UNL A   1      36.250  24.144  26.039  1.00  0.00    -0.250 OA
BRANCH   4   6
ATOM      6  C   UNL A   1      34.182  24.135  24.762  1.00  0.00     0.194 C 
BRANCH   6   7
ATOM      7  C   UNL A   1      34.127  25.681  24.866  1.00  0.00     0.017 C 
ATOM      8  C   UNL A   1      33.686  26.350  23.560  1.00  0.00     0.010 C 
ATOM      9  C   UNL A   1      33.244  26.166  26.018  1.00  0.00     0.010 C 
ENDBRANCH   6   7
BRANCH   6  10
ATOM     10  N   UNL A   1      33.005  23.577  25.452  1.00  0.00    -0.342 N 
ATOM     11  C   UNL A   1      32.114  22.631  25.044  1.00  0.00     0.222 C 
ATOM     12  H   UNL A   1      32.837  23.946  26.349  1.00  0.00     0.164 HD
ATOM     13  O   UNL A   1      31.111  22.432  25.730  1.00  0.00    -0.275 OA
BRANCH  11  14
ATOM     14  C   UNL A   1      32.355  21.806  23.792  1.00  0.00     0.121 C 
BRANCH  14  15
ATOM     15  C   UNL A   1      32.888  20.398  24.065  1.00  0.00     0.126 C 
BRANCH  15  16
ATOM     16  N   UNL A   1      32.046  19.364  23.479  1.00  0.00    -0.351 N 
ATOM     17  C   UNL A   1      32.537  18.167  23.008  1.00  0.00     0.254 C 
ATOM     18  H   UNL A   1      31.078  19.531  23.415  1.00  0.00     0.163 HD
ATOM     19  O   UNL A   1      32.404  17.879  21.823  1.00  0.00    -0.269 OA
BRANCH  17  20
ATOM     20  C   UNL A   1      33.117  17.249  23.963  1.00  0.00     0.077 A 
ATOM     21  C   UNL A   1      34.328  16.503  23.911  1.00  0.00     0.056 A 
ATOM     22  C   UNL A   1      32.610  17.032  25.229  1.00  0.00     0.208 A 
ATOM     23  C   UNL A   1      34.477  15.915  25.145  1.00  0.00     0.195 A 
ATOM     24  O   UNL A   1      33.425  16.219  25.947  1.00  0.00    -0.472 OA
ENDBRANCH  17  20
ENDBRANCH  15  16
ENDBRANCH  14  15
ENDBRANCH  11  14
ENDBRANCH   6  10
ENDBRANCH   4   6
ENDBRANCH   3   4
ENDBRANCH   2   3
ENDBRANCH   1   2
BRANCH   1  25
ATOM     25  O   UNL A   1      38.099  19.445  25.256  1.00  0.00    -0.374 OA
BRANCH  25  26
ATOM     26  C   UNL A   1      39.305  20.070  25.708  1.00  0.00     0.202 C 
BRANCH  26  27
ATOM     27  C   UNL A   1      40.536  19.174  25.879  1.00  0.00     0.261 C 
BRANCH  27  28
ATOM     28  O   UNL A   1      41.470  19.713  26.840  1.00  0.00    -0.460 OA
BRANCH  28  29
ATOM     29  C   UNL A   1      42.287  20.672  26.340  1.00  0.00     0.338 C 
ATOM     30  O   UNL A   1      43.063  20.558  25.401  1.00  0.00    -0.246 OA
BRANCH  29  31
ATOM     31  C   UNL A   1      42.022  21.979  26.967  1.00  0.00     0.060 A 
ATOM     32  C   UNL A   1      41.697  23.045  26.118  1.00  0.00     0.016 A 
ATOM     33  C   UNL A   1      42.267  22.201  28.324  1.00  0.00     0.016 A 
ATOM     34  C   UNL A   1      41.700  24.349  26.606  1.00  0.00     0.010 A 
ATOM     35  C   UNL A   1      42.277  23.514  28.811  1.00  0.00     0.010 A 
ATOM     36  C   UNL A   1      42.051  24.596  27.941  1.00  0.00    -0.014 A 
BRANCH  36  37
ATOM     37  C   UNL A   1      42.388  25.985  28.342  1.00  0.00     0.031 A 
ATOM     38  C   UNL A   1      43.815  26.451  28.209  1.00  0.00     0.074 A 
ATOM     39  C   UNL A   1      41.440  26.840  28.767  1.00  0.00     0.049 A 
ATOM     40  N   UNL A   1      44.315  27.646  28.390  1.00  0.00    -0.248 NA
ATOM     41  C   UNL A   1      44.809  25.437  27.815  1.00  0.00     0.031 C 
ATOM     42  C   UNL A   1      40.029  26.513  28.953  1.00  0.00     0.029 A 
ATOM     43  N   UNL A   1      41.533  28.162  29.125  1.00  0.00    -0.354 N 
ATOM     44  C   UNL A   1      45.677  27.528  28.136  1.00  0.00     0.074 A 
ATOM     45  C   UNL A   1      45.930  26.142  27.810  1.00  0.00     0.031 C 
ATOM     46  C   UNL A   1      39.386  27.605  29.405  1.00  0.00     0.029 A 
ATOM     47  C   UNL A   1      40.339  28.708  29.533  1.00  0.00     0.049 A 
ATOM     48  H   UNL A   1      42.375  28.671  29.092  1.00  0.00     0.167 HD
ATOM     49  C   UNL A   1      46.628  28.490  28.142  1.00  0.00     0.034 A 
ATOM     50  C   UNL A   1      40.047  29.956  29.949  1.00  0.00     0.034 A 
ATOM     51  C   UNL A   1      46.383  29.873  28.440  1.00  0.00     0.049 A 
ATOM     52  C   UNL A   1      41.124  31.012  29.938  1.00  0.00     0.074 A 
ATOM     53  C   UNL A   1      47.281  30.927  28.441  1.00  0.00     0.029 A 
ATOM     54  N   UNL A   1      45.150  30.396  28.793  1.00  0.00    -0.354 N 
ATOM     55  N   UNL A   1      42.372  30.915  29.551  1.00  0.00    -0.248 NA
ATOM     56  C   UNL A   1      40.738  32.361  30.381  1.00  0.00     0.031 C 
ATOM     57  C   UNL A   1      46.586  32.091  28.793  1.00  0.00     0.029 A 
ATOM     58  C   UNL A   1      45.259  31.757  29.015  1.00  0.00     0.049 A 
ATOM     59  H   UNL A   1      44.318  29.875  28.875  1.00  0.00     0.167 HD
ATOM     60  C   UNL A   1      42.910  32.192  29.668  1.00  0.00     0.074 A 
ATOM     61  C   UNL A   1      41.848  33.052  30.149  1.00  0.00     0.031 C 
ATOM     62  C   UNL A   1      44.176  32.612  29.420  1.00  0.00     0.034 A 
BRANCH  49  63
ATOM     63  C   UNL A   1      48.021  28.084  27.744  1.00  0.00     0.023 A 
ATOM     64  C   UNL A   1      48.966  27.820  28.754  1.00  0.00     0.012 A 
ATOM     65  C   UNL A   1      48.383  27.928  26.395  1.00  0.00     0.148 A 
ATOM     66  C   UNL A   1      50.260  27.419  28.427  1.00  0.00     0.002 A 
ATOM     67  C   UNL A   1      49.669  27.503  26.075  1.00  0.00     0.091 A 
ATOM     68  F   UNL A   1      47.480  28.219  25.447  1.00  0.00    -0.205 F 
ATOM     69  C   UNL A   1      50.609  27.252  27.089  1.00  0.00     0.022 A 
BRANCH  67  70
ATOM     70  S   UNL A   1      50.178  27.215  24.376  1.00  0.00     0.127 S 
ATOM     71  O   UNL A   1      50.377  28.579  23.891  1.00  0.00    -0.237 OA
ATOM     72  O   UNL A   1      51.408  26.440  24.538  1.00  0.00    -0.237 OA
ATOM     73  O   UNL A   1      49.082  26.475  23.765  1.00  0.00    -0.744 OA
ENDBRANCH  67  70
ENDBRANCH  49  63
BRANCH  50  74
ATOM     74  C   UNL A   1      38.649  30.300  30.326  1.00  0.00     0.023 A 
ATOM     75  C   UNL A   1      38.245  30.174  31.669  1.00  0.00     0.012 A 
ATOM     76  C   UNL A   1      37.730  30.778  29.374  1.00  0.00     0.148 A 
ATOM     77  C   UNL A   1      36.944  30.501  32.053  1.00  0.00     0.002 A 
ATOM     78  C   UNL A   1      36.449  31.148  29.773  1.00  0.00     0.091 A 
ATOM     79  F   UNL A   1      38.120  30.865  28.094  1.00  0.00    -0.205 F 
ATOM     80  C   UNL A   1      36.050  30.998  31.109  1.00  0.00     0.022 A 
BRANCH  78  81
ATOM     81  S   UNL A   1      35.297  31.914  28.627  1.00  0.00     0.127 S 
ATOM     82  O   UNL A   1      34.929  30.790  27.770  1.00  0.00    -0.237 OA
ATOM     83  O   UNL A   1      34.233  32.383  29.515  1.00  0.00    -0.237 OA
ATOM     84  O   UNL A   1      36.056  32.987  27.995  1.00  0.00    -0.744 OA
ENDBRANCH  78  81
ENDBRANCH  50  74
BRANCH  62  85
ATOM     85  C   UNL A   1      44.489  34.067  29.640  1.00  0.00     0.023 A 
ATOM     86  C   UNL A   1      44.989  34.482  30.889  1.00  0.00     0.012 A 
ATOM     87  C   UNL A   1      44.380  35.002  28.593  1.00  0.00     0.148 A 
ATOM     88  C   UNL A   1      45.359  35.811  31.098  1.00  0.00     0.002 A 
ATOM     89  C   UNL A   1      44.783  36.318  28.799  1.00  0.00     0.091 A 
ATOM     90  F   UNL A   1      43.880  34.598  27.416  1.00  0.00    -0.205 F 
ATOM     91  C   UNL A   1      45.269  36.726  30.051  1.00  0.00     0.022 A 
BRANCH  89  92
ATOM     92  S   UNL A   1      44.764  37.517  27.461  1.00  0.00     0.127 S 
ATOM     93  O   UNL A   1      45.090  38.757  28.161  1.00  0.00    -0.237 OA
ATOM     94  O   UNL A   1      45.817  37.028  26.568  1.00  0.00    -0.237 OA
ATOM     95  O   UNL A   1      43.423  37.433  26.896  1.00  0.00    -0.744 OA
ENDBRANCH  89  92
ENDBRANCH  62  85
ENDBRANCH  36  37
ENDBRANCH  29  31
ENDBRANCH  28  29
ENDBRANCH  27  28
ENDBRANCH  26  27
ENDBRANCH  25  26
ENDBRANCH   1  25
TORSDOF 23
ENDMDL
MODEL 2
REMARK VINA RESULT:      -9.3      1.410      1.733
REMARK SMILES CC(C)[C@H](NC(=O)CCNC(=O)c1ccoc1)C(=O)OCCOCCOC(=O)c1ccc(-c2c3nc(c(-c4cccc(S(=O)(=O)[O-])c4F)c4ccc([nH]4)c(-c4cccc(S(=O)(=O)[O-])c4F)c4nc(c(-c5cccc(S(=O)(=O)[O-])c5F)c5ccc2[nH]5)C=C4)C=C3)cc1
REMARK SMILES IDX 22 1 21 2 20 3 18 4 19 5 4 6 2 7 1 8 3 9 5 10 6 11 7 13 8 14
REMARK SMILES IDX 9 15 10 16 11 17 12 19 13 20 14 21 17 22 15 23 16 24 23 25
REMARK SMILES IDX 24 26 25 27 26 28 27 29 28 30 29 31 30 32 91 33 31 34 90 35
REMARK SMILES IDX 32 36 33 37 34 38 84 39 35 40 89 41 83 42 85 43 36 44 88 45
REMARK SMILES IDX 82 46 81 47 37 49 69 50 49 51 68 52 50 53 53 54 67 55 86 56
REMARK SMILES IDX 51 57 52 58 66 60 87 61 54 62 38 63 39 64 47 65 40 66 42 67
REMARK SMILES IDX 48 68 41 69 43 70 44 71 45 72 46 73 70 74 71 75 79 76 72 77
REMARK SMILES IDX 74 78 80 79 73 80 75 81 76 82 77 83 78 84 55 85 56 86 64 87
REMARK SMILES IDX 57 88 59 89 65 90 58 91 60 92 61 93 62 94 63 95
REMARK H PARENT 5 12 10 18 85 48 53 59
REMARK Flexibility Score: inf
ROOT
ATOM      1  C   UNL A   1      37.097  20.328  24.537  1.00  0.00     0.202 C 
ENDROOT
BRANCH   1   2
ATOM      2  C   UNL A   1      36.387  21.389  25.387  1.00  0.00     0.261 C 
BRANCH   2   3
ATOM      3  O   UNL A   1      35.844  22.468  24.610  1.00  0.00    -0.462 OA
BRANCH   3   4
ATOM      4  C   UNL A   1      35.512  23.577  25.327  1.00  0.00     0.328 C 
ATOM      5  O   UNL A   1      36.286  24.201  26.046  1.00  0.00    -0.250 OA
BRANCH   4   6
ATOM      6  C   UNL A   1      34.020  23.940  25.209  1.00  0.00     0.194 C 
BRANCH   6   7
ATOM      7  C   UNL A   1      33.724  25.338  25.813  1.00  0.00     0.017 C 
ATOM      8  C   UNL A   1      33.948  26.477  24.813  1.00  0.00     0.010 C 
ATOM      9  C   UNL A   1      32.317  25.440  26.407  1.00  0.00     0.010 C 
ENDBRANCH   6   7
BRANCH   6  10
ATOM     10  N   UNL A   1      33.062  22.974  25.775  1.00  0.00    -0.342 N 
ATOM     11  C   UNL A   1      32.222  22.102  25.151  1.00  0.00     0.222 C 
ATOM     12  H   UNL A   1      33.023  22.956  26.759  1.00  0.00     0.164 HD
ATOM     13  O   UNL A   1      31.393  21.494  25.831  1.00  0.00    -0.275 OA
BRANCH  11  14
ATOM     14  C   UNL A   1      32.316  21.844  23.658  1.00  0.00     0.121 C 
BRANCH  14  15
ATOM     15  C   UNL A   1      32.990  20.518  23.294  1.00  0.00     0.126 C 
BRANCH  15  16
ATOM     16  N   UNL A   1      32.025  19.454  23.057  1.00  0.00    -0.351 N 
ATOM     17  C   UNL A   1      32.384  18.178  22.685  1.00  0.00     0.254 C 
ATOM     18  H   UNL A   1      31.068  19.658  23.168  1.00  0.00     0.163 HD
ATOM     19  O   UNL A   1      32.001  17.728  21.610  1.00  0.00    -0.269 OA
BRANCH  17  20
ATOM     20  C   UNL A   1      33.134  17.381  23.629  1.00  0.00     0.077 A 
ATOM     21  C   UNL A   1      32.948  17.183  25.027  1.00  0.00     0.056 A 
ATOM     22  C   UNL A   1      34.151  16.517  23.272  1.00  0.00     0.208 A 
ATOM     23  C   UNL A   1      33.840  16.207  25.406  1.00  0.00     0.195 A 
ATOM     24  O   UNL A   1      34.587  15.809  24.345  1.00  0.00    -0.472 OA
ENDBRANCH  17  20
ENDBRANCH  15  16
ENDBRANCH  14  15
ENDBRANCH  11  14
ENDBRANCH   6  10
ENDBRANCH   4   6
ENDBRANCH   3   4
ENDBRANCH   2   3
ENDBRANCH   1   2
BRANCH   1  25
ATOM     25  O   UNL A   1      38.131  19.584  25.172  1.00  0.00    -0.374 OA
BRANCH  25  26
ATOM     26  C   UNL A   1      39.254  20.309  25.683  1.00  0.00     0.202 C 
BRANCH  26  27
ATOM     27  C   UNL A   1      40.555  19.526  25.895  1.00  0.00     0.261 C 
BRANCH  27  28
ATOM     28  O   UNL A   1      41.374  20.107  26.933  1.00  0.00    -0.460 OA
BRANCH  28  29
ATOM     29  C   UNL A   1      42.215  21.077  26.496  1.00  0.00     0.338 C 
ATOM     30  O   UNL A   1      43.006  20.998  25.567  1.00  0.00    -0.246 OA
BRANCH  29  31
ATOM     31  C   UNL A   1      41.957  22.356  27.181  1.00  0.00     0.060 A 
ATOM     32  C   UNL A   1      41.454  23.410  26.408  1.00  0.00     0.016 A 
ATOM     33  C   UNL A   1      42.370  22.574  28.497  1.00  0.00     0.016 A 
ATOM     34  C   UNL A   1      41.442  24.705  26.920  1.00  0.00     0.010 A 
ATOM     35  C   UNL A   1      42.365  23.879  29.008  1.00  0.00     0.010 A 
ATOM     36  C   UNL A   1      41.955  24.955  28.200  1.00  0.00    -0.014 A 
BRANCH  36  37
ATOM     37  C   UNL A   1      42.257  26.358  28.583  1.00  0.00     0.031 A 
ATOM     38  C   UNL A   1      43.674  26.855  28.453  1.00  0.00     0.074 A 
ATOM     39  C   UNL A   1      41.287  27.196  28.988  1.00  0.00     0.049 A 
ATOM     40  N   UNL A   1      44.145  28.064  28.620  1.00  0.00    -0.248 NA
ATOM     41  C   UNL A   1      44.694  25.859  28.082  1.00  0.00     0.031 C 
ATOM     42  C   UNL A   1      39.881  26.840  29.169  1.00  0.00     0.029 A 
ATOM     43  N   UNL A   1      41.346  28.526  29.327  1.00  0.00    -0.354 N 
ATOM     44  C   UNL A   1      45.511  27.974  28.378  1.00  0.00     0.074 A 
ATOM     45  C   UNL A   1      45.798  26.589  28.075  1.00  0.00     0.031 C 
ATOM     46  C   UNL A   1      39.211  27.923  29.600  1.00  0.00     0.029 A 
ATOM     47  C   UNL A   1      40.136  29.049  29.718  1.00  0.00     0.049 A 
ATOM     48  H   UNL A   1      42.176  29.054  29.293  1.00  0.00     0.167 HD
ATOM     49  C   UNL A   1      46.440  28.958  28.376  1.00  0.00     0.034 A 
ATOM     50  C   UNL A   1      39.813  30.297  30.113  1.00  0.00     0.034 A 
ATOM     51  C   UNL A   1      46.160  30.339  28.652  1.00  0.00     0.049 A 
ATOM     52  C   UNL A   1      40.864  31.377  30.094  1.00  0.00     0.074 A 
ATOM     53  C   UNL A   1      47.033  31.413  28.644  1.00  0.00     0.029 A 
ATOM     54  N   UNL A   1      44.912  30.838  28.988  1.00  0.00    -0.354 N 
ATOM     55  N   UNL A   1      42.118  31.304  29.718  1.00  0.00    -0.248 NA
ATOM     56  C   UNL A   1      40.444  32.724  30.514  1.00  0.00     0.031 C 
ATOM     57  C   UNL A   1      46.309  32.566  28.973  1.00  0.00     0.029 A 
ATOM     58  C   UNL A   1      44.988  32.204  29.190  1.00  0.00     0.049 A 
ATOM     59  H   UNL A   1      44.092  30.299  29.071  1.00  0.00     0.167 HD
ATOM     60  C   UNL A   1      42.625  32.595  29.820  1.00  0.00     0.074 A 
ATOM     61  C   UNL A   1      41.539  33.436  30.280  1.00  0.00     0.031 C 
ATOM     62  C   UNL A   1      43.882  33.040  29.575  1.00  0.00     0.034 A 
BRANCH  49  63
ATOM     63  C   UNL A   1      47.844  28.579  27.995  1.00  0.00     0.023 A 
ATOM     64  C   UNL A   1      48.219  28.636  26.639  1.00  0.00     0.012 A 
ATOM     65  C   UNL A   1      48.794  28.209  28.964  1.00  0.00     0.148 A 
ATOM     66  C   UNL A   1      49.518  28.314  26.248  1.00  0.00     0.002 A 
ATOM     67  C   UNL A   1      50.096  27.914  28.571  1.00  0.00     0.091 A 
ATOM     68  F   UNL A   1      48.408  28.126  30.246  1.00  0.00    -0.205 F 
ATOM     69  C   UNL A   1      50.458  27.962  27.214  1.00  0.00     0.022 A 
BRANCH  67  70
ATOM     70  S   UNL A   1      51.376  27.502  29.762  1.00  0.00     0.127 S 
ATOM     71  O   UNL A   1      51.420  28.713  30.580  1.00  0.00    -0.237 OA
ATOM     72  O   UNL A   1      50.819  26.330  30.438  1.00  0.00    -0.237 OA
ATOM     73  O   UNL A   1      52.567  27.225  28.969  1.00  0.00    -0.744 OA
ENDBRANCH  67  70
ENDBRANCH  49  63
BRANCH  50  74
ATOM     74  C   UNL A   1      38.404  30.613  30.475  1.00  0.00     0.023 A 
ATOM     75  C   UNL A   1      37.995  30.509  31.818  1.00  0.00     0.012 A 
ATOM     76  C   UNL A   1      37.478  31.045  29.507  1.00  0.00     0.148 A 
ATOM     77  C   UNL A   1      36.685  30.812  32.188  1.00  0.00     0.002 A 
ATOM     78  C   UNL A   1      36.186  31.390  29.890  1.00  0.00     0.091 A 
ATOM     79  F   UNL A   1      37.873  31.111  28.227  1.00  0.00    -0.205 F 
ATOM     80  C   UNL A   1      35.783  31.263  31.227  1.00  0.00     0.022 A 
BRANCH  78  81
ATOM     81  S   UNL A   1      35.021  32.098  28.720  1.00  0.00     0.127 S 
ATOM     82  O   UNL A   1      35.863  33.036  27.983  1.00  0.00    -0.237 OA
ATOM     83  O   UNL A   1      34.589  30.928  27.956  1.00  0.00    -0.237 OA
ATOM     84  O   UNL A   1      33.972  32.685  29.546  1.00  0.00    -0.744 OA
ENDBRANCH  78  81
ENDBRANCH  50  74
BRANCH  62  85
ATOM     85  C   UNL A   1      44.160  34.505  29.775  1.00  0.00     0.023 A 
ATOM     86  C   UNL A   1      44.609  34.955  31.032  1.00  0.00     0.012 A 
ATOM     87  C   UNL A   1      44.069  35.416  28.706  1.00  0.00     0.148 A 
ATOM     88  C   UNL A   1      44.947  36.294  31.226  1.00  0.00     0.002 A 
ATOM     89  C   UNL A   1      44.440  36.744  28.898  1.00  0.00     0.091 A 
ATOM     90  F   UNL A   1      43.617  34.979  27.521  1.00  0.00    -0.205 F 
ATOM     91  C   UNL A   1      44.874  37.186  30.158  1.00  0.00     0.022 A 
BRANCH  89  92
ATOM     92  S   UNL A   1      44.443  37.916  27.536  1.00  0.00     0.127 S 
ATOM     93  O   UNL A   1      45.389  37.300  26.608  1.00  0.00    -0.237 OA
ATOM     94  O   UNL A   1      43.050  37.896  27.085  1.00  0.00    -0.237 OA
ATOM     95  O   UNL A   1      44.857  39.182  28.127  1.00  0.00    -0.744 OA
ENDBRANCH  89  92
ENDBRANCH  62  85
ENDBRANCH  36  37
ENDBRANCH  29  31
ENDBRANCH  28  29
ENDBRANCH  27  28
ENDBRANCH  26  27
ENDBRANCH  25  26
ENDBRANCH   1  25
TORSDOF 23
ENDMDL
MODEL 3
REMARK VINA RESULT:      -8.2      5.274     10.886
REMARK SMILES CC(C)[C@H](NC(=O)CCNC(=O)c1ccoc1)C(=O)OCCOCCOC(=O)c1ccc(-c2c3nc(c(-c4cccc(S(=O)(=O)[O-])c4F)c4ccc([nH]4)c(-c4cccc(S(=O)(=O)[O-])c4F)c4nc(c(-c5cccc(S(=O)(=O)[O-])c5F)c5ccc2[nH]5)C=C4)C=C3)cc1
REMARK SMILES IDX 22 1 21 2 20 3 18 4 19 5 4 6 2 7 1 8 3 9 5 10 6 11 7 13 8 14
REMARK SMILES IDX 9 15 10 16 11 17 12 19 13 20 14 21 17 22 15 23 16 24 23 25
REMARK SMILES IDX 24 26 25 27 26 28 27 29 28 30 29 31 30 32 91 33 31 34 90 35
REMARK SMILES IDX 32 36 33 37 34 38 84 39 35 40 89 41 83 42 85 43 36 44 88 45
REMARK SMILES IDX 82 46 81 47 37 49 69 50 49 51 68 52 50 53 53 54 67 55 86 56
REMARK SMILES IDX 51 57 52 58 66 60 87 61 54 62 38 63 39 64 47 65 40 66 42 67
REMARK SMILES IDX 48 68 41 69 43 70 44 71 45 72 46 73 70 74 71 75 79 76 72 77
REMARK SMILES IDX 74 78 80 79 73 80 75 81 76 82 77 83 78 84 55 85 56 86 64 87
REMARK SMILES IDX 57 88 59 89 65 90 58 91 60 92 61 93 62 94 63 95
REMARK H PARENT 5 12 10 18 85 48 53 59
REMARK Flexibility Score: inf
ROOT
ATOM      1  C   UNL A   1      50.741  27.730  25.347  1.00  0.00     0.202 C 
ENDROOT
BRANCH   1   2
ATOM      2  C   UNL A   1      49.610  27.176  24.473  1.00  0.00     0.261 C 
BRANCH   2   3
ATOM      3  O   UNL A   1      48.309  27.642  24.868  1.00  0.00    -0.462 OA
BRANCH   3   4
ATOM      4  C   UNL A   1      47.310  27.360  23.986  1.00  0.00     0.328 C 
ATOM      5  O   UNL A   1      47.281  27.740  22.820  1.00  0.00    -0.250 OA
BRANCH   4   6
ATOM      6  C   UNL A   1      46.157  26.563  24.625  1.00  0.00     0.194 C 
BRANCH   6   7
ATOM      7  C   UNL A   1      45.125  27.500  25.304  1.00  0.00     0.017 C 
ATOM      8  C   UNL A   1      43.675  27.090  25.024  1.00  0.00     0.010 C 
ATOM      9  C   UNL A   1      45.344  27.627  26.813  1.00  0.00     0.010 C 
ENDBRANCH   6   7
BRANCH   6  10
ATOM     10  N   UNL A   1      46.538  25.512  25.586  1.00  0.00    -0.342 N 
ATOM     11  C   UNL A   1      46.545  24.157  25.448  1.00  0.00     0.222 C 
ATOM     12  H   UNL A   1      46.834  25.841  26.465  1.00  0.00     0.164 HD
ATOM     13  O   UNL A   1      46.757  23.464  26.444  1.00  0.00    -0.275 OA
BRANCH  11  14
ATOM     14  C   UNL A   1      46.334  23.498  24.096  1.00  0.00     0.121 C 
BRANCH  14  15
ATOM     15  C   UNL A   1      44.917  22.963  23.876  1.00  0.00     0.126 C 
BRANCH  15  16
ATOM     16  N   UNL A   1      44.300  22.507  25.114  1.00  0.00    -0.351 N 
ATOM     17  C   UNL A   1      43.769  21.247  25.274  1.00  0.00     0.254 C 
ATOM     18  H   UNL A   1      44.261  23.132  25.874  1.00  0.00     0.163 HD
ATOM     19  O   UNL A   1      42.575  21.118  25.524  1.00  0.00    -0.269 OA
BRANCH  17  20
ATOM     20  C   UNL A   1      44.672  20.119  25.229  1.00  0.00     0.077 A 
ATOM     21  C   UNL A   1      46.082  20.054  25.415  1.00  0.00     0.056 A 
ATOM     22  C   UNL A   1      44.259  18.806  25.116  1.00  0.00     0.208 A 
ATOM     23  C   UNL A   1      46.413  18.718  25.425  1.00  0.00     0.195 A 
ATOM     24  O   UNL A   1      45.310  17.954  25.226  1.00  0.00    -0.472 OA
ENDBRANCH  17  20
ENDBRANCH  15  16
ENDBRANCH  14  15
ENDBRANCH  11  14
ENDBRANCH   6  10
ENDBRANCH   4   6
ENDBRANCH   3   4
ENDBRANCH   2   3
ENDBRANCH   1   2
BRANCH   1  25
ATOM     25  O   UNL A   1      52.056  27.677  24.803  1.00  0.00    -0.374 OA
BRANCH  25  26
ATOM     26  C   UNL A   1      53.046  28.540  25.372  1.00  0.00     0.202 C 
BRANCH  26  27
ATOM     27  C   UNL A   1      52.726  29.173  26.730  1.00  0.00     0.261 C 
BRANCH  27  28
ATOM     28  O   UNL A   1      52.453  30.587  26.620  1.00  0.00    -0.460 OA
BRANCH  28  29
ATOM     29  C   UNL A   1      52.426  31.240  27.807  1.00  0.00     0.338 C 
ATOM     30  O   UNL A   1      53.385  31.520  28.512  1.00  0.00    -0.246 OA
BRANCH  29  31
ATOM     31  C   UNL A   1      51.076  31.750  28.105  1.00  0.00     0.060 A 
ATOM     32  C   UNL A   1      50.734  31.917  29.453  1.00  0.00     0.016 A 
ATOM     33  C   UNL A   1      50.109  31.881  27.106  1.00  0.00     0.016 A 
ATOM     34  C   UNL A   1      49.406  32.132  29.814  1.00  0.00     0.010 A 
ATOM     35  C   UNL A   1      48.773  32.090  27.471  1.00  0.00     0.010 A 
ATOM     36  C   UNL A   1      48.410  32.158  28.828  1.00  0.00    -0.014 A 
BRANCH  36  37
ATOM     37  C   UNL A   1      46.991  32.035  29.249  1.00  0.00     0.031 A 
ATOM     38  C   UNL A   1      46.171  33.291  29.402  1.00  0.00     0.074 A 
ATOM     39  C   UNL A   1      46.419  30.833  29.440  1.00  0.00     0.049 A 
ATOM     40  N   UNL A   1      44.892  33.418  29.647  1.00  0.00    -0.248 NA
ATOM     41  C   UNL A   1      46.886  34.570  29.256  1.00  0.00     0.031 C 
ATOM     42  C   UNL A   1      47.102  29.546  29.338  1.00  0.00     0.029 A 
ATOM     43  N   UNL A   1      45.127  30.507  29.770  1.00  0.00    -0.354 N 
ATOM     44  C   UNL A   1      44.650  34.786  29.687  1.00  0.00     0.074 A 
ATOM     45  C   UNL A   1      45.917  35.449  29.464  1.00  0.00     0.031 C 
ATOM     46  C   UNL A   1      46.224  28.565  29.612  1.00  0.00     0.029 A 
ATOM     47  C   UNL A   1      44.917  29.155  29.902  1.00  0.00     0.049 A 
ATOM     48  H   UNL A   1      44.418  31.177  29.898  1.00  0.00     0.167 HD
ATOM     49  C   UNL A   1      43.477  35.437  29.862  1.00  0.00     0.034 A 
ATOM     50  C   UNL A   1      43.796  28.472  30.210  1.00  0.00     0.034 A 
ATOM     51  C   UNL A   1      42.211  34.788  30.061  1.00  0.00     0.049 A 
ATOM     52  C   UNL A   1      42.499  29.219  30.392  1.00  0.00     0.074 A 
ATOM     53  C   UNL A   1      40.962  35.365  30.217  1.00  0.00     0.029 A 
ATOM     54  N   UNL A   1      42.031  33.416  30.132  1.00  0.00    -0.354 N 
ATOM     55  N   UNL A   1      42.262  30.504  30.277  1.00  0.00    -0.248 NA
ATOM     56  C   UNL A   1      41.305  28.417  30.704  1.00  0.00     0.031 C 
ATOM     57  C   UNL A   1      40.025  34.337  30.380  1.00  0.00     0.029 A 
ATOM     58  C   UNL A   1      40.694  33.124  30.331  1.00  0.00     0.049 A 
ATOM     59  H   UNL A   1      42.750  32.748  30.054  1.00  0.00     0.167 HD
ATOM     60  C   UNL A   1      40.893  30.659  30.465  1.00  0.00     0.074 A 
ATOM     61  C   UNL A   1      40.348  29.336  30.688  1.00  0.00     0.031 C 
ATOM     62  C   UNL A   1      40.156  31.798  30.475  1.00  0.00     0.034 A 
BRANCH  49  63
ATOM     63  C   UNL A   1      43.501  36.938  29.777  1.00  0.00     0.023 A 
ATOM     64  C   UNL A   1      43.798  37.680  30.937  1.00  0.00     0.012 A 
ATOM     65  C   UNL A   1      43.273  37.608  28.562  1.00  0.00     0.148 A 
ATOM     66  C   UNL A   1      43.852  39.072  30.893  1.00  0.00     0.002 A 
ATOM     67  C   UNL A   1      43.355  38.997  28.520  1.00  0.00     0.091 A 
ATOM     68  F   UNL A   1      42.957  36.886  27.477  1.00  0.00    -0.205 F 
ATOM     69  C   UNL A   1      43.640  39.730  29.684  1.00  0.00     0.022 A 
BRANCH  67  70
ATOM     70  S   UNL A   1      43.144  39.912  26.989  1.00  0.00     0.127 S 
ATOM     71  O   UNL A   1      41.778  39.554  26.613  1.00  0.00    -0.237 OA
ATOM     72  O   UNL A   1      43.313  41.300  27.420  1.00  0.00    -0.237 OA
ATOM     73  O   UNL A   1      44.195  39.430  26.102  1.00  0.00    -0.744 OA
ENDBRANCH  67  70
ENDBRANCH  49  63
BRANCH  50  74
ATOM     74  C   UNL A   1      43.833  26.986  30.276  1.00  0.00     0.023 A 
ATOM     75  C   UNL A   1      44.405  26.358  31.399  1.00  0.00     0.012 A 
ATOM     76  C   UNL A   1      43.279  26.192  29.255  1.00  0.00     0.148 A 
ATOM     77  C   UNL A   1      44.442  24.966  31.494  1.00  0.00     0.002 A 
ATOM     78  C   UNL A   1      43.275  24.807  29.378  1.00  0.00     0.091 A 
ATOM     79  F   UNL A   1      42.763  26.804  28.178  1.00  0.00    -0.205 F 
ATOM     80  C   UNL A   1      43.867  24.191  30.490  1.00  0.00     0.022 A 
BRANCH  78  81
ATOM     81  S   UNL A   1      42.438  23.763  28.180  1.00  0.00     0.127 S 
ATOM     82  O   UNL A   1      41.040  24.133  28.380  1.00  0.00    -0.237 OA
ATOM     83  O   UNL A   1      43.017  24.208  26.912  1.00  0.00    -0.237 OA
ATOM     84  O   UNL A   1      42.804  22.401  28.551  1.00  0.00    -0.744 OA
ENDBRANCH  78  81
ENDBRANCH  50  74
BRANCH  62  85
ATOM     85  C   UNL A   1      38.675  31.675  30.711  1.00  0.00     0.023 A 
ATOM     86  C   UNL A   1      38.188  31.656  32.032  1.00  0.00     0.012 A 
ATOM     87  C   UNL A   1      37.764  31.672  29.638  1.00  0.00     0.148 A 
ATOM     88  C   UNL A   1      36.816  31.618  32.281  1.00  0.00     0.002 A 
ATOM     89  C   UNL A   1      36.397  31.669  29.894  1.00  0.00     0.091 A 
ATOM     90  F   UNL A   1      38.242  31.667  28.384  1.00  0.00    -0.205 F 
ATOM     91  C   UNL A   1      35.920  31.637  31.214  1.00  0.00     0.022 A 
BRANCH  89  92
ATOM     92  S   UNL A   1      35.199  31.775  28.558  1.00  0.00     0.127 S 
ATOM     93  O   UNL A   1      35.124  30.388  28.107  1.00  0.00    -0.237 OA
ATOM     94  O   UNL A   1      33.995  32.259  29.237  1.00  0.00    -0.237 OA
ATOM     95  O   UNL A   1      35.769  32.727  27.613  1.00  0.00    -0.744 OA
ENDBRANCH  89  92
ENDBRANCH  62  85
ENDBRANCH  36  37
ENDBRANCH  29  31
ENDBRANCH  28  29
ENDBRANCH  27  28
ENDBRANCH  26  27
ENDBRANCH  25  26
ENDBRANCH   1  25
TORSDOF 23
ENDMDL
