MODEL 1
REMARK VINA RESULT:     -10.8      0.000      0.000
REMARK SMILES CC[C@@H](C)[C@@H](C(=O)OCCOCCOC(=O)c1ccc(-c2c3nc(c(-c4cccc(S(=O)(=O)[O-])c4F)c4ccc([nH]4)c(-c4cccc(S(=O)(=O)[O-])c4F)c4nc(c(-c5cccc(S(=O)(=O)[O-])c5F)c5ccc2[nH]5)C=C4)C=C3)cc1)S(=O)(=O)c1ccc(OC)cc1
REMARK SMILES IDX 11 1 10 2 9 3 8 4 6 5 7 6 5 7 3 8 4 9 2 10 1 11 80 12 81 13
REMARK SMILES IDX 82 14 83 15 84 16 90 17 85 18 89 19 86 20 87 21 88 22 12 23
REMARK SMILES IDX 13 24 14 25 15 26 16 27 17 28 18 29 79 30 19 31 78 32 20 33
REMARK SMILES IDX 21 34 22 35 72 36 23 37 77 38 71 39 73 40 24 41 76 42 70 43
REMARK SMILES IDX 69 44 25 46 57 47 37 48 56 49 38 50 41 51 55 52 74 53 39 54
REMARK SMILES IDX 40 55 54 57 75 58 42 59 26 60 27 61 35 62 28 63 30 64 36 65
REMARK SMILES IDX 29 66 31 67 32 68 33 69 34 70 58 71 59 72 67 73 60 74 62 75
REMARK SMILES IDX 68 76 61 77 63 78 64 79 65 80 66 81 43 82 44 83 52 84 45 85
REMARK SMILES IDX 47 86 53 87 46 88 48 89 49 90 50 91 51 92
REMARK H PARENT 73 45 41 56
REMARK Flexibility Score: inf
ROOT
ATOM      1  O   UNL A   1      32.980  29.356  24.952  1.00  0.00    -0.374 OA
ENDROOT
BRANCH   1   2
ATOM      2  C   UNL A   1      33.868  28.471  25.649  1.00  0.00     0.202 C 
BRANCH   2   3
ATOM      3  C   UNL A   1      33.366  27.038  25.892  1.00  0.00     0.261 C 
BRANCH   3   4
ATOM      4  O   UNL A   1      34.469  26.093  25.927  1.00  0.00    -0.462 OA
BRANCH   4   5
ATOM      5  C   UNL A   1      34.389  24.978  25.154  1.00  0.00     0.325 C 
ATOM      6  O   UNL A   1      35.386  24.493  24.642  1.00  0.00    -0.251 OA
BRANCH   5   7
ATOM      7  C   UNL A   1      32.956  24.458  25.000  1.00  0.00     0.225 C 
BRANCH   7   8
ATOM      8  C   UNL A   1      32.607  23.012  25.549  1.00  0.00     0.015 C 
ATOM      9  C   UNL A   1      31.112  22.905  25.911  1.00  0.00     0.009 C 
BRANCH   8  10
ATOM     10  C   UNL A   1      33.436  22.575  26.795  1.00  0.00     0.002 C 
ATOM     11  C   UNL A   1      33.550  21.069  27.035  1.00  0.00     0.004 C 
ENDBRANCH   8  10
ENDBRANCH   7   8
BRANCH   7  12
ATOM     12  S   UNL A   1      32.477  24.680  23.231  1.00  0.00     0.192 S 
ATOM     13  O   UNL A   1      33.633  25.200  22.518  1.00  0.00    -0.223 OA
ATOM     14  O   UNL A   1      31.849  23.498  22.674  1.00  0.00    -0.223 OA
BRANCH  12  15
ATOM     15  C   UNL A   1      31.232  25.972  23.167  1.00  0.00     0.068 A 
ATOM     16  C   UNL A   1      31.451  27.122  22.408  1.00  0.00     0.024 A 
ATOM     17  C   UNL A   1      30.007  25.803  23.812  1.00  0.00     0.024 A 
ATOM     18  C   UNL A   1      30.474  28.127  22.367  1.00  0.00     0.048 A 
ATOM     19  C   UNL A   1      29.056  26.835  23.814  1.00  0.00     0.048 A 
ATOM     20  C   UNL A   1      29.291  28.009  23.103  1.00  0.00     0.118 A 
BRANCH  20  21
ATOM     21  O   UNL A   1      28.437  29.072  23.011  1.00  0.00    -0.497 OA
ATOM     22  C   UNL A   1      28.998  30.369  23.198  1.00  0.00     0.278 C 
ENDBRANCH  20  21
ENDBRANCH  12  15
ENDBRANCH   7  12
ENDBRANCH   5   7
ENDBRANCH   4   5
ENDBRANCH   3   4
ENDBRANCH   2   3
ENDBRANCH   1   2
BRANCH   1  23
ATOM     23  C   UNL A   1      31.803  29.763  25.635  1.00  0.00     0.202 C 
BRANCH  23  24
ATOM     24  C   UNL A   1      31.833  31.069  26.437  1.00  0.00     0.261 C 
BRANCH  24  25
ATOM     25  O   UNL A   1      32.701  30.995  27.559  1.00  0.00    -0.460 OA
BRANCH  25  26
ATOM     26  C   UNL A   1      33.444  32.117  27.691  1.00  0.00     0.338 C 
ATOM     27  O   UNL A   1      33.040  33.272  27.742  1.00  0.00    -0.246 OA
BRANCH  26  28
ATOM     28  C   UNL A   1      34.827  31.737  27.976  1.00  0.00     0.060 A 
ATOM     29  C   UNL A   1      35.058  30.381  28.219  1.00  0.00     0.016 A 
ATOM     30  C   UNL A   1      35.859  32.679  28.038  1.00  0.00     0.016 A 
ATOM     31  C   UNL A   1      36.314  29.971  28.625  1.00  0.00     0.010 A 
ATOM     32  C   UNL A   1      37.126  32.261  28.438  1.00  0.00     0.010 A 
ATOM     33  C   UNL A   1      37.337  30.917  28.789  1.00  0.00    -0.014 A 
BRANCH  33  34
ATOM     34  C   UNL A   1      38.562  30.483  29.487  1.00  0.00     0.031 A 
ATOM     35  C   UNL A   1      38.784  30.926  30.906  1.00  0.00     0.074 A 
ATOM     36  C   UNL A   1      39.392  29.610  28.892  1.00  0.00     0.049 A 
ATOM     37  N   UNL A   1      39.695  30.537  31.757  1.00  0.00    -0.248 NA
ATOM     38  C   UNL A   1      37.854  31.936  31.440  1.00  0.00     0.031 C 
ATOM     39  C   UNL A   1      39.255  29.120  27.521  1.00  0.00     0.029 A 
ATOM     40  N   UNL A   1      40.503  28.971  29.372  1.00  0.00    -0.354 N 
ATOM     41  C   UNL A   1      39.460  31.261  32.919  1.00  0.00     0.074 A 
ATOM     42  C   UNL A   1      38.335  32.132  32.659  1.00  0.00     0.031 C 
ATOM     43  C   UNL A   1      40.246  28.249  27.270  1.00  0.00     0.029 A 
ATOM     44  C   UNL A   1      41.091  28.135  28.456  1.00  0.00     0.049 A 
ATOM     45  H   UNL A   1      40.847  29.098  30.286  1.00  0.00     0.167 HD
ATOM     46  C   UNL A   1      40.110  31.189  34.103  1.00  0.00     0.034 A 
ATOM     47  C   UNL A   1      42.189  27.364  28.568  1.00  0.00     0.034 A 
ATOM     48  C   UNL A   1      41.220  30.309  34.349  1.00  0.00     0.049 A 
ATOM     49  C   UNL A   1      42.895  27.306  29.895  1.00  0.00     0.074 A 
ATOM     50  C   UNL A   1      41.936  30.131  35.518  1.00  0.00     0.029 A 
ATOM     51  N   UNL A   1      41.783  29.466  33.402  1.00  0.00    -0.354 N 
ATOM     52  N   UNL A   1      42.595  27.914  31.019  1.00  0.00    -0.248 NA
ATOM     53  C   UNL A   1      44.065  26.423  29.982  1.00  0.00     0.031 C 
ATOM     54  C   UNL A   1      42.954  29.206  35.267  1.00  0.00     0.029 A 
ATOM     55  C   UNL A   1      42.845  28.774  33.954  1.00  0.00     0.049 A 
ATOM     56  H   UNL A   1      41.473  29.375  32.472  1.00  0.00     0.167 HD
ATOM     57  C   UNL A   1      43.515  27.458  31.956  1.00  0.00     0.074 A 
ATOM     58  C   UNL A   1      44.365  26.506  31.271  1.00  0.00     0.031 C 
ATOM     59  C   UNL A   1      43.653  27.802  33.261  1.00  0.00     0.034 A 
BRANCH  46  60
ATOM     60  C   UNL A   1      39.631  32.080  35.220  1.00  0.00     0.023 A 
ATOM     61  C   UNL A   1      39.942  33.455  35.207  1.00  0.00     0.012 A 
ATOM     62  C   UNL A   1      38.837  31.562  36.260  1.00  0.00     0.148 A 
ATOM     63  C   UNL A   1      39.497  34.295  36.228  1.00  0.00     0.002 A 
ATOM     64  C   UNL A   1      38.358  32.412  37.250  1.00  0.00     0.091 A 
ATOM     65  F   UNL A   1      38.576  30.247  36.271  1.00  0.00    -0.205 F 
ATOM     66  C   UNL A   1      38.696  33.775  37.242  1.00  0.00     0.022 A 
BRANCH  64  67
ATOM     67  S   UNL A   1      37.258  31.855  38.555  1.00  0.00     0.127 S 
ATOM     68  O   UNL A   1      37.001  30.472  38.152  1.00  0.00    -0.237 OA
ATOM     69  O   UNL A   1      38.096  31.996  39.745  1.00  0.00    -0.237 OA
ATOM     70  O   UNL A   1      36.104  32.740  38.515  1.00  0.00    -0.744 OA
ENDBRANCH  64  67
ENDBRANCH  46  60
BRANCH  47  71
ATOM     71  C   UNL A   1      42.652  26.560  27.404  1.00  0.00     0.023 A 
ATOM     72  C   UNL A   1      43.515  27.132  26.449  1.00  0.00     0.012 A 
ATOM     73  C   UNL A   1      42.259  25.216  27.257  1.00  0.00     0.148 A 
ATOM     74  C   UNL A   1      43.951  26.388  25.352  1.00  0.00     0.002 A 
ATOM     75  C   UNL A   1      42.745  24.463  26.196  1.00  0.00     0.091 A 
ATOM     76  F   UNL A   1      41.426  24.695  28.170  1.00  0.00    -0.205 F 
ATOM     77  C   UNL A   1      43.575  25.053  25.231  1.00  0.00     0.022 A 
BRANCH  75  78
ATOM     78  S   UNL A   1      42.425  22.703  26.043  1.00  0.00     0.127 S 
ATOM     79  O   UNL A   1      40.970  22.653  26.147  1.00  0.00    -0.237 OA
ATOM     80  O   UNL A   1      42.961  22.415  24.711  1.00  0.00    -0.237 OA
ATOM     81  O   UNL A   1      43.160  22.074  27.132  1.00  0.00    -0.744 OA
ENDBRANCH  75  78
ENDBRANCH  47  71
BRANCH  59  82
ATOM     82  C   UNL A   1      44.741  27.112  34.043  1.00  0.00     0.023 A 
ATOM     83  C   UNL A   1      46.058  27.612  34.015  1.00  0.00     0.012 A 
ATOM     84  C   UNL A   1      44.444  25.990  34.841  1.00  0.00     0.148 A 
ATOM     85  C   UNL A   1      47.073  26.975  34.725  1.00  0.00     0.002 A 
ATOM     86  C   UNL A   1      45.448  25.394  35.592  1.00  0.00     0.091 A 
ATOM     87  F   UNL A   1      43.189  25.518  34.842  1.00  0.00    -0.205 F 
ATOM     88  C   UNL A   1      46.767  25.873  35.522  1.00  0.00     0.022 A 
BRANCH  86  89
ATOM     89  S   UNL A   1      45.122  24.038  36.722  1.00  0.00     0.127 S 
ATOM     90  O   UNL A   1      44.190  24.653  37.666  1.00  0.00    -0.237 OA
ATOM     91  O   UNL A   1      44.523  23.035  35.840  1.00  0.00    -0.237 OA
ATOM     92  O   UNL A   1      46.415  23.658  37.273  1.00  0.00    -0.744 OA
ENDBRANCH  86  89
ENDBRANCH  59  82
ENDBRANCH  33  34
ENDBRANCH  26  28
ENDBRANCH  25  26
ENDBRANCH  24  25
ENDBRANCH  23  24
ENDBRANCH   1  23
TORSDOF 22
ENDMDL
MODEL 2
REMARK VINA RESULT:     -10.5      1.746      3.334
REMARK SMILES CC[C@@H](C)[C@@H](C(=O)OCCOCCOC(=O)c1ccc(-c2c3nc(c(-c4cccc(S(=O)(=O)[O-])c4F)c4ccc([nH]4)c(-c4cccc(S(=O)(=O)[O-])c4F)c4nc(c(-c5cccc(S(=O)(=O)[O-])c5F)c5ccc2[nH]5)C=C4)C=C3)cc1)S(=O)(=O)c1ccc(OC)cc1
REMARK SMILES IDX 11 1 10 2 9 3 8 4 6 5 7 6 5 7 3 8 4 9 2 10 1 11 80 12 81 13
REMARK SMILES IDX 82 14 83 15 84 16 90 17 85 18 89 19 86 20 87 21 88 22 12 23
REMARK SMILES IDX 13 24 14 25 15 26 16 27 17 28 18 29 79 30 19 31 78 32 20 33
REMARK SMILES IDX 21 34 22 35 72 36 23 37 77 38 71 39 73 40 24 41 76 42 70 43
REMARK SMILES IDX 69 44 25 46 57 47 37 48 56 49 38 50 41 51 55 52 74 53 39 54
REMARK SMILES IDX 40 55 54 57 75 58 42 59 26 60 27 61 35 62 28 63 30 64 36 65
REMARK SMILES IDX 29 66 31 67 32 68 33 69 34 70 58 71 59 72 67 73 60 74 62 75
REMARK SMILES IDX 68 76 61 77 63 78 64 79 65 80 66 81 43 82 44 83 52 84 45 85
REMARK SMILES IDX 47 86 53 87 46 88 48 89 49 90 50 91 51 92
REMARK H PARENT 73 45 41 56
REMARK Flexibility Score: inf
ROOT
ATOM      1  O   UNL A   1      32.084  29.836  24.946  1.00  0.00    -0.374 OA
ENDROOT
BRANCH   1   2
ATOM      2  C   UNL A   1      31.656  28.477  24.784  1.00  0.00     0.202 C 
BRANCH   2   3
ATOM      3  C   UNL A   1      31.075  28.094  23.413  1.00  0.00     0.261 C 
BRANCH   3   4
ATOM      4  O   UNL A   1      30.601  26.721  23.407  1.00  0.00    -0.462 OA
BRANCH   4   5
ATOM      5  C   UNL A   1      31.346  25.783  22.761  1.00  0.00     0.325 C 
ATOM      6  O   UNL A   1      31.680  25.936  21.597  1.00  0.00    -0.251 OA
BRANCH   5   7
ATOM      7  C   UNL A   1      31.667  24.568  23.637  1.00  0.00     0.225 C 
BRANCH   7   8
ATOM      8  C   UNL A   1      31.563  24.715  25.213  1.00  0.00     0.015 C 
ATOM      9  C   UNL A   1      32.944  25.010  25.832  1.00  0.00     0.009 C 
BRANCH   8  10
ATOM     10  C   UNL A   1      30.965  23.473  25.941  1.00  0.00     0.002 C 
ATOM     11  C   UNL A   1      31.930  22.678  26.820  1.00  0.00     0.004 C 
ENDBRANCH   8  10
ENDBRANCH   7   8
BRANCH   7  12
ATOM     12  S   UNL A   1      33.305  23.914  23.092  1.00  0.00     0.192 S 
ATOM     13  O   UNL A   1      33.321  23.910  21.637  1.00  0.00    -0.223 OA
ATOM     14  O   UNL A   1      34.413  24.576  23.751  1.00  0.00    -0.223 OA
BRANCH  12  15
ATOM     15  C   UNL A   1      33.394  22.193  23.595  1.00  0.00     0.068 A 
ATOM     16  C   UNL A   1      32.451  21.275  23.128  1.00  0.00     0.024 A 
ATOM     17  C   UNL A   1      34.446  21.745  24.392  1.00  0.00     0.024 A 
ATOM     18  C   UNL A   1      32.526  19.934  23.529  1.00  0.00     0.048 A 
ATOM     19  C   UNL A   1      34.485  20.414  24.836  1.00  0.00     0.048 A 
ATOM     20  C   UNL A   1      33.516  19.504  24.418  1.00  0.00     0.118 A 
BRANCH  20  21
ATOM     21  O   UNL A   1      33.459  18.183  24.763  1.00  0.00    -0.497 OA
ATOM     22  C   UNL A   1      32.550  17.825  25.801  1.00  0.00     0.278 C 
ENDBRANCH  20  21
ENDBRANCH  12  15
ENDBRANCH   7  12
ENDBRANCH   5   7
ENDBRANCH   4   5
ENDBRANCH   3   4
ENDBRANCH   2   3
ENDBRANCH   1   2
BRANCH   1  23
ATOM     23  C   UNL A   1      31.103  30.781  25.346  1.00  0.00     0.202 C 
BRANCH  23  24
ATOM     24  C   UNL A   1      31.422  31.723  26.513  1.00  0.00     0.261 C 
BRANCH  24  25
ATOM     25  O   UNL A   1      32.592  31.333  27.218  1.00  0.00    -0.460 OA
BRANCH  25  26
ATOM     26  C   UNL A   1      33.293  32.404  27.653  1.00  0.00     0.338 C 
ATOM     27  O   UNL A   1      32.858  33.517  27.923  1.00  0.00    -0.246 OA
BRANCH  26  28
ATOM     28  C   UNL A   1      34.659  31.981  27.959  1.00  0.00     0.060 A 
ATOM     29  C   UNL A   1      34.839  30.624  28.237  1.00  0.00     0.016 A 
ATOM     30  C   UNL A   1      35.725  32.886  28.008  1.00  0.00     0.016 A 
ATOM     31  C   UNL A   1      36.076  30.179  28.664  1.00  0.00     0.010 A 
ATOM     32  C   UNL A   1      36.973  32.432  28.430  1.00  0.00     0.010 A 
ATOM     33  C   UNL A   1      37.131  31.090  28.814  1.00  0.00    -0.014 A 
BRANCH  33  34
ATOM     34  C   UNL A   1      38.334  30.628  29.534  1.00  0.00     0.031 A 
ATOM     35  C   UNL A   1      38.515  31.024  30.972  1.00  0.00     0.074 A 
ATOM     36  C   UNL A   1      39.178  29.772  28.935  1.00  0.00     0.049 A 
ATOM     37  N   UNL A   1      39.399  30.604  31.836  1.00  0.00    -0.248 NA
ATOM     38  C   UNL A   1      37.572  32.019  31.512  1.00  0.00     0.031 C 
ATOM     39  C   UNL A   1      39.080  29.328  27.545  1.00  0.00     0.029 A 
ATOM     40  N   UNL A   1      40.273  29.114  29.426  1.00  0.00    -0.354 N 
ATOM     41  C   UNL A   1      39.132  31.290  33.014  1.00  0.00     0.074 A 
ATOM     42  C   UNL A   1      38.018  32.174  32.750  1.00  0.00     0.031 C 
ATOM     43  C   UNL A   1      40.076  28.462  27.295  1.00  0.00     0.029 A 
ATOM     44  C   UNL A   1      40.885  28.306  28.501  1.00  0.00     0.049 A 
ATOM     45  H   UNL A   1      40.590  29.210  30.354  1.00  0.00     0.167 HD
ATOM     46  C   UNL A   1      39.747  31.177  34.214  1.00  0.00     0.034 A 
ATOM     47  C   UNL A   1      41.977  27.527  28.620  1.00  0.00     0.034 A 
ATOM     48  C   UNL A   1      40.846  30.284  34.463  1.00  0.00     0.049 A 
ATOM     49  C   UNL A   1      42.644  27.423  29.964  1.00  0.00     0.074 A 
ATOM     50  C   UNL A   1      41.526  30.066  35.647  1.00  0.00     0.029 A 
ATOM     51  N   UNL A   1      41.434  29.471  33.506  1.00  0.00    -0.354 N 
ATOM     52  N   UNL A   1      42.312  27.995  31.098  1.00  0.00    -0.248 NA
ATOM     53  C   UNL A   1      43.808  26.534  30.057  1.00  0.00     0.031 C 
ATOM     54  C   UNL A   1      42.549  29.145  35.395  1.00  0.00     0.029 A 
ATOM     55  C   UNL A   1      42.478  28.757  34.066  1.00  0.00     0.049 A 
ATOM     56  H   UNL A   1      41.152  29.411  32.565  1.00  0.00     0.167 HD
ATOM     57  C   UNL A   1      43.203  27.505  32.047  1.00  0.00     0.074 A 
ATOM     58  C   UNL A   1      44.070  26.572  31.356  1.00  0.00     0.031 C 
ATOM     59  C   UNL A   1      43.303  27.806  33.365  1.00  0.00     0.034 A 
BRANCH  46  60
ATOM     60  C   UNL A   1      39.237  32.032  35.345  1.00  0.00     0.023 A 
ATOM     61  C   UNL A   1      38.258  31.527  36.224  1.00  0.00     0.012 A 
ATOM     62  C   UNL A   1      39.760  33.322  35.561  1.00  0.00     0.148 A 
ATOM     63  C   UNL A   1      37.784  32.304  37.282  1.00  0.00     0.002 A 
ATOM     64  C   UNL A   1      39.318  34.072  36.644  1.00  0.00     0.091 A 
ATOM     65  F   UNL A   1      40.670  33.795  34.697  1.00  0.00    -0.205 F 
ATOM     66  C   UNL A   1      38.322  33.570  37.498  1.00  0.00     0.022 A 
BRANCH  64  67
ATOM     67  S   UNL A   1      40.003  35.681  37.051  1.00  0.00     0.127 S 
ATOM     68  O   UNL A   1      41.423  35.364  37.207  1.00  0.00    -0.237 OA
ATOM     69  O   UNL A   1      39.681  36.463  35.858  1.00  0.00    -0.237 OA
ATOM     70  O   UNL A   1      39.325  36.113  38.264  1.00  0.00    -0.744 OA
ENDBRANCH  64  67
ENDBRANCH  46  60
BRANCH  47  71
ATOM     71  C   UNL A   1      42.472  26.760  27.444  1.00  0.00     0.023 A 
ATOM     72  C   UNL A   1      43.302  27.384  26.493  1.00  0.00     0.012 A 
ATOM     73  C   UNL A   1      42.143  25.401  27.283  1.00  0.00     0.148 A 
ATOM     74  C   UNL A   1      43.768  26.675  25.384  1.00  0.00     0.002 A 
ATOM     75  C   UNL A   1      42.659  24.685  26.210  1.00  0.00     0.091 A 
ATOM     76  F   UNL A   1      41.340  24.830  28.192  1.00  0.00    -0.205 F 
ATOM     77  C   UNL A   1      43.456  25.325  25.248  1.00  0.00     0.022 A 
BRANCH  75  78
ATOM     78  S   UNL A   1      42.422  22.914  26.037  1.00  0.00     0.127 S 
ATOM     79  O   UNL A   1      43.021  22.658  24.731  1.00  0.00    -0.237 OA
ATOM     80  O   UNL A   1      43.180  22.397  27.178  1.00  0.00    -0.237 OA
ATOM     81  O   UNL A   1      40.984  22.699  26.128  1.00  0.00    -0.744 OA
ENDBRANCH  75  78
ENDBRANCH  47  71
BRANCH  59  82
ATOM     82  C   UNL A   1      44.365  27.086  34.156  1.00  0.00     0.023 A 
ATOM     83  C   UNL A   1      45.553  27.754  34.516  1.00  0.00     0.012 A 
ATOM     84  C   UNL A   1      44.164  25.757  34.578  1.00  0.00     0.148 A 
ATOM     85  C   UNL A   1      46.546  27.093  35.237  1.00  0.00     0.002 A 
ATOM     86  C   UNL A   1      45.132  25.124  35.346  1.00  0.00     0.091 A 
ATOM     87  F   UNL A   1      43.035  25.132  34.212  1.00  0.00    -0.205 F 
ATOM     88  C   UNL A   1      46.332  25.784  35.661  1.00  0.00     0.022 A 
BRANCH  86  89
ATOM     89  S   UNL A   1      44.894  23.477  36.019  1.00  0.00     0.127 S 
ATOM     90  O   UNL A   1      46.104  22.793  35.569  1.00  0.00    -0.237 OA
ATOM     91  O   UNL A   1      44.837  23.734  37.459  1.00  0.00    -0.237 OA
ATOM     92  O   UNL A   1      43.647  22.989  35.446  1.00  0.00    -0.744 OA
ENDBRANCH  86  89
ENDBRANCH  59  82
ENDBRANCH  33  34
ENDBRANCH  26  28
ENDBRANCH  25  26
ENDBRANCH  24  25
ENDBRANCH  23  24
ENDBRANCH   1  23
TORSDOF 22
ENDMDL
MODEL 3
REMARK VINA RESULT:     -10.4      1.786      3.366
REMARK SMILES CC[C@@H](C)[C@@H](C(=O)OCCOCCOC(=O)c1ccc(-c2c3nc(c(-c4cccc(S(=O)(=O)[O-])c4F)c4ccc([nH]4)c(-c4cccc(S(=O)(=O)[O-])c4F)c4nc(c(-c5cccc(S(=O)(=O)[O-])c5F)c5ccc2[nH]5)C=C4)C=C3)cc1)S(=O)(=O)c1ccc(OC)cc1
REMARK SMILES IDX 11 1 10 2 9 3 8 4 6 5 7 6 5 7 3 8 4 9 2 10 1 11 80 12 81 13
REMARK SMILES IDX 82 14 83 15 84 16 90 17 85 18 89 19 86 20 87 21 88 22 12 23
REMARK SMILES IDX 13 24 14 25 15 26 16 27 17 28 18 29 79 30 19 31 78 32 20 33
REMARK SMILES IDX 21 34 22 35 72 36 23 37 77 38 71 39 73 40 24 41 76 42 70 43
REMARK SMILES IDX 69 44 25 46 57 47 37 48 56 49 38 50 41 51 55 52 74 53 39 54
REMARK SMILES IDX 40 55 54 57 75 58 42 59 26 60 27 61 35 62 28 63 30 64 36 65
REMARK SMILES IDX 29 66 31 67 32 68 33 69 34 70 58 71 59 72 67 73 60 74 62 75
REMARK SMILES IDX 68 76 61 77 63 78 64 79 65 80 66 81 43 82 44 83 52 84 45 85
REMARK SMILES IDX 47 86 53 87 46 88 48 89 49 90 50 91 51 92
REMARK H PARENT 73 45 41 56
REMARK Flexibility Score: inf
ROOT
ATOM      1  O   UNL A   1      32.737  29.330  24.773  1.00  0.00    -0.374 OA
ENDROOT
BRANCH   1   2
ATOM      2  C   UNL A   1      32.364  27.961  24.560  1.00  0.00     0.202 C 
BRANCH   2   3
ATOM      3  C   UNL A   1      33.455  27.022  24.020  1.00  0.00     0.261 C 
BRANCH   3   4
ATOM      4  O   UNL A   1      32.889  25.995  23.163  1.00  0.00    -0.462 OA
BRANCH   4   5
ATOM      5  C   UNL A   1      33.441  24.752  23.193  1.00  0.00     0.325 C 
ATOM      6  O   UNL A   1      33.990  24.283  22.208  1.00  0.00    -0.251 OA
BRANCH   5   7
ATOM      7  C   UNL A   1      33.266  24.053  24.545  1.00  0.00     0.225 C 
BRANCH   7   8
ATOM      8  C   UNL A   1      34.473  23.203  25.124  1.00  0.00     0.015 C 
ATOM      9  C   UNL A   1      34.487  23.243  26.666  1.00  0.00     0.009 C 
BRANCH   8  10
ATOM     10  C   UNL A   1      35.880  23.648  24.619  1.00  0.00     0.002 C 
ATOM     11  C   UNL A   1      36.911  22.535  24.431  1.00  0.00     0.004 C 
ENDBRANCH   8  10
ENDBRANCH   7   8
BRANCH   7  12
ATOM     12  S   UNL A   1      31.693  23.090  24.467  1.00  0.00     0.192 S 
ATOM     13  O   UNL A   1      31.058  23.167  25.774  1.00  0.00    -0.223 OA
ATOM     14  O   UNL A   1      30.876  23.455  23.327  1.00  0.00    -0.223 OA
BRANCH  12  15
ATOM     15  C   UNL A   1      32.127  21.365  24.227  1.00  0.00     0.068 A 
ATOM     16  C   UNL A   1      32.459  20.565  25.321  1.00  0.00     0.024 A 
ATOM     17  C   UNL A   1      32.063  20.792  22.957  1.00  0.00     0.024 A 
ATOM     18  C   UNL A   1      32.800  19.220  25.123  1.00  0.00     0.048 A 
ATOM     19  C   UNL A   1      32.459  19.461  22.756  1.00  0.00     0.048 A 
ATOM     20  C   UNL A   1      32.844  18.671  23.837  1.00  0.00     0.118 A 
BRANCH  20  21
ATOM     21  O   UNL A   1      33.229  17.361  23.773  1.00  0.00    -0.497 OA
ATOM     22  C   UNL A   1      34.531  17.046  24.259  1.00  0.00     0.278 C 
ENDBRANCH  20  21
ENDBRANCH  12  15
ENDBRANCH   7  12
ENDBRANCH   5   7
ENDBRANCH   4   5
ENDBRANCH   3   4
ENDBRANCH   2   3
ENDBRANCH   1   2
BRANCH   1  23
ATOM     23  C   UNL A   1      31.786  30.170  25.408  1.00  0.00     0.202 C 
BRANCH  23  24
ATOM     24  C   UNL A   1      32.181  30.873  26.712  1.00  0.00     0.261 C 
BRANCH  24  25
ATOM     25  O   UNL A   1      33.360  30.326  27.286  1.00  0.00    -0.460 OA
BRANCH  25  26
ATOM     26  C   UNL A   1      34.111  31.278  27.885  1.00  0.00     0.338 C 
ATOM     27  O   UNL A   1      33.726  32.344  28.349  1.00  0.00    -0.246 OA
BRANCH  26  28
ATOM     28  C   UNL A   1      35.460  30.753  28.091  1.00  0.00     0.060 A 
ATOM     29  C   UNL A   1      35.551  29.506  28.713  1.00  0.00     0.016 A 
ATOM     30  C   UNL A   1      36.601  31.471  27.720  1.00  0.00     0.016 A 
ATOM     31  C   UNL A   1      36.795  29.011  29.058  1.00  0.00     0.010 A 
ATOM     32  C   UNL A   1      37.854  30.965  28.061  1.00  0.00     0.010 A 
ATOM     33  C   UNL A   1      37.946  29.764  28.783  1.00  0.00    -0.014 A 
BRANCH  33  34
ATOM     34  C   UNL A   1      39.208  29.335  29.415  1.00  0.00     0.031 A 
ATOM     35  C   UNL A   1      39.580  29.909  30.753  1.00  0.00     0.074 A 
ATOM     36  C   UNL A   1      39.938  28.361  28.847  1.00  0.00     0.049 A 
ATOM     37  N   UNL A   1      40.546  29.558  31.559  1.00  0.00    -0.248 NA
ATOM     38  C   UNL A   1      38.751  31.018  31.255  1.00  0.00     0.031 C 
ATOM     39  C   UNL A   1      39.653  27.742  27.553  1.00  0.00     0.029 A 
ATOM     40  N   UNL A   1      41.058  27.714  29.295  1.00  0.00    -0.354 N 
ATOM     41  C   UNL A   1      40.453  30.410  32.653  1.00  0.00     0.074 A 
ATOM     42  C   UNL A   1      39.351  31.311  32.400  1.00  0.00     0.031 C 
ATOM     43  C   UNL A   1      40.576  26.797  27.312  1.00  0.00     0.029 A 
ATOM     44  C   UNL A   1      41.520  26.757  28.426  1.00  0.00     0.049 A 
ATOM     45  H   UNL A   1      41.490  27.915  30.157  1.00  0.00     0.167 HD
ATOM     46  C   UNL A   1      41.205  30.423  33.777  1.00  0.00     0.034 A 
ATOM     47  C   UNL A   1      42.587  25.941  28.524  1.00  0.00     0.034 A 
ATOM     48  C   UNL A   1      42.291  29.511  34.019  1.00  0.00     0.049 A 
ATOM     49  C   UNL A   1      43.408  25.980  29.783  1.00  0.00     0.074 A 
ATOM     50  C   UNL A   1      43.102  29.415  35.135  1.00  0.00     0.029 A 
ATOM     51  N   UNL A   1      42.725  28.547  33.122  1.00  0.00    -0.354 N 
ATOM     52  N   UNL A   1      43.241  26.715  30.858  1.00  0.00    -0.248 NA
ATOM     53  C   UNL A   1      44.539  25.047  29.863  1.00  0.00     0.031 C 
ATOM     54  C   UNL A   1      44.049  28.413  34.896  1.00  0.00     0.029 A 
ATOM     55  C   UNL A   1      43.800  27.856  33.652  1.00  0.00     0.049 A 
ATOM     56  H   UNL A   1      42.326  28.378  32.238  1.00  0.00     0.167 HD
ATOM     57  C   UNL A   1      44.221  26.308  31.755  1.00  0.00     0.074 A 
ATOM     58  C   UNL A   1      44.960  25.244  31.105  1.00  0.00     0.031 C 
ATOM     59  C   UNL A   1      44.494  26.775  32.999  1.00  0.00     0.034 A 
BRANCH  46  60
ATOM     60  C   UNL A   1      40.873  31.449  34.830  1.00  0.00     0.023 A 
ATOM     61  C   UNL A   1      41.731  32.547  35.039  1.00  0.00     0.012 A 
ATOM     62  C   UNL A   1      39.688  31.346  35.583  1.00  0.00     0.148 A 
ATOM     63  C   UNL A   1      41.432  33.511  36.003  1.00  0.00     0.002 A 
ATOM     64  C   UNL A   1      39.372  32.334  36.509  1.00  0.00     0.091 A 
ATOM     65  F   UNL A   1      38.899  30.279  35.390  1.00  0.00    -0.205 F 
ATOM     66  C   UNL A   1      40.247  33.409  36.728  1.00  0.00     0.022 A 
BRANCH  64  67
ATOM     67  S   UNL A   1      37.835  32.333  37.437  1.00  0.00     0.127 S 
ATOM     68  O   UNL A   1      38.174  33.197  38.568  1.00  0.00    -0.237 OA
ATOM     69  O   UNL A   1      36.898  32.922  36.480  1.00  0.00    -0.237 OA
ATOM     70  O   UNL A   1      37.567  30.943  37.773  1.00  0.00    -0.744 OA
ENDBRANCH  64  67
ENDBRANCH  46  60
BRANCH  47  71
ATOM     71  C   UNL A   1      42.903  24.998  27.417  1.00  0.00     0.023 A 
ATOM     72  C   UNL A   1      43.841  25.357  26.430  1.00  0.00     0.012 A 
ATOM     73  C   UNL A   1      42.294  23.730  27.358  1.00  0.00     0.148 A 
ATOM     74  C   UNL A   1      44.141  24.482  25.385  1.00  0.00     0.002 A 
ATOM     75  C   UNL A   1      42.642  22.840  26.350  1.00  0.00     0.091 A 
ATOM     76  F   UNL A   1      41.394  23.413  28.300  1.00  0.00    -0.205 F 
ATOM     77  C   UNL A   1      43.551  23.221  25.351  1.00  0.00     0.022 A 
BRANCH  75  78
ATOM     78  S   UNL A   1      42.036  21.151  26.312  1.00  0.00     0.127 S 
ATOM     79  O   UNL A   1      40.647  21.339  25.906  1.00  0.00    -0.237 OA
ATOM     80  O   UNL A   1      42.900  20.544  25.297  1.00  0.00    -0.237 OA
ATOM     81  O   UNL A   1      42.239  20.630  27.657  1.00  0.00    -0.744 OA
ENDBRANCH  75  78
ENDBRANCH  47  71
BRANCH  59  82
ATOM     82  C   UNL A   1      45.616  26.109  33.753  1.00  0.00     0.023 A 
ATOM     83  C   UNL A   1      46.920  26.640  33.695  1.00  0.00     0.012 A 
ATOM     84  C   UNL A   1      45.364  24.978  34.555  1.00  0.00     0.148 A 
ATOM     85  C   UNL A   1      47.966  26.024  34.380  1.00  0.00     0.002 A 
ATOM     86  C   UNL A   1      46.400  24.405  35.280  1.00  0.00     0.091 A 
ATOM     87  F   UNL A   1      44.121  24.477  34.585  1.00  0.00    -0.205 F 
ATOM     88  C   UNL A   1      47.706  24.914  35.180  1.00  0.00     0.022 A 
BRANCH  86  89
ATOM     89  S   UNL A   1      46.132  23.039  36.414  1.00  0.00     0.127 S 
ATOM     90  O   UNL A   1      47.495  22.738  36.848  1.00  0.00    -0.237 OA
ATOM     91  O   UNL A   1      45.285  23.648  37.441  1.00  0.00    -0.237 OA
ATOM     92  O   UNL A   1      45.477  21.997  35.635  1.00  0.00    -0.744 OA
ENDBRANCH  86  89
ENDBRANCH  59  82
ENDBRANCH  33  34
ENDBRANCH  26  28
ENDBRANCH  25  26
ENDBRANCH  24  25
ENDBRANCH  23  24
ENDBRANCH   1  23
TORSDOF 22
ENDMDL
