MODEL 1
REMARK VINA RESULT:     -10.0      0.000      0.000
REMARK SMILES COc1ccc(-c2cccc(/C=C\C(=O)OCCOCCOC(=O)c3ccc(-c4c5nc(c(-c6cccc(S(=O)(=O)[O-])c6F)c6ccc([nH]6)c(-c6cccc(S(=O)(=O)[O-])c6F)c6nc(c(-c7cccc(S(=O)(=O)[O-])c7F)c7ccc4[nH]7)C=C6)C=C5)cc3)c2)c(Cl)c1OC
REMARK SMILES IDX 19 1 18 2 17 3 16 4 14 5 15 6 13 7 12 8 11 9 7 10 8 11 88 12
REMARK SMILES IDX 9 13 10 14 6 15 3 16 4 17 91 18 5 19 89 20 90 21 2 22 1 23
REMARK SMILES IDX 92 24 93 25 20 26 21 27 22 28 23 29 24 30 25 31 26 32 87 33
REMARK SMILES IDX 27 34 86 35 28 36 29 37 30 38 80 39 31 40 85 41 79 42 81 43
REMARK SMILES IDX 32 44 84 45 78 46 77 47 33 49 65 50 45 51 64 52 46 53 49 54
REMARK SMILES IDX 63 55 82 56 47 57 48 58 62 60 83 61 50 62 34 63 35 64 43 65
REMARK SMILES IDX 36 66 38 67 44 68 37 69 39 70 40 71 41 72 42 73 66 74 67 75
REMARK SMILES IDX 75 76 68 77 70 78 76 79 69 80 71 81 72 82 73 83 74 84 51 85
REMARK SMILES IDX 52 86 60 87 53 88 55 89 61 90 54 91 56 92 57 93 58 94 59 95
REMARK H PARENT 81 48 49 59
REMARK Flexibility Score: inf
ROOT
ATOM      1  O   UNL A   1      35.558  22.956  25.851  1.00  0.00    -0.374 OA
ENDROOT
BRANCH   1   2
ATOM      2  C   UNL A   1      35.643  24.099  24.993  1.00  0.00     0.202 C 
BRANCH   2   3
ATOM      3  C   UNL A   1      34.322  24.871  24.842  1.00  0.00     0.261 C 
BRANCH   3   4
ATOM      4  O   UNL A   1      34.407  26.133  25.530  1.00  0.00    -0.460 OA
BRANCH   4   5
ATOM      5  C   UNL A   1      33.724  27.173  25.023  1.00  0.00     0.330 C 
ATOM      6  O   UNL A   1      33.726  27.539  23.856  1.00  0.00    -0.247 OA
BRANCH   5   7
ATOM      7  C   UNL A   1      32.784  27.766  26.008  1.00  0.00     0.094 C 
ATOM      8  C   UNL A   1      32.889  28.712  26.960  1.00  0.00     0.015 C 
BRANCH   8   9
ATOM      9  C   UNL A   1      33.989  29.607  27.356  1.00  0.00    -0.025 A 
ATOM     10  C   UNL A   1      34.665  31.799  28.222  1.00  0.00    -0.016 A 
ATOM     11  C   UNL A   1      36.007  31.417  28.136  1.00  0.00     0.009 A 
ATOM     12  C   UNL A   1      33.670  30.901  27.785  1.00  0.00     0.017 A 
ATOM     13  C   UNL A   1      36.335  30.130  27.741  1.00  0.00     0.001 A 
ATOM     14  C   UNL A   1      35.326  29.220  27.429  1.00  0.00     0.008 A 
BRANCH  10  15
ATOM     15  C   UNL A   1      34.310  33.095  28.817  1.00  0.00     0.004 A 
ATOM     16  C   UNL A   1      33.629  35.609  29.841  1.00  0.00     0.162 A 
ATOM     17  C   UNL A   1      33.629  35.394  28.461  1.00  0.00     0.051 A 
ATOM     18  C   UNL A   1      34.021  34.593  30.746  1.00  0.00     0.180 A 
ATOM     19  C   UNL A   1      33.950  34.140  27.955  1.00  0.00     0.014 A 
ATOM     20  C   UNL A   1      34.367  33.332  30.221  1.00  0.00     0.094 A 
ATOM     21  Cl  UNL A   1      34.872  31.998  31.229  1.00  0.00    -0.079 Cl
BRANCH  16  22
ATOM     22  O   UNL A   1      33.316  36.841  30.373  1.00  0.00    -0.493 OA
ATOM     23  C   UNL A   1      33.300  37.890  29.412  1.00  0.00     0.278 C 
ENDBRANCH  16  22
BRANCH  18  24
ATOM     24  O   UNL A   1      33.944  34.999  32.055  1.00  0.00    -0.491 OA
ATOM     25  C   UNL A   1      35.098  35.327  32.804  1.00  0.00     0.278 C 
ENDBRANCH  18  24
ENDBRANCH  10  15
ENDBRANCH   8   9
ENDBRANCH   5   7
ENDBRANCH   4   5
ENDBRANCH   3   4
ENDBRANCH   2   3
ENDBRANCH   1   2
BRANCH   1  26
ATOM     26  C   UNL A   1      35.828  21.688  25.251  1.00  0.00     0.202 C 
BRANCH  26  27
ATOM     27  C   UNL A   1      37.252  21.165  25.460  1.00  0.00     0.261 C 
BRANCH  27  28
ATOM     28  O   UNL A   1      38.201  22.245  25.508  1.00  0.00    -0.460 OA
BRANCH  28  29
ATOM     29  C   UNL A   1      39.308  22.000  26.249  1.00  0.00     0.338 C 
ATOM     30  O   UNL A   1      39.884  20.935  26.376  1.00  0.00    -0.246 OA
BRANCH  29  31
ATOM     31  C   UNL A   1      39.843  23.268  26.785  1.00  0.00     0.060 A 
ATOM     32  C   UNL A   1      39.549  24.438  26.075  1.00  0.00     0.016 A 
ATOM     33  C   UNL A   1      40.654  23.316  27.923  1.00  0.00     0.016 A 
ATOM     34  C   UNL A   1      40.111  25.652  26.465  1.00  0.00     0.010 A 
ATOM     35  C   UNL A   1      41.214  24.537  28.316  1.00  0.00     0.010 A 
ATOM     36  C   UNL A   1      40.977  25.704  27.564  1.00  0.00    -0.014 A 
BRANCH  36  37
ATOM     37  C   UNL A   1      41.746  26.944  27.834  1.00  0.00     0.031 A 
ATOM     38  C   UNL A   1      43.166  27.042  27.344  1.00  0.00     0.074 A 
ATOM     39  C   UNL A   1      41.187  27.977  28.491  1.00  0.00     0.049 A 
ATOM     40  N   UNL A   1      44.017  28.028  27.462  1.00  0.00    -0.248 NA
ATOM     41  C   UNL A   1      43.697  25.871  26.627  1.00  0.00     0.031 C 
ATOM     42  C   UNL A   1      39.822  28.008  29.012  1.00  0.00     0.029 A 
ATOM     43  N   UNL A   1      41.713  29.194  28.847  1.00  0.00    -0.354 N 
ATOM     44  C   UNL A   1      45.190  27.589  26.859  1.00  0.00     0.074 A 
ATOM     45  C   UNL A   1      44.949  26.239  26.398  1.00  0.00     0.031 C 
ATOM     46  C   UNL A   1      39.623  29.180  29.641  1.00  0.00     0.029 A 
ATOM     47  C   UNL A   1      40.851  29.971  29.584  1.00  0.00     0.049 A 
ATOM     48  H   UNL A   1      42.620  29.483  28.599  1.00  0.00     0.167 HD
ATOM     49  C   UNL A   1      46.358  28.253  26.687  1.00  0.00     0.034 A 
ATOM     50  C   UNL A   1      41.037  31.178  30.157  1.00  0.00     0.034 A 
ATOM     51  C   UNL A   1      46.593  29.599  27.130  1.00  0.00     0.049 A 
ATOM     52  C   UNL A   1      42.352  31.890  29.969  1.00  0.00     0.074 A 
ATOM     53  C   UNL A   1      47.727  30.375  26.964  1.00  0.00     0.029 A 
ATOM     54  N   UNL A   1      45.683  30.369  27.838  1.00  0.00    -0.354 N 
ATOM     55  N   UNL A   1      43.409  31.510  29.293  1.00  0.00    -0.248 NA
ATOM     56  C   UNL A   1      42.486  33.217  30.591  1.00  0.00     0.031 C 
ATOM     57  C   UNL A   1      47.513  31.604  27.597  1.00  0.00     0.029 A 
ATOM     58  C   UNL A   1      46.232  31.607  28.127  1.00  0.00     0.049 A 
ATOM     59  H   UNL A   1      44.779  30.079  28.098  1.00  0.00     0.167 HD
ATOM     60  C   UNL A   1      44.314  32.564  29.371  1.00  0.00     0.074 A 
ATOM     61  C   UNL A   1      43.674  33.604  30.149  1.00  0.00     0.031 C 
ATOM     62  C   UNL A   1      45.564  32.658  28.853  1.00  0.00     0.034 A 
BRANCH  49  63
ATOM     63  C   UNL A   1      47.465  27.531  25.963  1.00  0.00     0.023 A 
ATOM     64  C   UNL A   1      47.512  27.557  24.554  1.00  0.00     0.012 A 
ATOM     65  C   UNL A   1      48.478  26.859  26.675  1.00  0.00     0.148 A 
ATOM     66  C   UNL A   1      48.526  26.893  23.864  1.00  0.00     0.002 A 
ATOM     67  C   UNL A   1      49.510  26.239  25.982  1.00  0.00     0.091 A 
ATOM     68  F   UNL A   1      48.405  26.824  28.013  1.00  0.00    -0.205 F 
ATOM     69  C   UNL A   1      49.529  26.243  24.578  1.00  0.00     0.022 A 
BRANCH  67  70
ATOM     70  S   UNL A   1      50.891  25.444  26.813  1.00  0.00     0.127 S 
ATOM     71  O   UNL A   1      51.737  25.064  25.683  1.00  0.00    -0.237 OA
ATOM     72  O   UNL A   1      51.424  26.531  27.635  1.00  0.00    -0.237 OA
ATOM     73  O   UNL A   1      50.320  24.338  27.569  1.00  0.00    -0.744 OA
ENDBRANCH  67  70
ENDBRANCH  49  63
BRANCH  50  74
ATOM     74  C   UNL A   1      39.924  31.815  30.918  1.00  0.00     0.023 A 
ATOM     75  C   UNL A   1      39.038  32.684  30.252  1.00  0.00     0.012 A 
ATOM     76  C   UNL A   1      39.722  31.545  32.286  1.00  0.00     0.148 A 
ATOM     77  C   UNL A   1      37.990  33.296  30.942  1.00  0.00     0.002 A 
ATOM     78  C   UNL A   1      38.643  32.112  32.953  1.00  0.00     0.091 A 
ATOM     79  F   UNL A   1      40.585  30.726  32.906  1.00  0.00    -0.205 F 
ATOM     80  C   UNL A   1      37.786  33.002  32.287  1.00  0.00     0.022 A 
BRANCH  78  81
ATOM     81  S   UNL A   1      38.226  31.683  34.648  1.00  0.00     0.127 S 
ATOM     82  O   UNL A   1      38.114  30.229  34.572  1.00  0.00    -0.237 OA
ATOM     83  O   UNL A   1      39.394  32.174  35.380  1.00  0.00    -0.237 OA
ATOM     84  O   UNL A   1      36.992  32.398  34.950  1.00  0.00    -0.744 OA
ENDBRANCH  78  81
ENDBRANCH  50  74
BRANCH  62  85
ATOM     85  C   UNL A   1      46.319  33.947  29.061  1.00  0.00     0.023 A 
ATOM     86  C   UNL A   1      47.147  34.107  30.189  1.00  0.00     0.012 A 
ATOM     87  C   UNL A   1      46.267  34.971  28.093  1.00  0.00     0.148 A 
ATOM     88  C   UNL A   1      47.886  35.277  30.368  1.00  0.00     0.002 A 
ATOM     89  C   UNL A   1      47.044  36.113  28.252  1.00  0.00     0.091 A 
ATOM     90  F   UNL A   1      45.459  34.810  27.034  1.00  0.00    -0.205 F 
ATOM     91  C   UNL A   1      47.843  36.273  29.395  1.00  0.00     0.022 A 
BRANCH  89  92
ATOM     92  S   UNL A   1      47.127  37.402  27.003  1.00  0.00     0.127 S 
ATOM     93  O   UNL A   1      47.582  36.653  25.832  1.00  0.00    -0.237 OA
ATOM     94  O   UNL A   1      45.738  37.857  26.934  1.00  0.00    -0.237 OA
ATOM     95  O   UNL A   1      48.062  38.395  27.514  1.00  0.00    -0.744 OA
ENDBRANCH  89  92
ENDBRANCH  62  85
ENDBRANCH  36  37
ENDBRANCH  29  31
ENDBRANCH  28  29
ENDBRANCH  27  28
ENDBRANCH  26  27
ENDBRANCH   1  26
TORSDOF 21
ENDMDL
MODEL 2
REMARK VINA RESULT:      -9.8      5.366     13.026
REMARK SMILES COc1ccc(-c2cccc(/C=C\C(=O)OCCOCCOC(=O)c3ccc(-c4c5nc(c(-c6cccc(S(=O)(=O)[O-])c6F)c6ccc([nH]6)c(-c6cccc(S(=O)(=O)[O-])c6F)c6nc(c(-c7cccc(S(=O)(=O)[O-])c7F)c7ccc4[nH]7)C=C6)C=C5)cc3)c2)c(Cl)c1OC
REMARK SMILES IDX 19 1 18 2 17 3 16 4 14 5 15 6 13 7 12 8 11 9 7 10 8 11 88 12
REMARK SMILES IDX 9 13 10 14 6 15 3 16 4 17 91 18 5 19 89 20 90 21 2 22 1 23
REMARK SMILES IDX 92 24 93 25 20 26 21 27 22 28 23 29 24 30 25 31 26 32 87 33
REMARK SMILES IDX 27 34 86 35 28 36 29 37 30 38 80 39 31 40 85 41 79 42 81 43
REMARK SMILES IDX 32 44 84 45 78 46 77 47 33 49 65 50 45 51 64 52 46 53 49 54
REMARK SMILES IDX 63 55 82 56 47 57 48 58 62 60 83 61 50 62 34 63 35 64 43 65
REMARK SMILES IDX 36 66 38 67 44 68 37 69 39 70 40 71 41 72 42 73 66 74 67 75
REMARK SMILES IDX 75 76 68 77 70 78 76 79 69 80 71 81 72 82 73 83 74 84 51 85
REMARK SMILES IDX 52 86 60 87 53 88 55 89 61 90 54 91 56 92 57 93 58 94 59 95
REMARK H PARENT 81 48 49 59
REMARK Flexibility Score: inf
ROOT
ATOM      1  O   UNL A   1      46.308  26.599  39.731  1.00  0.00    -0.374 OA
ENDROOT
BRANCH   1   2
ATOM      2  C   UNL A   1      45.166  25.809  39.382  1.00  0.00     0.202 C 
BRANCH   2   3
ATOM      3  C   UNL A   1      44.177  26.515  38.441  1.00  0.00     0.261 C 
BRANCH   3   4
ATOM      4  O   UNL A   1      43.239  25.564  37.906  1.00  0.00    -0.460 OA
BRANCH   4   5
ATOM      5  C   UNL A   1      42.193  26.035  37.208  1.00  0.00     0.330 C 
ATOM      6  O   UNL A   1      41.884  27.212  37.074  1.00  0.00    -0.247 OA
BRANCH   5   7
ATOM      7  C   UNL A   1      41.508  24.973  36.429  1.00  0.00     0.094 C 
ATOM      8  C   UNL A   1      41.902  24.083  35.499  1.00  0.00     0.015 C 
BRANCH   8   9
ATOM      9  C   UNL A   1      43.220  23.757  34.929  1.00  0.00    -0.025 A 
ATOM     10  C   UNL A   1      44.647  23.657  32.938  1.00  0.00    -0.016 A 
ATOM     11  C   UNL A   1      45.696  23.161  33.717  1.00  0.00     0.009 A 
ATOM     12  C   UNL A   1      43.401  23.907  33.548  1.00  0.00     0.017 A 
ATOM     13  C   UNL A   1      45.539  23.036  35.088  1.00  0.00     0.001 A 
ATOM     14  C   UNL A   1      44.334  23.404  35.686  1.00  0.00     0.008 A 
BRANCH  10  15
ATOM     15  C   UNL A   1      44.872  23.966  31.519  1.00  0.00     0.004 A 
ATOM     16  C   UNL A   1      45.223  24.471  28.789  1.00  0.00     0.162 A 
ATOM     17  C   UNL A   1      44.231  23.583  29.213  1.00  0.00     0.051 A 
ATOM     18  C   UNL A   1      46.102  25.091  29.709  1.00  0.00     0.180 A 
ATOM     19  C   UNL A   1      44.048  23.347  30.569  1.00  0.00     0.014 A 
ATOM     20  C   UNL A   1      45.921  24.827  31.082  1.00  0.00     0.094 A 
ATOM     21  Cl  UNL A   1      46.941  25.523  32.318  1.00  0.00    -0.079 Cl
BRANCH  16  22
ATOM     22  O   UNL A   1      45.430  24.726  27.451  1.00  0.00    -0.493 OA
ATOM     23  C   UNL A   1      45.773  23.569  26.696  1.00  0.00     0.278 C 
ENDBRANCH  16  22
BRANCH  18  24
ATOM     24  O   UNL A   1      46.996  25.932  29.097  1.00  0.00    -0.491 OA
ATOM     25  C   UNL A   1      46.877  27.339  29.182  1.00  0.00     0.278 C 
ENDBRANCH  18  24
ENDBRANCH  10  15
ENDBRANCH   8   9
ENDBRANCH   5   7
ENDBRANCH   4   5
ENDBRANCH   3   4
ENDBRANCH   2   3
ENDBRANCH   1   2
BRANCH   1  26
ATOM     26  C   UNL A   1      46.796  27.490  38.728  1.00  0.00     0.202 C 
BRANCH  26  27
ATOM     27  C   UNL A   1      48.075  27.028  38.022  1.00  0.00     0.261 C 
BRANCH  27  28
ATOM     28  O   UNL A   1      48.321  27.801  36.834  1.00  0.00    -0.460 OA
BRANCH  28  29
ATOM     29  C   UNL A   1      48.000  27.181  35.673  1.00  0.00     0.338 C 
ATOM     30  O   UNL A   1      48.591  26.255  35.149  1.00  0.00    -0.246 OA
BRANCH  29  31
ATOM     31  C   UNL A   1      46.703  27.686  35.177  1.00  0.00     0.060 A 
ATOM     32  C   UNL A   1      45.606  26.820  35.259  1.00  0.00     0.016 A 
ATOM     33  C   UNL A   1      46.565  28.950  34.597  1.00  0.00     0.016 A 
ATOM     34  C   UNL A   1      44.380  27.192  34.711  1.00  0.00     0.010 A 
ATOM     35  C   UNL A   1      45.331  29.324  34.052  1.00  0.00     0.010 A 
ATOM     36  C   UNL A   1      44.244  28.429  34.071  1.00  0.00    -0.014 A 
BRANCH  36  37
ATOM     37  C   UNL A   1      43.013  28.723  33.296  1.00  0.00     0.031 A 
ATOM     38  C   UNL A   1      41.945  29.580  33.922  1.00  0.00     0.074 A 
ATOM     39  C   UNL A   1      42.850  28.250  32.047  1.00  0.00     0.049 A 
ATOM     40  N   UNL A   1      40.798  29.966  33.429  1.00  0.00    -0.248 NA
ATOM     41  C   UNL A   1      42.206  30.062  35.289  1.00  0.00     0.031 C 
ATOM     42  C   UNL A   1      43.811  27.416  31.328  1.00  0.00     0.029 A 
ATOM     43  N   UNL A   1      41.804  28.394  31.170  1.00  0.00    -0.354 N 
ATOM     44  C   UNL A   1      40.188  30.714  34.430  1.00  0.00     0.074 A 
ATOM     45  C   UNL A   1      41.083  30.707  35.567  1.00  0.00     0.031 C 
ATOM     46  C   UNL A   1      43.299  27.102  30.124  1.00  0.00     0.029 A 
ATOM     47  C   UNL A   1      41.969  27.697  29.997  1.00  0.00     0.049 A 
ATOM     48  H   UNL A   1      41.011  28.943  31.363  1.00  0.00     0.167 HD
ATOM     49  C   UNL A   1      39.001  31.365  34.402  1.00  0.00     0.034 A 
ATOM     50  C   UNL A   1      41.138  27.547  28.946  1.00  0.00     0.034 A 
ATOM     51  C   UNL A   1      38.119  31.386  33.267  1.00  0.00     0.049 A 
ATOM     52  C   UNL A   1      39.812  28.264  28.945  1.00  0.00     0.074 A 
ATOM     53  C   UNL A   1      36.915  32.053  33.125  1.00  0.00     0.029 A 
ATOM     54  N   UNL A   1      38.339  30.701  32.082  1.00  0.00    -0.354 N 
ATOM     55  N   UNL A   1      39.305  29.066  29.851  1.00  0.00    -0.248 NA
ATOM     56  C   UNL A   1      38.960  28.089  27.758  1.00  0.00     0.031 C 
ATOM     57  C   UNL A   1      36.392  31.747  31.863  1.00  0.00     0.029 A 
ATOM     58  C   UNL A   1      37.288  30.919  31.207  1.00  0.00     0.049 A 
ATOM     59  H   UNL A   1      39.126  30.141  31.891  1.00  0.00     0.167 HD
ATOM     60  C   UNL A   1      38.099  29.522  29.327  1.00  0.00     0.074 A 
ATOM     61  C   UNL A   1      37.959  28.918  28.018  1.00  0.00     0.031 C 
ATOM     62  C   UNL A   1      37.187  30.358  29.883  1.00  0.00     0.034 A 
BRANCH  49  63
ATOM     63  C   UNL A   1      38.601  32.130  35.637  1.00  0.00     0.023 A 
ATOM     64  C   UNL A   1      38.817  33.522  35.697  1.00  0.00     0.012 A 
ATOM     65  C   UNL A   1      37.979  31.480  36.721  1.00  0.00     0.148 A 
ATOM     66  C   UNL A   1      38.458  34.249  36.832  1.00  0.00     0.002 A 
ATOM     67  C   UNL A   1      37.581  32.219  37.829  1.00  0.00     0.091 A 
ATOM     68  F   UNL A   1      37.802  30.153  36.657  1.00  0.00    -0.205 F 
ATOM     69  C   UNL A   1      37.832  33.599  37.893  1.00  0.00     0.022 A 
BRANCH  67  70
ATOM     70  S   UNL A   1      36.696  31.487  39.211  1.00  0.00     0.127 S 
ATOM     71  O   UNL A   1      37.677  31.610  40.288  1.00  0.00    -0.237 OA
ATOM     72  O   UNL A   1      35.537  32.371  39.339  1.00  0.00    -0.237 OA
ATOM     73  O   UNL A   1      36.377  30.125  38.805  1.00  0.00    -0.744 OA
ENDBRANCH  67  70
ENDBRANCH  49  63
BRANCH  50  74
ATOM     74  C   UNL A   1      41.562  26.723  27.777  1.00  0.00     0.023 A 
ATOM     75  C   UNL A   1      42.348  27.308  26.766  1.00  0.00     0.012 A 
ATOM     76  C   UNL A   1      41.216  25.361  27.677  1.00  0.00     0.148 A 
ATOM     77  C   UNL A   1      42.756  26.560  25.661  1.00  0.00     0.002 A 
ATOM     78  C   UNL A   1      41.674  24.607  26.604  1.00  0.00     0.091 A 
ATOM     79  F   UNL A   1      40.456  24.825  28.643  1.00  0.00    -0.205 F 
ATOM     80  C   UNL A   1      42.428  25.209  25.584  1.00  0.00     0.022 A 
BRANCH  78  81
ATOM     81  S   UNL A   1      41.416  22.831  26.494  1.00  0.00     0.127 S 
ATOM     82  O   UNL A   1      42.219  22.482  25.326  1.00  0.00    -0.237 OA
ATOM     83  O   UNL A   1      41.955  22.369  27.774  1.00  0.00    -0.237 OA
ATOM     84  O   UNL A   1      39.978  22.643  26.353  1.00  0.00    -0.744 OA
ENDBRANCH  78  81
ENDBRANCH  50  74
BRANCH  62  85
ATOM     85  C   UNL A   1      35.971  30.719  29.067  1.00  0.00     0.023 A 
ATOM     86  C   UNL A   1      35.223  29.710  28.430  1.00  0.00     0.012 A 
ATOM     87  C   UNL A   1      35.526  32.055  28.998  1.00  0.00     0.148 A 
ATOM     88  C   UNL A   1      34.070  30.027  27.710  1.00  0.00     0.002 A 
ATOM     89  C   UNL A   1      34.349  32.358  28.322  1.00  0.00     0.091 A 
ATOM     90  F   UNL A   1      36.260  33.006  29.594  1.00  0.00    -0.205 F 
ATOM     91  C   UNL A   1      33.628  31.347  27.666  1.00  0.00     0.022 A 
BRANCH  89  92
ATOM     92  S   UNL A   1      33.653  34.014  28.297  1.00  0.00     0.127 S 
ATOM     93  O   UNL A   1      32.378  33.790  27.615  1.00  0.00    -0.237 OA
ATOM     94  O   UNL A   1      33.535  34.323  29.722  1.00  0.00    -0.237 OA
ATOM     95  O   UNL A   1      34.611  34.841  27.577  1.00  0.00    -0.744 OA
ENDBRANCH  89  92
ENDBRANCH  62  85
ENDBRANCH  36  37
ENDBRANCH  29  31
ENDBRANCH  28  29
ENDBRANCH  27  28
ENDBRANCH  26  27
ENDBRANCH   1  26
TORSDOF 21
ENDMDL
MODEL 3
REMARK VINA RESULT:      -9.8      2.982      8.644
REMARK SMILES COc1ccc(-c2cccc(/C=C\C(=O)OCCOCCOC(=O)c3ccc(-c4c5nc(c(-c6cccc(S(=O)(=O)[O-])c6F)c6ccc([nH]6)c(-c6cccc(S(=O)(=O)[O-])c6F)c6nc(c(-c7cccc(S(=O)(=O)[O-])c7F)c7ccc4[nH]7)C=C6)C=C5)cc3)c2)c(Cl)c1OC
REMARK SMILES IDX 19 1 18 2 17 3 16 4 14 5 15 6 13 7 12 8 11 9 7 10 8 11 88 12
REMARK SMILES IDX 9 13 10 14 6 15 3 16 4 17 91 18 5 19 89 20 90 21 2 22 1 23
REMARK SMILES IDX 92 24 93 25 20 26 21 27 22 28 23 29 24 30 25 31 26 32 87 33
REMARK SMILES IDX 27 34 86 35 28 36 29 37 30 38 80 39 31 40 85 41 79 42 81 43
REMARK SMILES IDX 32 44 84 45 78 46 77 47 33 49 65 50 45 51 64 52 46 53 49 54
REMARK SMILES IDX 63 55 82 56 47 57 48 58 62 60 83 61 50 62 34 63 35 64 43 65
REMARK SMILES IDX 36 66 38 67 44 68 37 69 39 70 40 71 41 72 42 73 66 74 67 75
REMARK SMILES IDX 75 76 68 77 70 78 76 79 69 80 71 81 72 82 73 83 74 84 51 85
REMARK SMILES IDX 52 86 60 87 53 88 55 89 61 90 54 91 56 92 57 93 58 94 59 95
REMARK H PARENT 81 48 49 59
REMARK Flexibility Score: inf
ROOT
ATOM      1  O   UNL A   1      37.243  21.646  24.641  1.00  0.00    -0.374 OA
ENDROOT
BRANCH   1   2
ATOM      2  C   UNL A   1      35.918  21.555  25.174  1.00  0.00     0.202 C 
BRANCH   2   3
ATOM      3  C   UNL A   1      35.265  20.174  25.004  1.00  0.00     0.261 C 
BRANCH   3   4
ATOM      4  O   UNL A   1      33.930  20.190  25.541  1.00  0.00    -0.460 OA
BRANCH   4   5
ATOM      5  C   UNL A   1      32.931  19.746  24.760  1.00  0.00     0.330 C 
ATOM      6  O   UNL A   1      32.204  18.790  24.990  1.00  0.00    -0.247 OA
BRANCH   5   7
ATOM      7  C   UNL A   1      32.654  20.661  23.623  1.00  0.00     0.094 C 
ATOM      8  C   UNL A   1      32.048  21.856  23.500  1.00  0.00     0.015 C 
BRANCH   8   9
ATOM      9  C   UNL A   1      31.472  22.785  24.486  1.00  0.00    -0.025 A 
ATOM     10  C   UNL A   1      30.756  25.072  25.004  1.00  0.00    -0.016 A 
ATOM     11  C   UNL A   1      30.389  24.664  26.289  1.00  0.00     0.009 A 
ATOM     12  C   UNL A   1      31.339  24.133  24.129  1.00  0.00     0.017 A 
ATOM     13  C   UNL A   1      30.488  23.328  26.645  1.00  0.00     0.001 A 
ATOM     14  C   UNL A   1      30.956  22.396  25.720  1.00  0.00     0.008 A 
BRANCH  10  15
ATOM     15  C   UNL A   1      30.477  26.447  24.565  1.00  0.00     0.004 A 
ATOM     16  C   UNL A   1      29.864  29.021  23.654  1.00  0.00     0.162 A 
ATOM     17  C   UNL A   1      29.111  27.928  23.218  1.00  0.00     0.051 A 
ATOM     18  C   UNL A   1      30.976  28.855  24.514  1.00  0.00     0.180 A 
ATOM     19  C   UNL A   1      29.406  26.654  23.684  1.00  0.00     0.014 A 
ATOM     20  C   UNL A   1      31.281  27.554  24.964  1.00  0.00     0.094 A 
ATOM     21  Cl  UNL A   1      32.628  27.213  26.023  1.00  0.00    -0.079 Cl
BRANCH  16  22
ATOM     22  O   UNL A   1      29.597  30.297  23.209  1.00  0.00    -0.493 OA
ATOM     23  C   UNL A   1      29.364  30.376  21.807  1.00  0.00     0.278 C 
ENDBRANCH  16  22
BRANCH  18  24
ATOM     24  O   UNL A   1      31.576  30.047  24.834  1.00  0.00    -0.491 OA
ATOM     25  C   UNL A   1      32.153  30.276  26.104  1.00  0.00     0.278 C 
ENDBRANCH  18  24
ENDBRANCH  10  15
ENDBRANCH   8   9
ENDBRANCH   5   7
ENDBRANCH   4   5
ENDBRANCH   3   4
ENDBRANCH   2   3
ENDBRANCH   1   2
BRANCH   1  26
ATOM     26  C   UNL A   1      38.316  21.523  25.576  1.00  0.00     0.202 C 
BRANCH  26  27
ATOM     27  C   UNL A   1      39.131  20.231  25.456  1.00  0.00     0.261 C 
BRANCH  27  28
ATOM     28  O   UNL A   1      40.024  20.075  26.573  1.00  0.00    -0.460 OA
BRANCH  28  29
ATOM     29  C   UNL A   1      41.315  19.835  26.243  1.00  0.00     0.338 C 
ATOM     30  O   UNL A   1      41.770  18.814  25.761  1.00  0.00    -0.246 OA
BRANCH  29  31
ATOM     31  C   UNL A   1      42.112  21.068  26.403  1.00  0.00     0.060 A 
ATOM     32  C   UNL A   1      42.416  21.468  27.709  1.00  0.00     0.016 A 
ATOM     33  C   UNL A   1      42.511  21.847  25.313  1.00  0.00     0.016 A 
ATOM     34  C   UNL A   1      43.071  22.678  27.935  1.00  0.00     0.010 A 
ATOM     35  C   UNL A   1      43.174  23.059  25.542  1.00  0.00     0.010 A 
ATOM     36  C   UNL A   1      43.420  23.499  26.856  1.00  0.00    -0.014 A 
BRANCH  36  37
ATOM     37  C   UNL A   1      43.907  24.877  27.111  1.00  0.00     0.031 A 
ATOM     38  C   UNL A   1      42.949  25.898  27.664  1.00  0.00     0.074 A 
ATOM     39  C   UNL A   1      45.187  25.216  26.871  1.00  0.00     0.049 A 
ATOM     40  N   UNL A   1      43.158  27.152  27.967  1.00  0.00    -0.248 NA
ATOM     41  C   UNL A   1      41.569  25.442  27.905  1.00  0.00     0.031 C 
ATOM     42  C   UNL A   1      46.213  24.319  26.342  1.00  0.00     0.029 A 
ATOM     43  N   UNL A   1      45.835  26.416  27.028  1.00  0.00    -0.354 N 
ATOM     44  C   UNL A   1      41.935  27.644  28.408  1.00  0.00     0.074 A 
ATOM     45  C   UNL A   1      40.983  26.558  28.312  1.00  0.00     0.031 C 
ATOM     46  C   UNL A   1      47.360  25.008  26.197  1.00  0.00     0.029 A 
ATOM     47  C   UNL A   1      47.142  26.396  26.604  1.00  0.00     0.049 A 
ATOM     48  H   UNL A   1      45.404  27.215  27.407  1.00  0.00     0.167 HD
ATOM     49  C   UNL A   1      41.632  28.880  28.871  1.00  0.00     0.034 A 
ATOM     50  C   UNL A   1      48.055  27.386  26.541  1.00  0.00     0.034 A 
ATOM     51  C   UNL A   1      42.580  29.954  28.983  1.00  0.00     0.049 A 
ATOM     52  C   UNL A   1      47.690  28.760  27.043  1.00  0.00     0.074 A 
ATOM     53  C   UNL A   1      42.382  31.230  29.481  1.00  0.00     0.029 A 
ATOM     54  N   UNL A   1      43.905  29.885  28.581  1.00  0.00    -0.354 N 
ATOM     55  N   UNL A   1      46.563  29.175  27.570  1.00  0.00    -0.248 NA
ATOM     56  C   UNL A   1      48.736  29.793  26.978  1.00  0.00     0.031 C 
ATOM     57  C   UNL A   1      43.580  31.941  29.353  1.00  0.00     0.029 A 
ATOM     58  C   UNL A   1      44.535  31.097  28.808  1.00  0.00     0.049 A 
ATOM     59  H   UNL A   1      44.336  29.090  28.190  1.00  0.00     0.167 HD
ATOM     60  C   UNL A   1      46.777  30.500  27.937  1.00  0.00     0.074 A 
ATOM     61  C   UNL A   1      48.146  30.813  27.586  1.00  0.00     0.031 C 
ATOM     62  C   UNL A   1      45.915  31.380  28.507  1.00  0.00     0.034 A 
BRANCH  49  63
ATOM     63  C   UNL A   1      40.213  29.126  29.315  1.00  0.00     0.023 A 
ATOM     64  C   UNL A   1      39.233  29.473  28.362  1.00  0.00     0.012 A 
ATOM     65  C   UNL A   1      39.842  28.978  30.666  1.00  0.00     0.148 A 
ATOM     66  C   UNL A   1      37.915  29.709  28.752  1.00  0.00     0.002 A 
ATOM     67  C   UNL A   1      38.517  29.170  31.039  1.00  0.00     0.091 A 
ATOM     68  F   UNL A   1      40.790  28.671  31.561  1.00  0.00    -0.205 F 
ATOM     69  C   UNL A   1      37.556  29.548  30.088  1.00  0.00     0.022 A 
BRANCH  67  70
ATOM     70  S   UNL A   1      37.940  28.907  32.720  1.00  0.00     0.127 S 
ATOM     71  O   UNL A   1      36.564  29.394  32.640  1.00  0.00    -0.237 OA
ATOM     72  O   UNL A   1      38.065  27.457  32.867  1.00  0.00    -0.237 OA
ATOM     73  O   UNL A   1      38.830  29.682  33.574  1.00  0.00    -0.744 OA
ENDBRANCH  67  70
ENDBRANCH  49  63
BRANCH  50  74
ATOM     74  C   UNL A   1      49.426  27.098  26.031  1.00  0.00     0.023 A 
ATOM     75  C   UNL A   1      49.652  27.040  24.643  1.00  0.00     0.012 A 
ATOM     76  C   UNL A   1      50.511  26.910  26.912  1.00  0.00     0.148 A 
ATOM     77  C   UNL A   1      50.925  26.770  24.140  1.00  0.00     0.002 A 
ATOM     78  C   UNL A   1      51.787  26.698  26.405  1.00  0.00     0.091 A 
ATOM     79  F   UNL A   1      50.273  26.954  28.231  1.00  0.00    -0.205 F 
ATOM     80  C   UNL A   1      51.993  26.609  25.019  1.00  0.00     0.022 A 
BRANCH  78  81
ATOM     81  S   UNL A   1      53.241  26.617  27.458  1.00  0.00     0.127 S 
ATOM     82  O   UNL A   1      54.148  25.800  26.657  1.00  0.00    -0.237 OA
ATOM     83  O   UNL A   1      53.614  28.028  27.565  1.00  0.00    -0.237 OA
ATOM     84  O   UNL A   1      52.795  26.024  28.712  1.00  0.00    -0.744 OA
ENDBRANCH  78  81
ENDBRANCH  50  74
BRANCH  62  85
ATOM     85  C   UNL A   1      46.430  32.758  28.838  1.00  0.00     0.023 A 
ATOM     86  C   UNL A   1      47.039  33.004  30.084  1.00  0.00     0.012 A 
ATOM     87  C   UNL A   1      46.381  33.790  27.879  1.00  0.00     0.148 A 
ATOM     88  C   UNL A   1      47.561  34.264  30.383  1.00  0.00     0.002 A 
ATOM     89  C   UNL A   1      46.947  35.027  28.164  1.00  0.00     0.091 A 
ATOM     90  F   UNL A   1      45.781  33.544  26.704  1.00  0.00    -0.205 F 
ATOM     91  C   UNL A   1      47.525  35.270  29.420  1.00  0.00     0.022 A 
BRANCH  89  92
ATOM     92  S   UNL A   1      47.035  36.349  26.950  1.00  0.00     0.127 S 
ATOM     93  O   UNL A   1      46.296  37.418  27.620  1.00  0.00    -0.237 OA
ATOM     94  O   UNL A   1      48.476  36.578  26.843  1.00  0.00    -0.237 OA
ATOM     95  O   UNL A   1      46.416  35.823  25.740  1.00  0.00    -0.744 OA
ENDBRANCH  89  92
ENDBRANCH  62  85
ENDBRANCH  36  37
ENDBRANCH  29  31
ENDBRANCH  28  29
ENDBRANCH  27  28
ENDBRANCH  26  27
ENDBRANCH   1  26
TORSDOF 21
ENDMDL
