MODEL 1
REMARK VINA RESULT:     -11.1      0.000      0.000
REMARK SMILES CC1(C)C(n2c(SCC(=O)OCCOCCOC(=O)c3ccc(-c4c5nc(c(-c6cccc(S(=O)(=O)[O-])c6F)c6ccc([nH]6)c(-c6cccc(S(=O)(=O)[O-])c6F)c6nc(c(-c7cccc(S(=O)(=O)[O-])c7F)c7ccc4[nH]7)C=C6)C=C5)cc3)nc3cnccc32)C1(C)C
REMARK SMILES IDX 14 1 13 2 12 3 11 4 9 5 10 6 8 7 7 8 6 9 5 10 89 11 83 12
REMARK SMILES IDX 84 13 88 14 85 15 87 16 86 17 4 18 1 19 2 20 3 21 90 22
REMARK SMILES IDX 91 23 92 24 15 25 16 26 17 27 18 28 19 29 20 30 21 31 82 32
REMARK SMILES IDX 22 33 81 34 23 35 24 36 25 37 75 38 26 39 80 40 74 41 76 42
REMARK SMILES IDX 27 43 79 44 73 45 72 46 28 48 60 49 40 50 59 51 41 52 44 53
REMARK SMILES IDX 58 54 77 55 42 56 43 57 57 59 78 60 45 61 29 62 30 63 38 64
REMARK SMILES IDX 31 65 33 66 39 67 32 68 34 69 35 70 36 71 37 72 61 73 62 74
REMARK SMILES IDX 70 75 63 76 65 77 71 78 64 79 66 80 67 81 68 82 69 83 46 84
REMARK SMILES IDX 47 85 55 86 48 87 50 88 56 89 49 90 51 91 52 92 53 93 54 94
REMARK H PARENT 76 47 44 58
REMARK Flexibility Score: inf
ROOT
ATOM      1  O   UNL A   1      41.795  19.219  26.456  1.00  0.00    -0.374 OA
ENDROOT
BRANCH   1   2
ATOM      2  C   UNL A   1      41.692  20.636  26.402  1.00  0.00     0.202 C 
BRANCH   2   3
ATOM      3  C   UNL A   1      40.610  21.388  27.192  1.00  0.00     0.261 C 
BRANCH   3   4
ATOM      4  O   UNL A   1      39.905  22.291  26.317  1.00  0.00    -0.463 OA
BRANCH   4   5
ATOM      5  C   UNL A   1      38.744  21.841  25.789  1.00  0.00     0.316 C 
ATOM      6  O   UNL A   1      38.556  20.678  25.445  1.00  0.00    -0.251 OA
BRANCH   5   7
ATOM      7  C   UNL A   1      37.620  22.866  25.805  1.00  0.00     0.200 C 
BRANCH   7   8
ATOM      8  S   UNL A   1      36.421  22.705  24.492  1.00  0.00    -0.076 SA
BRANCH   8   9
ATOM      9  C   UNL A   1      34.988  21.871  25.059  1.00  0.00     0.169 A 
ATOM     10  N   UNL A   1      33.664  22.029  24.637  1.00  0.00    -0.315 N 
ATOM     11  C   UNL A   1      33.266  20.757  24.231  1.00  0.00     0.072 A 
ATOM     12  N   UNL A   1      35.171  20.626  25.464  1.00  0.00    -0.221 NA
ATOM     13  C   UNL A   1      34.225  19.907  24.784  1.00  0.00     0.108 A 
ATOM     14  C   UNL A   1      32.265  20.268  23.387  1.00  0.00     0.049 A 
ATOM     15  C   UNL A   1      34.173  18.537  24.502  1.00  0.00     0.141 A 
ATOM     16  C   UNL A   1      32.317  18.900  23.138  1.00  0.00     0.113 A 
ATOM     17  N   UNL A   1      33.216  18.043  23.673  1.00  0.00    -0.262 NA
BRANCH  10  18
ATOM     18  C   UNL A   1      33.036  23.222  24.101  1.00  0.00     0.102 C 
ATOM     19  C   UNL A   1      30.808  24.211  23.237  1.00  0.00     0.014 C 
ATOM     20  C   UNL A   1      31.694  23.839  24.425  1.00  0.00    -0.007 C 
ATOM     21  C   UNL A   1      30.896  23.430  25.632  1.00  0.00     0.014 C 
ATOM     22  C   UNL A   1      33.026  24.632  24.622  1.00  0.00    -0.007 C 
ATOM     23  C   UNL A   1      33.328  25.742  23.623  1.00  0.00     0.014 C 
ATOM     24  C   UNL A   1      33.569  24.905  26.004  1.00  0.00     0.014 C 
ENDBRANCH  10  18
ENDBRANCH   8   9
ENDBRANCH   7   8
ENDBRANCH   5   7
ENDBRANCH   4   5
ENDBRANCH   3   4
ENDBRANCH   2   3
ENDBRANCH   1   2
BRANCH   1  25
ATOM     25  C   UNL A   1      43.101  18.709  26.274  1.00  0.00     0.202 C 
BRANCH  25  26
ATOM     26  C   UNL A   1      43.779  18.634  24.904  1.00  0.00     0.261 C 
BRANCH  26  27
ATOM     27  O   UNL A   1      44.938  19.464  24.845  1.00  0.00    -0.460 OA
BRANCH  27  28
ATOM     28  C   UNL A   1      44.933  20.353  23.810  1.00  0.00     0.338 C 
ATOM     29  O   UNL A   1      44.483  20.190  22.705  1.00  0.00    -0.246 OA
BRANCH  28  30
ATOM     30  C   UNL A   1      45.142  21.652  24.485  1.00  0.00     0.060 A 
ATOM     31  C   UNL A   1      45.980  21.734  25.605  1.00  0.00     0.016 A 
ATOM     32  C   UNL A   1      44.126  22.595  24.255  1.00  0.00     0.016 A 
ATOM     33  C   UNL A   1      45.702  22.697  26.569  1.00  0.00     0.010 A 
ATOM     34  C   UNL A   1      43.834  23.531  25.239  1.00  0.00     0.010 A 
ATOM     35  C   UNL A   1      44.582  23.547  26.422  1.00  0.00    -0.014 A 
BRANCH  35  36
ATOM     36  C   UNL A   1      44.454  24.680  27.344  1.00  0.00     0.031 A 
ATOM     37  C   UNL A   1      45.723  25.453  27.256  1.00  0.00     0.074 A 
ATOM     38  C   UNL A   1      43.385  25.091  28.068  1.00  0.00     0.049 A 
ATOM     39  N   UNL A   1      46.678  25.473  28.127  1.00  0.00    -0.248 NA
ATOM     40  C   UNL A   1      46.103  25.994  25.935  1.00  0.00     0.031 C 
ATOM     41  C   UNL A   1      42.017  24.571  28.086  1.00  0.00     0.029 A 
ATOM     42  N   UNL A   1      43.274  26.173  28.904  1.00  0.00    -0.354 N 
ATOM     43  C   UNL A   1      47.657  26.269  27.545  1.00  0.00     0.074 A 
ATOM     44  C   UNL A   1      47.380  26.315  26.136  1.00  0.00     0.031 C 
ATOM     45  C   UNL A   1      41.176  25.467  28.653  1.00  0.00     0.029 A 
ATOM     46  C   UNL A   1      41.956  26.564  29.177  1.00  0.00     0.049 A 
ATOM     47  H   UNL A   1      44.056  26.638  29.280  1.00  0.00     0.167 HD
ATOM     48  C   UNL A   1      48.374  27.145  28.293  1.00  0.00     0.034 A 
ATOM     49  C   UNL A   1      41.546  27.718  29.767  1.00  0.00     0.034 A 
ATOM     50  C   UNL A   1      48.250  26.870  29.694  1.00  0.00     0.049 A 
ATOM     51  C   UNL A   1      42.706  28.226  30.517  1.00  0.00     0.074 A 
ATOM     52  C   UNL A   1      48.717  25.918  30.572  1.00  0.00     0.029 A 
ATOM     53  N   UNL A   1      47.148  27.455  30.258  1.00  0.00    -0.354 N 
ATOM     54  N   UNL A   1      43.177  27.643  31.581  1.00  0.00    -0.248 NA
ATOM     55  C   UNL A   1      43.557  29.240  29.911  1.00  0.00     0.031 C 
ATOM     56  C   UNL A   1      47.750  25.836  31.615  1.00  0.00     0.029 A 
ATOM     57  C   UNL A   1      46.745  26.768  31.367  1.00  0.00     0.049 A 
ATOM     58  H   UNL A   1      46.706  28.263  29.910  1.00  0.00     0.167 HD
ATOM     59  C   UNL A   1      44.532  27.881  31.500  1.00  0.00     0.074 A 
ATOM     60  C   UNL A   1      44.683  29.007  30.588  1.00  0.00     0.031 C 
ATOM     61  C   UNL A   1      45.417  26.932  31.904  1.00  0.00     0.034 A 
BRANCH  48  62
ATOM     62  C   UNL A   1      48.736  28.520  27.794  1.00  0.00     0.023 A 
ATOM     63  C   UNL A   1      50.082  28.918  27.847  1.00  0.00     0.012 A 
ATOM     64  C   UNL A   1      47.775  29.523  27.513  1.00  0.00     0.148 A 
ATOM     65  C   UNL A   1      50.454  30.244  27.592  1.00  0.00     0.002 A 
ATOM     66  C   UNL A   1      48.154  30.809  27.163  1.00  0.00     0.091 A 
ATOM     67  F   UNL A   1      46.479  29.279  27.733  1.00  0.00    -0.205 F 
ATOM     68  C   UNL A   1      49.495  31.182  27.219  1.00  0.00     0.022 A 
BRANCH  66  69
ATOM     69  S   UNL A   1      46.944  32.028  26.636  1.00  0.00     0.127 S 
ATOM     70  O   UNL A   1      46.300  32.367  27.901  1.00  0.00    -0.237 OA
ATOM     71  O   UNL A   1      47.801  33.072  26.074  1.00  0.00    -0.237 OA
ATOM     72  O   UNL A   1      46.112  31.346  25.652  1.00  0.00    -0.744 OA
ENDBRANCH  66  69
ENDBRANCH  48  62
BRANCH  49  73
ATOM     73  C   UNL A   1      40.323  28.562  29.674  1.00  0.00     0.023 A 
ATOM     74  C   UNL A   1      39.651  28.634  28.429  1.00  0.00     0.012 A 
ATOM     75  C   UNL A   1      39.618  28.965  30.825  1.00  0.00     0.148 A 
ATOM     76  C   UNL A   1      38.295  28.973  28.346  1.00  0.00     0.002 A 
ATOM     77  C   UNL A   1      38.267  29.307  30.737  1.00  0.00     0.091 A 
ATOM     78  F   UNL A   1      40.239  28.913  32.010  1.00  0.00    -0.205 F 
ATOM     79  C   UNL A   1      37.596  29.283  29.506  1.00  0.00     0.022 A 
BRANCH  77  80
ATOM     80  S   UNL A   1      37.281  29.702  32.188  1.00  0.00     0.127 S 
ATOM     81  O   UNL A   1      35.977  30.011  31.599  1.00  0.00    -0.237 OA
ATOM     82  O   UNL A   1      37.331  28.451  32.937  1.00  0.00    -0.237 OA
ATOM     83  O   UNL A   1      37.940  30.845  32.808  1.00  0.00    -0.744 OA
ENDBRANCH  77  80
ENDBRANCH  49  73
BRANCH  61  84
ATOM     84  C   UNL A   1      44.930  25.901  32.871  1.00  0.00     0.023 A 
ATOM     85  C   UNL A   1      44.514  24.610  32.489  1.00  0.00     0.012 A 
ATOM     86  C   UNL A   1      45.033  26.223  34.232  1.00  0.00     0.148 A 
ATOM     87  C   UNL A   1      44.219  23.651  33.464  1.00  0.00     0.002 A 
ATOM     88  C   UNL A   1      44.777  25.260  35.193  1.00  0.00     0.091 A 
ATOM     89  F   UNL A   1      45.423  27.466  34.554  1.00  0.00    -0.205 F 
ATOM     90  C   UNL A   1      44.367  23.972  34.815  1.00  0.00     0.022 A 
BRANCH  88  91
ATOM     91  S   UNL A   1      45.050  25.585  36.934  1.00  0.00     0.127 S 
ATOM     92  O   UNL A   1      46.455  25.985  36.952  1.00  0.00    -0.237 OA
ATOM     93  O   UNL A   1      44.100  26.665  37.197  1.00  0.00    -0.237 OA
ATOM     94  O   UNL A   1      44.751  24.341  37.632  1.00  0.00    -0.744 OA
ENDBRANCH  88  91
ENDBRANCH  61  84
ENDBRANCH  35  36
ENDBRANCH  28  30
ENDBRANCH  27  28
ENDBRANCH  26  27
ENDBRANCH  25  26
ENDBRANCH   1  25
TORSDOF 20
ENDMDL
MODEL 2
REMARK VINA RESULT:     -10.7      4.066      6.130
REMARK SMILES CC1(C)C(n2c(SCC(=O)OCCOCCOC(=O)c3ccc(-c4c5nc(c(-c6cccc(S(=O)(=O)[O-])c6F)c6ccc([nH]6)c(-c6cccc(S(=O)(=O)[O-])c6F)c6nc(c(-c7cccc(S(=O)(=O)[O-])c7F)c7ccc4[nH]7)C=C6)C=C5)cc3)nc3cnccc32)C1(C)C
REMARK SMILES IDX 14 1 13 2 12 3 11 4 9 5 10 6 8 7 7 8 6 9 5 10 89 11 83 12
REMARK SMILES IDX 84 13 88 14 85 15 87 16 86 17 4 18 1 19 2 20 3 21 90 22
REMARK SMILES IDX 91 23 92 24 15 25 16 26 17 27 18 28 19 29 20 30 21 31 82 32
REMARK SMILES IDX 22 33 81 34 23 35 24 36 25 37 75 38 26 39 80 40 74 41 76 42
REMARK SMILES IDX 27 43 79 44 73 45 72 46 28 48 60 49 40 50 59 51 41 52 44 53
REMARK SMILES IDX 58 54 77 55 42 56 43 57 57 59 78 60 45 61 29 62 30 63 38 64
REMARK SMILES IDX 31 65 33 66 39 67 32 68 34 69 35 70 36 71 37 72 61 73 62 74
REMARK SMILES IDX 70 75 63 76 65 77 71 78 64 79 66 80 67 81 68 82 69 83 46 84
REMARK SMILES IDX 47 85 55 86 48 87 50 88 56 89 49 90 51 91 52 92 53 93 54 94
REMARK H PARENT 76 47 44 58
REMARK Flexibility Score: inf
ROOT
ATOM      1  O   UNL A   1      37.603  23.539  25.376  1.00  0.00    -0.374 OA
ENDROOT
BRANCH   1   2
ATOM      2  C   UNL A   1      36.238  23.856  25.616  1.00  0.00     0.202 C 
BRANCH   2   3
ATOM      3  C   UNL A   1      35.201  23.829  24.481  1.00  0.00     0.261 C 
BRANCH   3   4
ATOM      4  O   UNL A   1      34.330  22.692  24.643  1.00  0.00    -0.463 OA
BRANCH   4   5
ATOM      5  C   UNL A   1      33.350  22.807  25.570  1.00  0.00     0.316 C 
ATOM      6  O   UNL A   1      33.402  22.297  26.685  1.00  0.00    -0.251 OA
BRANCH   5   7
ATOM      7  C   UNL A   1      32.236  23.764  25.175  1.00  0.00     0.200 C 
BRANCH   7   8
ATOM      8  S   UNL A   1      32.022  25.173  26.251  1.00  0.00    -0.076 SA
BRANCH   8   9
ATOM      9  C   UNL A   1      32.737  26.608  25.544  1.00  0.00     0.169 A 
ATOM     10  N   UNL A   1      32.096  27.756  25.067  1.00  0.00    -0.315 N 
ATOM     11  C   UNL A   1      32.664  28.805  25.788  1.00  0.00     0.072 A 
ATOM     12  N   UNL A   1      33.936  26.933  25.995  1.00  0.00    -0.221 NA
ATOM     13  C   UNL A   1      33.822  28.254  26.338  1.00  0.00     0.108 A 
ATOM     14  C   UNL A   1      32.263  30.108  26.098  1.00  0.00     0.049 A 
ATOM     15  C   UNL A   1      34.606  29.026  27.203  1.00  0.00     0.141 A 
ATOM     16  C   UNL A   1      33.088  30.783  26.993  1.00  0.00     0.113 A 
ATOM     17  N   UNL A   1      34.228  30.290  27.527  1.00  0.00    -0.262 NA
BRANCH  10  18
ATOM     18  C   UNL A   1      30.764  27.864  24.502  1.00  0.00     0.102 C 
ATOM     19  C   UNL A   1      29.075  29.489  23.410  1.00  0.00     0.014 C 
ATOM     20  C   UNL A   1      30.296  28.582  23.257  1.00  0.00    -0.007 C 
ATOM     21  C   UNL A   1      31.255  29.080  22.211  1.00  0.00     0.014 C 
ATOM     22  C   UNL A   1      30.092  27.043  23.437  1.00  0.00    -0.007 C 
ATOM     23  C   UNL A   1      28.677  26.559  23.726  1.00  0.00     0.014 C 
ATOM     24  C   UNL A   1      30.915  26.054  22.648  1.00  0.00     0.014 C 
ENDBRANCH  10  18
ENDBRANCH   8   9
ENDBRANCH   7   8
ENDBRANCH   5   7
ENDBRANCH   4   5
ENDBRANCH   3   4
ENDBRANCH   2   3
ENDBRANCH   1   2
BRANCH   1  25
ATOM     25  C   UNL A   1      37.963  22.202  25.663  1.00  0.00     0.202 C 
BRANCH  25  26
ATOM     26  C   UNL A   1      39.308  21.821  26.286  1.00  0.00     0.261 C 
BRANCH  26  27
ATOM     27  O   UNL A   1      39.908  22.925  26.959  1.00  0.00    -0.460 OA
BRANCH  27  28
ATOM     28  C   UNL A   1      41.217  23.131  26.633  1.00  0.00     0.338 C 
ATOM     29  O   UNL A   1      41.896  22.483  25.879  1.00  0.00    -0.246 OA
BRANCH  28  30
ATOM     30  C   UNL A   1      41.436  24.545  27.009  1.00  0.00     0.060 A 
ATOM     31  C   UNL A   1      42.343  24.866  28.028  1.00  0.00     0.016 A 
ATOM     32  C   UNL A   1      40.384  25.407  26.660  1.00  0.00     0.016 A 
ATOM     33  C   UNL A   1      42.104  26.005  28.790  1.00  0.00     0.010 A 
ATOM     34  C   UNL A   1      40.132  26.524  27.448  1.00  0.00     0.010 A 
ATOM     35  C   UNL A   1      40.956  26.793  28.548  1.00  0.00    -0.014 A 
BRANCH  35  36
ATOM     36  C   UNL A   1      40.859  28.091  29.223  1.00  0.00     0.031 A 
ATOM     37  C   UNL A   1      41.853  28.989  28.575  1.00  0.00     0.074 A 
ATOM     38  C   UNL A   1      39.981  28.515  30.164  1.00  0.00     0.049 A 
ATOM     39  N   UNL A   1      42.991  29.362  29.064  1.00  0.00    -0.248 NA
ATOM     40  C   UNL A   1      41.714  29.230  27.124  1.00  0.00     0.031 C 
ATOM     41  C   UNL A   1      38.820  27.828  30.730  1.00  0.00     0.029 A 
ATOM     42  N   UNL A   1      39.887  29.745  30.764  1.00  0.00    -0.354 N 
ATOM     43  C   UNL A   1      43.569  30.117  28.050  1.00  0.00     0.074 A 
ATOM     44  C   UNL A   1      42.896  29.769  26.829  1.00  0.00     0.031 C 
ATOM     45  C   UNL A   1      38.006  28.709  31.358  1.00  0.00     0.029 A 
ATOM     46  C   UNL A   1      38.651  30.002  31.374  1.00  0.00     0.049 A 
ATOM     47  H   UNL A   1      40.626  30.396  30.765  1.00  0.00     0.167 HD
ATOM     48  C   UNL A   1      44.267  31.246  28.336  1.00  0.00     0.034 A 
ATOM     49  C   UNL A   1      38.191  31.196  31.830  1.00  0.00     0.034 A 
ATOM     50  C   UNL A   1      44.612  31.315  29.725  1.00  0.00     0.049 A 
ATOM     51  C   UNL A   1      39.382  32.035  32.044  1.00  0.00     0.074 A 
ATOM     52  C   UNL A   1      45.503  30.691  30.567  1.00  0.00     0.029 A 
ATOM     53  N   UNL A   1      43.620  31.861  30.495  1.00  0.00    -0.354 N 
ATOM     54  N   UNL A   1      40.251  31.810  32.987  1.00  0.00    -0.248 NA
ATOM     55  C   UNL A   1      39.786  32.975  31.009  1.00  0.00     0.031 C 
ATOM     56  C   UNL A   1      44.916  30.736  31.865  1.00  0.00     0.029 A 
ATOM     57  C   UNL A   1      43.708  31.425  31.786  1.00  0.00     0.049 A 
ATOM     58  H   UNL A   1      42.935  32.485  30.163  1.00  0.00     0.167 HD
ATOM     59  C   UNL A   1      41.442  32.210  32.420  1.00  0.00     0.074 A 
ATOM     60  C   UNL A   1      41.081  33.082  31.310  1.00  0.00     0.031 C 
ATOM     61  C   UNL A   1      42.588  31.528  32.687  1.00  0.00     0.034 A 
BRANCH  48  62
ATOM     62  C   UNL A   1      44.168  32.488  27.490  1.00  0.00     0.023 A 
ATOM     63  C   UNL A   1      44.978  32.584  26.345  1.00  0.00     0.012 A 
ATOM     64  C   UNL A   1      43.502  33.665  27.912  1.00  0.00     0.148 A 
ATOM     65  C   UNL A   1      45.084  33.786  25.634  1.00  0.00     0.002 A 
ATOM     66  C   UNL A   1      43.530  34.823  27.151  1.00  0.00     0.091 A 
ATOM     67  F   UNL A   1      42.962  33.719  29.134  1.00  0.00    -0.205 F 
ATOM     68  C   UNL A   1      44.336  34.896  26.017  1.00  0.00     0.022 A 
BRANCH  66  69
ATOM     69  S   UNL A   1      42.542  36.257  27.596  1.00  0.00     0.127 S 
ATOM     70  O   UNL A   1      41.225  35.657  27.788  1.00  0.00    -0.237 OA
ATOM     71  O   UNL A   1      43.207  36.706  28.820  1.00  0.00    -0.237 OA
ATOM     72  O   UNL A   1      42.673  37.179  26.474  1.00  0.00    -0.744 OA
ENDBRANCH  66  69
ENDBRANCH  48  62
BRANCH  49  73
ATOM     73  C   UNL A   1      36.842  31.809  31.982  1.00  0.00     0.023 A 
ATOM     74  C   UNL A   1      36.401  32.143  33.287  1.00  0.00     0.012 A 
ATOM     75  C   UNL A   1      36.177  32.401  30.891  1.00  0.00     0.148 A 
ATOM     76  C   UNL A   1      35.422  33.121  33.501  1.00  0.00     0.002 A 
ATOM     77  C   UNL A   1      35.197  33.372  31.110  1.00  0.00     0.091 A 
ATOM     78  F   UNL A   1      36.572  32.089  29.651  1.00  0.00    -0.205 F 
ATOM     79  C   UNL A   1      34.840  33.755  32.411  1.00  0.00     0.022 A 
BRANCH  77  80
ATOM     80  S   UNL A   1      34.405  34.257  29.760  1.00  0.00     0.127 S 
ATOM     81  O   UNL A   1      33.503  33.241  29.213  1.00  0.00    -0.237 OA
ATOM     82  O   UNL A   1      33.739  35.348  30.464  1.00  0.00    -0.237 OA
ATOM     83  O   UNL A   1      35.484  34.642  28.860  1.00  0.00    -0.744 OA
ENDBRANCH  77  80
ENDBRANCH  49  73
BRANCH  61  84
ATOM     84  C   UNL A   1      42.630  30.714  33.941  1.00  0.00     0.023 A 
ATOM     85  C   UNL A   1      42.842  31.266  35.220  1.00  0.00     0.012 A 
ATOM     86  C   UNL A   1      42.307  29.356  33.814  1.00  0.00     0.148 A 
ATOM     87  C   UNL A   1      42.715  30.463  36.358  1.00  0.00     0.002 A 
ATOM     88  C   UNL A   1      42.145  28.575  34.945  1.00  0.00     0.091 A 
ATOM     89  F   UNL A   1      42.124  28.868  32.578  1.00  0.00    -0.205 F 
ATOM     90  C   UNL A   1      42.349  29.122  36.221  1.00  0.00     0.022 A 
BRANCH  88  91
ATOM     91  S   UNL A   1      41.578  26.879  34.833  1.00  0.00     0.127 S 
ATOM     92  O   UNL A   1      40.416  27.003  33.956  1.00  0.00    -0.237 OA
ATOM     93  O   UNL A   1      42.732  26.209  34.234  1.00  0.00    -0.237 OA
ATOM     94  O   UNL A   1      41.282  26.457  36.197  1.00  0.00    -0.744 OA
ENDBRANCH  88  91
ENDBRANCH  61  84
ENDBRANCH  35  36
ENDBRANCH  28  30
ENDBRANCH  27  28
ENDBRANCH  26  27
ENDBRANCH  25  26
ENDBRANCH   1  25
TORSDOF 20
ENDMDL
MODEL 3
REMARK VINA RESULT:     -10.5      3.860      5.284
REMARK SMILES CC1(C)C(n2c(SCC(=O)OCCOCCOC(=O)c3ccc(-c4c5nc(c(-c6cccc(S(=O)(=O)[O-])c6F)c6ccc([nH]6)c(-c6cccc(S(=O)(=O)[O-])c6F)c6nc(c(-c7cccc(S(=O)(=O)[O-])c7F)c7ccc4[nH]7)C=C6)C=C5)cc3)nc3cnccc32)C1(C)C
REMARK SMILES IDX 14 1 13 2 12 3 11 4 9 5 10 6 8 7 7 8 6 9 5 10 89 11 83 12
REMARK SMILES IDX 84 13 88 14 85 15 87 16 86 17 4 18 1 19 2 20 3 21 90 22
REMARK SMILES IDX 91 23 92 24 15 25 16 26 17 27 18 28 19 29 20 30 21 31 82 32
REMARK SMILES IDX 22 33 81 34 23 35 24 36 25 37 75 38 26 39 80 40 74 41 76 42
REMARK SMILES IDX 27 43 79 44 73 45 72 46 28 48 60 49 40 50 59 51 41 52 44 53
REMARK SMILES IDX 58 54 77 55 42 56 43 57 57 59 78 60 45 61 29 62 30 63 38 64
REMARK SMILES IDX 31 65 33 66 39 67 32 68 34 69 35 70 36 71 37 72 61 73 62 74
REMARK SMILES IDX 70 75 63 76 65 77 71 78 64 79 66 80 67 81 68 82 69 83 46 84
REMARK SMILES IDX 47 85 55 86 48 87 50 88 56 89 49 90 51 91 52 92 53 93 54 94
REMARK H PARENT 76 47 44 58
REMARK Flexibility Score: inf
ROOT
ATOM      1  O   UNL A   1      39.773  21.515  27.144  1.00  0.00    -0.374 OA
ENDROOT
BRANCH   1   2
ATOM      2  C   UNL A   1      39.065  21.288  25.932  1.00  0.00     0.202 C 
BRANCH   2   3
ATOM      3  C   UNL A   1      37.773  22.054  25.607  1.00  0.00     0.261 C 
BRANCH   3   4
ATOM      4  O   UNL A   1      37.446  21.889  24.213  1.00  0.00    -0.463 OA
BRANCH   4   5
ATOM      5  C   UNL A   1      36.704  22.868  23.645  1.00  0.00     0.316 C 
ATOM      6  O   UNL A   1      36.441  22.917  22.447  1.00  0.00    -0.251 OA
BRANCH   5   7
ATOM      7  C   UNL A   1      36.079  23.828  24.645  1.00  0.00     0.200 C 
BRANCH   7   8
ATOM      8  S   UNL A   1      34.479  24.475  24.186  1.00  0.00    -0.076 SA
BRANCH   8   9
ATOM      9  C   UNL A   1      33.565  24.935  25.608  1.00  0.00     0.169 A 
ATOM     10  N   UNL A   1      32.588  25.928  25.732  1.00  0.00    -0.315 N 
ATOM     11  C   UNL A   1      31.461  25.261  26.209  1.00  0.00     0.072 A 
ATOM     12  N   UNL A   1      33.309  23.962  26.466  1.00  0.00    -0.221 NA
ATOM     13  C   UNL A   1      31.958  24.043  26.676  1.00  0.00     0.108 A 
ATOM     14  C   UNL A   1      30.090  25.529  26.200  1.00  0.00     0.049 A 
ATOM     15  C   UNL A   1      31.067  23.078  27.159  1.00  0.00     0.141 A 
ATOM     16  C   UNL A   1      29.282  24.496  26.667  1.00  0.00     0.113 A 
ATOM     17  N   UNL A   1      29.729  23.313  27.147  1.00  0.00    -0.262 NA
BRANCH  10  18
ATOM     18  C   UNL A   1      32.470  27.161  24.977  1.00  0.00     0.102 C 
ATOM     19  C   UNL A   1      30.915  29.161  24.456  1.00  0.00     0.014 C 
ATOM     20  C   UNL A   1      31.925  28.507  25.399  1.00  0.00    -0.007 C 
ATOM     21  C   UNL A   1      31.673  28.852  26.841  1.00  0.00     0.014 C 
ATOM     22  C   UNL A   1      33.396  28.343  24.897  1.00  0.00    -0.007 C 
ATOM     23  C   UNL A   1      33.719  28.877  23.507  1.00  0.00     0.014 C 
ATOM     24  C   UNL A   1      34.557  28.429  25.857  1.00  0.00     0.014 C 
ENDBRANCH  10  18
ENDBRANCH   8   9
ENDBRANCH   7   8
ENDBRANCH   5   7
ENDBRANCH   4   5
ENDBRANCH   3   4
ENDBRANCH   2   3
ENDBRANCH   1   2
BRANCH   1  25
ATOM     25  C   UNL A   1      40.931  20.723  27.315  1.00  0.00     0.202 C 
BRANCH  25  26
ATOM     26  C   UNL A   1      42.302  21.319  27.644  1.00  0.00     0.261 C 
BRANCH  26  27
ATOM     27  O   UNL A   1      42.256  22.743  27.706  1.00  0.00    -0.460 OA
BRANCH  27  28
ATOM     28  C   UNL A   1      42.685  23.363  26.569  1.00  0.00     0.338 C 
ATOM     29  O   UNL A   1      42.680  22.925  25.447  1.00  0.00    -0.246 OA
BRANCH  28  30
ATOM     30  C   UNL A   1      42.684  24.793  26.948  1.00  0.00     0.060 A 
ATOM     31  C   UNL A   1      43.503  25.242  27.992  1.00  0.00     0.016 A 
ATOM     32  C   UNL A   1      41.528  25.493  26.565  1.00  0.00     0.016 A 
ATOM     33  C   UNL A   1      43.077  26.332  28.744  1.00  0.00     0.010 A 
ATOM     34  C   UNL A   1      41.092  26.559  27.342  1.00  0.00     0.010 A 
ATOM     35  C   UNL A   1      41.834  26.944  28.465  1.00  0.00    -0.014 A 
BRANCH  35  36
ATOM     36  C   UNL A   1      41.528  28.213  29.133  1.00  0.00     0.031 A 
ATOM     37  C   UNL A   1      42.480  29.223  28.597  1.00  0.00     0.074 A 
ATOM     38  C   UNL A   1      40.517  28.524  29.981  1.00  0.00     0.049 A 
ATOM     39  N   UNL A   1      43.515  29.708  29.203  1.00  0.00    -0.248 NA
ATOM     40  C   UNL A   1      42.464  29.472  27.141  1.00  0.00     0.031 C 
ATOM     41  C   UNL A   1      39.386  27.707  30.420  1.00  0.00     0.029 A 
ATOM     42  N   UNL A   1      40.229  29.727  30.574  1.00  0.00    -0.354 N 
ATOM     43  C   UNL A   1      44.107  30.538  28.258  1.00  0.00     0.074 A 
ATOM     44  C   UNL A   1      43.604  30.139  26.972  1.00  0.00     0.031 C 
ATOM     45  C   UNL A   1      38.422  28.485  30.965  1.00  0.00     0.029 A 
ATOM     46  C   UNL A   1      38.917  29.839  31.054  1.00  0.00     0.049 A 
ATOM     47  H   UNL A   1      40.889  30.453  30.656  1.00  0.00     0.167 HD
ATOM     48  C   UNL A   1      44.645  31.730  28.621  1.00  0.00     0.034 A 
ATOM     49  C   UNL A   1      38.285  30.969  31.467  1.00  0.00     0.034 A 
ATOM     50  C   UNL A   1      44.837  31.813  30.038  1.00  0.00     0.049 A 
ATOM     51  C   UNL A   1      39.350  31.928  31.808  1.00  0.00     0.074 A 
ATOM     52  C   UNL A   1      45.700  31.274  30.965  1.00  0.00     0.029 A 
ATOM     53  N   UNL A   1      43.718  32.236  30.704  1.00  0.00    -0.354 N 
ATOM     54  N   UNL A   1      40.137  31.783  32.834  1.00  0.00    -0.248 NA
ATOM     55  C   UNL A   1      39.753  32.923  30.825  1.00  0.00     0.031 C 
ATOM     56  C   UNL A   1      44.982  31.235  32.196  1.00  0.00     0.029 A 
ATOM     57  C   UNL A   1      43.720  31.791  31.996  1.00  0.00     0.049 A 
ATOM     58  H   UNL A   1      43.007  32.788  30.307  1.00  0.00     0.167 HD
ATOM     59  C   UNL A   1      41.330  32.317  32.396  1.00  0.00     0.074 A 
ATOM     60  C   UNL A   1      40.992  33.163  31.259  1.00  0.00     0.031 C 
ATOM     61  C   UNL A   1      42.509  31.758  32.776  1.00  0.00     0.034 A 
BRANCH  48  62
ATOM     62  C   UNL A   1      44.499  32.968  27.775  1.00  0.00     0.023 A 
ATOM     63  C   UNL A   1      45.463  33.219  26.785  1.00  0.00     0.012 A 
ATOM     64  C   UNL A   1      43.600  34.018  28.084  1.00  0.00     0.148 A 
ATOM     65  C   UNL A   1      45.500  34.444  26.107  1.00  0.00     0.002 A 
ATOM     66  C   UNL A   1      43.575  35.189  27.344  1.00  0.00     0.091 A 
ATOM     67  F   UNL A   1      42.861  33.954  29.197  1.00  0.00    -0.205 F 
ATOM     68  C   UNL A   1      44.538  35.417  26.363  1.00  0.00     0.022 A 
BRANCH  66  69
ATOM     69  S   UNL A   1      42.319  36.444  27.622  1.00  0.00     0.127 S 
ATOM     70  O   UNL A   1      42.727  36.985  28.915  1.00  0.00    -0.237 OA
ATOM     71  O   UNL A   1      42.530  37.333  26.480  1.00  0.00    -0.237 OA
ATOM     72  O   UNL A   1      41.048  35.730  27.595  1.00  0.00    -0.744 OA
ENDBRANCH  66  69
ENDBRANCH  48  62
BRANCH  49  73
ATOM     73  C   UNL A   1      36.869  31.430  31.482  1.00  0.00     0.023 A 
ATOM     74  C   UNL A   1      36.303  31.815  32.723  1.00  0.00     0.012 A 
ATOM     75  C   UNL A   1      36.222  31.852  30.305  1.00  0.00     0.148 A 
ATOM     76  C   UNL A   1      35.209  32.685  32.790  1.00  0.00     0.002 A 
ATOM     77  C   UNL A   1      35.127  32.717  30.378  1.00  0.00     0.091 A 
ATOM     78  F   UNL A   1      36.736  31.491  29.123  1.00  0.00    -0.205 F 
ATOM     79  C   UNL A   1      34.638  33.158  31.616  1.00  0.00     0.022 A 
BRANCH  77  80
ATOM     80  S   UNL A   1      34.339  33.393  28.909  1.00  0.00     0.127 S 
ATOM     81  O   UNL A   1      35.459  34.053  28.236  1.00  0.00    -0.237 OA
ATOM     82  O   UNL A   1      33.853  32.187  28.245  1.00  0.00    -0.237 OA
ATOM     83  O   UNL A   1      33.317  34.307  29.401  1.00  0.00    -0.744 OA
ENDBRANCH  77  80
ENDBRANCH  49  73
BRANCH  61  84
ATOM     84  C   UNL A   1      42.512  30.933  34.023  1.00  0.00     0.023 A 
ATOM     85  C   UNL A   1      42.611  31.479  35.318  1.00  0.00     0.012 A 
ATOM     86  C   UNL A   1      42.267  29.562  33.865  1.00  0.00     0.148 A 
ATOM     87  C   UNL A   1      42.452  30.659  36.439  1.00  0.00     0.002 A 
ATOM     88  C   UNL A   1      42.071  28.760  34.976  1.00  0.00     0.091 A 
ATOM     89  F   UNL A   1      42.189  29.079  32.615  1.00  0.00    -0.205 F 
ATOM     90  C   UNL A   1      42.164  29.302  36.267  1.00  0.00     0.022 A 
BRANCH  88  91
ATOM     91  S   UNL A   1      41.599  27.039  34.813  1.00  0.00     0.127 S 
ATOM     92  O   UNL A   1      41.346  26.660  36.201  1.00  0.00    -0.237 OA
ATOM     93  O   UNL A   1      40.404  27.128  33.973  1.00  0.00    -0.237 OA
ATOM     94  O   UNL A   1      42.726  26.365  34.182  1.00  0.00    -0.744 OA
ENDBRANCH  88  91
ENDBRANCH  61  84
ENDBRANCH  35  36
ENDBRANCH  28  30
ENDBRANCH  27  28
ENDBRANCH  26  27
ENDBRANCH  25  26
ENDBRANCH   1  25
TORSDOF 20
ENDMDL
