MODEL 1
REMARK VINA RESULT:     -11.6      0.000      0.000
REMARK SMILES O=C(OCCOCCOC(=O)c1ccc(-c2ccc(Cl)c3ccccc23)o1)c1ccc(-c2c3nc(c(-c4cccc(S(=O)(=O)[O-])c4F)c4ccc([nH]4)c(-c4cccc(S(=O)(=O)[O-])c4F)c4nc(c(-c5cccc(S(=O)(=O)[O-])c5F)c5ccc2[nH]5)C=C4)C=C3)cc1
REMARK SMILES IDX 5 1 4 2 3 3 2 4 1 5 28 6 29 7 90 8 30 9 89 10 31 11 32 12
REMARK SMILES IDX 33 13 83 14 34 15 88 16 82 17 84 18 35 19 87 20 81 21 80 22
REMARK SMILES IDX 36 24 68 25 48 26 67 27 49 28 52 29 66 30 85 31 50 32 51 33
REMARK SMILES IDX 65 35 86 36 53 37 37 38 38 39 46 40 39 41 41 42 47 43 40 44
REMARK SMILES IDX 42 45 43 46 44 47 45 48 69 49 70 50 78 51 71 52 73 53 79 54
REMARK SMILES IDX 72 55 74 56 75 57 76 58 77 59 54 60 55 61 63 62 56 63 58 64
REMARK SMILES IDX 64 65 57 66 59 67 60 68 61 69 62 70 6 71 7 72 8 73 9 74
REMARK SMILES IDX 10 75 11 76 12 77 13 78 27 79 14 80 15 81 16 82 17 83 26 84
REMARK SMILES IDX 18 85 21 86 25 87 19 88 22 89 24 90 20 91 23 92
REMARK H PARENT 84 23 52 34
REMARK Flexibility Score: inf
ROOT
ATOM      1  C   UNL A   1      31.133  29.033  25.190  1.00  0.00     0.202 C 
ENDROOT
BRANCH   1   2
ATOM      2  C   UNL A   1      31.500  30.465  25.585  1.00  0.00     0.261 C 
BRANCH   2   3
ATOM      3  O   UNL A   1      32.883  30.516  25.976  1.00  0.00    -0.460 OA
BRANCH   3   4
ATOM      4  C   UNL A   1      33.479  31.293  26.908  1.00  0.00     0.338 C 
ATOM      5  O   UNL A   1      32.979  32.392  27.147  1.00  0.00    -0.246 OA
BRANCH   4   6
ATOM      6  C   UNL A   1      34.702  30.896  27.673  1.00  0.00     0.060 A 
ATOM      7  C   UNL A   1      34.998  29.603  28.115  1.00  0.00     0.016 A 
ATOM      8  C   UNL A   1      35.669  31.896  27.873  1.00  0.00     0.016 A 
ATOM      9  C   UNL A   1      36.179  29.317  28.792  1.00  0.00     0.010 A 
ATOM     10  C   UNL A   1      36.874  31.611  28.520  1.00  0.00     0.010 A 
ATOM     11  C   UNL A   1      37.120  30.320  29.000  1.00  0.00    -0.014 A 
BRANCH  11  12
ATOM     12  C   UNL A   1      38.328  30.024  29.787  1.00  0.00     0.031 A 
ATOM     13  C   UNL A   1      39.356  29.108  29.203  1.00  0.00     0.074 A 
ATOM     14  C   UNL A   1      38.492  30.588  30.995  1.00  0.00     0.049 A 
ATOM     15  N   UNL A   1      40.447  28.641  29.742  1.00  0.00    -0.248 NA
ATOM     16  C   UNL A   1      39.121  28.658  27.820  1.00  0.00     0.031 C 
ATOM     17  C   UNL A   1      37.558  31.529  31.616  1.00  0.00     0.029 A 
ATOM     18  N   UNL A   1      39.486  30.437  31.925  1.00  0.00    -0.354 N 
ATOM     19  C   UNL A   1      41.005  27.804  28.787  1.00  0.00     0.074 A 
ATOM     20  C   UNL A   1      40.142  27.837  27.628  1.00  0.00     0.031 C 
ATOM     21  C   UNL A   1      38.008  31.847  32.839  1.00  0.00     0.029 A 
ATOM     22  C   UNL A   1      39.235  31.101  33.102  1.00  0.00     0.049 A 
ATOM     23  H   UNL A   1      40.300  29.905  31.766  1.00  0.00     0.167 HD
ATOM     24  C   UNL A   1      42.137  27.070  28.878  1.00  0.00     0.034 A 
ATOM     25  C   UNL A   1      39.903  31.071  34.272  1.00  0.00     0.034 A 
ATOM     26  C   UNL A   1      42.981  27.062  30.039  1.00  0.00     0.049 A 
ATOM     27  C   UNL A   1      41.154  30.238  34.356  1.00  0.00     0.074 A 
ATOM     28  C   UNL A   1      44.151  26.359  30.252  1.00  0.00     0.029 A 
ATOM     29  N   UNL A   1      42.729  27.790  31.195  1.00  0.00    -0.354 N 
ATOM     30  N   UNL A   1      41.714  29.502  33.424  1.00  0.00    -0.248 NA
ATOM     31  C   UNL A   1      41.879  30.244  35.633  1.00  0.00     0.031 C 
ATOM     32  C   UNL A   1      44.599  26.650  31.545  1.00  0.00     0.029 A 
ATOM     33  C   UNL A   1      43.717  27.549  32.130  1.00  0.00     0.049 A 
ATOM     34  H   UNL A   1      41.961  28.390  31.328  1.00  0.00     0.167 HD
ATOM     35  C   UNL A   1      42.866  28.973  33.991  1.00  0.00     0.074 A 
ATOM     36  C   UNL A   1      42.933  29.489  35.346  1.00  0.00     0.031 C 
ATOM     37  C   UNL A   1      43.777  28.126  33.451  1.00  0.00     0.034 A 
BRANCH  24  38
ATOM     38  C   UNL A   1      42.494  26.220  27.691  1.00  0.00     0.023 A 
ATOM     39  C   UNL A   1      43.139  26.800  26.581  1.00  0.00     0.012 A 
ATOM     40  C   UNL A   1      42.156  24.854  27.659  1.00  0.00     0.148 A 
ATOM     41  C   UNL A   1      43.405  26.044  25.439  1.00  0.00     0.002 A 
ATOM     42  C   UNL A   1      42.456  24.098  26.532  1.00  0.00     0.091 A 
ATOM     43  F   UNL A   1      41.509  24.328  28.709  1.00  0.00    -0.205 F 
ATOM     44  C   UNL A   1      43.069  24.692  25.417  1.00  0.00     0.022 A 
BRANCH  42  45
ATOM     45  S   UNL A   1      42.097  22.341  26.442  1.00  0.00     0.127 S 
ATOM     46  O   UNL A   1      42.535  21.881  27.759  1.00  0.00    -0.237 OA
ATOM     47  O   UNL A   1      40.646  22.325  26.244  1.00  0.00    -0.237 OA
ATOM     48  O   UNL A   1      42.861  21.842  25.308  1.00  0.00    -0.744 OA
ENDBRANCH  42  45
ENDBRANCH  24  38
BRANCH  25  49
ATOM     49  C   UNL A   1      39.396  31.867  35.426  1.00  0.00     0.023 A 
ATOM     50  C   UNL A   1      38.580  31.252  36.393  1.00  0.00     0.012 A 
ATOM     51  C   UNL A   1      39.797  33.206  35.617  1.00  0.00     0.148 A 
ATOM     52  C   UNL A   1      38.165  31.957  37.525  1.00  0.00     0.002 A 
ATOM     53  C   UNL A   1      39.426  33.884  36.773  1.00  0.00     0.091 A 
ATOM     54  F   UNL A   1      40.559  33.780  34.677  1.00  0.00    -0.205 F 
ATOM     55  C   UNL A   1      38.600  33.265  37.723  1.00  0.00     0.022 A 
BRANCH  53  56
ATOM     56  S   UNL A   1      40.060  35.517  37.177  1.00  0.00     0.127 S 
ATOM     57  O   UNL A   1      39.365  35.806  38.428  1.00  0.00    -0.237 OA
ATOM     58  O   UNL A   1      41.494  35.260  37.312  1.00  0.00    -0.237 OA
ATOM     59  O   UNL A   1      39.709  36.365  36.046  1.00  0.00    -0.744 OA
ENDBRANCH  53  56
ENDBRANCH  25  49
BRANCH  37  60
ATOM     60  C   UNL A   1      44.941  27.714  34.308  1.00  0.00     0.023 A 
ATOM     61  C   UNL A   1      46.090  28.525  34.352  1.00  0.00     0.012 A 
ATOM     62  C   UNL A   1      44.833  26.606  35.171  1.00  0.00     0.148 A 
ATOM     63  C   UNL A   1      47.122  28.235  35.241  1.00  0.00     0.002 A 
ATOM     64  C   UNL A   1      45.846  26.349  36.084  1.00  0.00     0.091 A 
ATOM     65  F   UNL A   1      43.735  25.840  35.094  1.00  0.00    -0.205 F 
ATOM     66  C   UNL A   1      46.994  27.158  36.117  1.00  0.00     0.022 A 
BRANCH  64  67
ATOM     67  S   UNL A   1      45.721  25.049  37.318  1.00  0.00     0.127 S 
ATOM     68  O   UNL A   1      45.695  23.849  36.484  1.00  0.00    -0.237 OA
ATOM     69  O   UNL A   1      46.951  25.232  38.088  1.00  0.00    -0.237 OA
ATOM     70  O   UNL A   1      44.498  25.319  38.062  1.00  0.00    -0.744 OA
ENDBRANCH  64  67
ENDBRANCH  37  60
ENDBRANCH  11  12
ENDBRANCH   4   6
ENDBRANCH   3   4
ENDBRANCH   2   3
ENDBRANCH   1   2
BRANCH   1  71
ATOM     71  O   UNL A   1      31.331  28.748  23.805  1.00  0.00    -0.374 OA
BRANCH  71  72
ATOM     72  C   UNL A   1      30.318  27.956  23.173  1.00  0.00     0.202 C 
BRANCH  72  73
ATOM     73  C   UNL A   1      30.957  27.147  22.038  1.00  0.00     0.261 C 
BRANCH  73  74
ATOM     74  O   UNL A   1      32.386  27.243  22.166  1.00  0.00    -0.457 OA
BRANCH  74  75
ATOM     75  C   UNL A   1      33.056  26.074  21.932  1.00  0.00     0.374 C 
ATOM     76  O   UNL A   1      33.285  25.602  20.825  1.00  0.00    -0.242 OA
BRANCH  75  77
ATOM     77  C   UNL A   1      33.552  25.582  23.195  1.00  0.00     0.212 A 
ATOM     78  C   UNL A   1      33.650  26.177  24.441  1.00  0.00     0.059 A 
ATOM     79  O   UNL A   1      34.147  24.346  23.234  1.00  0.00    -0.449 OA
ATOM     80  C   UNL A   1      34.360  25.280  25.269  1.00  0.00     0.052 A 
ATOM     81  C   UNL A   1      34.660  24.187  24.484  1.00  0.00     0.135 A 
BRANCH  81  82
ATOM     82  C   UNL A   1      35.369  22.944  24.744  1.00  0.00     0.025 A 
ATOM     83  C   UNL A   1      36.757  23.031  24.907  1.00  0.00     0.014 A 
ATOM     84  C   UNL A   1      34.717  21.678  24.747  1.00  0.00    -0.006 A 
ATOM     85  C   UNL A   1      37.524  21.879  25.018  1.00  0.00     0.022 A 
ATOM     86  C   UNL A   1      35.503  20.496  24.847  1.00  0.00     0.001 A 
ATOM     87  C   UNL A   1      33.308  21.538  24.657  1.00  0.00     0.009 A 
ATOM     88  C   UNL A   1      36.909  20.627  24.970  1.00  0.00     0.048 A 
ATOM     89  C   UNL A   1      34.844  19.243  24.817  1.00  0.00     0.010 A 
ATOM     90  C   UNL A   1      32.686  20.288  24.649  1.00  0.00     0.001 A 
ATOM     91  Cl  UNL A   1      37.961  19.249  25.056  1.00  0.00    -0.084 Cl
ATOM     92  C   UNL A   1      33.456  19.139  24.720  1.00  0.00     0.001 A 
ENDBRANCH  81  82
ENDBRANCH  75  77
ENDBRANCH  74  75
ENDBRANCH  73  74
ENDBRANCH  72  73
ENDBRANCH  71  72
ENDBRANCH   1  71
TORSDOF 18
ENDMDL
MODEL 2
REMARK VINA RESULT:     -11.5      5.225      8.472
REMARK SMILES O=C(OCCOCCOC(=O)c1ccc(-c2ccc(Cl)c3ccccc23)o1)c1ccc(-c2c3nc(c(-c4cccc(S(=O)(=O)[O-])c4F)c4ccc([nH]4)c(-c4cccc(S(=O)(=O)[O-])c4F)c4nc(c(-c5cccc(S(=O)(=O)[O-])c5F)c5ccc2[nH]5)C=C4)C=C3)cc1
REMARK SMILES IDX 5 1 4 2 3 3 2 4 1 5 28 6 29 7 90 8 30 9 89 10 31 11 32 12
REMARK SMILES IDX 33 13 83 14 34 15 88 16 82 17 84 18 35 19 87 20 81 21 80 22
REMARK SMILES IDX 36 24 68 25 48 26 67 27 49 28 52 29 66 30 85 31 50 32 51 33
REMARK SMILES IDX 65 35 86 36 53 37 37 38 38 39 46 40 39 41 41 42 47 43 40 44
REMARK SMILES IDX 42 45 43 46 44 47 45 48 69 49 70 50 78 51 71 52 73 53 79 54
REMARK SMILES IDX 72 55 74 56 75 57 76 58 77 59 54 60 55 61 63 62 56 63 58 64
REMARK SMILES IDX 64 65 57 66 59 67 60 68 61 69 62 70 6 71 7 72 8 73 9 74
REMARK SMILES IDX 10 75 11 76 12 77 13 78 27 79 14 80 15 81 16 82 17 83 26 84
REMARK SMILES IDX 18 85 21 86 25 87 19 88 22 89 24 90 20 91 23 92
REMARK H PARENT 84 23 52 34
REMARK Flexibility Score: inf
ROOT
ATOM      1  C   UNL A   1      37.844  19.850  24.979  1.00  0.00     0.202 C 
ENDROOT
BRANCH   1   2
ATOM      2  C   UNL A   1      39.307  19.519  25.281  1.00  0.00     0.261 C 
BRANCH   2   3
ATOM      3  O   UNL A   1      39.606  19.861  26.646  1.00  0.00    -0.460 OA
BRANCH   3   4
ATOM      4  C   UNL A   1      40.746  20.361  27.171  1.00  0.00     0.338 C 
ATOM      5  O   UNL A   1      41.601  19.564  27.557  1.00  0.00    -0.246 OA
BRANCH   4   6
ATOM      6  C   UNL A   1      41.038  21.823  27.304  1.00  0.00     0.060 A 
ATOM      7  C   UNL A   1      40.487  22.835  26.512  1.00  0.00     0.016 A 
ATOM      8  C   UNL A   1      41.860  22.203  28.379  1.00  0.00     0.016 A 
ATOM      9  C   UNL A   1      40.789  24.176  26.729  1.00  0.00     0.010 A 
ATOM     10  C   UNL A   1      42.139  23.550  28.628  1.00  0.00     0.010 A 
ATOM     11  C   UNL A   1      41.618  24.538  27.786  1.00  0.00    -0.014 A 
BRANCH  11  12
ATOM     12  C   UNL A   1      41.995  25.951  27.955  1.00  0.00     0.031 A 
ATOM     13  C   UNL A   1      43.355  26.387  27.510  1.00  0.00     0.074 A 
ATOM     14  C   UNL A   1      41.115  26.817  28.485  1.00  0.00     0.049 A 
ATOM     15  N   UNL A   1      43.930  27.549  27.637  1.00  0.00    -0.248 NA
ATOM     16  C   UNL A   1      44.176  25.372  26.827  1.00  0.00     0.031 C 
ATOM     17  C   UNL A   1      39.753  26.480  28.902  1.00  0.00     0.029 A 
ATOM     18  N   UNL A   1      41.241  28.147  28.785  1.00  0.00    -0.354 N 
ATOM     19  C   UNL A   1      45.199  27.396  27.096  1.00  0.00     0.074 A 
ATOM     20  C   UNL A   1      45.306  26.033  26.626  1.00  0.00     0.031 C 
ATOM     21  C   UNL A   1      39.177  27.569  29.434  1.00  0.00     0.029 A 
ATOM     22  C   UNL A   1      40.144  28.664  29.434  1.00  0.00     0.049 A 
ATOM     23  H   UNL A   1      42.037  28.680  28.559  1.00  0.00     0.167 HD
ATOM     24  C   UNL A   1      46.186  28.316  27.008  1.00  0.00     0.034 A 
ATOM     25  C   UNL A   1      39.964  29.873  29.999  1.00  0.00     0.034 A 
ATOM     26  C   UNL A   1      46.051  29.666  27.476  1.00  0.00     0.049 A 
ATOM     27  C   UNL A   1      41.080  30.878  29.901  1.00  0.00     0.074 A 
ATOM     28  C   UNL A   1      46.979  30.689  27.443  1.00  0.00     0.029 A 
ATOM     29  N   UNL A   1      44.907  30.175  28.077  1.00  0.00    -0.354 N 
ATOM     30  N   UNL A   1      42.253  30.748  29.326  1.00  0.00    -0.248 NA
ATOM     31  C   UNL A   1      40.848  32.198  30.501  1.00  0.00     0.031 C 
ATOM     32  C   UNL A   1      46.401  31.814  28.041  1.00  0.00     0.029 A 
ATOM     33  C   UNL A   1      45.106  31.497  28.429  1.00  0.00     0.049 A 
ATOM     34  H   UNL A   1      44.076  29.670  28.228  1.00  0.00     0.167 HD
ATOM     35  C   UNL A   1      42.893  31.972  29.476  1.00  0.00     0.074 A 
ATOM     36  C   UNL A   1      41.968  32.837  30.182  1.00  0.00     0.031 C 
ATOM     37  C   UNL A   1      44.137  32.342  29.083  1.00  0.00     0.034 A 
BRANCH  24  38
ATOM     38  C   UNL A   1      47.483  27.866  26.397  1.00  0.00     0.023 A 
ATOM     39  C   UNL A   1      48.583  27.566  27.225  1.00  0.00     0.012 A 
ATOM     40  C   UNL A   1      47.626  27.777  24.999  1.00  0.00     0.148 A 
ATOM     41  C   UNL A   1      49.817  27.224  26.672  1.00  0.00     0.002 A 
ATOM     42  C   UNL A   1      48.849  27.402  24.455  1.00  0.00     0.091 A 
ATOM     43  F   UNL A   1      46.580  28.103  24.225  1.00  0.00    -0.205 F 
ATOM     44  C   UNL A   1      49.948  27.137  25.287  1.00  0.00     0.022 A 
BRANCH  42  45
ATOM     45  S   UNL A   1      49.087  27.222  22.684  1.00  0.00     0.127 S 
ATOM     46  O   UNL A   1      50.542  27.105  22.591  1.00  0.00    -0.237 OA
ATOM     47  O   UNL A   1      48.359  25.987  22.393  1.00  0.00    -0.237 OA
ATOM     48  O   UNL A   1      48.506  28.415  22.087  1.00  0.00    -0.744 OA
ENDBRANCH  42  45
ENDBRANCH  24  38
BRANCH  25  49
ATOM     49  C   UNL A   1      38.675  30.178  30.683  1.00  0.00     0.023 A 
ATOM     50  C   UNL A   1      38.506  29.839  32.038  1.00  0.00     0.012 A 
ATOM     51  C   UNL A   1      37.650  30.886  30.020  1.00  0.00     0.148 A 
ATOM     52  C   UNL A   1      37.339  30.192  32.719  1.00  0.00     0.002 A 
ATOM     53  C   UNL A   1      36.516  31.282  30.719  1.00  0.00     0.091 A 
ATOM     54  F   UNL A   1      37.822  31.184  28.725  1.00  0.00    -0.205 F 
ATOM     55  C   UNL A   1      36.352  30.926  32.065  1.00  0.00     0.022 A 
BRANCH  53  56
ATOM     56  S   UNL A   1      35.265  32.353  29.996  1.00  0.00     0.127 S 
ATOM     57  O   UNL A   1      34.340  32.527  31.112  1.00  0.00    -0.237 OA
ATOM     58  O   UNL A   1      36.046  33.541  29.650  1.00  0.00    -0.237 OA
ATOM     59  O   UNL A   1      34.742  31.626  28.846  1.00  0.00    -0.744 OA
ENDBRANCH  53  56
ENDBRANCH  25  49
BRANCH  37  60
ATOM     60  C   UNL A   1      44.573  33.749  29.381  1.00  0.00     0.023 A 
ATOM     61  C   UNL A   1      45.195  34.036  30.610  1.00  0.00     0.012 A 
ATOM     62  C   UNL A   1      44.493  34.745  28.387  1.00  0.00     0.148 A 
ATOM     63  C   UNL A   1      45.729  35.301  30.850  1.00  0.00     0.002 A 
ATOM     64  C   UNL A   1      45.066  35.989  28.618  1.00  0.00     0.091 A 
ATOM     65  F   UNL A   1      43.879  34.449  27.233  1.00  0.00    -0.205 F 
ATOM     66  C   UNL A   1      45.679  36.270  29.851  1.00  0.00     0.022 A 
BRANCH  64  67
ATOM     67  S   UNL A   1      45.140  37.262  27.353  1.00  0.00     0.127 S 
ATOM     68  O   UNL A   1      45.968  36.619  26.333  1.00  0.00    -0.237 OA
ATOM     69  O   UNL A   1      43.732  37.418  26.988  1.00  0.00    -0.237 OA
ATOM     70  O   UNL A   1      45.732  38.429  27.992  1.00  0.00    -0.744 OA
ENDBRANCH  64  67
ENDBRANCH  37  60
ENDBRANCH  11  12
ENDBRANCH   4   6
ENDBRANCH   3   4
ENDBRANCH   2   3
ENDBRANCH   1   2
BRANCH   1  71
ATOM     71  O   UNL A   1      37.447  21.151  25.410  1.00  0.00    -0.374 OA
BRANCH  71  72
ATOM     72  C   UNL A   1      36.563  21.863  24.535  1.00  0.00     0.202 C 
BRANCH  72  73
ATOM     73  C   UNL A   1      35.115  21.546  24.928  1.00  0.00     0.261 C 
BRANCH  73  74
ATOM     74  O   UNL A   1      34.250  22.030  23.886  1.00  0.00    -0.457 OA
BRANCH  74  75
ATOM     75  C   UNL A   1      32.958  21.590  23.972  1.00  0.00     0.374 C 
ATOM     76  O   UNL A   1      32.546  20.524  23.534  1.00  0.00    -0.242 OA
BRANCH  75  77
ATOM     77  C   UNL A   1      32.217  22.534  24.774  1.00  0.00     0.212 A 
ATOM     78  C   UNL A   1      31.505  22.382  25.952  1.00  0.00     0.059 A 
ATOM     79  O   UNL A   1      32.049  23.813  24.305  1.00  0.00    -0.449 OA
ATOM     80  C   UNL A   1      30.852  23.610  26.197  1.00  0.00     0.052 A 
ATOM     81  C   UNL A   1      31.197  24.444  25.156  1.00  0.00     0.135 A 
BRANCH  81  82
ATOM     82  C   UNL A   1      30.853  25.819  24.832  1.00  0.00     0.025 A 
ATOM     83  C   UNL A   1      29.762  26.012  23.974  1.00  0.00     0.014 A 
ATOM     84  C   UNL A   1      31.627  26.927  25.278  1.00  0.00    -0.006 A 
ATOM     85  C   UNL A   1      29.455  27.281  23.503  1.00  0.00     0.022 A 
ATOM     86  C   UNL A   1      31.323  28.227  24.786  1.00  0.00     0.001 A 
ATOM     87  C   UNL A   1      32.697  26.797  26.200  1.00  0.00     0.009 A 
ATOM     88  C   UNL A   1      30.235  28.373  23.888  1.00  0.00     0.048 A 
ATOM     89  C   UNL A   1      32.121  29.316  25.213  1.00  0.00     0.010 A 
ATOM     90  C   UNL A   1      33.454  27.893  26.619  1.00  0.00     0.001 A 
ATOM     91  Cl  UNL A   1      29.806  29.906  23.198  1.00  0.00    -0.084 Cl
ATOM     92  C   UNL A   1      33.171  29.152  26.117  1.00  0.00     0.001 A 
ENDBRANCH  81  82
ENDBRANCH  75  77
ENDBRANCH  74  75
ENDBRANCH  73  74
ENDBRANCH  72  73
ENDBRANCH  71  72
ENDBRANCH   1  71
TORSDOF 18
ENDMDL
MODEL 3
REMARK VINA RESULT:     -11.5      2.068      7.926
REMARK SMILES O=C(OCCOCCOC(=O)c1ccc(-c2ccc(Cl)c3ccccc23)o1)c1ccc(-c2c3nc(c(-c4cccc(S(=O)(=O)[O-])c4F)c4ccc([nH]4)c(-c4cccc(S(=O)(=O)[O-])c4F)c4nc(c(-c5cccc(S(=O)(=O)[O-])c5F)c5ccc2[nH]5)C=C4)C=C3)cc1
REMARK SMILES IDX 5 1 4 2 3 3 2 4 1 5 28 6 29 7 90 8 30 9 89 10 31 11 32 12
REMARK SMILES IDX 33 13 83 14 34 15 88 16 82 17 84 18 35 19 87 20 81 21 80 22
REMARK SMILES IDX 36 24 68 25 48 26 67 27 49 28 52 29 66 30 85 31 50 32 51 33
REMARK SMILES IDX 65 35 86 36 53 37 37 38 38 39 46 40 39 41 41 42 47 43 40 44
REMARK SMILES IDX 42 45 43 46 44 47 45 48 69 49 70 50 78 51 71 52 73 53 79 54
REMARK SMILES IDX 72 55 74 56 75 57 76 58 77 59 54 60 55 61 63 62 56 63 58 64
REMARK SMILES IDX 64 65 57 66 59 67 60 68 61 69 62 70 6 71 7 72 8 73 9 74
REMARK SMILES IDX 10 75 11 76 12 77 13 78 27 79 14 80 15 81 16 82 17 83 26 84
REMARK SMILES IDX 18 85 21 86 25 87 19 88 22 89 24 90 20 91 23 92
REMARK H PARENT 84 23 52 34
REMARK Flexibility Score: inf
ROOT
ATOM      1  C   UNL A   1      31.820  29.395  25.422  1.00  0.00     0.202 C 
ENDROOT
BRANCH   1   2
ATOM      2  C   UNL A   1      32.275  30.411  26.472  1.00  0.00     0.261 C 
BRANCH   2   3
ATOM      3  O   UNL A   1      33.573  30.040  26.969  1.00  0.00    -0.460 OA
BRANCH   3   4
ATOM      4  C   UNL A   1      34.469  30.783  27.657  1.00  0.00     0.338 C 
ATOM      5  O   UNL A   1      34.151  31.932  27.962  1.00  0.00    -0.246 OA
BRANCH   4   6
ATOM      6  C   UNL A   1      35.818  30.291  28.079  1.00  0.00     0.060 A 
ATOM      7  C   UNL A   1      37.002  30.445  27.352  1.00  0.00     0.016 A 
ATOM      8  C   UNL A   1      35.902  29.713  29.357  1.00  0.00     0.016 A 
ATOM      9  C   UNL A   1      38.221  29.984  27.838  1.00  0.00     0.010 A 
ATOM     10  C   UNL A   1      37.128  29.281  29.870  1.00  0.00     0.010 A 
ATOM     11  C   UNL A   1      38.289  29.398  29.097  1.00  0.00    -0.014 A 
BRANCH  11  12
ATOM     12  C   UNL A   1      39.569  28.842  29.566  1.00  0.00     0.031 A 
ATOM     13  C   UNL A   1      40.278  29.531  30.689  1.00  0.00     0.074 A 
ATOM     14  C   UNL A   1      40.063  27.731  28.996  1.00  0.00     0.049 A 
ATOM     15  N   UNL A   1      41.447  29.274  31.206  1.00  0.00    -0.248 NA
ATOM     16  C   UNL A   1      39.571  30.662  31.315  1.00  0.00     0.031 C 
ATOM     17  C   UNL A   1      39.409  26.975  27.927  1.00  0.00     0.029 A 
ATOM     18  N   UNL A   1      41.235  27.059  29.217  1.00  0.00    -0.354 N 
ATOM     19  C   UNL A   1      41.640  30.240  32.183  1.00  0.00     0.074 A 
ATOM     20  C   UNL A   1      40.463  31.079  32.200  1.00  0.00     0.031 C 
ATOM     21  C   UNL A   1      40.205  25.958  27.562  1.00  0.00     0.029 A 
ATOM     22  C   UNL A   1      41.439  26.019  28.340  1.00  0.00     0.049 A 
ATOM     23  H   UNL A   1      41.869  27.296  29.932  1.00  0.00     0.167 HD
ATOM     24  C   UNL A   1      42.712  30.409  32.991  1.00  0.00     0.034 A 
ATOM     25  C   UNL A   1      42.521  25.237  28.163  1.00  0.00     0.034 A 
ATOM     26  C   UNL A   1      43.866  29.556  32.959  1.00  0.00     0.049 A 
ATOM     27  C   UNL A   1      43.708  25.450  29.064  1.00  0.00     0.074 A 
ATOM     28  C   UNL A   1      45.013  29.626  33.725  1.00  0.00     0.029 A 
ATOM     29  N   UNL A   1      44.018  28.476  32.099  1.00  0.00    -0.354 N 
ATOM     30  N   UNL A   1      43.857  26.322  30.033  1.00  0.00    -0.248 NA
ATOM     31  C   UNL A   1      44.864  24.565  28.868  1.00  0.00     0.031 C 
ATOM     32  C   UNL A   1      45.868  28.597  33.314  1.00  0.00     0.029 A 
ATOM     33  C   UNL A   1      45.244  27.875  32.307  1.00  0.00     0.049 A 
ATOM     34  H   UNL A   1      43.350  28.182  31.439  1.00  0.00     0.167 HD
ATOM     35  C   UNL A   1      45.111  26.081  30.579  1.00  0.00     0.074 A 
ATOM     36  C   UNL A   1      45.676  24.968  29.841  1.00  0.00     0.031 C 
ATOM     37  C   UNL A   1      45.747  26.731  31.586  1.00  0.00     0.034 A 
BRANCH  24  38
ATOM     38  C   UNL A   1      42.667  31.567  33.947  1.00  0.00     0.023 A 
ATOM     39  C   UNL A   1      43.306  32.778  33.613  1.00  0.00     0.012 A 
ATOM     40  C   UNL A   1      42.027  31.444  35.195  1.00  0.00     0.148 A 
ATOM     41  C   UNL A   1      43.343  33.836  34.522  1.00  0.00     0.002 A 
ATOM     42  C   UNL A   1      42.038  32.514  36.082  1.00  0.00     0.091 A 
ATOM     43  F   UNL A   1      41.458  30.272  35.511  1.00  0.00    -0.205 F 
ATOM     44  C   UNL A   1      42.705  33.705  35.754  1.00  0.00     0.022 A 
BRANCH  42  45
ATOM     45  S   UNL A   1      41.201  32.442  37.669  1.00  0.00     0.127 S 
ATOM     46  O   UNL A   1      39.928  31.822  37.305  1.00  0.00    -0.237 OA
ATOM     47  O   UNL A   1      42.091  31.587  38.457  1.00  0.00    -0.237 OA
ATOM     48  O   UNL A   1      41.126  33.819  38.135  1.00  0.00    -0.744 OA
ENDBRANCH  42  45
ENDBRANCH  24  38
BRANCH  25  49
ATOM     49  C   UNL A   1      42.502  24.188  27.104  1.00  0.00     0.023 A 
ATOM     50  C   UNL A   1      43.157  24.419  25.880  1.00  0.00     0.012 A 
ATOM     51  C   UNL A   1      41.916  22.927  27.341  1.00  0.00     0.148 A 
ATOM     52  C   UNL A   1      43.222  23.418  24.909  1.00  0.00     0.002 A 
ATOM     53  C   UNL A   1      42.033  21.917  26.393  1.00  0.00     0.091 A 
ATOM     54  F   UNL A   1      41.281  22.731  28.505  1.00  0.00    -0.205 F 
ATOM     55  C   UNL A   1      42.675  22.164  25.171  1.00  0.00     0.022 A 
BRANCH  53  56
ATOM     56  S   UNL A   1      41.487  20.233  26.707  1.00  0.00     0.127 S 
ATOM     57  O   UNL A   1      42.241  19.894  27.911  1.00  0.00    -0.237 OA
ATOM     58  O   UNL A   1      40.049  20.413  26.909  1.00  0.00    -0.237 OA
ATOM     59  O   UNL A   1      41.832  19.478  25.510  1.00  0.00    -0.744 OA
ENDBRANCH  53  56
ENDBRANCH  25  49
BRANCH  37  60
ATOM     60  C   UNL A   1      47.117  26.248  31.972  1.00  0.00     0.023 A 
ATOM     61  C   UNL A   1      48.251  26.842  31.390  1.00  0.00     0.012 A 
ATOM     62  C   UNL A   1      47.274  25.310  33.012  1.00  0.00     0.148 A 
ATOM     63  C   UNL A   1      49.529  26.506  31.834  1.00  0.00     0.002 A 
ATOM     64  C   UNL A   1      48.548  25.013  33.478  1.00  0.00     0.091 A 
ATOM     65  F   UNL A   1      46.177  24.746  33.535  1.00  0.00    -0.205 F 
ATOM     66  C   UNL A   1      49.676  25.605  32.887  1.00  0.00     0.022 A 
BRANCH  64  67
ATOM     67  S   UNL A   1      48.827  23.944  34.895  1.00  0.00     0.127 S 
ATOM     68  O   UNL A   1      50.276  24.043  35.060  1.00  0.00    -0.237 OA
ATOM     69  O   UNL A   1      48.046  24.606  35.941  1.00  0.00    -0.237 OA
ATOM     70  O   UNL A   1      48.330  22.630  34.511  1.00  0.00    -0.744 OA
ENDBRANCH  64  67
ENDBRANCH  37  60
ENDBRANCH  11  12
ENDBRANCH   4   6
ENDBRANCH   3   4
ENDBRANCH   2   3
ENDBRANCH   1   2
BRANCH   1  71
ATOM     71  O   UNL A   1      30.732  29.846  24.617  1.00  0.00    -0.374 OA
BRANCH  71  72
ATOM     72  C   UNL A   1      30.526  29.145  23.384  1.00  0.00     0.202 C 
BRANCH  72  73
ATOM     73  C   UNL A   1      31.889  28.806  22.772  1.00  0.00     0.261 C 
BRANCH  73  74
ATOM     74  O   UNL A   1      31.964  27.380  22.602  1.00  0.00    -0.457 OA
BRANCH  74  75
ATOM     75  C   UNL A   1      33.233  26.892  22.457  1.00  0.00     0.374 C 
ATOM     76  O   UNL A   1      33.974  27.124  21.510  1.00  0.00    -0.242 OA
BRANCH  75  77
ATOM     77  C   UNL A   1      33.579  26.180  23.664  1.00  0.00     0.212 A 
ATOM     78  C   UNL A   1      33.522  26.545  24.998  1.00  0.00     0.059 A 
ATOM     79  O   UNL A   1      34.178  24.949  23.556  1.00  0.00    -0.449 OA
ATOM     80  C   UNL A   1      34.137  25.509  25.734  1.00  0.00     0.052 A 
ATOM     81  C   UNL A   1      34.539  24.568  24.811  1.00  0.00     0.135 A 
BRANCH  81  82
ATOM     82  C   UNL A   1      35.223  23.290  24.931  1.00  0.00     0.025 A 
ATOM     83  C   UNL A   1      36.624  23.324  24.961  1.00  0.00     0.014 A 
ATOM     84  C   UNL A   1      34.529  22.047  24.929  1.00  0.00    -0.006 A 
ATOM     85  C   UNL A   1      37.355  22.144  24.932  1.00  0.00     0.022 A 
ATOM     86  C   UNL A   1      35.277  20.837  24.885  1.00  0.00     0.001 A 
ATOM     87  C   UNL A   1      33.114  21.956  24.970  1.00  0.00     0.009 A 
ATOM     88  C   UNL A   1      36.692  20.917  24.876  1.00  0.00     0.048 A 
ATOM     89  C   UNL A   1      34.573  19.609  24.851  1.00  0.00     0.010 A 
ATOM     90  C   UNL A   1      32.448  20.729  24.955  1.00  0.00     0.001 A 
ATOM     91  Cl  UNL A   1      37.697  19.504  24.783  1.00  0.00    -0.084 Cl
ATOM     92  C   UNL A   1      33.179  19.554  24.886  1.00  0.00     0.001 A 
ENDBRANCH  81  82
ENDBRANCH  75  77
ENDBRANCH  74  75
ENDBRANCH  73  74
ENDBRANCH  72  73
ENDBRANCH  71  72
ENDBRANCH   1  71
TORSDOF 18
ENDMDL
