MODEL 1
REMARK VINA RESULT:     -11.9      0.000      0.000
REMARK SMILES Cc1cc(Br)cc2c1O[C@H](C(F)(F)F)C(C(=O)OCCOCCOC(=O)c1ccc(-c3c4nc(c(-c5cccc(S(=O)(=O)[O-])c5F)c5ccc([nH]5)c(-c5cccc(S(=O)(=O)[O-])c5F)c5nc(c(-c6cccc(S(=O)(=O)[O-])c6F)c6ccc3[nH]6)C=C5)C=C4)cc1)=C2
REMARK SMILES IDX 22 1 21 2 20 3 19 4 18 5 16 6 17 7 15 8 1 9 2 10 3 11 8 12
REMARK SMILES IDX 4 13 7 14 9 15 5 16 6 17 90 18 10 19 11 20 12 21 13 22 14 23
REMARK SMILES IDX 23 24 24 25 25 26 26 27 27 28 28 29 89 30 29 31 88 32 30 33
REMARK SMILES IDX 31 34 32 35 82 36 33 37 87 38 81 39 83 40 34 41 86 42 80 43
REMARK SMILES IDX 79 44 35 46 67 47 47 48 66 49 48 50 51 51 65 52 84 53 49 54
REMARK SMILES IDX 50 55 64 57 85 58 52 59 36 60 37 61 45 62 38 63 40 64 46 65
REMARK SMILES IDX 39 66 41 67 42 68 43 69 44 70 68 71 69 72 77 73 70 74 72 75
REMARK SMILES IDX 78 76 71 77 73 78 74 79 75 80 76 81 53 82 54 83 62 84 55 85
REMARK SMILES IDX 57 86 63 87 56 88 58 89 59 90 60 91 61 92
REMARK H PARENT 83 45 51 56
REMARK Flexibility Score: inf
ROOT
ATOM      1  C   UNL A   1      35.672  20.444  25.122  1.00  0.00     0.202 C 
ENDROOT
BRANCH   1   2
ATOM      2  O   UNL A   1      35.409  21.790  25.525  1.00  0.00    -0.374 OA
BRANCH   2   3
ATOM      3  C   UNL A   1      34.764  21.988  26.783  1.00  0.00     0.202 C 
BRANCH   3   4
ATOM      4  C   UNL A   1      33.262  21.698  26.843  1.00  0.00     0.261 C 
BRANCH   4   5
ATOM      5  O   UNL A   1      32.525  22.819  27.357  1.00  0.00    -0.460 OA
BRANCH   5   6
ATOM      6  C   UNL A   1      31.616  23.337  26.502  1.00  0.00     0.338 C 
ATOM      7  O   UNL A   1      30.461  22.966  26.343  1.00  0.00    -0.246 OA
BRANCH   6   8
ATOM      8  C   UNL A   1      32.165  24.543  25.853  1.00  0.00     0.087 C 
ATOM      9  C   UNL A   1      33.856  28.080  22.529  1.00  0.00     0.048 C 
ATOM     10  C   UNL A   1      33.250  28.078  23.906  1.00  0.00    -0.007 A 
ATOM     11  C   UNL A   1      32.869  29.304  24.475  1.00  0.00     0.023 A 
ATOM     12  C   UNL A   1      32.968  26.886  24.595  1.00  0.00     0.130 A 
ATOM     13  C   UNL A   1      32.245  29.339  25.720  1.00  0.00     0.019 A 
ATOM     14  C   UNL A   1      32.306  26.929  25.826  1.00  0.00     0.019 A 
ATOM     15  O   UNL A   1      33.371  25.716  24.014  1.00  0.00    -0.475 OA
ATOM     16  Br  UNL A   1      31.740  30.997  26.476  1.00  0.00    -0.051 Br
ATOM     17  C   UNL A   1      31.962  28.159  26.400  1.00  0.00     0.027 A 
ATOM     18  C   UNL A   1      31.904  25.697  26.477  1.00  0.00     0.027 C 
ATOM     19  C   UNL A   1      32.933  24.441  24.566  1.00  0.00     0.316 C 
BRANCH  19  20
ATOM     20  C   UNL A   1      32.163  23.691  23.469  1.00  0.00     0.430 C 
ATOM     21  F   UNL A   1      32.240  22.352  23.647  1.00  0.00    -0.167 F 
ATOM     22  F   UNL A   1      30.851  24.018  23.464  1.00  0.00    -0.167 F 
ATOM     23  F   UNL A   1      32.655  23.968  22.239  1.00  0.00    -0.167 F 
ENDBRANCH  19  20
ENDBRANCH   6   8
ENDBRANCH   5   6
ENDBRANCH   4   5
ENDBRANCH   3   4
ENDBRANCH   2   3
ENDBRANCH   1   2
BRANCH   1  24
ATOM     24  C   UNL A   1      37.135  20.052  24.885  1.00  0.00     0.261 C 
BRANCH  24  25
ATOM     25  O   UNL A   1      38.039  21.151  25.099  1.00  0.00    -0.460 OA
BRANCH  25  26
ATOM     26  C   UNL A   1      39.074  20.881  25.929  1.00  0.00     0.338 C 
ATOM     27  O   UNL A   1      39.641  19.805  26.074  1.00  0.00    -0.246 OA
BRANCH  26  28
ATOM     28  C   UNL A   1      39.581  22.127  26.529  1.00  0.00     0.060 A 
ATOM     29  C   UNL A   1      38.992  23.330  26.120  1.00  0.00     0.016 A 
ATOM     30  C   UNL A   1      40.667  22.126  27.405  1.00  0.00     0.016 A 
ATOM     31  C   UNL A   1      39.518  24.544  26.550  1.00  0.00     0.010 A 
ATOM     32  C   UNL A   1      41.202  23.348  27.826  1.00  0.00     0.010 A 
ATOM     33  C   UNL A   1      40.653  24.561  27.370  1.00  0.00    -0.014 A 
BRANCH  33  34
ATOM     34  C   UNL A   1      41.348  25.845  27.627  1.00  0.00     0.031 A 
ATOM     35  C   UNL A   1      40.628  26.922  28.392  1.00  0.00     0.074 A 
ATOM     36  C   UNL A   1      42.612  26.037  27.210  1.00  0.00     0.049 A 
ATOM     37  N   UNL A   1      41.047  28.113  28.733  1.00  0.00    -0.248 NA
ATOM     38  C   UNL A   1      39.258  26.616  28.835  1.00  0.00     0.031 C 
ATOM     39  C   UNL A   1      43.414  25.059  26.479  1.00  0.00     0.029 A 
ATOM     40  N   UNL A   1      43.435  27.127  27.334  1.00  0.00    -0.354 N 
ATOM     41  C   UNL A   1      39.991  28.702  29.417  1.00  0.00     0.074 A 
ATOM     42  C   UNL A   1      38.904  27.749  29.425  1.00  0.00     0.031 C 
ATOM     43  C   UNL A   1      44.614  25.601  26.204  1.00  0.00     0.029 A 
ATOM     44  C   UNL A   1      44.655  26.967  26.722  1.00  0.00     0.049 A 
ATOM     45  H   UNL A   1      43.178  27.947  27.815  1.00  0.00     0.167 HD
ATOM     46  C   UNL A   1      39.940  29.920  30.007  1.00  0.00     0.034 A 
ATOM     47  C   UNL A   1      45.683  27.830  26.584  1.00  0.00     0.034 A 
ATOM     48  C   UNL A   1      41.028  30.858  30.012  1.00  0.00     0.049 A 
ATOM     49  C   UNL A   1      45.582  29.199  27.207  1.00  0.00     0.074 A 
ATOM     50  C   UNL A   1      41.083  32.106  30.609  1.00  0.00     0.029 A 
ATOM     51  N   UNL A   1      42.251  30.659  29.388  1.00  0.00    -0.354 N 
ATOM     52  N   UNL A   1      44.618  29.703  27.940  1.00  0.00    -0.248 NA
ATOM     53  C   UNL A   1      46.721  30.108  27.010  1.00  0.00     0.031 C 
ATOM     54  C   UNL A   1      42.329  32.671  30.324  1.00  0.00     0.029 A 
ATOM     55  C   UNL A   1      43.061  31.766  29.573  1.00  0.00     0.049 A 
ATOM     56  H   UNL A   1      42.504  29.850  28.888  1.00  0.00     0.167 HD
ATOM     57  C   UNL A   1      45.044  30.974  28.313  1.00  0.00     0.074 A 
ATOM     58  C   UNL A   1      46.365  31.154  27.745  1.00  0.00     0.031 C 
ATOM     59  C   UNL A   1      44.393  31.914  29.044  1.00  0.00     0.034 A 
BRANCH  46  60
ATOM     60  C   UNL A   1      38.679  30.295  30.740  1.00  0.00     0.023 A 
ATOM     61  C   UNL A   1      38.552  29.971  32.106  1.00  0.00     0.012 A 
ATOM     62  C   UNL A   1      37.663  31.036  30.106  1.00  0.00     0.148 A 
ATOM     63  C   UNL A   1      37.424  30.361  32.826  1.00  0.00     0.002 A 
ATOM     64  C   UNL A   1      36.561  31.458  30.841  1.00  0.00     0.091 A 
ATOM     65  F   UNL A   1      37.793  31.314  28.802  1.00  0.00    -0.205 F 
ATOM     66  C   UNL A   1      36.436  31.114  32.197  1.00  0.00     0.022 A 
BRANCH  64  67
ATOM     67  S   UNL A   1      35.272  32.498  30.147  1.00  0.00     0.127 S 
ATOM     68  O   UNL A   1      36.032  33.684  29.750  1.00  0.00    -0.237 OA
ATOM     69  O   UNL A   1      34.786  31.685  29.034  1.00  0.00    -0.237 OA
ATOM     70  O   UNL A   1      34.305  32.710  31.216  1.00  0.00    -0.744 OA
ENDBRANCH  64  67
ENDBRANCH  46  60
BRANCH  47  71
ATOM     71  C   UNL A   1      46.919  27.400  25.871  1.00  0.00     0.023 A 
ATOM     72  C   UNL A   1      47.855  26.587  26.538  1.00  0.00     0.012 A 
ATOM     73  C   UNL A   1      47.151  27.751  24.526  1.00  0.00     0.148 A 
ATOM     74  C   UNL A   1      49.008  26.145  25.887  1.00  0.00     0.002 A 
ATOM     75  C   UNL A   1      48.272  27.262  23.865  1.00  0.00     0.091 A 
ATOM     76  F   UNL A   1      46.259  28.542  23.914  1.00  0.00    -0.205 F 
ATOM     77  C   UNL A   1      49.209  26.471  24.548  1.00  0.00     0.022 A 
BRANCH  75  78
ATOM     78  S   UNL A   1      48.547  27.516  22.109  1.00  0.00     0.127 S 
ATOM     79  O   UNL A   1      48.752  26.150  21.637  1.00  0.00    -0.237 OA
ATOM     80  O   UNL A   1      47.285  28.129  21.694  1.00  0.00    -0.237 OA
ATOM     81  O   UNL A   1      49.703  28.397  22.014  1.00  0.00    -0.744 OA
ENDBRANCH  75  78
ENDBRANCH  47  71
BRANCH  59  82
ATOM     82  C   UNL A   1      45.089  33.229  29.292  1.00  0.00     0.023 A 
ATOM     83  C   UNL A   1      45.901  33.378  30.432  1.00  0.00     0.012 A 
ATOM     84  C   UNL A   1      45.038  34.265  28.338  1.00  0.00     0.148 A 
ATOM     85  C   UNL A   1      46.636  34.546  30.632  1.00  0.00     0.002 A 
ATOM     86  C   UNL A   1      45.813  35.406  28.517  1.00  0.00     0.091 A 
ATOM     87  F   UNL A   1      44.248  34.109  27.265  1.00  0.00    -0.205 F 
ATOM     88  C   UNL A   1      46.604  35.552  29.669  1.00  0.00     0.022 A 
BRANCH  86  89
ATOM     89  S   UNL A   1      45.919  36.707  27.283  1.00  0.00     0.127 S 
ATOM     90  O   UNL A   1      46.371  35.966  26.107  1.00  0.00    -0.237 OA
ATOM     91  O   UNL A   1      44.537  37.181  27.211  1.00  0.00    -0.237 OA
ATOM     92  O   UNL A   1      46.867  37.682  27.807  1.00  0.00    -0.744 OA
ENDBRANCH  86  89
ENDBRANCH  59  82
ENDBRANCH  33  34
ENDBRANCH  26  28
ENDBRANCH  25  26
ENDBRANCH  24  25
ENDBRANCH   1  24
TORSDOF 18
ENDMDL
MODEL 2
REMARK VINA RESULT:     -11.7      4.487     10.196
REMARK SMILES Cc1cc(Br)cc2c1O[C@H](C(F)(F)F)C(C(=O)OCCOCCOC(=O)c1ccc(-c3c4nc(c(-c5cccc(S(=O)(=O)[O-])c5F)c5ccc([nH]5)c(-c5cccc(S(=O)(=O)[O-])c5F)c5nc(c(-c6cccc(S(=O)(=O)[O-])c6F)c6ccc3[nH]6)C=C5)C=C4)cc1)=C2
REMARK SMILES IDX 22 1 21 2 20 3 19 4 18 5 16 6 17 7 15 8 1 9 2 10 3 11 8 12
REMARK SMILES IDX 4 13 7 14 9 15 5 16 6 17 90 18 10 19 11 20 12 21 13 22 14 23
REMARK SMILES IDX 23 24 24 25 25 26 26 27 27 28 28 29 89 30 29 31 88 32 30 33
REMARK SMILES IDX 31 34 32 35 82 36 33 37 87 38 81 39 83 40 34 41 86 42 80 43
REMARK SMILES IDX 79 44 35 46 67 47 47 48 66 49 48 50 51 51 65 52 84 53 49 54
REMARK SMILES IDX 50 55 64 57 85 58 52 59 36 60 37 61 45 62 38 63 40 64 46 65
REMARK SMILES IDX 39 66 41 67 42 68 43 69 44 70 68 71 69 72 77 73 70 74 72 75
REMARK SMILES IDX 78 76 71 77 73 78 74 79 75 80 76 81 53 82 54 83 62 84 55 85
REMARK SMILES IDX 57 86 63 87 56 88 58 89 59 90 60 91 61 92
REMARK H PARENT 83 45 51 56
REMARK Flexibility Score: inf
ROOT
ATOM      1  C   UNL A   1      42.205  18.848  26.371  1.00  0.00     0.202 C 
ENDROOT
BRANCH   1   2
ATOM      2  O   UNL A   1      42.892  18.255  25.266  1.00  0.00    -0.374 OA
BRANCH   2   3
ATOM      3  C   UNL A   1      44.303  18.453  25.183  1.00  0.00     0.202 C 
BRANCH   3   4
ATOM      4  C   UNL A   1      44.848  19.779  25.721  1.00  0.00     0.261 C 
BRANCH   4   5
ATOM      5  O   UNL A   1      44.647  20.853  24.789  1.00  0.00    -0.460 OA
BRANCH   5   6
ATOM      6  C   UNL A   1      43.988  21.921  25.291  1.00  0.00     0.338 C 
ATOM      7  O   UNL A   1      42.823  22.230  25.083  1.00  0.00    -0.246 OA
BRANCH   6   8
ATOM      8  C   UNL A   1      44.839  22.624  26.269  1.00  0.00     0.087 C 
ATOM      9  C   UNL A   1      48.308  25.592  28.630  1.00  0.00     0.048 C 
ATOM     10  C   UNL A   1      46.961  25.012  28.964  1.00  0.00    -0.007 A 
ATOM     11  C   UNL A   1      46.318  25.435  30.139  1.00  0.00     0.023 A 
ATOM     12  C   UNL A   1      46.289  24.138  28.092  1.00  0.00     0.130 A 
ATOM     13  C   UNL A   1      45.041  24.971  30.450  1.00  0.00     0.019 A 
ATOM     14  C   UNL A   1      44.992  23.708  28.394  1.00  0.00     0.019 A 
ATOM     15  O   UNL A   1      46.957  23.736  26.970  1.00  0.00    -0.475 OA
ATOM     16  Br  UNL A   1      44.189  25.547  32.036  1.00  0.00    -0.051 Br
ATOM     17  C   UNL A   1      44.375  24.109  29.585  1.00  0.00     0.027 A 
ATOM     18  C   UNL A   1      44.252  22.908  27.438  1.00  0.00     0.027 C 
ATOM     19  C   UNL A   1      46.253  23.002  25.927  1.00  0.00     0.316 C 
BRANCH  19  20
ATOM     20  C   UNL A   1      46.355  23.813  24.627  1.00  0.00     0.430 C 
ATOM     21  F   UNL A   1      46.849  23.058  23.618  1.00  0.00    -0.167 F 
ATOM     22  F   UNL A   1      45.149  24.274  24.225  1.00  0.00    -0.167 F 
ATOM     23  F   UNL A   1      47.170  24.883  24.772  1.00  0.00    -0.167 F 
ENDBRANCH  19  20
ENDBRANCH   6   8
ENDBRANCH   5   6
ENDBRANCH   4   5
ENDBRANCH   3   4
ENDBRANCH   2   3
ENDBRANCH   1   2
BRANCH   1  24
ATOM     24  C   UNL A   1      40.834  19.474  26.096  1.00  0.00     0.261 C 
BRANCH  24  25
ATOM     25  O   UNL A   1      40.572  20.613  26.937  1.00  0.00    -0.460 OA
BRANCH  25  26
ATOM     26  C   UNL A   1      39.717  21.522  26.410  1.00  0.00     0.338 C 
ATOM     27  O   UNL A   1      38.727  21.293  25.726  1.00  0.00    -0.246 OA
BRANCH  26  28
ATOM     28  C   UNL A   1      40.023  22.865  26.931  1.00  0.00     0.060 A 
ATOM     29  C   UNL A   1      39.578  23.966  26.188  1.00  0.00     0.016 A 
ATOM     30  C   UNL A   1      40.804  23.045  28.074  1.00  0.00     0.016 A 
ATOM     31  C   UNL A   1      39.951  25.254  26.560  1.00  0.00     0.010 A 
ATOM     32  C   UNL A   1      41.189  24.339  28.438  1.00  0.00     0.010 A 
ATOM     33  C   UNL A   1      40.796  25.445  27.661  1.00  0.00    -0.014 A 
BRANCH  33  34
ATOM     34  C   UNL A   1      41.381  26.784  27.906  1.00  0.00     0.031 A 
ATOM     35  C   UNL A   1      42.721  27.114  27.308  1.00  0.00     0.074 A 
ATOM     36  C   UNL A   1      40.715  27.703  28.628  1.00  0.00     0.049 A 
ATOM     37  N   UNL A   1      43.412  28.221  27.389  1.00  0.00    -0.248 NA
ATOM     38  C   UNL A   1      43.367  26.059  26.509  1.00  0.00     0.031 C 
ATOM     39  C   UNL A   1      39.403  27.503  29.239  1.00  0.00     0.029 A 
ATOM     40  N   UNL A   1      41.060  28.984  28.976  1.00  0.00    -0.354 N 
ATOM     41  C   UNL A   1      44.576  27.994  26.666  1.00  0.00     0.074 A 
ATOM     42  C   UNL A   1      44.511  26.637  26.171  1.00  0.00     0.031 C 
ATOM     43  C   UNL A   1      39.058  28.620  29.902  1.00  0.00     0.029 A 
ATOM     44  C   UNL A   1      40.133  29.604  29.780  1.00  0.00     0.049 A 
ATOM     45  H   UNL A   1      41.892  29.419  28.680  1.00  0.00     0.167 HD
ATOM     46  C   UNL A   1      45.597  28.847  26.417  1.00  0.00     0.034 A 
ATOM     47  C   UNL A   1      40.155  30.821  30.360  1.00  0.00     0.034 A 
ATOM     48  C   UNL A   1      45.651  30.201  26.896  1.00  0.00     0.049 A 
ATOM     49  C   UNL A   1      41.328  31.734  30.108  1.00  0.00     0.074 A 
ATOM     50  C   UNL A   1      46.630  31.152  26.671  1.00  0.00     0.029 A 
ATOM     51  N   UNL A   1      44.691  30.796  27.701  1.00  0.00    -0.354 N 
ATOM     52  N   UNL A   1      42.372  31.543  29.338  1.00  0.00    -0.248 NA
ATOM     53  C   UNL A   1      41.313  33.042  30.782  1.00  0.00     0.031 C 
ATOM     54  C   UNL A   1      46.274  32.315  27.361  1.00  0.00     0.029 A 
ATOM     55  C   UNL A   1      45.062  32.097  27.994  1.00  0.00     0.049 A 
ATOM     56  H   UNL A   1      43.868  30.358  28.017  1.00  0.00     0.167 HD
ATOM     57  C   UNL A   1      43.122  32.713  29.411  1.00  0.00     0.074 A 
ATOM     58  C   UNL A   1      42.401  33.616  30.284  1.00  0.00     0.031 C 
ATOM     59  C   UNL A   1      44.310  33.004  28.824  1.00  0.00     0.034 A 
BRANCH  46  60
ATOM     60  C   UNL A   1      46.725  28.360  25.547  1.00  0.00     0.023 A 
ATOM     61  C   UNL A   1      46.504  28.179  24.166  1.00  0.00     0.012 A 
ATOM     62  C   UNL A   1      48.017  28.163  26.073  1.00  0.00     0.148 A 
ATOM     63  C   UNL A   1      47.546  27.790  23.326  1.00  0.00     0.002 A 
ATOM     64  C   UNL A   1      49.060  27.816  25.221  1.00  0.00     0.091 A 
ATOM     65  F   UNL A   1      48.200  28.318  27.391  1.00  0.00    -0.205 F 
ATOM     66  C   UNL A   1      48.824  27.621  23.851  1.00  0.00     0.022 A 
BRANCH  64  67
ATOM     67  S   UNL A   1      50.758  27.652  25.783  1.00  0.00     0.127 S 
ATOM     68  O   UNL A   1      50.931  28.879  26.561  1.00  0.00    -0.237 OA
ATOM     69  O   UNL A   1      50.701  26.428  26.581  1.00  0.00    -0.237 OA
ATOM     70  O   UNL A   1      51.574  27.558  24.581  1.00  0.00    -0.744 OA
ENDBRANCH  64  67
ENDBRANCH  46  60
BRANCH  47  71
ATOM     71  C   UNL A   1      39.001  31.265  31.192  1.00  0.00     0.023 A 
ATOM     72  C   UNL A   1      39.056  31.105  32.590  1.00  0.00     0.012 A 
ATOM     73  C   UNL A   1      37.874  31.883  30.616  1.00  0.00     0.148 A 
ATOM     74  C   UNL A   1      38.003  31.536  33.399  1.00  0.00     0.002 A 
ATOM     75  C   UNL A   1      36.853  32.362  31.431  1.00  0.00     0.091 A 
ATOM     76  F   UNL A   1      37.831  32.009  29.283  1.00  0.00    -0.205 F 
ATOM     77  C   UNL A   1      36.909  32.176  32.821  1.00  0.00     0.022 A 
BRANCH  75  78
ATOM     78  S   UNL A   1      35.473  33.316  30.791  1.00  0.00     0.127 S 
ATOM     79  O   UNL A   1      34.640  32.275  30.196  1.00  0.00    -0.237 OA
ATOM     80  O   UNL A   1      34.932  33.917  32.010  1.00  0.00    -0.237 OA
ATOM     81  O   UNL A   1      36.054  34.271  29.856  1.00  0.00    -0.744 OA
ENDBRANCH  75  78
ENDBRANCH  47  71
BRANCH  59  82
ATOM     82  C   UNL A   1      44.919  34.359  29.086  1.00  0.00     0.023 A 
ATOM     83  C   UNL A   1      45.626  34.581  30.283  1.00  0.00     0.012 A 
ATOM     84  C   UNL A   1      44.897  35.365  28.099  1.00  0.00     0.148 A 
ATOM     85  C   UNL A   1      46.285  35.789  30.505  1.00  0.00     0.002 A 
ATOM     86  C   UNL A   1      45.598  36.548  28.305  1.00  0.00     0.091 A 
ATOM     87  F   UNL A   1      44.206  35.140  26.972  1.00  0.00    -0.205 F 
ATOM     88  C   UNL A   1      46.284  36.765  29.511  1.00  0.00     0.022 A 
BRANCH  86  89
ATOM     89  S   UNL A   1      45.743  37.819  27.043  1.00  0.00     0.127 S 
ATOM     90  O   UNL A   1      44.346  38.197  26.840  1.00  0.00    -0.237 OA
ATOM     91  O   UNL A   1      46.558  38.832  27.714  1.00  0.00    -0.237 OA
ATOM     92  O   UNL A   1      46.388  37.181  25.902  1.00  0.00    -0.744 OA
ENDBRANCH  86  89
ENDBRANCH  59  82
ENDBRANCH  33  34
ENDBRANCH  26  28
ENDBRANCH  25  26
ENDBRANCH  24  25
ENDBRANCH   1  24
TORSDOF 18
ENDMDL
MODEL 3
REMARK VINA RESULT:     -11.7      5.342     10.170
REMARK SMILES Cc1cc(Br)cc2c1O[C@H](C(F)(F)F)C(C(=O)OCCOCCOC(=O)c1ccc(-c3c4nc(c(-c5cccc(S(=O)(=O)[O-])c5F)c5ccc([nH]5)c(-c5cccc(S(=O)(=O)[O-])c5F)c5nc(c(-c6cccc(S(=O)(=O)[O-])c6F)c6ccc3[nH]6)C=C5)C=C4)cc1)=C2
REMARK SMILES IDX 22 1 21 2 20 3 19 4 18 5 16 6 17 7 15 8 1 9 2 10 3 11 8 12
REMARK SMILES IDX 4 13 7 14 9 15 5 16 6 17 90 18 10 19 11 20 12 21 13 22 14 23
REMARK SMILES IDX 23 24 24 25 25 26 26 27 27 28 28 29 89 30 29 31 88 32 30 33
REMARK SMILES IDX 31 34 32 35 82 36 33 37 87 38 81 39 83 40 34 41 86 42 80 43
REMARK SMILES IDX 79 44 35 46 67 47 47 48 66 49 48 50 51 51 65 52 84 53 49 54
REMARK SMILES IDX 50 55 64 57 85 58 52 59 36 60 37 61 45 62 38 63 40 64 46 65
REMARK SMILES IDX 39 66 41 67 42 68 43 69 44 70 68 71 69 72 77 73 70 74 72 75
REMARK SMILES IDX 78 76 71 77 73 78 74 79 75 80 76 81 53 82 54 83 62 84 55 85
REMARK SMILES IDX 57 86 63 87 56 88 58 89 59 90 60 91 61 92
REMARK H PARENT 83 45 51 56
REMARK Flexibility Score: inf
ROOT
ATOM      1  C   UNL A   1      31.667  28.576  25.929  1.00  0.00     0.202 C 
ENDROOT
BRANCH   1   2
ATOM      2  O   UNL A   1      31.278  27.532  26.824  1.00  0.00    -0.374 OA
BRANCH   2   3
ATOM      3  C   UNL A   1      30.623  26.394  26.266  1.00  0.00     0.202 C 
BRANCH   3   4
ATOM      4  C   UNL A   1      30.459  26.369  24.743  1.00  0.00     0.261 C 
BRANCH   4   5
ATOM      5  O   UNL A   1      30.704  25.060  24.204  1.00  0.00    -0.460 OA
BRANCH   5   6
ATOM      6  C   UNL A   1      31.644  25.016  23.234  1.00  0.00     0.338 C 
ATOM      7  O   UNL A   1      31.782  25.804  22.308  1.00  0.00    -0.246 OA
BRANCH   6   8
ATOM      8  C   UNL A   1      32.608  23.935  23.515  1.00  0.00     0.087 C 
ATOM      9  C   UNL A   1      36.487  21.046  25.252  1.00  0.00     0.048 C 
ATOM     10  C   UNL A   1      35.094  20.806  24.737  1.00  0.00    -0.007 A 
ATOM     11  C   UNL A   1      34.550  19.516  24.843  1.00  0.00     0.023 A 
ATOM     12  C   UNL A   1      34.292  21.850  24.244  1.00  0.00     0.130 A 
ATOM     13  C   UNL A   1      33.240  19.269  24.438  1.00  0.00     0.019 A 
ATOM     14  C   UNL A   1      32.966  21.599  23.876  1.00  0.00     0.019 A 
ATOM     15  O   UNL A   1      34.866  23.086  24.140  1.00  0.00    -0.475 OA
ATOM     16  Br  UNL A   1      32.521  17.526  24.583  1.00  0.00    -0.051 Br
ATOM     17  C   UNL A   1      32.445  20.303  23.953  1.00  0.00     0.027 A 
ATOM     18  C   UNL A   1      32.102  22.697  23.486  1.00  0.00     0.027 C 
ATOM     19  C   UNL A   1      34.042  24.248  23.835  1.00  0.00     0.316 C 
BRANCH  19  20
ATOM     20  C   UNL A   1      34.191  25.249  24.991  1.00  0.00     0.430 C 
ATOM     21  F   UNL A   1      33.296  24.996  25.973  1.00  0.00    -0.167 F 
ATOM     22  F   UNL A   1      35.421  25.192  25.549  1.00  0.00    -0.167 F 
ATOM     23  F   UNL A   1      33.992  26.521  24.574  1.00  0.00    -0.167 F 
ENDBRANCH  19  20
ENDBRANCH   6   8
ENDBRANCH   5   6
ENDBRANCH   4   5
ENDBRANCH   3   4
ENDBRANCH   2   3
ENDBRANCH   1   2
BRANCH   1  24
ATOM     24  C   UNL A   1      31.700  30.005  26.483  1.00  0.00     0.261 C 
BRANCH  24  25
ATOM     25  O   UNL A   1      32.918  30.696  26.146  1.00  0.00    -0.460 OA
BRANCH  25  26
ATOM     26  C   UNL A   1      33.328  31.601  27.066  1.00  0.00     0.338 C 
ATOM     27  O   UNL A   1      32.672  32.521  27.540  1.00  0.00    -0.246 OA
BRANCH  26  28
ATOM     28  C   UNL A   1      34.652  31.225  27.590  1.00  0.00     0.060 A 
ATOM     29  C   UNL A   1      34.868  29.876  27.901  1.00  0.00     0.016 A 
ATOM     30  C   UNL A   1      35.631  32.183  27.856  1.00  0.00     0.016 A 
ATOM     31  C   UNL A   1      36.050  29.486  28.523  1.00  0.00     0.010 A 
ATOM     32  C   UNL A   1      36.813  31.790  28.493  1.00  0.00     0.010 A 
ATOM     33  C   UNL A   1      37.010  30.447  28.863  1.00  0.00    -0.014 A 
BRANCH  33  34
ATOM     34  C   UNL A   1      38.147  30.065  29.732  1.00  0.00     0.031 A 
ATOM     35  C   UNL A   1      39.168  29.090  29.211  1.00  0.00     0.074 A 
ATOM     36  C   UNL A   1      38.286  30.601  30.958  1.00  0.00     0.049 A 
ATOM     37  N   UNL A   1      40.240  28.625  29.796  1.00  0.00    -0.248 NA
ATOM     38  C   UNL A   1      38.955  28.575  27.848  1.00  0.00     0.031 C 
ATOM     39  C   UNL A   1      37.371  31.569  31.560  1.00  0.00     0.029 A 
ATOM     40  N   UNL A   1      39.243  30.395  31.919  1.00  0.00    -0.354 N 
ATOM     41  C   UNL A   1      40.822  27.755  28.883  1.00  0.00     0.074 A 
ATOM     42  C   UNL A   1      39.974  27.738  27.712  1.00  0.00     0.031 C 
ATOM     43  C   UNL A   1      37.805  31.863  32.798  1.00  0.00     0.029 A 
ATOM     44  C   UNL A   1      39.013  31.090  33.082  1.00  0.00     0.049 A 
ATOM     45  H   UNL A   1      40.021  29.806  31.788  1.00  0.00     0.167 HD
ATOM     46  C   UNL A   1      41.972  27.050  29.000  1.00  0.00     0.034 A 
ATOM     47  C   UNL A   1      39.693  31.092  34.247  1.00  0.00     0.034 A 
ATOM     48  C   UNL A   1      42.822  27.083  30.158  1.00  0.00     0.049 A 
ATOM     49  C   UNL A   1      40.944  30.260  34.369  1.00  0.00     0.074 A 
ATOM     50  C   UNL A   1      44.024  26.426  30.359  1.00  0.00     0.029 A 
ATOM     51  N   UNL A   1      42.561  27.803  31.314  1.00  0.00    -0.354 N 
ATOM     52  N   UNL A   1      41.537  29.523  33.461  1.00  0.00    -0.248 NA
ATOM     53  C   UNL A   1      41.635  30.281  35.667  1.00  0.00     0.031 C 
ATOM     54  C   UNL A   1      44.476  26.730  31.645  1.00  0.00     0.029 A 
ATOM     55  C   UNL A   1      43.571  27.596  32.237  1.00  0.00     0.049 A 
ATOM     56  H   UNL A   1      41.773  28.376  31.456  1.00  0.00     0.167 HD
ATOM     57  C   UNL A   1      42.683  29.017  34.065  1.00  0.00     0.074 A 
ATOM     58  C   UNL A   1      42.713  29.549  35.412  1.00  0.00     0.031 C 
ATOM     59  C   UNL A   1      43.615  28.171  33.558  1.00  0.00     0.034 A 
BRANCH  46  60
ATOM     60  C   UNL A   1      42.409  26.216  27.825  1.00  0.00     0.023 A 
ATOM     61  C   UNL A   1      43.344  26.746  26.911  1.00  0.00     0.012 A 
ATOM     62  C   UNL A   1      41.966  24.888  27.670  1.00  0.00     0.148 A 
ATOM     63  C   UNL A   1      43.815  25.974  25.851  1.00  0.00     0.002 A 
ATOM     64  C   UNL A   1      42.472  24.112  26.634  1.00  0.00     0.091 A 
ATOM     65  F   UNL A   1      41.060  24.412  28.536  1.00  0.00    -0.205 F 
ATOM     66  C   UNL A   1      43.389  24.655  25.720  1.00  0.00     0.022 A 
BRANCH  64  67
ATOM     67  S   UNL A   1      42.048  22.379  26.424  1.00  0.00     0.127 S 
ATOM     68  O   UNL A   1      42.528  21.804  27.682  1.00  0.00    -0.237 OA
ATOM     69  O   UNL A   1      40.593  22.431  26.294  1.00  0.00    -0.237 OA
ATOM     70  O   UNL A   1      42.752  21.933  25.230  1.00  0.00    -0.744 OA
ENDBRANCH  64  67
ENDBRANCH  46  60
BRANCH  47  71
ATOM     71  C   UNL A   1      39.231  31.955  35.371  1.00  0.00     0.023 A 
ATOM     72  C   UNL A   1      38.345  31.426  36.329  1.00  0.00     0.012 A 
ATOM     73  C   UNL A   1      39.697  33.276  35.523  1.00  0.00     0.148 A 
ATOM     74  C   UNL A   1      37.917  32.201  37.408  1.00  0.00     0.002 A 
ATOM     75  C   UNL A   1      39.313  34.024  36.630  1.00  0.00     0.091 A 
ATOM     76  F   UNL A   1      40.524  33.768  34.590  1.00  0.00    -0.205 F 
ATOM     77  C   UNL A   1      38.411  33.493  37.566  1.00  0.00     0.022 A 
BRANCH  75  78
ATOM     78  S   UNL A   1      40.000  35.644  36.989  1.00  0.00     0.127 S 
ATOM     79  O   UNL A   1      41.429  35.353  37.066  1.00  0.00    -0.237 OA
ATOM     80  O   UNL A   1      39.590  36.411  35.812  1.00  0.00    -0.237 OA
ATOM     81  O   UNL A   1      39.374  36.071  38.233  1.00  0.00    -0.744 OA
ENDBRANCH  75  78
ENDBRANCH  47  71
BRANCH  59  82
ATOM     82  C   UNL A   1      44.765  27.765  34.445  1.00  0.00     0.023 A 
ATOM     83  C   UNL A   1      45.910  28.581  34.512  1.00  0.00     0.012 A 
ATOM     84  C   UNL A   1      44.659  26.651  35.302  1.00  0.00     0.148 A 
ATOM     85  C   UNL A   1      46.942  28.284  35.401  1.00  0.00     0.002 A 
ATOM     86  C   UNL A   1      45.668  26.389  36.221  1.00  0.00     0.091 A 
ATOM     87  F   UNL A   1      43.566  25.878  35.213  1.00  0.00    -0.205 F 
ATOM     88  C   UNL A   1      46.815  27.199  36.265  1.00  0.00     0.022 A 
BRANCH  86  89
ATOM     89  S   UNL A   1      45.547  25.079  37.445  1.00  0.00     0.127 S 
ATOM     90  O   UNL A   1      45.206  23.926  36.613  1.00  0.00    -0.237 OA
ATOM     91  O   UNL A   1      46.899  25.049  38.003  1.00  0.00    -0.237 OA
ATOM     92  O   UNL A   1      44.514  25.499  38.383  1.00  0.00    -0.744 OA
ENDBRANCH  86  89
ENDBRANCH  59  82
ENDBRANCH  33  34
ENDBRANCH  26  28
ENDBRANCH  25  26
ENDBRANCH  24  25
ENDBRANCH   1  24
TORSDOF 18
ENDMDL
