MODEL 1
REMARK VINA RESULT:     -11.0      0.000      0.000
REMARK SMILES Cc1ccc(OCCNc2ccc(Cl)cc2C(=O)OCCOCCOC(=O)c2ccc(-c3c4nc(c(-c5cccc(S(=O)(=O)[O-])c5F)c5ccc([nH]5)c(-c5cccc(S(=O)(=O)[O-])c5F)c5nc(c(-c6cccc(S(=O)(=O)[O-])c6F)c6ccc3[nH]6)C=C5)C=C4)cc2)cc1C
REMARK SMILES IDX 21 1 20 2 19 3 17 4 18 5 16 6 10 7 11 8 12 9 15 10 13 11
REMARK SMILES IDX 14 12 9 13 8 15 7 16 6 17 5 18 1 19 2 20 3 21 92 22 4 23
REMARK SMILES IDX 91 24 93 25 22 26 23 27 24 28 25 29 26 30 27 31 28 32 29 33
REMARK SMILES IDX 90 34 30 35 89 36 31 37 32 38 33 39 83 40 34 41 88 42 82 43
REMARK SMILES IDX 84 44 35 45 87 46 81 47 80 48 36 50 68 51 48 52 67 53 49 54
REMARK SMILES IDX 52 55 66 56 85 57 50 58 51 59 65 61 86 62 53 63 37 64 38 65
REMARK SMILES IDX 46 66 39 67 41 68 47 69 40 70 42 71 43 72 44 73 45 74 69 75
REMARK SMILES IDX 70 76 78 77 71 78 73 79 79 80 72 81 74 82 75 83 76 84 77 85
REMARK SMILES IDX 54 86 55 87 63 88 56 89 58 90 64 91 57 92 59 93 60 94 61 95
REMARK SMILES IDX 62 96
REMARK H PARENT 9 14 84 49 52 60
REMARK Flexibility Score: inf
ROOT
ATOM      1  C   UNL A   1      32.843  29.544  25.531  1.00  0.00     0.202 C 
ENDROOT
BRANCH   1   2
ATOM      2  C   UNL A   1      33.405  28.917  24.253  1.00  0.00     0.261 C 
BRANCH   2   3
ATOM      3  O   UNL A   1      32.566  29.120  23.097  1.00  0.00    -0.460 OA
BRANCH   3   4
ATOM      4  C   UNL A   1      31.932  27.995  22.674  1.00  0.00     0.340 C 
ATOM      5  O   UNL A   1      32.457  26.915  22.431  1.00  0.00    -0.246 OA
BRANCH   4   6
ATOM      6  C   UNL A   1      30.464  28.120  22.775  1.00  0.00     0.084 A 
ATOM      7  C   UNL A   1      29.618  27.154  23.356  1.00  0.00     0.049 A 
ATOM      8  C   UNL A   1      28.264  27.489  23.522  1.00  0.00     0.028 A 
ATOM      9  C   UNL A   1      27.765  28.733  23.125  1.00  0.00     0.022 A 
ATOM     10  C   UNL A   1      29.961  29.364  22.360  1.00  0.00     0.038 A 
ATOM     11  C   UNL A   1      28.619  29.666  22.546  1.00  0.00     0.042 A 
ATOM     12  Cl  UNL A   1      28.022  31.218  22.108  1.00  0.00    -0.084 Cl
BRANCH   7  13
ATOM     13  N   UNL A   1      30.089  26.022  23.993  1.00  0.00    -0.381 N 
ATOM     14  H   UNL A   1      30.327  25.240  23.443  1.00  0.00     0.160 HD
BRANCH  13  15
ATOM     15  C   UNL A   1      30.251  25.927  25.440  1.00  0.00     0.154 C 
BRANCH  15  16
ATOM     16  C   UNL A   1      31.740  25.936  25.822  1.00  0.00     0.250 C 
BRANCH  16  17
ATOM     17  O   UNL A   1      32.198  24.612  26.159  1.00  0.00    -0.492 OA
BRANCH  17  18
ATOM     18  C   UNL A   1      33.270  24.194  25.420  1.00  0.00     0.119 A 
ATOM     19  C   UNL A   1      36.653  22.759  23.157  1.00  0.00     0.044 C 
ATOM     20  C   UNL A   1      35.519  23.311  23.969  1.00  0.00    -0.048 A 
ATOM     21  C   UNL A   1      34.262  23.398  23.367  1.00  0.00     0.007 A 
ATOM     22  C   UNL A   1      35.669  23.774  25.288  1.00  0.00    -0.045 A 
ATOM     23  C   UNL A   1      33.158  23.838  24.089  1.00  0.00     0.047 A 
ATOM     24  C   UNL A   1      34.534  24.234  25.990  1.00  0.00     0.050 A 
ATOM     25  C   UNL A   1      36.998  23.814  25.990  1.00  0.00     0.045 C 
ENDBRANCH  17  18
ENDBRANCH  16  17
ENDBRANCH  15  16
ENDBRANCH  13  15
ENDBRANCH   7  13
ENDBRANCH   4   6
ENDBRANCH   3   4
ENDBRANCH   2   3
ENDBRANCH   1   2
BRANCH   1  26
ATOM     26  O   UNL A   1      31.756  30.452  25.377  1.00  0.00    -0.374 OA
BRANCH  26  27
ATOM     27  C   UNL A   1      31.308  31.128  26.545  1.00  0.00     0.202 C 
BRANCH  27  28
ATOM     28  C   UNL A   1      31.667  32.615  26.702  1.00  0.00     0.261 C 
BRANCH  28  29
ATOM     29  O   UNL A   1      32.324  32.986  27.929  1.00  0.00    -0.460 OA
BRANCH  29  30
ATOM     30  C   UNL A   1      33.468  33.697  27.762  1.00  0.00     0.338 C 
ATOM     31  O   UNL A   1      33.555  34.878  27.443  1.00  0.00    -0.246 OA
BRANCH  30  32
ATOM     32  C   UNL A   1      34.667  32.897  28.083  1.00  0.00     0.060 A 
ATOM     33  C   UNL A   1      34.490  31.588  28.549  1.00  0.00     0.016 A 
ATOM     34  C   UNL A   1      35.933  33.483  28.105  1.00  0.00     0.016 A 
ATOM     35  C   UNL A   1      35.571  30.883  29.091  1.00  0.00     0.010 A 
ATOM     36  C   UNL A   1      37.015  32.770  28.640  1.00  0.00     0.010 A 
ATOM     37  C   UNL A   1      36.835  31.482  29.179  1.00  0.00    -0.014 A 
BRANCH  37  38
ATOM     38  C   UNL A   1      37.947  30.816  29.915  1.00  0.00     0.031 A 
ATOM     39  C   UNL A   1      38.279  31.242  31.318  1.00  0.00     0.074 A 
ATOM     40  C   UNL A   1      38.692  29.859  29.331  1.00  0.00     0.049 A 
ATOM     41  N   UNL A   1      39.232  30.811  32.104  1.00  0.00    -0.248 NA
ATOM     42  C   UNL A   1      37.426  32.279  31.918  1.00  0.00     0.031 C 
ATOM     43  C   UNL A   1      38.468  29.342  27.990  1.00  0.00     0.029 A 
ATOM     44  N   UNL A   1      39.804  29.181  29.766  1.00  0.00    -0.354 N 
ATOM     45  C   UNL A   1      39.101  31.526  33.286  1.00  0.00     0.074 A 
ATOM     46  C   UNL A   1      37.994  32.442  33.105  1.00  0.00     0.031 C 
ATOM     47  C   UNL A   1      39.453  28.487  27.669  1.00  0.00     0.029 A 
ATOM     48  C   UNL A   1      40.373  28.384  28.798  1.00  0.00     0.049 A 
ATOM     49  H   UNL A   1      40.161  29.258  30.681  1.00  0.00     0.167 HD
ATOM     50  C   UNL A   1      39.811  31.405  34.433  1.00  0.00     0.034 A 
ATOM     51  C   UNL A   1      41.509  27.657  28.815  1.00  0.00     0.034 A 
ATOM     52  C   UNL A   1      40.891  30.475  34.630  1.00  0.00     0.049 A 
ATOM     53  C   UNL A   1      42.310  27.575  30.085  1.00  0.00     0.074 A 
ATOM     54  C   UNL A   1      41.617  30.235  35.784  1.00  0.00     0.029 A 
ATOM     55  N   UNL A   1      41.410  29.643  33.652  1.00  0.00    -0.354 N 
ATOM     56  N   UNL A   1      42.072  28.137  31.245  1.00  0.00    -0.248 NA
ATOM     57  C   UNL A   1      43.504  26.716  30.070  1.00  0.00     0.031 C 
ATOM     58  C   UNL A   1      42.586  29.266  35.497  1.00  0.00     0.029 A 
ATOM     59  C   UNL A   1      42.457  28.897  34.169  1.00  0.00     0.049 A 
ATOM     60  H   UNL A   1      41.083  29.590  32.725  1.00  0.00     0.167 HD
ATOM     61  C   UNL A   1      43.052  27.662  32.108  1.00  0.00     0.074 A 
ATOM     62  C   UNL A   1      43.885  26.760  31.340  1.00  0.00     0.031 C 
ATOM     63  C   UNL A   1      43.244  27.954  33.418  1.00  0.00     0.034 A 
BRANCH  50  64
ATOM     64  C   UNL A   1      39.398  32.265  35.595  1.00  0.00     0.023 A 
ATOM     65  C   UNL A   1      38.537  31.729  36.574  1.00  0.00     0.012 A 
ATOM     66  C   UNL A   1      39.900  33.570  35.751  1.00  0.00     0.148 A 
ATOM     67  C   UNL A   1      38.162  32.489  37.680  1.00  0.00     0.002 A 
ATOM     68  C   UNL A   1      39.548  34.310  36.875  1.00  0.00     0.091 A 
ATOM     69  F   UNL A   1      40.696  34.069  34.795  1.00  0.00    -0.205 F 
ATOM     70  C   UNL A   1      38.675  33.774  37.835  1.00  0.00     0.022 A 
BRANCH  68  71
ATOM     71  S   UNL A   1      40.208  35.950  37.193  1.00  0.00     0.127 S 
ATOM     72  O   UNL A   1      41.645  35.683  37.246  1.00  0.00    -0.237 OA
ATOM     73  O   UNL A   1      39.770  36.695  36.013  1.00  0.00    -0.237 OA
ATOM     74  O   UNL A   1      39.603  36.388  38.443  1.00  0.00    -0.744 OA
ENDBRANCH  68  71
ENDBRANCH  50  64
BRANCH  51  75
ATOM     75  C   UNL A   1      41.921  26.891  27.606  1.00  0.00     0.023 A 
ATOM     76  C   UNL A   1      42.496  27.575  26.517  1.00  0.00     0.012 A 
ATOM     77  C   UNL A   1      41.757  25.494  27.532  1.00  0.00     0.148 A 
ATOM     78  C   UNL A   1      42.875  26.884  25.365  1.00  0.00     0.002 A 
ATOM     79  C   UNL A   1      42.175  24.807  26.397  1.00  0.00     0.091 A 
ATOM     80  F   UNL A   1      41.190  24.864  28.571  1.00  0.00    -0.205 F 
ATOM     81  C   UNL A   1      42.723  25.502  25.308  1.00  0.00     0.022 A 
BRANCH  79  82
ATOM     82  S   UNL A   1      42.105  23.015  26.276  1.00  0.00     0.127 S 
ATOM     83  O   UNL A   1      42.927  22.606  27.411  1.00  0.00    -0.237 OA
ATOM     84  O   UNL A   1      40.672  22.755  26.428  1.00  0.00    -0.237 OA
ATOM     85  O   UNL A   1      42.636  22.694  24.958  1.00  0.00    -0.744 OA
ENDBRANCH  79  82
ENDBRANCH  51  75
BRANCH  63  86
ATOM     86  C   UNL A   1      44.380  27.268  34.130  1.00  0.00     0.023 A 
ATOM     87  C   UNL A   1      45.674  27.824  34.075  1.00  0.00     0.012 A 
ATOM     88  C   UNL A   1      44.154  26.119  34.915  1.00  0.00     0.148 A 
ATOM     89  C   UNL A   1      46.729  27.233  34.771  1.00  0.00     0.002 A 
ATOM     90  C   UNL A   1      45.201  25.561  35.638  1.00  0.00     0.091 A 
ATOM     91  F   UNL A   1      42.922  25.591  34.936  1.00  0.00    -0.205 F 
ATOM     92  C   UNL A   1      46.491  26.111  35.560  1.00  0.00     0.022 A 
BRANCH  90  93
ATOM     93  S   UNL A   1      44.962  24.169  36.751  1.00  0.00     0.127 S 
ATOM     94  O   UNL A   1      46.326  23.913  37.206  1.00  0.00    -0.237 OA
ATOM     95  O   UNL A   1      44.074  24.731  37.770  1.00  0.00    -0.237 OA
ATOM     96  O   UNL A   1      44.359  23.116  35.944  1.00  0.00    -0.744 OA
ENDBRANCH  90  93
ENDBRANCH  63  86
ENDBRANCH  37  38
ENDBRANCH  30  32
ENDBRANCH  29  30
ENDBRANCH  28  29
ENDBRANCH  27  28
ENDBRANCH  26  27
ENDBRANCH   1  26
TORSDOF 22
ENDMDL
MODEL 2
REMARK VINA RESULT:     -10.6      1.519      1.777
REMARK SMILES Cc1ccc(OCCNc2ccc(Cl)cc2C(=O)OCCOCCOC(=O)c2ccc(-c3c4nc(c(-c5cccc(S(=O)(=O)[O-])c5F)c5ccc([nH]5)c(-c5cccc(S(=O)(=O)[O-])c5F)c5nc(c(-c6cccc(S(=O)(=O)[O-])c6F)c6ccc3[nH]6)C=C5)C=C4)cc2)cc1C
REMARK SMILES IDX 21 1 20 2 19 3 17 4 18 5 16 6 10 7 11 8 12 9 15 10 13 11
REMARK SMILES IDX 14 12 9 13 8 15 7 16 6 17 5 18 1 19 2 20 3 21 92 22 4 23
REMARK SMILES IDX 91 24 93 25 22 26 23 27 24 28 25 29 26 30 27 31 28 32 29 33
REMARK SMILES IDX 90 34 30 35 89 36 31 37 32 38 33 39 83 40 34 41 88 42 82 43
REMARK SMILES IDX 84 44 35 45 87 46 81 47 80 48 36 50 68 51 48 52 67 53 49 54
REMARK SMILES IDX 52 55 66 56 85 57 50 58 51 59 65 61 86 62 53 63 37 64 38 65
REMARK SMILES IDX 46 66 39 67 41 68 47 69 40 70 42 71 43 72 44 73 45 74 69 75
REMARK SMILES IDX 70 76 78 77 71 78 73 79 79 80 72 81 74 82 75 83 76 84 77 85
REMARK SMILES IDX 54 86 55 87 63 88 56 89 58 90 64 91 57 92 59 93 60 94 61 95
REMARK SMILES IDX 62 96
REMARK H PARENT 9 14 84 49 52 60
REMARK Flexibility Score: inf
ROOT
ATOM      1  C   UNL A   1      33.132  29.537  25.500  1.00  0.00     0.202 C 
ENDROOT
BRANCH   1   2
ATOM      2  C   UNL A   1      33.330  28.730  24.215  1.00  0.00     0.261 C 
BRANCH   2   3
ATOM      3  O   UNL A   1      32.512  29.187  23.118  1.00  0.00    -0.460 OA
BRANCH   3   4
ATOM      4  C   UNL A   1      31.794  28.201  22.521  1.00  0.00     0.340 C 
ATOM      5  O   UNL A   1      32.207  27.091  22.207  1.00  0.00    -0.246 OA
BRANCH   4   6
ATOM      6  C   UNL A   1      30.348  28.506  22.505  1.00  0.00     0.084 A 
ATOM      7  C   UNL A   1      29.360  27.718  23.129  1.00  0.00     0.049 A 
ATOM      8  C   UNL A   1      28.050  28.224  23.164  1.00  0.00     0.028 A 
ATOM      9  C   UNL A   1      27.730  29.463  22.598  1.00  0.00     0.022 A 
ATOM     10  C   UNL A   1      30.025  29.742  21.922  1.00  0.00     0.038 A 
ATOM     11  C   UNL A   1      28.722  30.216  21.981  1.00  0.00     0.042 A 
ATOM     12  Cl  UNL A   1      28.345  31.765  21.335  1.00  0.00    -0.084 Cl
BRANCH   7  13
ATOM     13  N   UNL A   1      29.653  26.622  23.918  1.00  0.00    -0.381 N 
ATOM     14  H   UNL A   1      29.451  25.725  23.566  1.00  0.00     0.160 HD
BRANCH  13  15
ATOM     15  C   UNL A   1      30.246  26.728  25.246  1.00  0.00     0.154 C 
BRANCH  15  16
ATOM     16  C   UNL A   1      31.282  25.615  25.469  1.00  0.00     0.250 C 
BRANCH  16  17
ATOM     17  O   UNL A   1      30.671  24.312  25.382  1.00  0.00    -0.492 OA
BRANCH  17  18
ATOM     18  C   UNL A   1      31.569  23.292  25.227  1.00  0.00     0.119 A 
ATOM     19  C   UNL A   1      34.319  19.992  24.809  1.00  0.00     0.044 C 
ATOM     20  C   UNL A   1      33.414  21.174  24.991  1.00  0.00    -0.048 A 
ATOM     21  C   UNL A   1      32.673  21.610  23.891  1.00  0.00     0.007 A 
ATOM     22  C   UNL A   1      33.304  21.881  26.202  1.00  0.00    -0.045 A 
ATOM     23  C   UNL A   1      31.767  22.658  24.015  1.00  0.00     0.047 A 
ATOM     24  C   UNL A   1      32.390  22.954  26.293  1.00  0.00     0.050 A 
ATOM     25  C   UNL A   1      34.130  21.553  27.414  1.00  0.00     0.045 C 
ENDBRANCH  17  18
ENDBRANCH  16  17
ENDBRANCH  15  16
ENDBRANCH  13  15
ENDBRANCH   7  13
ENDBRANCH   4   6
ENDBRANCH   3   4
ENDBRANCH   2   3
ENDBRANCH   1   2
BRANCH   1  26
ATOM     26  O   UNL A   1      32.006  30.409  25.544  1.00  0.00    -0.374 OA
BRANCH  26  27
ATOM     27  C   UNL A   1      31.736  31.056  26.782  1.00  0.00     0.202 C 
BRANCH  27  28
ATOM     28  C   UNL A   1      31.653  32.591  26.790  1.00  0.00     0.261 C 
BRANCH  28  29
ATOM     29  O   UNL A   1      32.908  33.298  26.739  1.00  0.00    -0.460 OA
BRANCH  29  30
ATOM     30  C   UNL A   1      33.429  33.605  27.955  1.00  0.00     0.338 C 
ATOM     31  O   UNL A   1      32.956  34.382  28.778  1.00  0.00    -0.246 OA
BRANCH  30  32
ATOM     32  C   UNL A   1      34.650  32.827  28.244  1.00  0.00     0.060 A 
ATOM     33  C   UNL A   1      34.510  31.501  28.671  1.00  0.00     0.016 A 
ATOM     34  C   UNL A   1      35.901  33.445  28.277  1.00  0.00     0.016 A 
ATOM     35  C   UNL A   1      35.611  30.807  29.186  1.00  0.00     0.010 A 
ATOM     36  C   UNL A   1      37.004  32.744  28.785  1.00  0.00     0.010 A 
ATOM     37  C   UNL A   1      36.861  31.436  29.285  1.00  0.00    -0.014 A 
BRANCH  37  38
ATOM     38  C   UNL A   1      37.994  30.777  29.994  1.00  0.00     0.031 A 
ATOM     39  C   UNL A   1      38.374  31.223  31.379  1.00  0.00     0.074 A 
ATOM     40  C   UNL A   1      38.715  29.808  29.401  1.00  0.00     0.049 A 
ATOM     41  N   UNL A   1      39.351  30.801  32.140  1.00  0.00    -0.248 NA
ATOM     42  C   UNL A   1      37.545  32.274  31.991  1.00  0.00     0.031 C 
ATOM     43  C   UNL A   1      38.445  29.271  28.077  1.00  0.00     0.029 A 
ATOM     44  N   UNL A   1      39.839  29.132  29.810  1.00  0.00    -0.354 N 
ATOM     45  C   UNL A   1      39.261  31.534  33.314  1.00  0.00     0.074 A 
ATOM     46  C   UNL A   1      38.153  32.452  33.155  1.00  0.00     0.031 C 
ATOM     47  C   UNL A   1      39.417  28.407  27.737  1.00  0.00     0.029 A 
ATOM     48  C   UNL A   1      40.373  28.318  28.837  1.00  0.00     0.049 A 
ATOM     49  H   UNL A   1      40.226  29.222  30.711  1.00  0.00     0.167 HD
ATOM     50  C   UNL A   1      40.009  31.428  34.438  1.00  0.00     0.034 A 
ATOM     51  C   UNL A   1      41.506  27.587  28.827  1.00  0.00     0.034 A 
ATOM     52  C   UNL A   1      41.091  30.498  34.614  1.00  0.00     0.049 A 
ATOM     53  C   UNL A   1      42.349  27.521  30.072  1.00  0.00     0.074 A 
ATOM     54  C   UNL A   1      41.854  30.272  35.747  1.00  0.00     0.029 A 
ATOM     55  N   UNL A   1      41.574  29.648  33.633  1.00  0.00    -0.354 N 
ATOM     56  N   UNL A   1      42.151  28.102  31.230  1.00  0.00    -0.248 NA
ATOM     57  C   UNL A   1      43.538  26.657  30.031  1.00  0.00     0.031 C 
ATOM     58  C   UNL A   1      42.809  29.295  35.445  1.00  0.00     0.029 A 
ATOM     59  C   UNL A   1      42.635  28.906  34.127  1.00  0.00     0.049 A 
ATOM     60  H   UNL A   1      41.216  29.582  32.718  1.00  0.00     0.167 HD
ATOM     61  C   UNL A   1      43.157  27.637  32.067  1.00  0.00     0.074 A 
ATOM     62  C   UNL A   1      43.961  26.720  31.286  1.00  0.00     0.031 C 
ATOM     63  C   UNL A   1      43.394  27.948  33.366  1.00  0.00     0.034 A 
BRANCH  50  64
ATOM     64  C   UNL A   1      39.637  32.309  35.600  1.00  0.00     0.023 A 
ATOM     65  C   UNL A   1      40.140  33.625  35.652  1.00  0.00     0.012 A 
ATOM     66  C   UNL A   1      38.755  31.863  36.601  1.00  0.00     0.148 A 
ATOM     67  C   UNL A   1      39.789  34.476  36.698  1.00  0.00     0.002 A 
ATOM     68  C   UNL A   1      38.381  32.730  37.622  1.00  0.00     0.091 A 
ATOM     69  F   UNL A   1      38.309  30.600  36.545  1.00  0.00    -0.205 F 
ATOM     70  C   UNL A   1      38.903  34.033  37.675  1.00  0.00     0.022 A 
BRANCH  68  71
ATOM     71  S   UNL A   1      37.197  32.270  38.891  1.00  0.00     0.127 S 
ATOM     72  O   UNL A   1      37.678  33.042  40.036  1.00  0.00    -0.237 OA
ATOM     73  O   UNL A   1      35.934  32.744  38.324  1.00  0.00    -0.237 OA
ATOM     74  O   UNL A   1      37.295  30.823  39.023  1.00  0.00    -0.744 OA
ENDBRANCH  68  71
ENDBRANCH  50  64
BRANCH  51  75
ATOM     75  C   UNL A   1      41.875  26.800  27.618  1.00  0.00     0.023 A 
ATOM     76  C   UNL A   1      42.416  27.464  26.499  1.00  0.00     0.012 A 
ATOM     77  C   UNL A   1      41.705  25.403  27.571  1.00  0.00     0.148 A 
ATOM     78  C   UNL A   1      42.754  26.755  25.347  1.00  0.00     0.002 A 
ATOM     79  C   UNL A   1      42.083  24.696  26.435  1.00  0.00     0.091 A 
ATOM     80  F   UNL A   1      41.170  24.791  28.639  1.00  0.00    -0.205 F 
ATOM     81  C   UNL A   1      42.596  25.372  25.316  1.00  0.00     0.022 A 
BRANCH  79  82
ATOM     82  S   UNL A   1      42.002  22.903  26.344  1.00  0.00     0.127 S 
ATOM     83  O   UNL A   1      40.563  22.664  26.413  1.00  0.00    -0.237 OA
ATOM     84  O   UNL A   1      42.609  22.636  25.039  1.00  0.00    -0.237 OA
ATOM     85  O   UNL A   1      42.781  22.422  27.476  1.00  0.00    -0.744 OA
ENDBRANCH  79  82
ENDBRANCH  51  75
BRANCH  63  86
ATOM     86  C   UNL A   1      44.550  27.269  34.050  1.00  0.00     0.023 A 
ATOM     87  C   UNL A   1      45.818  27.883  34.050  1.00  0.00     0.012 A 
ATOM     88  C   UNL A   1      44.365  26.064  34.758  1.00  0.00     0.148 A 
ATOM     89  C   UNL A   1      46.890  27.296  34.723  1.00  0.00     0.002 A 
ATOM     90  C   UNL A   1      45.427  25.507  35.461  1.00  0.00     0.091 A 
ATOM     91  F   UNL A   1      43.158  25.483  34.728  1.00  0.00    -0.205 F 
ATOM     92  C   UNL A   1      46.692  26.116  35.437  1.00  0.00     0.022 A 
BRANCH  90  93
ATOM     93  S   UNL A   1      45.236  24.039  36.481  1.00  0.00     0.127 S 
ATOM     94  O   UNL A   1      44.635  24.593  37.692  1.00  0.00    -0.237 OA
ATOM     95  O   UNL A   1      44.335  23.213  35.676  1.00  0.00    -0.237 OA
ATOM     96  O   UNL A   1      46.576  23.489  36.638  1.00  0.00    -0.744 OA
ENDBRANCH  90  93
ENDBRANCH  63  86
ENDBRANCH  37  38
ENDBRANCH  30  32
ENDBRANCH  29  30
ENDBRANCH  28  29
ENDBRANCH  27  28
ENDBRANCH  26  27
ENDBRANCH   1  26
TORSDOF 22
ENDMDL
MODEL 3
REMARK VINA RESULT:     -10.6      1.360      7.807
REMARK SMILES Cc1ccc(OCCNc2ccc(Cl)cc2C(=O)OCCOCCOC(=O)c2ccc(-c3c4nc(c(-c5cccc(S(=O)(=O)[O-])c5F)c5ccc([nH]5)c(-c5cccc(S(=O)(=O)[O-])c5F)c5nc(c(-c6cccc(S(=O)(=O)[O-])c6F)c6ccc3[nH]6)C=C5)C=C4)cc2)cc1C
REMARK SMILES IDX 21 1 20 2 19 3 17 4 18 5 16 6 10 7 11 8 12 9 15 10 13 11
REMARK SMILES IDX 14 12 9 13 8 15 7 16 6 17 5 18 1 19 2 20 3 21 92 22 4 23
REMARK SMILES IDX 91 24 93 25 22 26 23 27 24 28 25 29 26 30 27 31 28 32 29 33
REMARK SMILES IDX 90 34 30 35 89 36 31 37 32 38 33 39 83 40 34 41 88 42 82 43
REMARK SMILES IDX 84 44 35 45 87 46 81 47 80 48 36 50 68 51 48 52 67 53 49 54
REMARK SMILES IDX 52 55 66 56 85 57 50 58 51 59 65 61 86 62 53 63 37 64 38 65
REMARK SMILES IDX 46 66 39 67 41 68 47 69 40 70 42 71 43 72 44 73 45 74 69 75
REMARK SMILES IDX 70 76 78 77 71 78 73 79 79 80 72 81 74 82 75 83 76 84 77 85
REMARK SMILES IDX 54 86 55 87 63 88 56 89 58 90 64 91 57 92 59 93 60 94 61 95
REMARK SMILES IDX 62 96
REMARK H PARENT 9 14 84 49 52 60
REMARK Flexibility Score: inf
ROOT
ATOM      1  C   UNL A   1      31.729  26.454  26.538  1.00  0.00     0.202 C 
ENDROOT
BRANCH   1   2
ATOM      2  C   UNL A   1      30.882  25.365  25.877  1.00  0.00     0.261 C 
BRANCH   2   3
ATOM      3  O   UNL A   1      29.761  25.883  25.131  1.00  0.00    -0.460 OA
BRANCH   3   4
ATOM      4  C   UNL A   1      29.977  25.950  23.791  1.00  0.00     0.340 C 
ATOM      5  O   UNL A   1      29.926  25.016  23.001  1.00  0.00    -0.246 OA
BRANCH   4   6
ATOM      6  C   UNL A   1      30.038  27.347  23.314  1.00  0.00     0.084 A 
ATOM      7  C   UNL A   1      31.078  27.876  22.524  1.00  0.00     0.049 A 
ATOM      8  C   UNL A   1      30.914  29.175  22.014  1.00  0.00     0.028 A 
ATOM      9  C   UNL A   1      29.763  29.923  22.280  1.00  0.00     0.022 A 
ATOM     10  C   UNL A   1      28.888  28.104  23.595  1.00  0.00     0.038 A 
ATOM     11  C   UNL A   1      28.755  29.382  23.069  1.00  0.00     0.042 A 
ATOM     12  Cl  UNL A   1      27.312  30.275  23.351  1.00  0.00    -0.084 Cl
BRANCH   7  13
ATOM     13  N   UNL A   1      32.111  27.108  22.021  1.00  0.00    -0.381 N 
ATOM     14  H   UNL A   1      32.103  26.884  21.062  1.00  0.00     0.160 HD
BRANCH  13  15
ATOM     15  C   UNL A   1      33.212  26.613  22.840  1.00  0.00     0.154 C 
BRANCH  15  16
ATOM     16  C   UNL A   1      33.562  25.165  22.462  1.00  0.00     0.250 C 
BRANCH  16  17
ATOM     17  O   UNL A   1      33.163  24.246  23.498  1.00  0.00    -0.492 OA
BRANCH  17  18
ATOM     18  C   UNL A   1      34.152  23.381  23.877  1.00  0.00     0.119 A 
ATOM     19  C   UNL A   1      37.266  20.592  24.952  1.00  0.00     0.044 C 
ATOM     20  C   UNL A   1      36.142  21.532  24.629  1.00  0.00    -0.048 A 
ATOM     21  C   UNL A   1      36.450  22.878  24.423  1.00  0.00     0.007 A 
ATOM     22  C   UNL A   1      34.796  21.128  24.560  1.00  0.00    -0.045 A 
ATOM     23  C   UNL A   1      35.461  23.784  24.056  1.00  0.00     0.047 A 
ATOM     24  C   UNL A   1      33.812  22.076  24.203  1.00  0.00     0.050 A 
ATOM     25  C   UNL A   1      34.351  19.725  24.861  1.00  0.00     0.045 C 
ENDBRANCH  17  18
ENDBRANCH  16  17
ENDBRANCH  15  16
ENDBRANCH  13  15
ENDBRANCH   7  13
ENDBRANCH   4   6
ENDBRANCH   3   4
ENDBRANCH   2   3
ENDBRANCH   1   2
BRANCH   1  26
ATOM     26  O   UNL A   1      31.026  27.527  27.159  1.00  0.00    -0.374 OA
BRANCH  26  27
ATOM     27  C   UNL A   1      31.791  28.659  27.554  1.00  0.00     0.202 C 
BRANCH  27  28
ATOM     28  C   UNL A   1      31.685  29.935  26.702  1.00  0.00     0.261 C 
BRANCH  28  29
ATOM     29  O   UNL A   1      32.931  30.530  26.288  1.00  0.00    -0.460 OA
BRANCH  29  30
ATOM     30  C   UNL A   1      33.433  31.444  27.157  1.00  0.00     0.338 C 
ATOM     31  O   UNL A   1      32.844  32.418  27.614  1.00  0.00    -0.246 OA
BRANCH  30  32
ATOM     32  C   UNL A   1      34.806  31.106  27.582  1.00  0.00     0.060 A 
ATOM     33  C   UNL A   1      35.119  29.762  27.819  1.00  0.00     0.016 A 
ATOM     34  C   UNL A   1      35.716  32.108  27.923  1.00  0.00     0.016 A 
ATOM     35  C   UNL A   1      36.321  29.420  28.449  1.00  0.00     0.010 A 
ATOM     36  C   UNL A   1      36.923  31.761  28.547  1.00  0.00     0.010 A 
ATOM     37  C   UNL A   1      37.216  30.420  28.856  1.00  0.00    -0.014 A 
BRANCH  37  38
ATOM     38  C   UNL A   1      38.408  30.086  29.687  1.00  0.00     0.031 A 
ATOM     39  C   UNL A   1      39.401  29.067  29.200  1.00  0.00     0.074 A 
ATOM     40  C   UNL A   1      38.595  30.654  30.893  1.00  0.00     0.049 A 
ATOM     41  N   UNL A   1      40.475  28.616  29.796  1.00  0.00    -0.248 NA
ATOM     42  C   UNL A   1      39.161  28.488  27.869  1.00  0.00     0.031 C 
ATOM     43  C   UNL A   1      37.725  31.664  31.474  1.00  0.00     0.029 A 
ATOM     44  N   UNL A   1      39.547  30.440  31.860  1.00  0.00    -0.354 N 
ATOM     45  C   UNL A   1      41.035  27.696  28.921  1.00  0.00     0.074 A 
ATOM     46  C   UNL A   1      40.166  27.630  27.764  1.00  0.00     0.031 C 
ATOM     47  C   UNL A   1      38.124  31.931  32.729  1.00  0.00     0.029 A 
ATOM     48  C   UNL A   1      39.298  31.118  33.033  1.00  0.00     0.049 A 
ATOM     49  H   UNL A   1      40.330  29.858  31.728  1.00  0.00     0.167 HD
ATOM     50  C   UNL A   1      42.189  26.999  29.050  1.00  0.00     0.034 A 
ATOM     51  C   UNL A   1      39.936  31.083  34.220  1.00  0.00     0.034 A 
ATOM     52  C   UNL A   1      43.072  27.083  30.182  1.00  0.00     0.049 A 
ATOM     53  C   UNL A   1      41.190  30.263  34.356  1.00  0.00     0.074 A 
ATOM     54  C   UNL A   1      44.298  26.467  30.362  1.00  0.00     0.029 A 
ATOM     55  N   UNL A   1      42.823  27.818  31.329  1.00  0.00    -0.354 N 
ATOM     56  N   UNL A   1      41.791  29.524  33.455  1.00  0.00    -0.248 NA
ATOM     57  C   UNL A   1      41.886  30.313  35.651  1.00  0.00     0.031 C 
ATOM     58  C   UNL A   1      44.783  26.818  31.627  1.00  0.00     0.029 A 
ATOM     59  C   UNL A   1      43.864  27.659  32.229  1.00  0.00     0.049 A 
ATOM     60  H   UNL A   1      42.022  28.370  31.482  1.00  0.00     0.167 HD
ATOM     61  C   UNL A   1      42.957  29.065  34.055  1.00  0.00     0.074 A 
ATOM     62  C   UNL A   1      42.983  29.612  35.395  1.00  0.00     0.031 C 
ATOM     63  C   UNL A   1      43.916  28.257  33.539  1.00  0.00     0.034 A 
BRANCH  50  64
ATOM     64  C   UNL A   1      42.596  26.120  27.899  1.00  0.00     0.023 A 
ATOM     65  C   UNL A   1      43.556  26.592  26.981  1.00  0.00     0.012 A 
ATOM     66  C   UNL A   1      42.081  24.818  27.757  1.00  0.00     0.148 A 
ATOM     67  C   UNL A   1      43.979  25.790  25.923  1.00  0.00     0.002 A 
ATOM     68  C   UNL A   1      42.534  24.011  26.719  1.00  0.00     0.091 A 
ATOM     69  F   UNL A   1      41.150  24.399  28.626  1.00  0.00    -0.205 F 
ATOM     70  C   UNL A   1      43.476  24.498  25.798  1.00  0.00     0.022 A 
BRANCH  68  71
ATOM     71  S   UNL A   1      41.991  22.312  26.514  1.00  0.00     0.127 S 
ATOM     72  O   UNL A   1      40.538  22.470  26.473  1.00  0.00    -0.237 OA
ATOM     73  O   UNL A   1      42.599  21.944  25.234  1.00  0.00    -0.237 OA
ATOM     74  O   UNL A   1      42.513  21.584  27.662  1.00  0.00    -0.744 OA
ENDBRANCH  68  71
ENDBRANCH  50  64
BRANCH  51  75
ATOM     75  C   UNL A   1      39.440  31.907  35.357  1.00  0.00     0.023 A 
ATOM     76  C   UNL A   1      38.518  31.350  36.263  1.00  0.00     0.012 A 
ATOM     77  C   UNL A   1      39.883  33.230  35.552  1.00  0.00     0.148 A 
ATOM     78  C   UNL A   1      38.024  32.105  37.328  1.00  0.00     0.002 A 
ATOM     79  C   UNL A   1      39.417  33.963  36.638  1.00  0.00     0.091 A 
ATOM     80  F   UNL A   1      40.746  33.750  34.667  1.00  0.00    -0.205 F 
ATOM     81  C   UNL A   1      38.478  33.406  37.521  1.00  0.00     0.022 A 
BRANCH  79  82
ATOM     82  S   UNL A   1      40.020  35.613  37.017  1.00  0.00     0.127 S 
ATOM     83  O   UNL A   1      39.554  36.375  35.861  1.00  0.00    -0.237 OA
ATOM     84  O   UNL A   1      39.327  35.912  38.271  1.00  0.00    -0.237 OA
ATOM     85  O   UNL A   1      41.464  35.478  37.149  1.00  0.00    -0.744 OA
ENDBRANCH  79  82
ENDBRANCH  51  75
BRANCH  63  86
ATOM     86  C   UNL A   1      45.103  27.934  34.407  1.00  0.00     0.023 A 
ATOM     87  C   UNL A   1      46.213  28.802  34.422  1.00  0.00     0.012 A 
ATOM     88  C   UNL A   1      45.090  26.815  35.265  1.00  0.00     0.148 A 
ATOM     89  C   UNL A   1      47.300  28.549  35.258  1.00  0.00     0.002 A 
ATOM     90  C   UNL A   1      46.159  26.593  36.125  1.00  0.00     0.091 A 
ATOM     91  F   UNL A   1      44.036  25.987  35.220  1.00  0.00    -0.205 F 
ATOM     92  C   UNL A   1      47.268  27.453  36.117  1.00  0.00     0.022 A 
BRANCH  90  93
ATOM     93  S   UNL A   1      46.158  25.256  37.328  1.00  0.00     0.127 S 
ATOM     94  O   UNL A   1      45.902  24.093  36.481  1.00  0.00    -0.237 OA
ATOM     95  O   UNL A   1      47.514  25.326  37.875  1.00  0.00    -0.237 OA
ATOM     96  O   UNL A   1      45.108  25.583  38.283  1.00  0.00    -0.744 OA
ENDBRANCH  90  93
ENDBRANCH  63  86
ENDBRANCH  37  38
ENDBRANCH  30  32
ENDBRANCH  29  30
ENDBRANCH  28  29
ENDBRANCH  27  28
ENDBRANCH  26  27
ENDBRANCH   1  26
TORSDOF 22
ENDMDL
