MODEL 1
REMARK VINA RESULT:     -11.5      0.000      0.000
REMARK SMILES CC(=O)Nc1cccc(-c2cc(F)ccc2C(=O)OCCOCCOC(=O)c2ccc(-c3c4nc(c(-c5cccc(S(=O)(=O)[O-])c5F)c5ccc([nH]5)c(-c5cccc(S(=O)(=O)[O-])c5F)c5nc(c(-c6cccc(S(=O)(=O)[O-])c6F)c6ccc3[nH]6)C=C5)C=C4)cc2)c1
REMARK SMILES IDX 23 1 22 2 21 3 20 4 19 5 17 6 18 7 16 8 10 9 11 10 12 11
REMARK SMILES IDX 15 12 13 13 14 14 9 15 5 16 6 17 91 18 7 19 8 20 4 21 1 22
REMARK SMILES IDX 2 23 3 24 24 26 25 27 26 28 27 29 28 30 29 31 90 32 30 33
REMARK SMILES IDX 89 34 31 35 32 36 33 37 83 38 34 39 88 40 82 41 84 42 35 43
REMARK SMILES IDX 87 44 81 45 80 46 36 48 68 49 48 50 67 51 49 52 52 53 66 54
REMARK SMILES IDX 85 55 50 56 51 57 65 59 86 60 53 61 37 62 38 63 46 64 39 65
REMARK SMILES IDX 41 66 47 67 40 68 42 69 43 70 44 71 45 72 69 73 70 74 78 75
REMARK SMILES IDX 71 76 73 77 79 78 72 79 74 80 75 81 76 82 77 83 54 84 55 85
REMARK SMILES IDX 63 86 56 87 58 88 64 89 57 90 59 91 60 92 61 93 62 94
REMARK H PARENT 4 25 84 47 52 58
REMARK Flexibility Score: inf
ROOT
ATOM      1  C   UNL A   1      31.401  32.375  26.398  1.00  0.00     0.202 C 
ENDROOT
BRANCH   1   2
ATOM      2  O   UNL A   1      31.404  30.955  26.257  1.00  0.00    -0.374 OA
BRANCH   2   3
ATOM      3  C   UNL A   1      32.410  30.222  26.961  1.00  0.00     0.202 C 
BRANCH   3   4
ATOM      4  C   UNL A   1      32.363  28.701  26.804  1.00  0.00     0.261 C 
BRANCH   4   5
ATOM      5  O   UNL A   1      31.152  28.311  26.139  1.00  0.00    -0.460 OA
BRANCH   5   6
ATOM      6  C   UNL A   1      31.045  27.006  25.819  1.00  0.00     0.338 C 
ATOM      7  O   UNL A   1      30.542  26.128  26.510  1.00  0.00    -0.246 OA
BRANCH   6   8
ATOM      8  C   UNL A   1      31.478  26.751  24.419  1.00  0.00     0.068 A 
ATOM      9  C   UNL A   1      30.811  27.198  23.251  1.00  0.00    -0.001 A 
ATOM     10  C   UNL A   1      31.428  26.908  22.012  1.00  0.00     0.048 A 
ATOM     11  C   UNL A   1      32.608  26.172  21.938  1.00  0.00     0.123 A 
ATOM     12  C   UNL A   1      32.668  25.996  24.320  1.00  0.00     0.019 A 
ATOM     13  F   UNL A   1      33.153  25.914  20.742  1.00  0.00    -0.207 F 
ATOM     14  C   UNL A   1      33.227  25.698  23.081  1.00  0.00     0.040 A 
BRANCH   9  15
ATOM     15  C   UNL A   1      29.517  27.922  23.240  1.00  0.00    -0.015 A 
ATOM     16  C   UNL A   1      28.240  30.011  23.165  1.00  0.00     0.041 A 
ATOM     17  C   UNL A   1      27.068  29.298  23.433  1.00  0.00     0.026 A 
ATOM     18  C   UNL A   1      29.442  29.311  23.030  1.00  0.00     0.034 A 
ATOM     19  C   UNL A   1      27.100  27.912  23.569  1.00  0.00     0.003 A 
ATOM     20  C   UNL A   1      28.316  27.234  23.493  1.00  0.00     0.009 A 
BRANCH  16  21
ATOM     21  N   UNL A   1      28.152  31.413  23.186  1.00  0.00    -0.326 N 
ATOM     22  C   UNL A   1      28.040  31.997  20.772  1.00  0.00     0.114 C 
ATOM     23  C   UNL A   1      28.304  32.351  22.208  1.00  0.00     0.221 C 
ATOM     24  O   UNL A   1      28.636  33.496  22.524  1.00  0.00    -0.275 OA
ATOM     25  H   UNL A   1      27.941  31.788  24.071  1.00  0.00     0.169 HD
ENDBRANCH  16  21
ENDBRANCH   9  15
ENDBRANCH   6   8
ENDBRANCH   5   6
ENDBRANCH   4   5
ENDBRANCH   3   4
ENDBRANCH   2   3
ENDBRANCH   1   2
BRANCH   1  26
ATOM     26  C   UNL A   1      32.172  32.966  27.586  1.00  0.00     0.261 C 
BRANCH  26  27
ATOM     27  O   UNL A   1      33.430  33.558  27.226  1.00  0.00    -0.460 OA
BRANCH  27  28
ATOM     28  C   UNL A   1      34.136  34.057  28.269  1.00  0.00     0.338 C 
ATOM     29  O   UNL A   1      33.845  35.027  28.960  1.00  0.00    -0.246 OA
BRANCH  28  30
ATOM     30  C   UNL A   1      35.279  33.184  28.587  1.00  0.00     0.060 A 
ATOM     31  C   UNL A   1      35.013  31.965  29.224  1.00  0.00     0.016 A 
ATOM     32  C   UNL A   1      36.593  33.601  28.371  1.00  0.00     0.016 A 
ATOM     33  C   UNL A   1      36.066  31.175  29.686  1.00  0.00     0.010 A 
ATOM     34  C   UNL A   1      37.647  32.807  28.837  1.00  0.00     0.010 A 
ATOM     35  C   UNL A   1      37.388  31.609  29.528  1.00  0.00    -0.014 A 
BRANCH  35  36
ATOM     36  C   UNL A   1      38.493  30.873  30.189  1.00  0.00     0.031 A 
ATOM     37  C   UNL A   1      38.883  31.237  31.596  1.00  0.00     0.074 A 
ATOM     38  C   UNL A   1      39.150  29.894  29.541  1.00  0.00     0.049 A 
ATOM     39  N   UNL A   1      39.840  30.749  32.342  1.00  0.00    -0.248 NA
ATOM     40  C   UNL A   1      38.090  32.292  32.250  1.00  0.00     0.031 C 
ATOM     41  C   UNL A   1      38.856  29.437  28.184  1.00  0.00     0.029 A 
ATOM     42  N   UNL A   1      40.219  29.125  29.929  1.00  0.00    -0.354 N 
ATOM     43  C   UNL A   1      39.782  31.452  33.539  1.00  0.00     0.074 A 
ATOM     44  C   UNL A   1      38.706  32.411  33.416  1.00  0.00     0.031 C 
ATOM     45  C   UNL A   1      39.751  28.498  27.835  1.00  0.00     0.029 A 
ATOM     46  C   UNL A   1      40.687  28.293  28.939  1.00  0.00     0.049 A 
ATOM     47  H   UNL A   1      40.613  29.166  30.830  1.00  0.00     0.167 HD
ATOM     48  C   UNL A   1      40.542  31.297  34.650  1.00  0.00     0.034 A 
ATOM     49  C   UNL A   1      41.756  27.472  28.922  1.00  0.00     0.034 A 
ATOM     50  C   UNL A   1      41.590  30.322  34.783  1.00  0.00     0.049 A 
ATOM     51  C   UNL A   1      42.597  27.334  30.164  1.00  0.00     0.074 A 
ATOM     52  C   UNL A   1      42.379  30.053  35.888  1.00  0.00     0.029 A 
ATOM     53  N   UNL A   1      42.006  29.463  33.778  1.00  0.00    -0.354 N 
ATOM     54  N   UNL A   1      42.451  27.916  31.331  1.00  0.00    -0.248 NA
ATOM     55  C   UNL A   1      43.730  26.397  30.101  1.00  0.00     0.031 C 
ATOM     56  C   UNL A   1      43.288  29.047  35.542  1.00  0.00     0.029 A 
ATOM     57  C   UNL A   1      43.047  28.673  34.229  1.00  0.00     0.049 A 
ATOM     58  H   UNL A   1      41.617  29.422  32.873  1.00  0.00     0.167 HD
ATOM     59  C   UNL A   1      43.444  27.387  32.149  1.00  0.00     0.074 A 
ATOM     60  C   UNL A   1      44.175  26.425  31.350  1.00  0.00     0.031 C 
ATOM     61  C   UNL A   1      43.731  27.679  33.442  1.00  0.00     0.034 A 
BRANCH  48  62
ATOM     62  C   UNL A   1      40.244  32.184  35.830  1.00  0.00     0.023 A 
ATOM     63  C   UNL A   1      41.020  33.340  36.045  1.00  0.00     0.012 A 
ATOM     64  C   UNL A   1      39.161  31.907  36.686  1.00  0.00     0.148 A 
ATOM     65  C   UNL A   1      40.741  34.194  37.111  1.00  0.00     0.002 A 
ATOM     66  C   UNL A   1      38.862  32.785  37.721  1.00  0.00     0.091 A 
ATOM     67  F   UNL A   1      38.450  30.790  36.477  1.00  0.00    -0.205 F 
ATOM     68  C   UNL A   1      39.656  33.923  37.942  1.00  0.00     0.022 A 
BRANCH  66  69
ATOM     69  S   UNL A   1      37.442  32.562  38.799  1.00  0.00     0.127 S 
ATOM     70  O   UNL A   1      37.635  31.186  39.257  1.00  0.00    -0.237 OA
ATOM     71  O   UNL A   1      37.668  33.582  39.823  1.00  0.00    -0.237 OA
ATOM     72  O   UNL A   1      36.268  32.785  37.968  1.00  0.00    -0.744 OA
ENDBRANCH  66  69
ENDBRANCH  48  62
BRANCH  49  73
ATOM     73  C   UNL A   1      42.070  26.686  27.696  1.00  0.00     0.023 A 
ATOM     74  C   UNL A   1      42.720  27.311  26.615  1.00  0.00     0.012 A 
ATOM     75  C   UNL A   1      41.739  25.321  27.603  1.00  0.00     0.148 A 
ATOM     76  C   UNL A   1      43.006  26.597  25.451  1.00  0.00     0.002 A 
ATOM     77  C   UNL A   1      42.074  24.603  26.462  1.00  0.00     0.091 A 
ATOM     78  F   UNL A   1      41.103  24.749  28.636  1.00  0.00    -0.205 F 
ATOM     79  C   UNL A   1      42.693  25.241  25.378  1.00  0.00     0.022 A 
BRANCH  77  80
ATOM     80  S   UNL A   1      41.813  22.829  26.339  1.00  0.00     0.127 S 
ATOM     81  O   UNL A   1      42.443  22.522  25.058  1.00  0.00    -0.237 OA
ATOM     82  O   UNL A   1      42.531  22.330  27.513  1.00  0.00    -0.237 OA
ATOM     83  O   UNL A   1      40.369  22.643  26.399  1.00  0.00    -0.744 OA
ENDBRANCH  77  80
ENDBRANCH  49  73
BRANCH  61  84
ATOM     84  C   UNL A   1      44.864  26.931  34.097  1.00  0.00     0.023 A 
ATOM     85  C   UNL A   1      46.185  27.402  33.960  1.00  0.00     0.012 A 
ATOM     86  C   UNL A   1      44.610  25.812  34.914  1.00  0.00     0.148 A 
ATOM     87  C   UNL A   1      47.239  26.751  34.601  1.00  0.00     0.002 A 
ATOM     88  C   UNL A   1      45.659  25.196  35.588  1.00  0.00     0.091 A 
ATOM     89  F   UNL A   1      43.348  25.368  35.018  1.00  0.00    -0.205 F 
ATOM     90  C   UNL A   1      46.975  25.657  35.423  1.00  0.00     0.022 A 
BRANCH  88  91
ATOM     91  S   UNL A   1      45.401  23.845  36.743  1.00  0.00     0.127 S 
ATOM     92  O   UNL A   1      44.427  24.423  37.666  1.00  0.00    -0.237 OA
ATOM     93  O   UNL A   1      44.869  22.793  35.875  1.00  0.00    -0.237 OA
ATOM     94  O   UNL A   1      46.709  23.550  37.313  1.00  0.00    -0.744 OA
ENDBRANCH  88  91
ENDBRANCH  61  84
ENDBRANCH  35  36
ENDBRANCH  28  30
ENDBRANCH  27  28
ENDBRANCH  26  27
ENDBRANCH   1  26
TORSDOF 19
ENDMDL
MODEL 2
REMARK VINA RESULT:     -11.5      6.176     11.745
REMARK SMILES CC(=O)Nc1cccc(-c2cc(F)ccc2C(=O)OCCOCCOC(=O)c2ccc(-c3c4nc(c(-c5cccc(S(=O)(=O)[O-])c5F)c5ccc([nH]5)c(-c5cccc(S(=O)(=O)[O-])c5F)c5nc(c(-c6cccc(S(=O)(=O)[O-])c6F)c6ccc3[nH]6)C=C5)C=C4)cc2)c1
REMARK SMILES IDX 23 1 22 2 21 3 20 4 19 5 17 6 18 7 16 8 10 9 11 10 12 11
REMARK SMILES IDX 15 12 13 13 14 14 9 15 5 16 6 17 91 18 7 19 8 20 4 21 1 22
REMARK SMILES IDX 2 23 3 24 24 26 25 27 26 28 27 29 28 30 29 31 90 32 30 33
REMARK SMILES IDX 89 34 31 35 32 36 33 37 83 38 34 39 88 40 82 41 84 42 35 43
REMARK SMILES IDX 87 44 81 45 80 46 36 48 68 49 48 50 67 51 49 52 52 53 66 54
REMARK SMILES IDX 85 55 50 56 51 57 65 59 86 60 53 61 37 62 38 63 46 64 39 65
REMARK SMILES IDX 41 66 47 67 40 68 42 69 43 70 44 71 45 72 69 73 70 74 78 75
REMARK SMILES IDX 71 76 73 77 79 78 72 79 74 80 75 81 76 82 77 83 54 84 55 85
REMARK SMILES IDX 63 86 56 87 58 88 64 89 57 90 59 91 60 92 61 93 62 94
REMARK H PARENT 4 25 84 47 52 58
REMARK Flexibility Score: inf
ROOT
ATOM      1  C   UNL A   1      38.664  20.329  25.273  1.00  0.00     0.202 C 
ENDROOT
BRANCH   1   2
ATOM      2  O   UNL A   1      38.556  21.553  25.998  1.00  0.00    -0.374 OA
BRANCH   2   3
ATOM      3  C   UNL A   1      37.431  22.390  25.720  1.00  0.00     0.202 C 
BRANCH   3   4
ATOM      4  C   UNL A   1      36.077  21.685  25.634  1.00  0.00     0.261 C 
BRANCH   4   5
ATOM      5  O   UNL A   1      35.663  21.575  24.264  1.00  0.00    -0.460 OA
BRANCH   5   6
ATOM      6  C   UNL A   1      34.790  22.507  23.832  1.00  0.00     0.338 C 
ATOM      7  O   UNL A   1      34.887  23.173  22.809  1.00  0.00    -0.246 OA
BRANCH   6   8
ATOM      8  C   UNL A   1      33.567  22.542  24.678  1.00  0.00     0.068 A 
ATOM      9  C   UNL A   1      32.597  21.512  24.775  1.00  0.00    -0.001 A 
ATOM     10  C   UNL A   1      31.540  21.713  25.693  1.00  0.00     0.048 A 
ATOM     11  C   UNL A   1      31.427  22.889  26.430  1.00  0.00     0.123 A 
ATOM     12  C   UNL A   1      33.425  23.732  25.426  1.00  0.00     0.019 A 
ATOM     13  F   UNL A   1      30.405  23.040  27.282  1.00  0.00    -0.207 F 
ATOM     14  C   UNL A   1      32.351  23.910  26.292  1.00  0.00     0.040 A 
BRANCH   9  15
ATOM     15  C   UNL A   1      32.606  20.264  23.974  1.00  0.00    -0.015 A 
ATOM     16  C   UNL A   1      33.319  17.943  23.645  1.00  0.00     0.041 A 
ATOM     17  C   UNL A   1      32.792  17.971  22.351  1.00  0.00     0.026 A 
ATOM     18  C   UNL A   1      33.183  19.074  24.455  1.00  0.00     0.034 A 
ATOM     19  C   UNL A   1      32.146  19.109  21.875  1.00  0.00     0.003 A 
ATOM     20  C   UNL A   1      32.072  20.251  22.672  1.00  0.00     0.009 A 
BRANCH  16  21
ATOM     21  N   UNL A   1      34.079  16.817  24.000  1.00  0.00    -0.326 N 
ATOM     22  C   UNL A   1      32.610  15.647  25.629  1.00  0.00     0.114 C 
ATOM     23  C   UNL A   1      33.955  15.915  25.016  1.00  0.00     0.221 C 
ATOM     24  O   UNL A   1      34.956  15.308  25.404  1.00  0.00    -0.275 OA
ATOM     25  H   UNL A   1      34.845  16.646  23.405  1.00  0.00     0.169 HD
ENDBRANCH  16  21
ENDBRANCH   9  15
ENDBRANCH   6   8
ENDBRANCH   5   6
ENDBRANCH   4   5
ENDBRANCH   3   4
ENDBRANCH   2   3
ENDBRANCH   1   2
BRANCH   1  26
ATOM     26  C   UNL A   1      39.573  19.240  25.860  1.00  0.00     0.261 C 
BRANCH  26  27
ATOM     27  O   UNL A   1      40.941  19.333  25.433  1.00  0.00    -0.460 OA
BRANCH  27  28
ATOM     28  C   UNL A   1      41.821  19.617  26.423  1.00  0.00     0.338 C 
ATOM     29  O   UNL A   1      42.608  18.842  26.956  1.00  0.00    -0.246 OA
BRANCH  28  30
ATOM     30  C   UNL A   1      41.828  21.061  26.713  1.00  0.00     0.060 A 
ATOM     31  C   UNL A   1      42.027  21.942  25.642  1.00  0.00     0.016 A 
ATOM     32  C   UNL A   1      41.756  21.540  28.022  1.00  0.00     0.016 A 
ATOM     33  C   UNL A   1      42.196  23.305  25.882  1.00  0.00     0.010 A 
ATOM     34  C   UNL A   1      41.929  22.907  28.260  1.00  0.00     0.010 A 
ATOM     35  C   UNL A   1      42.186  23.792  27.195  1.00  0.00    -0.014 A 
BRANCH  35  36
ATOM     36  C   UNL A   1      42.562  25.201  27.467  1.00  0.00     0.031 A 
ATOM     37  C   UNL A   1      43.931  25.687  27.076  1.00  0.00     0.074 A 
ATOM     38  C   UNL A   1      41.696  26.039  28.065  1.00  0.00     0.049 A 
ATOM     39  N   UNL A   1      44.474  26.862  27.255  1.00  0.00    -0.248 NA
ATOM     40  C   UNL A   1      44.805  24.719  26.391  1.00  0.00     0.031 C 
ATOM     41  C   UNL A   1      40.337  25.694  28.476  1.00  0.00     0.029 A 
ATOM     42  N   UNL A   1      41.842  27.347  28.453  1.00  0.00    -0.354 N 
ATOM     43  C   UNL A   1      45.758  26.771  26.731  1.00  0.00     0.074 A 
ATOM     44  C   UNL A   1      45.920  25.419  26.241  1.00  0.00     0.031 C 
ATOM     45  C   UNL A   1      39.786  26.749  29.099  1.00  0.00     0.029 A 
ATOM     46  C   UNL A   1      40.757  27.841  29.140  1.00  0.00     0.049 A 
ATOM     47  H   UNL A   1      42.645  27.881  28.259  1.00  0.00     0.167 HD
ATOM     48  C   UNL A   1      46.709  27.731  26.646  1.00  0.00     0.034 A 
ATOM     49  C   UNL A   1      40.575  29.033  29.743  1.00  0.00     0.034 A 
ATOM     50  C   UNL A   1      46.537  29.083  27.105  1.00  0.00     0.049 A 
ATOM     51  C   UNL A   1      41.658  30.077  29.652  1.00  0.00     0.074 A 
ATOM     52  C   UNL A   1      47.423  30.141  27.014  1.00  0.00     0.029 A 
ATOM     53  N   UNL A   1      45.408  29.561  27.752  1.00  0.00    -0.354 N 
ATOM     54  N   UNL A   1      42.818  30.013  29.043  1.00  0.00    -0.248 NA
ATOM     55  C   UNL A   1      41.391  31.372  30.298  1.00  0.00     0.031 C 
ATOM     56  C   UNL A   1      46.839  31.255  27.627  1.00  0.00     0.029 A 
ATOM     57  C   UNL A   1      45.578  30.896  28.078  1.00  0.00     0.049 A 
ATOM     58  H   UNL A   1      44.603  29.030  27.951  1.00  0.00     0.167 HD
ATOM     59  C   UNL A   1      43.400  31.267  29.197  1.00  0.00     0.074 A 
ATOM     60  C   UNL A   1      42.458  32.076  29.943  1.00  0.00     0.031 C 
ATOM     61  C   UNL A   1      44.610  31.706  28.771  1.00  0.00     0.034 A 
BRANCH  48  62
ATOM     62  C   UNL A   1      48.018  27.363  25.999  1.00  0.00     0.023 A 
ATOM     63  C   UNL A   1      49.049  26.807  26.782  1.00  0.00     0.012 A 
ATOM     64  C   UNL A   1      48.204  27.510  24.612  1.00  0.00     0.148 A 
ATOM     65  C   UNL A   1      50.257  26.427  26.198  1.00  0.00     0.002 A 
ATOM     66  C   UNL A   1      49.395  27.091  24.030  1.00  0.00     0.091 A 
ATOM     67  F   UNL A   1      47.220  28.063  23.889  1.00  0.00    -0.205 F 
ATOM     68  C   UNL A   1      50.426  26.559  24.822  1.00  0.00     0.022 A 
BRANCH  66  69
ATOM     69  S   UNL A   1      49.679  27.150  22.257  1.00  0.00     0.127 S 
ATOM     70  O   UNL A   1      49.432  28.563  21.967  1.00  0.00    -0.237 OA
ATOM     71  O   UNL A   1      51.080  26.743  22.155  1.00  0.00    -0.237 OA
ATOM     72  O   UNL A   1      48.730  26.217  21.667  1.00  0.00    -0.744 OA
ENDBRANCH  66  69
ENDBRANCH  48  62
BRANCH  49  73
ATOM     73  C   UNL A   1      39.299  29.317  30.458  1.00  0.00     0.023 A 
ATOM     74  C   UNL A   1      39.055  28.726  31.712  1.00  0.00     0.012 A 
ATOM     75  C   UNL A   1      38.334  30.180  29.905  1.00  0.00     0.148 A 
ATOM     76  C   UNL A   1      37.858  28.965  32.388  1.00  0.00     0.002 A 
ATOM     77  C   UNL A   1      37.167  30.455  30.608  1.00  0.00     0.091 A 
ATOM     78  F   UNL A   1      38.576  30.718  28.701  1.00  0.00    -0.205 F 
ATOM     79  C   UNL A   1      36.919  29.837  31.842  1.00  0.00     0.022 A 
BRANCH  77  80
ATOM     80  S   UNL A   1      35.964  31.659  30.028  1.00  0.00     0.127 S 
ATOM     81  O   UNL A   1      35.404  30.982  28.861  1.00  0.00    -0.237 OA
ATOM     82  O   UNL A   1      35.059  31.765  31.172  1.00  0.00    -0.237 OA
ATOM     83  O   UNL A   1      36.727  32.869  29.755  1.00  0.00    -0.744 OA
ENDBRANCH  77  80
ENDBRANCH  49  73
BRANCH  61  84
ATOM     84  C   UNL A   1      44.983  33.137  29.064  1.00  0.00     0.023 A 
ATOM     85  C   UNL A   1      45.526  33.475  30.319  1.00  0.00     0.012 A 
ATOM     86  C   UNL A   1      44.871  34.128  28.069  1.00  0.00     0.148 A 
ATOM     87  C   UNL A   1      45.924  34.785  30.590  1.00  0.00     0.002 A 
ATOM     88  C   UNL A   1      45.313  35.421  28.329  1.00  0.00     0.091 A 
ATOM     89  F   UNL A   1      44.334  33.791  26.886  1.00  0.00    -0.205 F 
ATOM     90  C   UNL A   1      45.828  35.753  29.593  1.00  0.00     0.022 A 
BRANCH  88  91
ATOM     91  S   UNL A   1      45.318  36.707  27.075  1.00  0.00     0.127 S 
ATOM     92  O   UNL A   1      43.895  37.021  26.964  1.00  0.00    -0.237 OA
ATOM     93  O   UNL A   1      46.125  37.753  27.706  1.00  0.00    -0.237 OA
ATOM     94  O   UNL A   1      45.923  36.110  25.892  1.00  0.00    -0.744 OA
ENDBRANCH  88  91
ENDBRANCH  61  84
ENDBRANCH  35  36
ENDBRANCH  28  30
ENDBRANCH  27  28
ENDBRANCH  26  27
ENDBRANCH   1  26
TORSDOF 19
ENDMDL
MODEL 3
REMARK VINA RESULT:     -11.4      5.231     10.351
REMARK SMILES CC(=O)Nc1cccc(-c2cc(F)ccc2C(=O)OCCOCCOC(=O)c2ccc(-c3c4nc(c(-c5cccc(S(=O)(=O)[O-])c5F)c5ccc([nH]5)c(-c5cccc(S(=O)(=O)[O-])c5F)c5nc(c(-c6cccc(S(=O)(=O)[O-])c6F)c6ccc3[nH]6)C=C5)C=C4)cc2)c1
REMARK SMILES IDX 23 1 22 2 21 3 20 4 19 5 17 6 18 7 16 8 10 9 11 10 12 11
REMARK SMILES IDX 15 12 13 13 14 14 9 15 5 16 6 17 91 18 7 19 8 20 4 21 1 22
REMARK SMILES IDX 2 23 3 24 24 26 25 27 26 28 27 29 28 30 29 31 90 32 30 33
REMARK SMILES IDX 89 34 31 35 32 36 33 37 83 38 34 39 88 40 82 41 84 42 35 43
REMARK SMILES IDX 87 44 81 45 80 46 36 48 68 49 48 50 67 51 49 52 52 53 66 54
REMARK SMILES IDX 85 55 50 56 51 57 65 59 86 60 53 61 37 62 38 63 46 64 39 65
REMARK SMILES IDX 41 66 47 67 40 68 42 69 43 70 44 71 45 72 69 73 70 74 78 75
REMARK SMILES IDX 71 76 73 77 79 78 72 79 74 80 75 81 76 82 77 83 54 84 55 85
REMARK SMILES IDX 63 86 56 87 58 88 64 89 57 90 59 91 60 92 61 93 62 94
REMARK H PARENT 4 25 84 47 52 58
REMARK Flexibility Score: inf
ROOT
ATOM      1  C   UNL A   1      36.842  20.382  24.647  1.00  0.00     0.202 C 
ENDROOT
BRANCH   1   2
ATOM      2  O   UNL A   1      36.742  21.757  24.279  1.00  0.00    -0.374 OA
BRANCH   2   3
ATOM      3  C   UNL A   1      35.527  22.440  24.595  1.00  0.00     0.202 C 
BRANCH   3   4
ATOM      4  C   UNL A   1      35.270  23.738  23.828  1.00  0.00     0.261 C 
BRANCH   4   5
ATOM      5  O   UNL A   1      34.367  24.576  24.564  1.00  0.00    -0.460 OA
BRANCH   5   6
ATOM      6  C   UNL A   1      33.133  24.723  24.041  1.00  0.00     0.338 C 
ATOM      7  O   UNL A   1      32.866  25.039  22.889  1.00  0.00    -0.246 OA
BRANCH   6   8
ATOM      8  C   UNL A   1      32.080  24.297  25.002  1.00  0.00     0.068 A 
ATOM      9  C   UNL A   1      31.219  25.162  25.725  1.00  0.00    -0.001 A 
ATOM     10  C   UNL A   1      30.236  24.552  26.538  1.00  0.00     0.048 A 
ATOM     11  C   UNL A   1      30.149  23.168  26.665  1.00  0.00     0.123 A 
ATOM     12  C   UNL A   1      31.982  22.896  25.155  1.00  0.00     0.019 A 
ATOM     13  F   UNL A   1      29.207  22.634  27.452  1.00  0.00    -0.207 F 
ATOM     14  C   UNL A   1      31.025  22.333  25.993  1.00  0.00     0.040 A 
BRANCH   9  15
ATOM     15  C   UNL A   1      31.294  26.643  25.702  1.00  0.00    -0.015 A 
ATOM     16  C   UNL A   1      30.999  28.777  24.537  1.00  0.00     0.041 A 
ATOM     17  C   UNL A   1      31.637  29.435  25.592  1.00  0.00     0.026 A 
ATOM     18  C   UNL A   1      30.798  27.397  24.623  1.00  0.00     0.034 A 
ATOM     19  C   UNL A   1      32.070  28.725  26.709  1.00  0.00     0.003 A 
ATOM     20  C   UNL A   1      31.918  27.340  26.754  1.00  0.00     0.009 A 
BRANCH  16  21
ATOM     21  N   UNL A   1      30.722  29.535  23.387  1.00  0.00    -0.326 N 
ATOM     22  C   UNL A   1      28.355  28.955  22.897  1.00  0.00     0.114 C 
ATOM     23  C   UNL A   1      29.699  29.487  22.487  1.00  0.00     0.221 C 
ATOM     24  O   UNL A   1      29.888  29.909  21.343  1.00  0.00    -0.275 OA
ATOM     25  H   UNL A   1      31.392  30.231  23.195  1.00  0.00     0.169 HD
ENDBRANCH  16  21
ENDBRANCH   9  15
ENDBRANCH   6   8
ENDBRANCH   5   6
ENDBRANCH   4   5
ENDBRANCH   3   4
ENDBRANCH   2   3
ENDBRANCH   1   2
BRANCH   1  26
ATOM     26  C   UNL A   1      38.231  19.854  25.031  1.00  0.00     0.261 C 
BRANCH  26  27
ATOM     27  O   UNL A   1      38.669  20.269  26.335  1.00  0.00    -0.460 OA
BRANCH  27  28
ATOM     28  C   UNL A   1      40.006  20.455  26.446  1.00  0.00     0.338 C 
ATOM     29  O   UNL A   1      40.891  19.694  26.071  1.00  0.00    -0.246 OA
BRANCH  28  30
ATOM     30  C   UNL A   1      40.301  21.801  26.966  1.00  0.00     0.060 A 
ATOM     31  C   UNL A   1      39.682  22.893  26.345  1.00  0.00     0.016 A 
ATOM     32  C   UNL A   1      41.252  22.000  27.969  1.00  0.00     0.016 A 
ATOM     33  C   UNL A   1      40.044  24.193  26.696  1.00  0.00     0.010 A 
ATOM     34  C   UNL A   1      41.614  23.305  28.317  1.00  0.00     0.010 A 
ATOM     35  C   UNL A   1      41.038  24.407  27.658  1.00  0.00    -0.014 A 
BRANCH  35  36
ATOM     36  C   UNL A   1      41.564  25.776  27.888  1.00  0.00     0.031 A 
ATOM     37  C   UNL A   1      42.958  26.115  27.438  1.00  0.00     0.074 A 
ATOM     38  C   UNL A   1      40.810  26.706  28.502  1.00  0.00     0.049 A 
ATOM     39  N   UNL A   1      43.623  27.233  27.574  1.00  0.00    -0.248 NA
ATOM     40  C   UNL A   1      43.704  25.054  26.739  1.00  0.00     0.031 C 
ATOM     41  C   UNL A   1      39.440  26.505  28.970  1.00  0.00     0.029 A 
ATOM     42  N   UNL A   1      41.100  27.998  28.860  1.00  0.00    -0.354 N 
ATOM     43  C   UNL A   1      44.870  27.005  27.005  1.00  0.00     0.074 A 
ATOM     44  C   UNL A   1      44.877  25.636  26.535  1.00  0.00     0.031 C 
ATOM     45  C   UNL A   1      39.022  27.619  29.593  1.00  0.00     0.029 A 
ATOM     46  C   UNL A   1      40.098  28.609  29.577  1.00  0.00     0.049 A 
ATOM     47  H   UNL A   1      41.946  28.445  28.626  1.00  0.00     0.167 HD
ATOM     48  C   UNL A   1      45.908  27.863  26.867  1.00  0.00     0.034 A 
ATOM     49  C   UNL A   1      40.060  29.822  30.164  1.00  0.00     0.034 A 
ATOM     50  C   UNL A   1      45.889  29.232  27.306  1.00  0.00     0.049 A 
ATOM     51  C   UNL A   1      41.237  30.750  30.013  1.00  0.00     0.074 A 
ATOM     52  C   UNL A   1      46.873  30.195  27.162  1.00  0.00     0.029 A 
ATOM     53  N   UNL A   1      44.841  29.832  27.986  1.00  0.00    -0.354 N 
ATOM     54  N   UNL A   1      42.361  30.561  29.363  1.00  0.00    -0.248 NA
ATOM     55  C   UNL A   1      41.126  32.075  30.644  1.00  0.00     0.031 C 
ATOM     56  C   UNL A   1      46.427  31.371  27.775  1.00  0.00     0.029 A 
ATOM     57  C   UNL A   1      45.156  31.147  28.280  1.00  0.00     0.049 A 
ATOM     58  H   UNL A   1      43.995  29.387  28.225  1.00  0.00     0.167 HD
ATOM     59  C   UNL A   1      43.070  31.753  29.472  1.00  0.00     0.074 A 
ATOM     60  C   UNL A   1      42.243  32.663  30.237  1.00  0.00     0.031 C 
ATOM     61  C   UNL A   1      44.301  32.061  28.992  1.00  0.00     0.034 A 
BRANCH  48  62
ATOM     62  C   UNL A   1      47.148  27.356  26.179  1.00  0.00     0.023 A 
ATOM     63  C   UNL A   1      47.340  27.620  24.808  1.00  0.00     0.012 A 
ATOM     64  C   UNL A   1      48.147  26.676  26.901  1.00  0.00     0.148 A 
ATOM     65  C   UNL A   1      48.497  27.190  24.158  1.00  0.00     0.002 A 
ATOM     66  C   UNL A   1      49.316  26.287  26.256  1.00  0.00     0.091 A 
ATOM     67  F   UNL A   1      47.934  26.415  28.198  1.00  0.00    -0.205 F 
ATOM     68  C   UNL A   1      49.488  26.534  24.884  1.00  0.00     0.022 A 
BRANCH  66  69
ATOM     69  S   UNL A   1      50.681  25.502  27.120  1.00  0.00     0.127 S 
ATOM     70  O   UNL A   1      51.620  25.258  26.025  1.00  0.00    -0.237 OA
ATOM     71  O   UNL A   1      51.096  26.548  28.056  1.00  0.00    -0.237 OA
ATOM     72  O   UNL A   1      50.128  24.311  27.747  1.00  0.00    -0.744 OA
ENDBRANCH  66  69
ENDBRANCH  48  62
BRANCH  49  73
ATOM     73  C   UNL A   1      38.847  30.244  30.921  1.00  0.00     0.023 A 
ATOM     74  C   UNL A   1      38.743  29.949  32.293  1.00  0.00     0.012 A 
ATOM     75  C   UNL A   1      37.804  30.947  30.287  1.00  0.00     0.148 A 
ATOM     76  C   UNL A   1      37.607  30.319  33.014  1.00  0.00     0.002 A 
ATOM     77  C   UNL A   1      36.700  31.358  31.023  1.00  0.00     0.091 A 
ATOM     78  F   UNL A   1      37.914  31.201  28.975  1.00  0.00    -0.205 F 
ATOM     79  C   UNL A   1      36.591  31.032  32.383  1.00  0.00     0.022 A 
BRANCH  77  80
ATOM     80  S   UNL A   1      35.406  32.383  30.311  1.00  0.00     0.127 S 
ATOM     81  O   UNL A   1      34.432  32.434  31.398  1.00  0.00    -0.237 OA
ATOM     82  O   UNL A   1      36.113  33.639  30.058  1.00  0.00    -0.237 OA
ATOM     83  O   UNL A   1      34.978  31.686  29.105  1.00  0.00    -0.744 OA
ENDBRANCH  77  80
ENDBRANCH  49  73
BRANCH  61  84
ATOM     84  C   UNL A   1      44.826  33.451  29.244  1.00  0.00     0.023 A 
ATOM     85  C   UNL A   1      45.475  33.744  30.460  1.00  0.00     0.012 A 
ATOM     86  C   UNL A   1      44.748  34.442  28.246  1.00  0.00     0.148 A 
ATOM     87  C   UNL A   1      46.011  35.011  30.690  1.00  0.00     0.002 A 
ATOM     88  C   UNL A   1      45.327  35.688  28.462  1.00  0.00     0.091 A 
ATOM     89  F   UNL A   1      44.111  34.150  27.102  1.00  0.00    -0.205 F 
ATOM     90  C   UNL A   1      45.948  35.978  29.688  1.00  0.00     0.022 A 
BRANCH  88  91
ATOM     91  S   UNL A   1      45.379  36.959  27.194  1.00  0.00     0.127 S 
ATOM     92  O   UNL A   1      46.238  37.965  27.815  1.00  0.00    -0.237 OA
ATOM     93  O   UNL A   1      45.986  36.250  26.067  1.00  0.00    -0.237 OA
ATOM     94  O   UNL A   1      43.996  37.363  26.976  1.00  0.00    -0.744 OA
ENDBRANCH  88  91
ENDBRANCH  61  84
ENDBRANCH  35  36
ENDBRANCH  28  30
ENDBRANCH  27  28
ENDBRANCH  26  27
ENDBRANCH   1  26
TORSDOF 19
ENDMDL
