MODEL 1
REMARK VINA RESULT:     -11.2      0.000      0.000
REMARK SMILES Cc1cc(=O)c(Oc2ccc(C(=O)OCCOCCOC(=O)c3ccc(-c4c5nc(c(-c6cccc(S(=O)(=O)[O-])c6F)c6ccc([nH]6)c(-c6cccc(S(=O)(=O)[O-])c6F)c6nc(c(-c7cccc(S(=O)(=O)[O-])c7F)c7ccc4[nH]7)C=C6)C=C5)cc3)cc2)c(-c2ccc(S(C)(=O)=O)cc2)o1
REMARK SMILES IDX 16 1 15 2 14 3 12 4 13 5 11 6 8 7 9 8 87 9 10 10 86 11 7 12
REMARK SMILES IDX 6 13 1 14 2 15 3 16 99 17 4 18 88 19 5 20 89 21 90 22 98 23
REMARK SMILES IDX 91 24 97 25 92 26 93 27 94 28 95 29 96 30 17 31 18 32 19 33
REMARK SMILES IDX 20 34 21 35 22 36 23 37 24 38 85 39 25 40 84 41 26 42 27 43
REMARK SMILES IDX 28 44 78 45 29 46 83 47 77 48 79 49 30 50 82 51 76 52 75 53
REMARK SMILES IDX 31 55 63 56 43 57 62 58 44 59 47 60 61 61 80 62 45 63 46 64
REMARK SMILES IDX 60 66 81 67 48 68 32 69 33 70 41 71 34 72 36 73 42 74 35 75
REMARK SMILES IDX 37 76 38 77 39 78 40 79 64 80 65 81 73 82 66 83 68 84 74 85
REMARK SMILES IDX 67 86 69 87 70 88 71 89 72 90 49 91 50 92 58 93 51 94 53 95
REMARK SMILES IDX 59 96 52 97 54 98 55 99 56 100 57 101
REMARK H PARENT 79 54 47 65
REMARK Flexibility Score: inf
ROOT
ATOM      1  C   UNL A   1      42.452  22.037  26.409  1.00  0.00     0.202 C 
ENDROOT
BRANCH   1   2
ATOM      2  C   UNL A   1      41.275  22.984  26.137  1.00  0.00     0.261 C 
BRANCH   2   3
ATOM      3  O   UNL A   1      40.074  22.496  26.762  1.00  0.00    -0.460 OA
BRANCH   3   4
ATOM      4  C   UNL A   1      39.372  21.574  26.057  1.00  0.00     0.338 C 
ATOM      5  O   UNL A   1      39.683  20.410  25.864  1.00  0.00    -0.246 OA
BRANCH   4   6
ATOM      6  C   UNL A   1      38.064  22.141  25.624  1.00  0.00     0.060 A 
ATOM      7  C   UNL A   1      35.509  23.015  24.865  1.00  0.00     0.127 A 
ATOM      8  C   UNL A   1      36.043  21.865  24.294  1.00  0.00     0.048 A 
ATOM      9  C   UNL A   1      36.277  23.771  25.756  1.00  0.00     0.048 A 
ATOM     10  C   UNL A   1      37.303  21.412  24.695  1.00  0.00     0.019 A 
ATOM     11  C   UNL A   1      37.551  23.338  26.139  1.00  0.00     0.019 A 
BRANCH   7  12
ATOM     12  O   UNL A   1      34.330  23.566  24.456  1.00  0.00    -0.449 OA
BRANCH  12  13
ATOM     13  C   UNL A   1      33.087  23.316  25.007  1.00  0.00     0.217 A 
ATOM     14  C   UNL A   1      29.347  23.044  27.158  1.00  0.00     0.088 C 
ATOM     15  C   UNL A   1      30.595  23.279  26.370  1.00  0.00     0.105 A 
ATOM     16  C   UNL A   1      31.122  24.485  26.157  1.00  0.00     0.098 A 
ATOM     17  O   UNL A   1      31.175  22.129  25.892  1.00  0.00    -0.457 OA
ATOM     18  C   UNL A   1      32.371  24.583  25.387  1.00  0.00     0.228 A 
ATOM     19  C   UNL A   1      32.430  22.163  25.292  1.00  0.00     0.180 A 
ATOM     20  O   UNL A   1      32.802  25.695  25.094  1.00  0.00    -0.285 OA
BRANCH  19  21
ATOM     21  C   UNL A   1      32.858  20.778  25.057  1.00  0.00     0.021 A 
ATOM     22  C   UNL A   1      32.517  20.149  23.845  1.00  0.00     0.013 A 
ATOM     23  C   UNL A   1      33.440  20.024  26.077  1.00  0.00     0.013 A 
ATOM     24  C   UNL A   1      32.813  18.802  23.624  1.00  0.00     0.021 A 
ATOM     25  C   UNL A   1      33.685  18.666  25.870  1.00  0.00     0.021 A 
ATOM     26  C   UNL A   1      33.407  18.066  24.642  1.00  0.00     0.067 A 
BRANCH  26  27
ATOM     27  S   UNL A   1      33.914  16.385  24.356  1.00  0.00     0.175 S 
ATOM     28  C   UNL A   1      32.680  15.397  25.150  1.00  0.00     0.163 C 
ATOM     29  O   UNL A   1      33.830  16.139  22.928  1.00  0.00    -0.224 OA
ATOM     30  O   UNL A   1      35.160  16.212  25.069  1.00  0.00    -0.224 OA
ENDBRANCH  26  27
ENDBRANCH  19  21
ENDBRANCH  12  13
ENDBRANCH   7  12
ENDBRANCH   4   6
ENDBRANCH   3   4
ENDBRANCH   2   3
ENDBRANCH   1   2
BRANCH   1  31
ATOM     31  O   UNL A   1      43.262  21.784  25.263  1.00  0.00    -0.374 OA
BRANCH  31  32
ATOM     32  C   UNL A   1      44.628  22.175  25.407  1.00  0.00     0.202 C 
BRANCH  32  33
ATOM     33  C   UNL A   1      44.932  23.444  24.616  1.00  0.00     0.261 C 
BRANCH  33  34
ATOM     34  O   UNL A   1      44.276  24.547  25.216  1.00  0.00    -0.460 OA
BRANCH  34  35
ATOM     35  C   UNL A   1      44.968  25.706  25.288  1.00  0.00     0.338 C 
ATOM     36  O   UNL A   1      45.791  26.143  24.522  1.00  0.00    -0.246 OA
BRANCH  35  37
ATOM     37  C   UNL A   1      44.317  26.419  26.404  1.00  0.00     0.060 A 
ATOM     38  C   UNL A   1      44.528  27.798  26.557  1.00  0.00     0.016 A 
ATOM     39  C   UNL A   1      43.634  25.678  27.370  1.00  0.00     0.016 A 
ATOM     40  C   UNL A   1      44.110  28.427  27.708  1.00  0.00     0.010 A 
ATOM     41  C   UNL A   1      43.152  26.327  28.501  1.00  0.00     0.010 A 
ATOM     42  C   UNL A   1      43.388  27.699  28.664  1.00  0.00    -0.014 A 
BRANCH  42  43
ATOM     43  C   UNL A   1      42.738  28.466  29.734  1.00  0.00     0.031 A 
ATOM     44  C   UNL A   1      41.330  28.929  29.607  1.00  0.00     0.074 A 
ATOM     45  C   UNL A   1      43.470  28.660  30.848  1.00  0.00     0.049 A 
ATOM     46  N   UNL A   1      40.590  29.512  30.508  1.00  0.00    -0.248 NA
ATOM     47  C   UNL A   1      40.659  28.718  28.314  1.00  0.00     0.031 C 
ATOM     48  C   UNL A   1      44.868  28.238  31.009  1.00  0.00     0.029 A 
ATOM     49  N   UNL A   1      43.150  29.221  32.048  1.00  0.00    -0.354 N 
ATOM     50  C   UNL A   1      39.380  29.776  29.886  1.00  0.00     0.074 A 
ATOM     51  C   UNL A   1      39.475  29.280  28.531  1.00  0.00     0.031 C 
ATOM     52  C   UNL A   1      45.269  28.514  32.255  1.00  0.00     0.029 A 
ATOM     53  C   UNL A   1      44.178  29.175  32.958  1.00  0.00     0.049 A 
ATOM     54  H   UNL A   1      42.271  29.619  32.245  1.00  0.00     0.167 HD
ATOM     55  C   UNL A   1      38.294  30.376  30.422  1.00  0.00     0.034 A 
ATOM     56  C   UNL A   1      44.236  29.626  34.223  1.00  0.00     0.034 A 
ATOM     57  C   UNL A   1      38.234  30.828  31.785  1.00  0.00     0.049 A 
ATOM     58  C   UNL A   1      43.009  30.266  34.791  1.00  0.00     0.074 A 
ATOM     59  C   UNL A   1      37.165  31.394  32.454  1.00  0.00     0.029 A 
ATOM     60  N   UNL A   1      39.293  30.776  32.681  1.00  0.00    -0.354 N 
ATOM     61  N   UNL A   1      41.834  30.412  34.227  1.00  0.00    -0.248 NA
ATOM     62  C   UNL A   1      43.101  30.794  36.155  1.00  0.00     0.031 C 
ATOM     63  C   UNL A   1      37.586  31.704  33.750  1.00  0.00     0.029 A 
ATOM     64  C   UNL A   1      38.911  31.318  33.893  1.00  0.00     0.049 A 
ATOM     65  H   UNL A   1      40.184  30.407  32.482  1.00  0.00     0.167 HD
ATOM     66  C   UNL A   1      41.041  31.053  35.165  1.00  0.00     0.074 A 
ATOM     67  C   UNL A   1      41.865  31.243  36.345  1.00  0.00     0.031 C 
ATOM     68  C   UNL A   1      39.755  31.462  35.053  1.00  0.00     0.034 A 
BRANCH  55  69
ATOM     69  C   UNL A   1      37.082  30.559  29.554  1.00  0.00     0.023 A 
ATOM     70  C   UNL A   1      36.424  29.428  29.034  1.00  0.00     0.012 A 
ATOM     71  C   UNL A   1      36.545  31.841  29.331  1.00  0.00     0.148 A 
ATOM     72  C   UNL A   1      35.249  29.572  28.295  1.00  0.00     0.002 A 
ATOM     73  C   UNL A   1      35.360  31.975  28.618  1.00  0.00     0.091 A 
ATOM     74  F   UNL A   1      37.201  32.901  29.825  1.00  0.00    -0.205 F 
ATOM     75  C   UNL A   1      34.713  30.841  28.096  1.00  0.00     0.022 A 
BRANCH  73  76
ATOM     76  S   UNL A   1      34.560  33.559  28.345  1.00  0.00     0.127 S 
ATOM     77  O   UNL A   1      35.510  34.216  27.446  1.00  0.00    -0.237 OA
ATOM     78  O   UNL A   1      33.300  33.161  27.718  1.00  0.00    -0.237 OA
ATOM     79  O   UNL A   1      34.426  34.176  29.657  1.00  0.00    -0.744 OA
ENDBRANCH  73  76
ENDBRANCH  55  69
BRANCH  56  80
ATOM     80  C   UNL A   1      45.488  29.430  34.997  1.00  0.00     0.023 A 
ATOM     81  C   UNL A   1      46.443  30.463  35.037  1.00  0.00     0.012 A 
ATOM     82  C   UNL A   1      45.660  28.295  35.814  1.00  0.00     0.148 A 
ATOM     83  C   UNL A   1      47.550  30.367  35.882  1.00  0.00     0.002 A 
ATOM     84  C   UNL A   1      46.740  28.226  36.684  1.00  0.00     0.091 A 
ATOM     85  F   UNL A   1      44.727  27.334  35.764  1.00  0.00    -0.205 F 
ATOM     86  C   UNL A   1      47.691  29.258  36.714  1.00  0.00     0.022 A 
BRANCH  84  87
ATOM     87  S   UNL A   1      46.937  26.902  37.882  1.00  0.00     0.127 S 
ATOM     88  O   UNL A   1      47.229  25.760  37.018  1.00  0.00    -0.237 OA
ATOM     89  O   UNL A   1      48.070  27.382  38.674  1.00  0.00    -0.237 OA
ATOM     90  O   UNL A   1      45.677  26.832  38.609  1.00  0.00    -0.744 OA
ENDBRANCH  84  87
ENDBRANCH  56  80
BRANCH  68  91
ATOM     91  C   UNL A   1      39.152  32.174  36.226  1.00  0.00     0.023 A 
ATOM     92  C   UNL A   1      39.318  33.567  36.339  1.00  0.00     0.012 A 
ATOM     93  C   UNL A   1      38.293  31.492  37.109  1.00  0.00     0.148 A 
ATOM     94  C   UNL A   1      38.627  34.277  37.317  1.00  0.00     0.002 A 
ATOM     95  C   UNL A   1      37.582  32.212  38.057  1.00  0.00     0.091 A 
ATOM     96  F   UNL A   1      38.165  30.165  36.974  1.00  0.00    -0.205 F 
ATOM     97  C   UNL A   1      37.750  33.604  38.164  1.00  0.00     0.022 A 
BRANCH  95  98
ATOM     98  S   UNL A   1      36.368  31.450  39.137  1.00  0.00     0.127 S 
ATOM     99  O   UNL A   1      37.042  31.513  40.434  1.00  0.00    -0.237 OA
ATOM    100  O   UNL A   1      35.225  32.353  38.997  1.00  0.00    -0.237 OA
ATOM    101  O   UNL A   1      36.153  30.104  38.621  1.00  0.00    -0.744 OA
ENDBRANCH  95  98
ENDBRANCH  68  91
ENDBRANCH  42  43
ENDBRANCH  35  37
ENDBRANCH  34  35
ENDBRANCH  33  34
ENDBRANCH  32  33
ENDBRANCH  31  32
ENDBRANCH   1  31
TORSDOF 21
ENDMDL
MODEL 2
REMARK VINA RESULT:     -11.0      4.760      9.107
REMARK SMILES Cc1cc(=O)c(Oc2ccc(C(=O)OCCOCCOC(=O)c3ccc(-c4c5nc(c(-c6cccc(S(=O)(=O)[O-])c6F)c6ccc([nH]6)c(-c6cccc(S(=O)(=O)[O-])c6F)c6nc(c(-c7cccc(S(=O)(=O)[O-])c7F)c7ccc4[nH]7)C=C6)C=C5)cc3)cc2)c(-c2ccc(S(C)(=O)=O)cc2)o1
REMARK SMILES IDX 16 1 15 2 14 3 12 4 13 5 11 6 8 7 9 8 87 9 10 10 86 11 7 12
REMARK SMILES IDX 6 13 1 14 2 15 3 16 99 17 4 18 88 19 5 20 89 21 90 22 98 23
REMARK SMILES IDX 91 24 97 25 92 26 93 27 94 28 95 29 96 30 17 31 18 32 19 33
REMARK SMILES IDX 20 34 21 35 22 36 23 37 24 38 85 39 25 40 84 41 26 42 27 43
REMARK SMILES IDX 28 44 78 45 29 46 83 47 77 48 79 49 30 50 82 51 76 52 75 53
REMARK SMILES IDX 31 55 63 56 43 57 62 58 44 59 47 60 61 61 80 62 45 63 46 64
REMARK SMILES IDX 60 66 81 67 48 68 32 69 33 70 41 71 34 72 36 73 42 74 35 75
REMARK SMILES IDX 37 76 38 77 39 78 40 79 64 80 65 81 73 82 66 83 68 84 74 85
REMARK SMILES IDX 67 86 69 87 70 88 71 89 72 90 49 91 50 92 58 93 51 94 53 95
REMARK SMILES IDX 59 96 52 97 54 98 55 99 56 100 57 101
REMARK H PARENT 79 54 47 65
REMARK Flexibility Score: inf
ROOT
ATOM      1  C   UNL A   1      34.750  21.904  26.679  1.00  0.00     0.202 C 
ENDROOT
BRANCH   1   2
ATOM      2  C   UNL A   1      34.091  20.815  25.822  1.00  0.00     0.261 C 
BRANCH   2   3
ATOM      3  O   UNL A   1      32.734  21.172  25.501  1.00  0.00    -0.460 OA
BRANCH   3   4
ATOM      4  C   UNL A   1      32.493  21.468  24.199  1.00  0.00     0.338 C 
ATOM      5  O   UNL A   1      32.140  20.691  23.327  1.00  0.00    -0.246 OA
BRANCH   4   6
ATOM      6  C   UNL A   1      32.602  22.937  23.975  1.00  0.00     0.060 A 
ATOM      7  C   UNL A   1      32.709  25.670  23.355  1.00  0.00     0.127 A 
ATOM      8  C   UNL A   1      33.295  24.745  22.498  1.00  0.00     0.048 A 
ATOM      9  C   UNL A   1      32.137  25.241  24.557  1.00  0.00     0.048 A 
ATOM     10  C   UNL A   1      33.214  23.380  22.791  1.00  0.00     0.019 A 
ATOM     11  C   UNL A   1      32.080  23.878  24.869  1.00  0.00     0.019 A 
BRANCH   7  12
ATOM     12  O   UNL A   1      32.828  27.018  23.184  1.00  0.00    -0.449 OA
BRANCH  12  13
ATOM     13  C   UNL A   1      31.838  27.954  23.423  1.00  0.00     0.217 A 
ATOM     14  C   UNL A   1      28.710  30.937  23.492  1.00  0.00     0.088 C 
ATOM     15  C   UNL A   1      29.691  29.813  23.396  1.00  0.00     0.105 A 
ATOM     16  C   UNL A   1      29.674  28.894  22.431  1.00  0.00     0.098 A 
ATOM     17  O   UNL A   1      30.638  29.816  24.392  1.00  0.00    -0.457 OA
ATOM     18  C   UNL A   1      30.712  27.851  22.432  1.00  0.00     0.228 A 
ATOM     19  C   UNL A   1      31.720  28.943  24.344  1.00  0.00     0.180 A 
ATOM     20  O   UNL A   1      30.638  26.940  21.611  1.00  0.00    -0.285 OA
BRANCH  19  21
ATOM     21  C   UNL A   1      32.642  29.306  25.428  1.00  0.00     0.021 A 
ATOM     22  C   UNL A   1      32.382  30.457  26.197  1.00  0.00     0.013 A 
ATOM     23  C   UNL A   1      33.854  28.635  25.594  1.00  0.00     0.013 A 
ATOM     24  C   UNL A   1      33.286  30.895  27.166  1.00  0.00     0.021 A 
ATOM     25  C   UNL A   1      34.777  29.108  26.528  1.00  0.00     0.021 A 
ATOM     26  C   UNL A   1      34.483  30.208  27.333  1.00  0.00     0.067 A 
BRANCH  26  27
ATOM     27  S   UNL A   1      35.602  30.658  28.641  1.00  0.00     0.175 S 
ATOM     28  C   UNL A   1      34.787  31.971  29.504  1.00  0.00     0.163 C 
ATOM     29  O   UNL A   1      35.698  29.526  29.543  1.00  0.00    -0.224 OA
ATOM     30  O   UNL A   1      36.778  31.200  27.998  1.00  0.00    -0.224 OA
ENDBRANCH  26  27
ENDBRANCH  19  21
ENDBRANCH  12  13
ENDBRANCH   7  12
ENDBRANCH   4   6
ENDBRANCH   3   4
ENDBRANCH   2   3
ENDBRANCH   1   2
BRANCH   1  31
ATOM     31  O   UNL A   1      36.054  22.275  26.233  1.00  0.00    -0.374 OA
BRANCH  31  32
ATOM     32  C   UNL A   1      36.583  21.446  25.198  1.00  0.00     0.202 C 
BRANCH  32  33
ATOM     33  C   UNL A   1      38.054  21.122  25.440  1.00  0.00     0.261 C 
BRANCH  33  34
ATOM     34  O   UNL A   1      38.667  22.185  26.147  1.00  0.00    -0.460 OA
BRANCH  34  35
ATOM     35  C   UNL A   1      39.766  21.886  26.874  1.00  0.00     0.338 C 
ATOM     36  O   UNL A   1      40.204  20.801  27.169  1.00  0.00    -0.246 OA
BRANCH  35  37
ATOM     37  C   UNL A   1      40.432  23.192  27.033  1.00  0.00     0.060 A 
ATOM     38  C   UNL A   1      41.417  23.348  28.020  1.00  0.00     0.016 A 
ATOM     39  C   UNL A   1      39.956  24.284  26.305  1.00  0.00     0.016 A 
ATOM     40  C   UNL A   1      41.884  24.607  28.324  1.00  0.00     0.010 A 
ATOM     41  C   UNL A   1      40.478  25.547  26.564  1.00  0.00     0.010 A 
ATOM     42  C   UNL A   1      41.442  25.703  27.570  1.00  0.00    -0.014 A 
BRANCH  42  43
ATOM     43  C   UNL A   1      42.162  26.970  27.749  1.00  0.00     0.031 A 
ATOM     44  C   UNL A   1      41.583  28.081  28.553  1.00  0.00     0.074 A 
ATOM     45  C   UNL A   1      43.390  27.032  27.202  1.00  0.00     0.049 A 
ATOM     46  N   UNL A   1      42.145  29.206  28.892  1.00  0.00    -0.248 NA
ATOM     47  C   UNL A   1      40.202  27.920  29.040  1.00  0.00     0.031 C 
ATOM     48  C   UNL A   1      43.993  25.969  26.386  1.00  0.00     0.029 A 
ATOM     49  N   UNL A   1      44.356  27.992  27.265  1.00  0.00    -0.354 N 
ATOM     50  C   UNL A   1      41.182  29.910  29.598  1.00  0.00     0.074 A 
ATOM     51  C   UNL A   1      39.998  29.081  29.651  1.00  0.00     0.031 C 
ATOM     52  C   UNL A   1      45.243  26.318  26.064  1.00  0.00     0.029 A 
ATOM     53  C   UNL A   1      45.510  27.643  26.605  1.00  0.00     0.049 A 
ATOM     54  H   UNL A   1      44.240  28.849  27.735  1.00  0.00     0.167 HD
ATOM     55  C   UNL A   1      41.300  31.137  30.151  1.00  0.00     0.034 A 
ATOM     56  C   UNL A   1      46.657  28.325  26.448  1.00  0.00     0.034 A 
ATOM     57  C   UNL A   1      42.508  31.913  30.098  1.00  0.00     0.049 A 
ATOM     58  C   UNL A   1      46.761  29.672  27.091  1.00  0.00     0.074 A 
ATOM     59  C   UNL A   1      42.762  33.143  30.675  1.00  0.00     0.029 A 
ATOM     60  N   UNL A   1      43.658  31.539  29.416  1.00  0.00    -0.354 N 
ATOM     61  N   UNL A   1      45.880  30.280  27.848  1.00  0.00    -0.248 NA
ATOM     62  C   UNL A   1      48.001  30.423  26.872  1.00  0.00     0.031 C 
ATOM     63  C   UNL A   1      44.061  33.522  30.324  1.00  0.00     0.029 A 
ATOM     64  C   UNL A   1      44.620  32.522  29.540  1.00  0.00     0.049 A 
ATOM     65  H   UNL A   1      43.770  30.697  28.918  1.00  0.00     0.167 HD
ATOM     66  C   UNL A   1      46.455  31.491  28.199  1.00  0.00     0.074 A 
ATOM     67  C   UNL A   1      47.772  31.517  27.591  1.00  0.00     0.031 C 
ATOM     68  C   UNL A   1      45.931  32.495  28.942  1.00  0.00     0.034 A 
BRANCH  55  69
ATOM     69  C   UNL A   1      40.115  31.707  30.876  1.00  0.00     0.023 A 
ATOM     70  C   UNL A   1      39.150  32.442  30.160  1.00  0.00     0.012 A 
ATOM     71  C   UNL A   1      39.912  31.440  32.243  1.00  0.00     0.148 A 
ATOM     72  C   UNL A   1      38.001  32.909  30.797  1.00  0.00     0.002 A 
ATOM     73  C   UNL A   1      38.752  31.884  32.865  1.00  0.00     0.091 A 
ATOM     74  F   UNL A   1      40.854  30.752  32.905  1.00  0.00    -0.205 F 
ATOM     75  C   UNL A   1      37.797  32.622  32.144  1.00  0.00     0.022 A 
BRANCH  73  76
ATOM     76  S   UNL A   1      38.370  31.530  34.584  1.00  0.00     0.127 S 
ATOM     77  O   UNL A   1      37.061  32.167  34.731  1.00  0.00    -0.237 OA
ATOM     78  O   UNL A   1      38.343  30.068  34.596  1.00  0.00    -0.237 OA
ATOM     79  O   UNL A   1      39.439  32.132  35.368  1.00  0.00    -0.744 OA
ENDBRANCH  73  76
ENDBRANCH  55  69
BRANCH  56  80
ATOM     80  C   UNL A   1      47.766  27.696  25.687  1.00  0.00     0.023 A 
ATOM     81  C   UNL A   1      47.786  27.798  24.284  1.00  0.00     0.012 A 
ATOM     82  C   UNL A   1      48.873  27.137  26.357  1.00  0.00     0.148 A 
ATOM     83  C   UNL A   1      48.895  27.355  23.561  1.00  0.00     0.002 A 
ATOM     84  C   UNL A   1      49.990  26.739  25.635  1.00  0.00     0.091 A 
ATOM     85  F   UNL A   1      48.831  27.064  27.695  1.00  0.00    -0.205 F 
ATOM     86  C   UNL A   1      49.999  26.840  24.235  1.00  0.00     0.022 A 
BRANCH  84  87
ATOM     87  S   UNL A   1      51.506  26.183  26.421  1.00  0.00     0.127 S 
ATOM     88  O   UNL A   1      51.148  24.829  26.835  1.00  0.00    -0.237 OA
ATOM     89  O   UNL A   1      52.461  26.257  25.315  1.00  0.00    -0.237 OA
ATOM     90  O   UNL A   1      51.760  27.123  27.504  1.00  0.00    -0.744 OA
ENDBRANCH  84  87
ENDBRANCH  56  80
BRANCH  68  91
ATOM     91  C   UNL A   1      46.771  33.723  29.131  1.00  0.00     0.023 A 
ATOM     92  C   UNL A   1      47.697  33.759  30.190  1.00  0.00     0.012 A 
ATOM     93  C   UNL A   1      46.755  34.753  28.172  1.00  0.00     0.148 A 
ATOM     94  C   UNL A   1      48.609  34.808  30.287  1.00  0.00     0.002 A 
ATOM     95  C   UNL A   1      47.690  35.774  28.255  1.00  0.00     0.091 A 
ATOM     96  F   UNL A   1      45.855  34.685  27.180  1.00  0.00    -0.205 F 
ATOM     97  C   UNL A   1      48.615  35.805  29.314  1.00  0.00     0.022 A 
BRANCH  95  98
ATOM     98  S   UNL A   1      47.833  37.057  27.008  1.00  0.00     0.127 S 
ATOM     99  O   UNL A   1      48.938  37.859  27.532  1.00  0.00    -0.237 OA
ATOM    100  O   UNL A   1      48.153  36.283  25.809  1.00  0.00    -0.237 OA
ATOM    101  O   UNL A   1      46.544  37.735  26.973  1.00  0.00    -0.744 OA
ENDBRANCH  95  98
ENDBRANCH  68  91
ENDBRANCH  42  43
ENDBRANCH  35  37
ENDBRANCH  34  35
ENDBRANCH  33  34
ENDBRANCH  32  33
ENDBRANCH  31  32
ENDBRANCH   1  31
TORSDOF 21
ENDMDL
MODEL 3
REMARK VINA RESULT:     -10.7      2.596      9.022
REMARK SMILES Cc1cc(=O)c(Oc2ccc(C(=O)OCCOCCOC(=O)c3ccc(-c4c5nc(c(-c6cccc(S(=O)(=O)[O-])c6F)c6ccc([nH]6)c(-c6cccc(S(=O)(=O)[O-])c6F)c6nc(c(-c7cccc(S(=O)(=O)[O-])c7F)c7ccc4[nH]7)C=C6)C=C5)cc3)cc2)c(-c2ccc(S(C)(=O)=O)cc2)o1
REMARK SMILES IDX 16 1 15 2 14 3 12 4 13 5 11 6 8 7 9 8 87 9 10 10 86 11 7 12
REMARK SMILES IDX 6 13 1 14 2 15 3 16 99 17 4 18 88 19 5 20 89 21 90 22 98 23
REMARK SMILES IDX 91 24 97 25 92 26 93 27 94 28 95 29 96 30 17 31 18 32 19 33
REMARK SMILES IDX 20 34 21 35 22 36 23 37 24 38 85 39 25 40 84 41 26 42 27 43
REMARK SMILES IDX 28 44 78 45 29 46 83 47 77 48 79 49 30 50 82 51 76 52 75 53
REMARK SMILES IDX 31 55 63 56 43 57 62 58 44 59 47 60 61 61 80 62 45 63 46 64
REMARK SMILES IDX 60 66 81 67 48 68 32 69 33 70 41 71 34 72 36 73 42 74 35 75
REMARK SMILES IDX 37 76 38 77 39 78 40 79 64 80 65 81 73 82 66 83 68 84 74 85
REMARK SMILES IDX 67 86 69 87 70 88 71 89 72 90 49 91 50 92 58 93 51 94 53 95
REMARK SMILES IDX 59 96 52 97 54 98 55 99 56 100 57 101
REMARK H PARENT 79 54 47 65
REMARK Flexibility Score: inf
ROOT
ATOM      1  C   UNL A   1      32.928  29.523  26.147  1.00  0.00     0.202 C 
ENDROOT
BRANCH   1   2
ATOM      2  C   UNL A   1      33.373  29.015  24.769  1.00  0.00     0.261 C 
BRANCH   2   3
ATOM      3  O   UNL A   1      33.907  27.682  24.865  1.00  0.00    -0.460 OA
BRANCH   3   4
ATOM      4  C   UNL A   1      34.005  26.998  23.698  1.00  0.00     0.338 C 
ATOM      5  O   UNL A   1      33.898  27.456  22.572  1.00  0.00    -0.246 OA
BRANCH   4   6
ATOM      6  C   UNL A   1      34.387  25.582  23.959  1.00  0.00     0.060 A 
ATOM      7  C   UNL A   1      35.247  22.932  24.279  1.00  0.00     0.127 A 
ATOM      8  C   UNL A   1      34.706  23.340  23.064  1.00  0.00     0.048 A 
ATOM      9  C   UNL A   1      35.289  23.822  25.357  1.00  0.00     0.048 A 
ATOM     10  C   UNL A   1      34.307  24.669  22.895  1.00  0.00     0.019 A 
ATOM     11  C   UNL A   1      34.863  25.145  25.201  1.00  0.00     0.019 A 
BRANCH   7  12
ATOM     12  O   UNL A   1      35.570  21.634  24.547  1.00  0.00    -0.449 OA
BRANCH  12  13
ATOM     13  C   UNL A   1      34.683  20.639  24.916  1.00  0.00     0.217 A 
ATOM     14  C   UNL A   1      32.170  17.178  25.545  1.00  0.00     0.088 C 
ATOM     15  C   UNL A   1      33.159  18.284  25.360  1.00  0.00     0.105 A 
ATOM     16  C   UNL A   1      34.419  18.094  24.965  1.00  0.00     0.098 A 
ATOM     17  O   UNL A   1      32.650  19.534  25.616  1.00  0.00    -0.457 OA
ATOM     18  C   UNL A   1      35.288  19.268  24.793  1.00  0.00     0.228 A 
ATOM     19  C   UNL A   1      33.389  20.675  25.322  1.00  0.00     0.180 A 
ATOM     20  O   UNL A   1      36.476  19.094  24.537  1.00  0.00    -0.285 OA
BRANCH  19  21
ATOM     21  C   UNL A   1      32.521  21.842  25.529  1.00  0.00     0.021 A 
ATOM     22  C   UNL A   1      32.414  22.401  26.817  1.00  0.00     0.013 A 
ATOM     23  C   UNL A   1      31.673  22.294  24.517  1.00  0.00     0.013 A 
ATOM     24  C   UNL A   1      31.523  23.443  27.078  1.00  0.00     0.021 A 
ATOM     25  C   UNL A   1      30.747  23.300  24.798  1.00  0.00     0.021 A 
ATOM     26  C   UNL A   1      30.695  23.895  26.058  1.00  0.00     0.067 A 
BRANCH  26  27
ATOM     27  S   UNL A   1      29.638  25.302  26.317  1.00  0.00     0.175 S 
ATOM     28  C   UNL A   1      29.143  25.802  24.693  1.00  0.00     0.163 C 
ATOM     29  O   UNL A   1      28.456  24.839  27.019  1.00  0.00    -0.224 OA
ATOM     30  O   UNL A   1      30.476  26.341  26.873  1.00  0.00    -0.224 OA
ENDBRANCH  26  27
ENDBRANCH  19  21
ENDBRANCH  12  13
ENDBRANCH   7  12
ENDBRANCH   4   6
ENDBRANCH   3   4
ENDBRANCH   2   3
ENDBRANCH   1   2
BRANCH   1  31
ATOM     31  O   UNL A   1      31.979  30.586  26.088  1.00  0.00    -0.374 OA
BRANCH  31  32
ATOM     32  C   UNL A   1      31.860  31.340  27.295  1.00  0.00     0.202 C 
BRANCH  32  33
ATOM     33  C   UNL A   1      32.217  32.807  27.075  1.00  0.00     0.261 C 
BRANCH  33  34
ATOM     34  O   UNL A   1      33.615  32.984  27.217  1.00  0.00    -0.460 OA
BRANCH  34  35
ATOM     35  C   UNL A   1      34.029  33.892  28.129  1.00  0.00     0.338 C 
ATOM     36  O   UNL A   1      33.486  34.910  28.481  1.00  0.00    -0.246 OA
BRANCH  35  37
ATOM     37  C   UNL A   1      35.191  33.235  28.757  1.00  0.00     0.060 A 
ATOM     38  C   UNL A   1      36.468  33.794  28.599  1.00  0.00     0.016 A 
ATOM     39  C   UNL A   1      35.014  31.990  29.362  1.00  0.00     0.016 A 
ATOM     40  C   UNL A   1      37.577  33.079  28.990  1.00  0.00     0.010 A 
ATOM     41  C   UNL A   1      36.131  31.298  29.820  1.00  0.00     0.010 A 
ATOM     42  C   UNL A   1      37.407  31.847  29.635  1.00  0.00    -0.014 A 
BRANCH  42  43
ATOM     43  C   UNL A   1      38.593  31.256  30.268  1.00  0.00     0.031 A 
ATOM     44  C   UNL A   1      39.026  31.664  31.632  1.00  0.00     0.074 A 
ATOM     45  C   UNL A   1      39.213  30.288  29.567  1.00  0.00     0.049 A 
ATOM     46  N   UNL A   1      39.978  31.153  32.360  1.00  0.00    -0.248 NA
ATOM     47  C   UNL A   1      38.309  32.784  32.266  1.00  0.00     0.031 C 
ATOM     48  C   UNL A   1      38.834  29.868  28.211  1.00  0.00     0.029 A 
ATOM     49  N   UNL A   1      40.254  29.469  29.891  1.00  0.00    -0.354 N 
ATOM     50  C   UNL A   1      40.006  31.907  33.523  1.00  0.00     0.074 A 
ATOM     51  C   UNL A   1      38.969  32.908  33.412  1.00  0.00     0.031 C 
ATOM     52  C   UNL A   1      39.602  28.837  27.840  1.00  0.00     0.029 A 
ATOM     53  C   UNL A   1      40.555  28.561  28.905  1.00  0.00     0.049 A 
ATOM     54  H   UNL A   1      40.741  29.522  30.745  1.00  0.00     0.167 HD
ATOM     55  C   UNL A   1      40.833  31.755  34.581  1.00  0.00     0.034 A 
ATOM     56  C   UNL A   1      41.506  27.612  28.863  1.00  0.00     0.034 A 
ATOM     57  C   UNL A   1      41.833  30.726  34.660  1.00  0.00     0.049 A 
ATOM     58  C   UNL A   1      42.390  27.458  30.060  1.00  0.00     0.074 A 
ATOM     59  C   UNL A   1      42.686  30.439  35.709  1.00  0.00     0.029 A 
ATOM     60  N   UNL A   1      42.121  29.826  33.644  1.00  0.00    -0.354 N 
ATOM     61  N   UNL A   1      42.336  28.107  31.198  1.00  0.00    -0.248 NA
ATOM     62  C   UNL A   1      43.451  26.450  29.982  1.00  0.00     0.031 C 
ATOM     63  C   UNL A   1      43.505  29.377  35.317  1.00  0.00     0.029 A 
ATOM     64  C   UNL A   1      43.153  28.993  34.031  1.00  0.00     0.049 A 
ATOM     65  H   UNL A   1      41.658  29.787  32.776  1.00  0.00     0.167 HD
ATOM     66  C   UNL A   1      43.358  27.590  31.977  1.00  0.00     0.074 A 
ATOM     67  C   UNL A   1      43.999  26.555  31.188  1.00  0.00     0.031 C 
ATOM     68  C   UNL A   1      43.742  27.954  33.224  1.00  0.00     0.034 A 
BRANCH  55  69
ATOM     69  C   UNL A   1      40.682  32.696  35.742  1.00  0.00     0.023 A 
ATOM     70  C   UNL A   1      41.445  33.880  35.779  1.00  0.00     0.012 A 
ATOM     71  C   UNL A   1      39.725  32.454  36.745  1.00  0.00     0.148 A 
ATOM     72  C   UNL A   1      41.261  34.807  36.805  1.00  0.00     0.002 A 
ATOM     73  C   UNL A   1      39.527  33.394  37.748  1.00  0.00     0.091 A 
ATOM     74  F   UNL A   1      39.024  31.311  36.694  1.00  0.00    -0.205 F 
ATOM     75  C   UNL A   1      40.297  34.570  37.781  1.00  0.00     0.022 A 
BRANCH  73  76
ATOM     76  S   UNL A   1      38.280  33.209  39.027  1.00  0.00     0.127 S 
ATOM     77  O   UNL A   1      38.735  31.995  39.706  1.00  0.00    -0.237 OA
ATOM     78  O   UNL A   1      38.448  34.440  39.798  1.00  0.00    -0.237 OA
ATOM     79  O   UNL A   1      37.005  33.086  38.334  1.00  0.00    -0.744 OA
ENDBRANCH  73  76
ENDBRANCH  55  69
BRANCH  56  80
ATOM     80  C   UNL A   1      41.602  26.748  27.660  1.00  0.00     0.023 A 
ATOM     81  C   UNL A   1      42.295  27.214  26.528  1.00  0.00     0.012 A 
ATOM     82  C   UNL A   1      41.148  25.414  27.693  1.00  0.00     0.148 A 
ATOM     83  C   UNL A   1      42.536  26.363  25.448  1.00  0.00     0.002 A 
ATOM     84  C   UNL A   1      41.429  24.561  26.634  1.00  0.00     0.091 A 
ATOM     85  F   UNL A   1      40.502  24.994  28.790  1.00  0.00    -0.205 F 
ATOM     86  C   UNL A   1      42.116  25.036  25.506  1.00  0.00     0.022 A 
BRANCH  84  87
ATOM     87  S   UNL A   1      41.042  22.807  26.673  1.00  0.00     0.127 S 
ATOM     88  O   UNL A   1      39.596  22.816  26.470  1.00  0.00    -0.237 OA
ATOM     89  O   UNL A   1      41.820  22.304  25.540  1.00  0.00    -0.237 OA
ATOM     90  O   UNL A   1      41.490  22.330  27.974  1.00  0.00    -0.744 OA
ENDBRANCH  84  87
ENDBRANCH  56  80
BRANCH  68  91
ATOM     91  C   UNL A   1      44.921  27.243  33.818  1.00  0.00     0.023 A 
ATOM     92  C   UNL A   1      46.206  27.791  33.646  1.00  0.00     0.012 A 
ATOM     93  C   UNL A   1      44.733  26.142  34.674  1.00  0.00     0.148 A 
ATOM     94  C   UNL A   1      47.294  27.253  34.329  1.00  0.00     0.002 A 
ATOM     95  C   UNL A   1      45.815  25.635  35.377  1.00  0.00     0.091 A 
ATOM     96  F   UNL A   1      43.495  25.645  34.808  1.00  0.00    -0.205 F 
ATOM     97  C   UNL A   1      47.097  26.187  35.204  1.00  0.00     0.022 A 
BRANCH  95  98
ATOM     98  S   UNL A   1      45.649  24.320  36.588  1.00  0.00     0.127 S 
ATOM     99  O   UNL A   1      44.343  24.619  37.175  1.00  0.00    -0.237 OA
ATOM    100  O   UNL A   1      45.683  23.124  35.747  1.00  0.00    -0.237 OA
ATOM    101  O   UNL A   1      46.779  24.462  37.498  1.00  0.00    -0.744 OA
ENDBRANCH  95  98
ENDBRANCH  68  91
ENDBRANCH  42  43
ENDBRANCH  35  37
ENDBRANCH  34  35
ENDBRANCH  33  34
ENDBRANCH  32  33
ENDBRANCH  31  32
ENDBRANCH   1  31
TORSDOF 21
ENDMDL
