MODEL 1
REMARK VINA RESULT:     -12.0      0.000      0.000
REMARK SMILES CC1(C)[C@H](C(=O)N(Cc2ccccc2)Cc2ccccc2)CC[C@@]1(C)C(=O)OCCOCCOC(=O)c1ccc(-c2c3nc(c(-c4cccc(S(=O)(=O)[O-])c4F)c4ccc([nH]4)c(-c4cccc(S(=O)(=O)[O-])c4F)c4nc(c(-c5cccc(S(=O)(=O)[O-])c5F)c5ccc2[nH]5)C=C4)C=C3)cc1
REMARK SMILES IDX 31 1 30 2 29 3 28 4 26 5 27 6 24 7 1 8 2 9 3 10 4 11 22 12
REMARK SMILES IDX 23 13 25 14 5 15 6 16 7 17 8 18 9 19 10 20 14 21 11 22 13 23
REMARK SMILES IDX 12 24 15 25 16 26 17 27 21 28 18 29 20 30 19 31 32 32 33 33
REMARK SMILES IDX 34 34 35 35 36 36 37 37 38 38 99 39 39 40 98 41 40 42 41 43
REMARK SMILES IDX 42 44 92 45 43 46 97 47 91 48 93 49 44 50 96 51 90 52 89 53
REMARK SMILES IDX 45 55 77 56 57 57 76 58 58 59 61 60 75 61 94 62 59 63 60 64
REMARK SMILES IDX 74 66 95 67 62 68 46 69 47 70 55 71 48 72 50 73 56 74 49 75
REMARK SMILES IDX 51 76 52 77 53 78 54 79 78 80 79 81 87 82 80 83 82 84 88 85
REMARK SMILES IDX 81 86 83 87 84 88 85 89 86 90 63 91 64 92 72 93 65 94 67 95
REMARK SMILES IDX 73 96 66 97 68 98 69 99 70 100 71 101
REMARK H PARENT 93 54 61 65
REMARK Flexibility Score: inf
ROOT
ATOM      1  O   UNL A   1      37.967  21.311  25.261  1.00  0.00    -0.374 OA
ENDROOT
BRANCH   1   2
ATOM      2  C   UNL A   1      36.646  21.858  25.341  1.00  0.00     0.202 C 
BRANCH   2   3
ATOM      3  C   UNL A   1      36.364  23.090  24.473  1.00  0.00     0.261 C 
BRANCH   3   4
ATOM      4  O   UNL A   1      35.004  23.069  24.001  1.00  0.00    -0.463 OA
BRANCH   4   5
ATOM      5  C   UNL A   1      34.357  24.266  23.915  1.00  0.00     0.312 C 
ATOM      6  O   UNL A   1      34.749  25.299  24.438  1.00  0.00    -0.252 OA
BRANCH   5   7
ATOM      7  C   UNL A   1      33.091  24.148  23.035  1.00  0.00     0.071 C 
ATOM      8  C   UNL A   1      31.847  24.438  25.355  1.00  0.00     0.013 C 
ATOM      9  C   UNL A   1      31.761  24.529  23.811  1.00  0.00    -0.008 C 
ATOM     10  C   UNL A   1      30.620  23.583  23.460  1.00  0.00     0.013 C 
ATOM     11  C   UNL A   1      31.537  26.011  23.402  1.00  0.00     0.085 C 
ATOM     12  C   UNL A   1      32.258  26.305  22.100  1.00  0.00     0.015 C 
ATOM     13  C   UNL A   1      33.190  25.142  21.841  1.00  0.00     0.020 C 
ATOM     14  C   UNL A   1      33.087  22.747  22.378  1.00  0.00     0.024 C 
BRANCH  11  15
ATOM     15  C   UNL A   1      30.174  26.708  23.489  1.00  0.00     0.226 C 
ATOM     16  O   UNL A   1      29.218  25.948  23.711  1.00  0.00    -0.275 OA
ATOM     17  N   UNL A   1      29.958  28.082  23.375  1.00  0.00    -0.334 N 
BRANCH  17  18
ATOM     18  C   UNL A   1      30.875  29.152  23.853  1.00  0.00     0.155 C 
BRANCH  18  19
ATOM     19  C   UNL A   1      31.807  28.863  25.030  1.00  0.00    -0.029 A 
ATOM     20  C   UNL A   1      33.205  28.868  24.861  1.00  0.00     0.005 A 
ATOM     21  C   UNL A   1      31.340  28.525  26.303  1.00  0.00     0.005 A 
ATOM     22  C   UNL A   1      34.081  28.754  25.946  1.00  0.00     0.000 A 
ATOM     23  C   UNL A   1      32.208  28.397  27.395  1.00  0.00     0.000 A 
ATOM     24  C   UNL A   1      33.578  28.548  27.223  1.00  0.00     0.000 A 
ENDBRANCH  18  19
ENDBRANCH  17  18
BRANCH  17  25
ATOM     25  C   UNL A   1      28.543  28.442  23.166  1.00  0.00     0.155 C 
BRANCH  25  26
ATOM     26  C   UNL A   1      28.329  29.864  22.683  1.00  0.00    -0.029 A 
ATOM     27  C   UNL A   1      28.082  30.911  23.585  1.00  0.00     0.005 A 
ATOM     28  C   UNL A   1      28.474  30.191  21.325  1.00  0.00     0.005 A 
ATOM     29  C   UNL A   1      27.948  32.229  23.144  1.00  0.00     0.000 A 
ATOM     30  C   UNL A   1      28.326  31.507  20.881  1.00  0.00     0.000 A 
ATOM     31  C   UNL A   1      28.062  32.525  21.791  1.00  0.00     0.000 A 
ENDBRANCH  25  26
ENDBRANCH  17  25
ENDBRANCH  11  15
ENDBRANCH   5   7
ENDBRANCH   4   5
ENDBRANCH   3   4
ENDBRANCH   2   3
ENDBRANCH   1   2
BRANCH   1  32
ATOM     32  C   UNL A   1      38.060  19.901  25.089  1.00  0.00     0.202 C 
BRANCH  32  33
ATOM     33  C   UNL A   1      39.370  19.229  25.523  1.00  0.00     0.261 C 
BRANCH  33  34
ATOM     34  O   UNL A   1      39.985  19.876  26.649  1.00  0.00    -0.460 OA
BRANCH  34  35
ATOM     35  C   UNL A   1      41.204  20.408  26.395  1.00  0.00     0.338 C 
ATOM     36  O   UNL A   1      42.104  19.907  25.729  1.00  0.00    -0.246 OA
BRANCH  35  37
ATOM     37  C   UNL A   1      41.270  21.795  26.883  1.00  0.00     0.060 A 
ATOM     38  C   UNL A   1      40.958  22.814  25.973  1.00  0.00     0.016 A 
ATOM     39  C   UNL A   1      41.712  22.103  28.172  1.00  0.00     0.016 A 
ATOM     40  C   UNL A   1      41.123  24.148  26.335  1.00  0.00     0.010 A 
ATOM     41  C   UNL A   1      41.893  23.445  28.528  1.00  0.00     0.010 A 
ATOM     42  C   UNL A   1      41.631  24.469  27.599  1.00  0.00    -0.014 A 
BRANCH  42  43
ATOM     43  C   UNL A   1      42.014  25.870  27.893  1.00  0.00     0.031 A 
ATOM     44  C   UNL A   1      43.399  26.341  27.543  1.00  0.00     0.074 A 
ATOM     45  C   UNL A   1      41.132  26.720  28.450  1.00  0.00     0.049 A 
ATOM     46  N   UNL A   1      43.946  27.513  27.728  1.00  0.00    -0.248 NA
ATOM     47  C   UNL A   1      44.285  25.357  26.898  1.00  0.00     0.031 C 
ATOM     48  C   UNL A   1      39.758  26.384  28.821  1.00  0.00     0.029 A 
ATOM     49  N   UNL A   1      41.272  28.033  28.820  1.00  0.00    -0.354 N 
ATOM     50  C   UNL A   1      45.245  27.405  27.248  1.00  0.00     0.074 A 
ATOM     51  C   UNL A   1      45.408  26.049  26.771  1.00  0.00     0.031 C 
ATOM     52  C   UNL A   1      39.191  27.457  29.399  1.00  0.00     0.029 A 
ATOM     53  C   UNL A   1      40.167  28.543  29.459  1.00  0.00     0.049 A 
ATOM     54  H   UNL A   1      42.086  28.559  28.646  1.00  0.00     0.167 HD
ATOM     55  C   UNL A   1      46.211  28.353  27.197  1.00  0.00     0.034 A 
ATOM     56  C   UNL A   1      39.977  29.740  30.049  1.00  0.00     0.034 A 
ATOM     57  C   UNL A   1      46.042  29.705  27.656  1.00  0.00     0.049 A 
ATOM     58  C   UNL A   1      41.081  30.765  30.012  1.00  0.00     0.074 A 
ATOM     59  C   UNL A   1      46.945  30.752  27.600  1.00  0.00     0.029 A 
ATOM     60  N   UNL A   1      44.900  30.195  28.271  1.00  0.00    -0.354 N 
ATOM     61  N   UNL A   1      42.261  30.687  29.446  1.00  0.00    -0.248 NA
ATOM     62  C   UNL A   1      40.815  32.051  30.672  1.00  0.00     0.031 C 
ATOM     63  C   UNL A   1      46.358  31.868  28.205  1.00  0.00     0.029 A 
ATOM     64  C   UNL A   1      45.080  31.523  28.617  1.00  0.00     0.049 A 
ATOM     65  H   UNL A   1      44.080  29.674  28.437  1.00  0.00     0.167 HD
ATOM     66  C   UNL A   1      42.867  31.922  29.656  1.00  0.00     0.074 A 
ATOM     67  C   UNL A   1      41.913  32.737  30.380  1.00  0.00     0.031 C 
ATOM     68  C   UNL A   1      44.106  32.338  29.296  1.00  0.00     0.034 A 
BRANCH  55  69
ATOM     69  C   UNL A   1      47.537  27.965  26.599  1.00  0.00     0.023 A 
ATOM     70  C   UNL A   1      48.624  27.667  27.446  1.00  0.00     0.012 A 
ATOM     71  C   UNL A   1      47.691  27.841  25.205  1.00  0.00     0.148 A 
ATOM     72  C   UNL A   1      49.852  27.277  26.913  1.00  0.00     0.002 A 
ATOM     73  C   UNL A   1      48.907  27.413  24.683  1.00  0.00     0.091 A 
ATOM     74  F   UNL A   1      46.653  28.152  24.416  1.00  0.00    -0.205 F 
ATOM     75  C   UNL A   1      49.990  27.140  25.535  1.00  0.00     0.022 A 
BRANCH  73  76
ATOM     76  S   UNL A   1      49.162  27.137  22.927  1.00  0.00     0.127 S 
ATOM     77  O   UNL A   1      50.608  26.932  22.868  1.00  0.00    -0.237 OA
ATOM     78  O   UNL A   1      48.366  25.934  22.684  1.00  0.00    -0.237 OA
ATOM     79  O   UNL A   1      48.672  28.334  22.258  1.00  0.00    -0.744 OA
ENDBRANCH  73  76
ENDBRANCH  55  69
BRANCH  56  80
ATOM     80  C   UNL A   1      38.680  30.040  30.716  1.00  0.00     0.023 A 
ATOM     81  C   UNL A   1      38.417  29.523  31.998  1.00  0.00     0.012 A 
ATOM     82  C   UNL A   1      37.715  30.853  30.090  1.00  0.00     0.148 A 
ATOM     83  C   UNL A   1      37.204  29.788  32.635  1.00  0.00     0.002 A 
ATOM     84  C   UNL A   1      36.534  31.159  30.753  1.00  0.00     0.091 A 
ATOM     85  F   UNL A   1      37.976  31.315  28.859  1.00  0.00    -0.205 F 
ATOM     86  C   UNL A   1      36.268  30.615  32.018  1.00  0.00     0.022 A 
BRANCH  84  87
ATOM     87  S   UNL A   1      35.339  32.321  30.085  1.00  0.00     0.127 S 
ATOM     88  O   UNL A   1      34.835  31.595  28.922  1.00  0.00    -0.237 OA
ATOM     89  O   UNL A   1      34.391  32.449  31.192  1.00  0.00    -0.237 OA
ATOM     90  O   UNL A   1      36.094  33.534  29.799  1.00  0.00    -0.744 OA
ENDBRANCH  84  87
ENDBRANCH  56  80
BRANCH  68  91
ATOM     91  C   UNL A   1      44.505  33.746  29.658  1.00  0.00     0.023 A 
ATOM     92  C   UNL A   1      45.281  33.977  30.811  1.00  0.00     0.012 A 
ATOM     93  C   UNL A   1      44.176  34.828  28.818  1.00  0.00     0.148 A 
ATOM     94  C   UNL A   1      45.699  35.265  31.139  1.00  0.00     0.002 A 
ATOM     95  C   UNL A   1      44.636  36.104  29.125  1.00  0.00     0.091 A 
ATOM     96  F   UNL A   1      43.422  34.591  27.734  1.00  0.00    -0.205 F 
ATOM     97  C   UNL A   1      45.388  36.326  30.290  1.00  0.00     0.022 A 
BRANCH  95  98
ATOM     98  S   UNL A   1      44.364  37.513  28.044  1.00  0.00     0.127 S 
ATOM     99  O   UNL A   1      42.915  37.685  28.137  1.00  0.00    -0.237 OA
ATOM    100  O   UNL A   1      45.146  38.562  28.698  1.00  0.00    -0.237 OA
ATOM    101  O   UNL A   1      44.864  37.115  26.735  1.00  0.00    -0.744 OA
ENDBRANCH  95  98
ENDBRANCH  68  91
ENDBRANCH  42  43
ENDBRANCH  35  37
ENDBRANCH  34  35
ENDBRANCH  33  34
ENDBRANCH  32  33
ENDBRANCH   1  32
TORSDOF 22
ENDMDL
MODEL 2
REMARK VINA RESULT:     -11.9      4.839     10.683
REMARK SMILES CC1(C)[C@H](C(=O)N(Cc2ccccc2)Cc2ccccc2)CC[C@@]1(C)C(=O)OCCOCCOC(=O)c1ccc(-c2c3nc(c(-c4cccc(S(=O)(=O)[O-])c4F)c4ccc([nH]4)c(-c4cccc(S(=O)(=O)[O-])c4F)c4nc(c(-c5cccc(S(=O)(=O)[O-])c5F)c5ccc2[nH]5)C=C4)C=C3)cc1
REMARK SMILES IDX 31 1 30 2 29 3 28 4 26 5 27 6 24 7 1 8 2 9 3 10 4 11 22 12
REMARK SMILES IDX 23 13 25 14 5 15 6 16 7 17 8 18 9 19 10 20 14 21 11 22 13 23
REMARK SMILES IDX 12 24 15 25 16 26 17 27 21 28 18 29 20 30 19 31 32 32 33 33
REMARK SMILES IDX 34 34 35 35 36 36 37 37 38 38 99 39 39 40 98 41 40 42 41 43
REMARK SMILES IDX 42 44 92 45 43 46 97 47 91 48 93 49 44 50 96 51 90 52 89 53
REMARK SMILES IDX 45 55 77 56 57 57 76 58 58 59 61 60 75 61 94 62 59 63 60 64
REMARK SMILES IDX 74 66 95 67 62 68 46 69 47 70 55 71 48 72 50 73 56 74 49 75
REMARK SMILES IDX 51 76 52 77 53 78 54 79 78 80 79 81 87 82 80 83 82 84 88 85
REMARK SMILES IDX 81 86 83 87 84 88 85 89 86 90 63 91 64 92 72 93 65 94 67 95
REMARK SMILES IDX 73 96 66 97 68 98 69 99 70 100 71 101
REMARK H PARENT 93 54 61 65
REMARK Flexibility Score: inf
ROOT
ATOM      1  O   UNL A   1      32.534  30.927  26.536  1.00  0.00    -0.374 OA
ENDROOT
BRANCH   1   2
ATOM      2  C   UNL A   1      32.219  29.655  25.958  1.00  0.00     0.202 C 
BRANCH   2   3
ATOM      3  C   UNL A   1      32.903  29.321  24.628  1.00  0.00     0.261 C 
BRANCH   3   4
ATOM      4  O   UNL A   1      32.288  28.167  24.025  1.00  0.00    -0.463 OA
BRANCH   4   5
ATOM      5  C   UNL A   1      32.652  26.946  24.508  1.00  0.00     0.312 C 
ATOM      6  O   UNL A   1      33.797  26.638  24.811  1.00  0.00    -0.252 OA
BRANCH   5   7
ATOM      7  C   UNL A   1      31.422  26.022  24.661  1.00  0.00     0.071 C 
ATOM      8  C   UNL A   1      32.781  24.478  22.992  1.00  0.00     0.013 C 
ATOM      9  C   UNL A   1      31.654  24.576  24.052  1.00  0.00    -0.008 C 
ATOM     10  C   UNL A   1      30.421  24.079  23.310  1.00  0.00     0.013 C 
ATOM     11  C   UNL A   1      32.056  23.738  25.298  1.00  0.00     0.085 C 
ATOM     12  C   UNL A   1      31.549  24.409  26.559  1.00  0.00     0.015 C 
ATOM     13  C   UNL A   1      31.116  25.806  26.172  1.00  0.00     0.020 C 
ATOM     14  C   UNL A   1      30.183  26.771  24.113  1.00  0.00     0.024 C 
BRANCH  11  15
ATOM     15  C   UNL A   1      31.937  22.211  25.355  1.00  0.00     0.226 C 
ATOM     16  O   UNL A   1      30.803  21.791  25.638  1.00  0.00    -0.275 OA
ATOM     17  N   UNL A   1      32.965  21.307  25.086  1.00  0.00    -0.334 N 
BRANCH  17  18
ATOM     18  C   UNL A   1      34.043  21.487  24.077  1.00  0.00     0.155 C 
BRANCH  18  19
ATOM     19  C   UNL A   1      35.441  21.894  24.546  1.00  0.00    -0.029 A 
ATOM     20  C   UNL A   1      35.827  23.247  24.574  1.00  0.00     0.005 A 
ATOM     21  C   UNL A   1      36.419  20.965  24.913  1.00  0.00     0.005 A 
ATOM     22  C   UNL A   1      37.040  23.658  25.136  1.00  0.00     0.000 A 
ATOM     23  C   UNL A   1      37.642  21.363  25.466  1.00  0.00     0.000 A 
ATOM     24  C   UNL A   1      37.939  22.713  25.612  1.00  0.00     0.000 A 
ENDBRANCH  18  19
ENDBRANCH  17  18
BRANCH  17  25
ATOM     25  C   UNL A   1      32.675  19.931  25.532  1.00  0.00     0.155 C 
BRANCH  25  26
ATOM     26  C   UNL A   1      33.142  18.855  24.572  1.00  0.00    -0.029 A 
ATOM     27  C   UNL A   1      34.203  17.996  24.900  1.00  0.00     0.005 A 
ATOM     28  C   UNL A   1      32.459  18.621  23.368  1.00  0.00     0.005 A 
ATOM     29  C   UNL A   1      34.592  16.966  24.042  1.00  0.00     0.000 A 
ATOM     30  C   UNL A   1      32.856  17.599  22.501  1.00  0.00     0.000 A 
ATOM     31  C   UNL A   1      33.922  16.773  22.839  1.00  0.00     0.000 A 
ENDBRANCH  25  26
ENDBRANCH  17  25
ENDBRANCH  11  15
ENDBRANCH   5   7
ENDBRANCH   4   5
ENDBRANCH   3   4
ENDBRANCH   2   3
ENDBRANCH   1   2
BRANCH   1  32
ATOM     32  C   UNL A   1      31.502  31.907  26.515  1.00  0.00     0.202 C 
BRANCH  32  33
ATOM     33  C   UNL A   1      31.844  33.293  27.078  1.00  0.00     0.261 C 
BRANCH  33  34
ATOM     34  O   UNL A   1      33.250  33.589  27.026  1.00  0.00    -0.460 OA
BRANCH  34  35
ATOM     35  C   UNL A   1      33.786  33.976  28.207  1.00  0.00     0.338 C 
ATOM     36  O   UNL A   1      33.307  34.768  29.012  1.00  0.00    -0.246 OA
BRANCH  35  37
ATOM     37  C   UNL A   1      34.980  33.172  28.516  1.00  0.00     0.060 A 
ATOM     38  C   UNL A   1      34.775  31.904  29.077  1.00  0.00     0.016 A 
ATOM     39  C   UNL A   1      36.272  33.675  28.347  1.00  0.00     0.016 A 
ATOM     40  C   UNL A   1      35.861  31.148  29.508  1.00  0.00     0.010 A 
ATOM     41  C   UNL A   1      37.361  32.918  28.795  1.00  0.00     0.010 A 
ATOM     42  C   UNL A   1      37.156  31.668  29.408  1.00  0.00    -0.014 A 
BRANCH  42  43
ATOM     43  C   UNL A   1      38.277  30.959  30.068  1.00  0.00     0.031 A 
ATOM     44  C   UNL A   1      38.614  31.290  31.496  1.00  0.00     0.074 A 
ATOM     45  C   UNL A   1      38.977  30.017  29.409  1.00  0.00     0.049 A 
ATOM     46  N   UNL A   1      39.561  30.806  32.256  1.00  0.00    -0.248 NA
ATOM     47  C   UNL A   1      37.771  32.303  32.154  1.00  0.00     0.031 C 
ATOM     48  C   UNL A   1      38.736  29.601  28.029  1.00  0.00     0.029 A 
ATOM     49  N   UNL A   1      40.047  29.260  29.811  1.00  0.00    -0.354 N 
ATOM     50  C   UNL A   1      39.446  31.469  33.472  1.00  0.00     0.074 A 
ATOM     51  C   UNL A   1      38.343  32.396  33.346  1.00  0.00     0.031 C 
ATOM     52  C   UNL A   1      39.657  28.683  27.686  1.00  0.00     0.029 A 
ATOM     53  C   UNL A   1      40.563  28.468  28.812  1.00  0.00     0.049 A 
ATOM     54  H   UNL A   1      40.412  29.281  30.726  1.00  0.00     0.167 HD
ATOM     55  C   UNL A   1      40.185  31.311  34.597  1.00  0.00     0.034 A 
ATOM     56  C   UNL A   1      41.658  27.682  28.802  1.00  0.00     0.034 A 
ATOM     57  C   UNL A   1      41.269  30.376  34.726  1.00  0.00     0.049 A 
ATOM     58  C   UNL A   1      42.485  27.551  30.054  1.00  0.00     0.074 A 
ATOM     59  C   UNL A   1      42.044  30.106  35.840  1.00  0.00     0.029 A 
ATOM     60  N   UNL A   1      41.745  29.570  33.704  1.00  0.00    -0.354 N 
ATOM     61  N   UNL A   1      42.290  28.092  31.233  1.00  0.00    -0.248 NA
ATOM     62  C   UNL A   1      43.666  26.679  29.982  1.00  0.00     0.031 C 
ATOM     63  C   UNL A   1      43.006  29.155  35.484  1.00  0.00     0.029 A 
ATOM     64  C   UNL A   1      42.815  28.816  34.154  1.00  0.00     0.049 A 
ATOM     65  H   UNL A   1      41.376  29.538  32.791  1.00  0.00     0.167 HD
ATOM     66  C   UNL A   1      43.306  27.605  32.049  1.00  0.00     0.074 A 
ATOM     67  C   UNL A   1      44.099  26.706  31.235  1.00  0.00     0.031 C 
ATOM     68  C   UNL A   1      43.568  27.888  33.349  1.00  0.00     0.034 A 
BRANCH  55  69
ATOM     69  C   UNL A   1      39.825  32.154  35.791  1.00  0.00     0.023 A 
ATOM     70  C   UNL A   1      40.439  33.410  35.967  1.00  0.00     0.012 A 
ATOM     71  C   UNL A   1      38.841  31.729  36.705  1.00  0.00     0.148 A 
ATOM     72  C   UNL A   1      40.098  34.220  37.050  1.00  0.00     0.002 A 
ATOM     73  C   UNL A   1      38.478  32.559  37.759  1.00  0.00     0.091 A 
ATOM     74  F   UNL A   1      38.287  30.521  36.533  1.00  0.00    -0.205 F 
ATOM     75  C   UNL A   1      39.112  33.800  37.938  1.00  0.00     0.022 A 
BRANCH  73  76
ATOM     76  S   UNL A   1      37.170  32.139  38.915  1.00  0.00     0.127 S 
ATOM     77  O   UNL A   1      37.620  32.816  40.130  1.00  0.00    -0.237 OA
ATOM     78  O   UNL A   1      35.995  32.739  38.283  1.00  0.00    -0.237 OA
ATOM     79  O   UNL A   1      37.146  30.684  38.982  1.00  0.00    -0.744 OA
ENDBRANCH  73  76
ENDBRANCH  55  69
BRANCH  56  80
ATOM     80  C   UNL A   1      42.028  26.944  27.563  1.00  0.00     0.023 A 
ATOM     81  C   UNL A   1      42.543  27.647  26.457  1.00  0.00     0.012 A 
ATOM     82  C   UNL A   1      41.890  25.545  27.484  1.00  0.00     0.148 A 
ATOM     83  C   UNL A   1      42.889  26.972  25.286  1.00  0.00     0.002 A 
ATOM     84  C   UNL A   1      42.288  24.873  26.336  1.00  0.00     0.091 A 
ATOM     85  F   UNL A   1      41.375  24.897  28.539  1.00  0.00    -0.205 F 
ATOM     86  C   UNL A   1      42.773  25.585  25.229  1.00  0.00     0.022 A 
BRANCH  84  87
ATOM     87  S   UNL A   1      42.295  23.080  26.233  1.00  0.00     0.127 S 
ATOM     88  O   UNL A   1      42.773  22.862  24.871  1.00  0.00    -0.237 OA
ATOM     89  O   UNL A   1      43.245  22.722  27.287  1.00  0.00    -0.237 OA
ATOM     90  O   UNL A   1      40.922  22.671  26.498  1.00  0.00    -0.744 OA
ENDBRANCH  84  87
ENDBRANCH  56  80
BRANCH  68  91
ATOM     91  C   UNL A   1      44.750  27.208  33.989  1.00  0.00     0.023 A 
ATOM     92  C   UNL A   1      44.581  25.956  34.614  1.00  0.00     0.012 A 
ATOM     93  C   UNL A   1      46.039  27.770  33.906  1.00  0.00     0.148 A 
ATOM     94  C   UNL A   1      45.670  25.289  35.173  1.00  0.00     0.002 A 
ATOM     95  C   UNL A   1      47.128  27.077  34.423  1.00  0.00     0.091 A 
ATOM     96  F   UNL A   1      46.178  28.969  33.322  1.00  0.00    -0.205 F 
ATOM     97  C   UNL A   1      46.944  25.842  35.066  1.00  0.00     0.022 A 
BRANCH  95  98
ATOM     98  S   UNL A   1      48.817  27.668  34.250  1.00  0.00     0.127 S 
ATOM     99  O   UNL A   1      48.771  28.925  34.994  1.00  0.00    -0.237 OA
ATOM    100  O   UNL A   1      49.585  26.604  34.897  1.00  0.00    -0.237 OA
ATOM    101  O   UNL A   1      49.051  27.795  32.818  1.00  0.00    -0.744 OA
ENDBRANCH  95  98
ENDBRANCH  68  91
ENDBRANCH  42  43
ENDBRANCH  35  37
ENDBRANCH  34  35
ENDBRANCH  33  34
ENDBRANCH  32  33
ENDBRANCH   1  32
TORSDOF 22
ENDMDL
MODEL 3
REMARK VINA RESULT:     -11.8      1.972      7.614
REMARK SMILES CC1(C)[C@H](C(=O)N(Cc2ccccc2)Cc2ccccc2)CC[C@@]1(C)C(=O)OCCOCCOC(=O)c1ccc(-c2c3nc(c(-c4cccc(S(=O)(=O)[O-])c4F)c4ccc([nH]4)c(-c4cccc(S(=O)(=O)[O-])c4F)c4nc(c(-c5cccc(S(=O)(=O)[O-])c5F)c5ccc2[nH]5)C=C4)C=C3)cc1
REMARK SMILES IDX 31 1 30 2 29 3 28 4 26 5 27 6 24 7 1 8 2 9 3 10 4 11 22 12
REMARK SMILES IDX 23 13 25 14 5 15 6 16 7 17 8 18 9 19 10 20 14 21 11 22 13 23
REMARK SMILES IDX 12 24 15 25 16 26 17 27 21 28 18 29 20 30 19 31 32 32 33 33
REMARK SMILES IDX 34 34 35 35 36 36 37 37 38 38 99 39 39 40 98 41 40 42 41 43
REMARK SMILES IDX 42 44 92 45 43 46 97 47 91 48 93 49 44 50 96 51 90 52 89 53
REMARK SMILES IDX 45 55 77 56 57 57 76 58 58 59 61 60 75 61 94 62 59 63 60 64
REMARK SMILES IDX 74 66 95 67 62 68 46 69 47 70 55 71 48 72 50 73 56 74 49 75
REMARK SMILES IDX 51 76 52 77 53 78 54 79 78 80 79 81 87 82 80 83 82 84 88 85
REMARK SMILES IDX 81 86 83 87 84 88 85 89 86 90 63 91 64 92 72 93 65 94 67 95
REMARK SMILES IDX 73 96 66 97 68 98 69 99 70 100 71 101
REMARK H PARENT 93 54 61 65
REMARK Flexibility Score: inf
ROOT
ATOM      1  O   UNL A   1      38.799  22.327  26.040  1.00  0.00    -0.374 OA
ENDROOT
BRANCH   1   2
ATOM      2  C   UNL A   1      37.998  23.514  25.998  1.00  0.00     0.202 C 
BRANCH   2   3
ATOM      3  C   UNL A   1      37.087  23.679  24.777  1.00  0.00     0.261 C 
BRANCH   3   4
ATOM      4  O   UNL A   1      35.722  23.867  25.193  1.00  0.00    -0.463 OA
BRANCH   4   5
ATOM      5  C   UNL A   1      35.100  22.806  25.782  1.00  0.00     0.312 C 
ATOM      6  O   UNL A   1      35.412  22.343  26.870  1.00  0.00    -0.252 OA
BRANCH   5   7
ATOM      7  C   UNL A   1      33.928  22.298  24.911  1.00  0.00     0.071 C 
ATOM      8  C   UNL A   1      32.461  23.308  26.871  1.00  0.00     0.013 C 
ATOM      9  C   UNL A   1      32.518  22.839  25.395  1.00  0.00    -0.008 C 
ATOM     10  C   UNL A   1      31.450  21.756  25.323  1.00  0.00     0.013 C 
ATOM     11  C   UNL A   1      32.280  24.062  24.465  1.00  0.00     0.085 C 
ATOM     12  C   UNL A   1      33.110  23.923  23.204  1.00  0.00     0.015 C 
ATOM     13  C   UNL A   1      34.104  22.810  23.451  1.00  0.00     0.020 C 
ATOM     14  C   UNL A   1      34.036  20.759  24.802  1.00  0.00     0.024 C 
BRANCH  11  15
ATOM     15  C   UNL A   1      30.891  24.650  24.194  1.00  0.00     0.226 C 
ATOM     16  O   UNL A   1      30.182  23.974  23.431  1.00  0.00    -0.275 OA
ATOM     17  N   UNL A   1      30.385  25.824  24.753  1.00  0.00    -0.334 N 
BRANCH  17  18
ATOM     18  C   UNL A   1      30.662  26.327  26.126  1.00  0.00     0.155 C 
BRANCH  18  19
ATOM     19  C   UNL A   1      31.751  27.382  26.326  1.00  0.00    -0.029 A 
ATOM     20  C   UNL A   1      31.449  28.626  26.912  1.00  0.00     0.005 A 
ATOM     21  C   UNL A   1      33.069  27.205  25.896  1.00  0.00     0.005 A 
ATOM     22  C   UNL A   1      32.448  29.549  27.242  1.00  0.00     0.000 A 
ATOM     23  C   UNL A   1      34.075  28.127  26.209  1.00  0.00     0.000 A 
ATOM     24  C   UNL A   1      33.771  29.284  26.916  1.00  0.00     0.000 A 
ENDBRANCH  18  19
ENDBRANCH  17  18
BRANCH  17  25
ATOM     25  C   UNL A   1      29.175  26.328  24.076  1.00  0.00     0.155 C 
BRANCH  25  26
ATOM     26  C   UNL A   1      29.383  27.623  23.315  1.00  0.00    -0.029 A 
ATOM     27  C   UNL A   1      28.319  28.509  23.078  1.00  0.00     0.005 A 
ATOM     28  C   UNL A   1      30.668  28.023  22.914  1.00  0.00     0.005 A 
ATOM     29  C   UNL A   1      28.524  29.729  22.432  1.00  0.00     0.000 A 
ATOM     30  C   UNL A   1      30.872  29.237  22.255  1.00  0.00     0.000 A 
ATOM     31  C   UNL A   1      29.799  30.089  22.014  1.00  0.00     0.000 A 
ENDBRANCH  25  26
ENDBRANCH  17  25
ENDBRANCH  11  15
ENDBRANCH   5   7
ENDBRANCH   4   5
ENDBRANCH   3   4
ENDBRANCH   2   3
ENDBRANCH   1   2
BRANCH   1  32
ATOM     32  C   UNL A   1      38.269  21.181  25.383  1.00  0.00     0.202 C 
BRANCH  32  33
ATOM     33  C   UNL A   1      38.991  19.847  25.616  1.00  0.00     0.261 C 
BRANCH  33  34
ATOM     34  O   UNL A   1      39.949  19.906  26.686  1.00  0.00    -0.460 OA
BRANCH  34  35
ATOM     35  C   UNL A   1      41.229  19.682  26.308  1.00  0.00     0.338 C 
ATOM     36  O   UNL A   1      41.674  18.675  25.767  1.00  0.00    -0.246 OA
BRANCH  35  37
ATOM     37  C   UNL A   1      42.032  20.905  26.467  1.00  0.00     0.060 A 
ATOM     38  C   UNL A   1      42.409  21.263  27.768  1.00  0.00     0.016 A 
ATOM     39  C   UNL A   1      42.336  21.734  25.384  1.00  0.00     0.016 A 
ATOM     40  C   UNL A   1      43.060  22.472  27.998  1.00  0.00     0.010 A 
ATOM     41  C   UNL A   1      42.977  22.956  25.621  1.00  0.00     0.010 A 
ATOM     42  C   UNL A   1      43.309  23.344  26.932  1.00  0.00    -0.014 A 
BRANCH  42  43
ATOM     43  C   UNL A   1      43.795  24.715  27.213  1.00  0.00     0.031 A 
ATOM     44  C   UNL A   1      42.819  25.755  27.691  1.00  0.00     0.074 A 
ATOM     45  C   UNL A   1      45.095  25.027  27.061  1.00  0.00     0.049 A 
ATOM     46  N   UNL A   1      43.025  27.014  27.977  1.00  0.00    -0.248 NA
ATOM     47  C   UNL A   1      41.424  25.316  27.870  1.00  0.00     0.031 C 
ATOM     48  C   UNL A   1      46.137  24.103  26.616  1.00  0.00     0.029 A 
ATOM     49  N   UNL A   1      45.752  26.218  27.242  1.00  0.00    -0.354 N 
ATOM     50  C   UNL A   1      41.787  27.525  28.345  1.00  0.00     0.074 A 
ATOM     51  C   UNL A   1      40.833  26.443  28.239  1.00  0.00     0.031 C 
ATOM     52  C   UNL A   1      47.300  24.771  26.527  1.00  0.00     0.029 A 
ATOM     53  C   UNL A   1      47.078  26.171  26.884  1.00  0.00     0.049 A 
ATOM     54  H   UNL A   1      45.315  27.027  27.594  1.00  0.00     0.167 HD
ATOM     55  C   UNL A   1      41.475  28.780  28.749  1.00  0.00     0.034 A 
ATOM     56  C   UNL A   1      48.000  27.153  26.825  1.00  0.00     0.034 A 
ATOM     57  C   UNL A   1      42.427  29.850  28.872  1.00  0.00     0.049 A 
ATOM     58  C   UNL A   1      47.618  28.549  27.244  1.00  0.00     0.074 A 
ATOM     59  C   UNL A   1      42.217  31.141  29.321  1.00  0.00     0.029 A 
ATOM     60  N   UNL A   1      43.767  29.759  28.529  1.00  0.00    -0.354 N 
ATOM     61  N   UNL A   1      46.473  28.989  27.706  1.00  0.00    -0.248 NA
ATOM     62  C   UNL A   1      48.665  29.578  27.158  1.00  0.00     0.031 C 
ATOM     63  C   UNL A   1      43.426  31.840  29.225  1.00  0.00     0.029 A 
ATOM     64  C   UNL A   1      44.394  30.976  28.737  1.00  0.00     0.049 A 
ATOM     65  H   UNL A   1      44.210  28.948  28.187  1.00  0.00     0.167 HD
ATOM     66  C   UNL A   1      46.669  30.336  27.993  1.00  0.00     0.074 A 
ATOM     67  C   UNL A   1      48.050  30.634  27.675  1.00  0.00     0.031 C 
ATOM     68  C   UNL A   1      45.781  31.248  28.462  1.00  0.00     0.034 A 
BRANCH  55  69
ATOM     69  C   UNL A   1      40.041  29.058  29.114  1.00  0.00     0.023 A 
ATOM     70  C   UNL A   1      39.084  29.236  28.094  1.00  0.00     0.012 A 
ATOM     71  C   UNL A   1      39.631  29.088  30.461  1.00  0.00     0.148 A 
ATOM     72  C   UNL A   1      37.745  29.465  28.410  1.00  0.00     0.002 A 
ATOM     73  C   UNL A   1      38.288  29.277  30.767  1.00  0.00     0.091 A 
ATOM     74  F   UNL A   1      40.560  28.941  31.416  1.00  0.00    -0.205 F 
ATOM     75  C   UNL A   1      37.346  29.475  29.743  1.00  0.00     0.022 A 
BRANCH  73  76
ATOM     76  S   UNL A   1      37.665  29.235  32.450  1.00  0.00     0.127 S 
ATOM     77  O   UNL A   1      38.560  30.177  33.120  1.00  0.00    -0.237 OA
ATOM     78  O   UNL A   1      36.292  29.713  32.283  1.00  0.00    -0.237 OA
ATOM     79  O   UNL A   1      37.776  27.849  32.885  1.00  0.00    -0.744 OA
ENDBRANCH  73  76
ENDBRANCH  55  69
BRANCH  56  80
ATOM     80  C   UNL A   1      49.381  26.847  26.362  1.00  0.00     0.023 A 
ATOM     81  C   UNL A   1      50.272  26.174  27.219  1.00  0.00     0.012 A 
ATOM     82  C   UNL A   1      49.807  27.203  25.068  1.00  0.00     0.148 A 
ATOM     83  C   UNL A   1      51.573  25.884  26.805  1.00  0.00     0.002 A 
ATOM     84  C   UNL A   1      51.084  26.862  24.643  1.00  0.00     0.091 A 
ATOM     85  F   UNL A   1      48.951  27.864  24.277  1.00  0.00    -0.205 F 
ATOM     86  C   UNL A   1      51.975  26.217  25.513  1.00  0.00     0.022 A 
BRANCH  84  87
ATOM     87  S   UNL A   1      51.632  27.136  22.954  1.00  0.00     0.127 S 
ATOM     88  O   UNL A   1      50.463  26.713  22.189  1.00  0.00    -0.237 OA
ATOM     89  O   UNL A   1      51.886  28.577  22.950  1.00  0.00    -0.237 OA
ATOM     90  O   UNL A   1      52.826  26.316  22.796  1.00  0.00    -0.744 OA
ENDBRANCH  84  87
ENDBRANCH  56  80
BRANCH  68  91
ATOM     91  C   UNL A   1      46.274  32.655  28.683  1.00  0.00     0.023 A 
ATOM     92  C   UNL A   1      46.853  33.006  29.918  1.00  0.00     0.012 A 
ATOM     93  C   UNL A   1      46.232  33.605  27.643  1.00  0.00     0.148 A 
ATOM     94  C   UNL A   1      47.355  34.290  30.127  1.00  0.00     0.002 A 
ATOM     95  C   UNL A   1      46.778  34.869  27.842  1.00  0.00     0.091 A 
ATOM     96  F   UNL A   1      45.662  33.258  26.481  1.00  0.00    -0.205 F 
ATOM     97  C   UNL A   1      47.330  35.216  29.086  1.00  0.00     0.022 A 
BRANCH  95  98
ATOM     98  S   UNL A   1      46.874  36.095  26.532  1.00  0.00     0.127 S 
ATOM     99  O   UNL A   1      45.524  36.656  26.549  1.00  0.00    -0.237 OA
ATOM    100  O   UNL A   1      47.916  36.996  27.025  1.00  0.00    -0.237 OA
ATOM    101  O   UNL A   1      47.232  35.362  25.325  1.00  0.00    -0.744 OA
ENDBRANCH  95  98
ENDBRANCH  68  91
ENDBRANCH  42  43
ENDBRANCH  35  37
ENDBRANCH  34  35
ENDBRANCH  33  34
ENDBRANCH  32  33
ENDBRANCH   1  32
TORSDOF 22
ENDMDL
