MODEL 1
REMARK VINA RESULT:     -12.3      0.000      0.000
REMARK SMILES Cc1c(CCC(=O)N2CCC(C(=O)OCCOCCOC(=O)c3ccc(-c4c5nc(c(-c6cccc(S(=O)(=O)[O-])c6F)c6ccc([nH]6)c(-c6cccc(S(=O)(=O)[O-])c6F)c6nc(c(-c7cccc(S(=O)(=O)[O-])c7F)c7ccc4[nH]7)C=C6)C=C5)cc3)CC2)c(=O)oc2cc3oc4c(c3cc12)CCCC4
REMARK SMILES IDX 17 1 16 2 15 3 14 4 12 5 13 6 11 7 6 8 7 9 8 10 9 11 87 12
REMARK SMILES IDX 10 13 86 14 5 15 4 16 3 17 1 18 2 19 99 20 88 21 91 22 98 23
REMARK SMILES IDX 89 24 90 25 92 26 97 27 93 28 96 29 94 30 95 31 100 32
REMARK SMILES IDX 103 33 101 34 102 35 18 36 19 37 20 38 21 39 22 40 23 41
REMARK SMILES IDX 24 42 85 43 25 44 84 45 26 46 27 47 28 48 78 49 29 50 83 51
REMARK SMILES IDX 77 52 79 53 30 54 82 55 76 56 75 57 31 59 63 60 43 61 62 62
REMARK SMILES IDX 44 63 47 64 61 65 80 66 45 67 46 68 60 70 81 71 48 72 32 73
REMARK SMILES IDX 33 74 41 75 34 76 36 77 42 78 35 79 37 80 38 81 39 82 40 83
REMARK SMILES IDX 64 84 65 85 73 86 66 87 68 88 74 89 67 90 69 91 70 92 71 93
REMARK SMILES IDX 72 94 49 95 50 96 58 97 51 98 53 99 59 100 52 101 54 102
REMARK SMILES IDX 55 103 56 104 57 105
REMARK H PARENT 79 58 47 69
REMARK Flexibility Score: inf
ROOT
ATOM      1  O   UNL A   1      35.632  19.456  24.865  1.00  0.00    -0.374 OA
ENDROOT
BRANCH   1   2
ATOM      2  C   UNL A   1      34.258  19.134  24.678  1.00  0.00     0.202 C 
BRANCH   2   3
ATOM      3  C   UNL A   1      33.302  20.053  25.463  1.00  0.00     0.261 C 
BRANCH   3   4
ATOM      4  O   UNL A   1      32.058  20.423  24.815  1.00  0.00    -0.463 OA
BRANCH   4   5
ATOM      5  C   UNL A   1      32.170  21.012  23.606  1.00  0.00     0.309 C 
ATOM      6  O   UNL A   1      32.004  20.462  22.522  1.00  0.00    -0.252 OA
BRANCH   5   7
ATOM      7  C   UNL A   1      32.769  22.391  23.609  1.00  0.00     0.103 C 
ATOM      8  C   UNL A   1      33.107  26.404  22.552  1.00  0.00     0.222 C 
ATOM      9  O   UNL A   1      34.024  26.711  21.786  1.00  0.00    -0.275 OA
ATOM     10  N   UNL A   1      33.145  25.207  23.264  1.00  0.00    -0.343 N 
ATOM     11  C   UNL A   1      34.349  24.337  23.360  1.00  0.00     0.120 C 
ATOM     12  C   UNL A   1      31.946  24.627  23.803  1.00  0.00     0.120 C 
ATOM     13  C   UNL A   1      34.106  22.819  23.031  1.00  0.00     0.037 C 
ATOM     14  C   UNL A   1      31.733  23.335  23.046  1.00  0.00     0.037 C 
BRANCH   8  15
ATOM     15  C   UNL A   1      31.979  27.443  22.863  1.00  0.00     0.105 C 
BRANCH  15  16
ATOM     16  C   UNL A   1      31.210  27.459  24.219  1.00  0.00     0.053 C 
BRANCH  16  17
ATOM     17  C   UNL A   1      31.679  28.513  25.224  1.00  0.00     0.042 A 
ATOM     18  C   UNL A   1      32.811  26.888  26.822  1.00  0.00     0.046 C 
ATOM     19  C   UNL A   1      32.505  28.247  26.251  1.00  0.00    -0.030 A 
ATOM     20  C   UNL A   1      33.300  29.390  26.694  1.00  0.00     0.022 A 
ATOM     21  C   UNL A   1      31.167  29.925  25.126  1.00  0.00     0.339 A 
ATOM     22  C   UNL A   1      32.689  30.613  26.867  1.00  0.00     0.142 A 
ATOM     23  C   UNL A   1      34.679  29.332  26.824  1.00  0.00     0.024 A 
ATOM     24  O   UNL A   1      30.439  30.274  24.201  1.00  0.00    -0.246 OA
ATOM     25  O   UNL A   1      31.461  30.799  26.199  1.00  0.00    -0.422 OA
ATOM     26  C   UNL A   1      33.296  31.647  27.613  1.00  0.00     0.095 A 
ATOM     27  C   UNL A   1      35.373  30.390  27.395  1.00  0.00     0.025 A 
ATOM     28  C   UNL A   1      34.633  31.413  27.965  1.00  0.00     0.138 A 
ATOM     29  C   UNL A   1      36.714  30.546  27.788  1.00  0.00     0.001 A 
ATOM     30  O   UNL A   1      35.405  31.981  28.960  1.00  0.00    -0.461 OA
ATOM     31  C   UNL A   1      36.577  31.267  28.950  1.00  0.00     0.108 A 
ATOM     32  C   UNL A   1      37.842  29.596  27.630  1.00  0.00     0.040 C 
ATOM     33  C   UNL A   1      37.245  30.779  30.200  1.00  0.00     0.076 C 
ATOM     34  C   UNL A   1      37.772  28.597  28.790  1.00  0.00     0.005 C 
ATOM     35  C   UNL A   1      37.255  29.211  30.128  1.00  0.00     0.008 C 
ENDBRANCH  16  17
ENDBRANCH  15  16
ENDBRANCH   8  15
ENDBRANCH   5   7
ENDBRANCH   4   5
ENDBRANCH   3   4
ENDBRANCH   2   3
ENDBRANCH   1   2
BRANCH   1  36
ATOM     36  C   UNL A   1      35.893  20.771  25.353  1.00  0.00     0.202 C 
BRANCH  36  37
ATOM     37  C   UNL A   1      37.177  21.472  24.856  1.00  0.00     0.261 C 
BRANCH  37  38
ATOM     38  O   UNL A   1      37.960  22.131  25.863  1.00  0.00    -0.460 OA
BRANCH  38  39
ATOM     39  C   UNL A   1      37.594  23.371  26.254  1.00  0.00     0.338 C 
ATOM     40  O   UNL A   1      36.456  23.801  26.339  1.00  0.00    -0.246 OA
BRANCH  39  41
ATOM     41  C   UNL A   1      38.809  24.031  26.784  1.00  0.00     0.060 A 
ATOM     42  C   UNL A   1      38.730  25.157  27.607  1.00  0.00     0.016 A 
ATOM     43  C   UNL A   1      40.051  23.581  26.328  1.00  0.00     0.016 A 
ATOM     44  C   UNL A   1      39.902  25.834  27.966  1.00  0.00     0.010 A 
ATOM     45  C   UNL A   1      41.209  24.288  26.647  1.00  0.00     0.010 A 
ATOM     46  C   UNL A   1      41.155  25.410  27.485  1.00  0.00    -0.014 A 
BRANCH  46  47
ATOM     47  C   UNL A   1      42.392  26.081  27.966  1.00  0.00     0.031 A 
ATOM     48  C   UNL A   1      42.185  27.393  28.690  1.00  0.00     0.074 A 
ATOM     49  C   UNL A   1      43.419  25.295  28.353  1.00  0.00     0.049 A 
ATOM     50  N   UNL A   1      41.990  27.579  29.964  1.00  0.00    -0.248 NA
ATOM     51  C   UNL A   1      41.956  28.594  27.879  1.00  0.00     0.031 C 
ATOM     52  C   UNL A   1      43.386  24.421  29.525  1.00  0.00     0.029 A 
ATOM     53  N   UNL A   1      44.762  25.422  28.041  1.00  0.00    -0.354 N 
ATOM     54  C   UNL A   1      41.583  28.904  30.125  1.00  0.00     0.074 A 
ATOM     55  C   UNL A   1      41.562  29.482  28.800  1.00  0.00     0.031 C 
ATOM     56  C   UNL A   1      44.651  24.177  29.915  1.00  0.00     0.029 A 
ATOM     57  C   UNL A   1      45.584  24.867  29.021  1.00  0.00     0.049 A 
ATOM     58  H   UNL A   1      45.098  25.853  27.221  1.00  0.00     0.167 HD
ATOM     59  C   UNL A   1      41.306  29.495  31.320  1.00  0.00     0.034 A 
ATOM     60  C   UNL A   1      46.800  25.383  29.366  1.00  0.00     0.034 A 
ATOM     61  C   UNL A   1      41.565  28.694  32.478  1.00  0.00     0.049 A 
ATOM     62  C   UNL A   1      46.417  26.298  30.502  1.00  0.00     0.074 A 
ATOM     63  C   UNL A   1      40.851  27.915  33.360  1.00  0.00     0.029 A 
ATOM     64  N   UNL A   1      42.869  28.584  32.896  1.00  0.00    -0.354 N 
ATOM     65  N   UNL A   1      46.144  25.940  31.732  1.00  0.00    -0.248 NA
ATOM     66  C   UNL A   1      45.913  27.621  30.131  1.00  0.00     0.031 C 
ATOM     67  C   UNL A   1      41.812  27.040  33.961  1.00  0.00     0.029 A 
ATOM     68  C   UNL A   1      43.047  27.313  33.372  1.00  0.00     0.049 A 
ATOM     69  H   UNL A   1      43.552  29.292  32.859  1.00  0.00     0.167 HD
ATOM     70  C   UNL A   1      45.153  26.833  32.158  1.00  0.00     0.074 A 
ATOM     71  C   UNL A   1      45.113  27.879  31.156  1.00  0.00     0.031 C 
ATOM     72  C   UNL A   1      44.275  26.572  33.173  1.00  0.00     0.034 A 
BRANCH  59  73
ATOM     73  C   UNL A   1      40.981  30.937  31.494  1.00  0.00     0.023 A 
ATOM     74  C   UNL A   1      41.903  31.867  30.969  1.00  0.00     0.012 A 
ATOM     75  C   UNL A   1      39.918  31.402  32.289  1.00  0.00     0.148 A 
ATOM     76  C   UNL A   1      41.807  33.224  31.264  1.00  0.00     0.002 A 
ATOM     77  C   UNL A   1      39.821  32.766  32.574  1.00  0.00     0.091 A 
ATOM     78  F   UNL A   1      39.052  30.509  32.789  1.00  0.00    -0.205 F 
ATOM     79  C   UNL A   1      40.771  33.672  32.072  1.00  0.00     0.022 A 
BRANCH  77  80
ATOM     80  S   UNL A   1      38.522  33.473  33.596  1.00  0.00     0.127 S 
ATOM     81  O   UNL A   1      39.029  34.822  33.840  1.00  0.00    -0.237 OA
ATOM     82  O   UNL A   1      37.363  33.409  32.705  1.00  0.00    -0.237 OA
ATOM     83  O   UNL A   1      38.429  32.615  34.769  1.00  0.00    -0.744 OA
ENDBRANCH  77  80
ENDBRANCH  59  73
BRANCH  60  84
ATOM     84  C   UNL A   1      47.706  25.744  28.223  1.00  0.00     0.023 A 
ATOM     85  C   UNL A   1      48.942  25.053  28.168  1.00  0.00     0.012 A 
ATOM     86  C   UNL A   1      47.428  26.650  27.184  1.00  0.00     0.148 A 
ATOM     87  C   UNL A   1      49.806  25.166  27.077  1.00  0.00     0.002 A 
ATOM     88  C   UNL A   1      48.257  26.708  26.063  1.00  0.00     0.091 A 
ATOM     89  F   UNL A   1      46.360  27.448  27.280  1.00  0.00    -0.205 F 
ATOM     90  C   UNL A   1      49.445  25.967  26.005  1.00  0.00     0.022 A 
BRANCH  88  91
ATOM     91  S   UNL A   1      47.813  27.628  24.582  1.00  0.00     0.127 S 
ATOM     92  O   UNL A   1      49.088  27.699  23.870  1.00  0.00    -0.237 OA
ATOM     93  O   UNL A   1      46.819  26.740  23.981  1.00  0.00    -0.237 OA
ATOM     94  O   UNL A   1      47.295  28.906  25.050  1.00  0.00    -0.744 OA
ENDBRANCH  88  91
ENDBRANCH  60  84
BRANCH  72  95
ATOM     95  C   UNL A   1      44.511  25.319  33.962  1.00  0.00     0.023 A 
ATOM     96  C   UNL A   1      43.994  24.104  33.478  1.00  0.00     0.012 A 
ATOM     97  C   UNL A   1      45.305  25.311  35.128  1.00  0.00     0.148 A 
ATOM     98  C   UNL A   1      44.285  22.900  34.120  1.00  0.00     0.002 A 
ATOM     99  C   UNL A   1      45.634  24.106  35.735  1.00  0.00     0.091 A 
ATOM    100  F   UNL A   1      45.731  26.480  35.631  1.00  0.00    -0.205 F 
ATOM    101  C   UNL A   1      45.122  22.899  35.233  1.00  0.00     0.022 A 
BRANCH  99 102
ATOM    102  S   UNL A   1      46.762  23.997  37.129  1.00  0.00     0.127 S 
ATOM    103  O   UNL A   1      45.910  24.419  38.241  1.00  0.00    -0.237 OA
ATOM    104  O   UNL A   1      47.109  22.576  37.126  1.00  0.00    -0.237 OA
ATOM    105  O   UNL A   1      47.871  24.896  36.834  1.00  0.00    -0.744 OA
ENDBRANCH  99 102
ENDBRANCH  72  95
ENDBRANCH  46  47
ENDBRANCH  39  41
ENDBRANCH  38  39
ENDBRANCH  37  38
ENDBRANCH  36  37
ENDBRANCH   1  36
TORSDOF 20
ENDMDL
MODEL 2
REMARK VINA RESULT:     -11.1      2.535      7.085
REMARK SMILES Cc1c(CCC(=O)N2CCC(C(=O)OCCOCCOC(=O)c3ccc(-c4c5nc(c(-c6cccc(S(=O)(=O)[O-])c6F)c6ccc([nH]6)c(-c6cccc(S(=O)(=O)[O-])c6F)c6nc(c(-c7cccc(S(=O)(=O)[O-])c7F)c7ccc4[nH]7)C=C6)C=C5)cc3)CC2)c(=O)oc2cc3oc4c(c3cc12)CCCC4
REMARK SMILES IDX 17 1 16 2 15 3 14 4 12 5 13 6 11 7 6 8 7 9 8 10 9 11 87 12
REMARK SMILES IDX 10 13 86 14 5 15 4 16 3 17 1 18 2 19 99 20 88 21 91 22 98 23
REMARK SMILES IDX 89 24 90 25 92 26 97 27 93 28 96 29 94 30 95 31 100 32
REMARK SMILES IDX 103 33 101 34 102 35 18 36 19 37 20 38 21 39 22 40 23 41
REMARK SMILES IDX 24 42 85 43 25 44 84 45 26 46 27 47 28 48 78 49 29 50 83 51
REMARK SMILES IDX 77 52 79 53 30 54 82 55 76 56 75 57 31 59 63 60 43 61 62 62
REMARK SMILES IDX 44 63 47 64 61 65 80 66 45 67 46 68 60 70 81 71 48 72 32 73
REMARK SMILES IDX 33 74 41 75 34 76 36 77 42 78 35 79 37 80 38 81 39 82 40 83
REMARK SMILES IDX 64 84 65 85 73 86 66 87 68 88 74 89 67 90 69 91 70 92 71 93
REMARK SMILES IDX 72 94 49 95 50 96 58 97 51 98 53 99 59 100 52 101 54 102
REMARK SMILES IDX 55 103 56 104 57 105
REMARK H PARENT 79 58 47 69
REMARK Flexibility Score: inf
ROOT
ATOM      1  O   UNL A   1      36.471  21.690  25.899  1.00  0.00    -0.374 OA
ENDROOT
BRANCH   1   2
ATOM      2  C   UNL A   1      35.813  22.854  25.409  1.00  0.00     0.202 C 
BRANCH   2   3
ATOM      3  C   UNL A   1      36.338  23.322  24.038  1.00  0.00     0.261 C 
BRANCH   3   4
ATOM      4  O   UNL A   1      35.570  22.940  22.869  1.00  0.00    -0.463 OA
BRANCH   4   5
ATOM      5  C   UNL A   1      34.231  23.083  22.963  1.00  0.00     0.309 C 
ATOM      6  O   UNL A   1      33.431  22.191  23.228  1.00  0.00    -0.252 OA
BRANCH   5   7
ATOM      7  C   UNL A   1      33.683  24.395  22.475  1.00  0.00     0.103 C 
ATOM      8  C   UNL A   1      31.607  27.995  22.739  1.00  0.00     0.222 C 
ATOM      9  O   UNL A   1      30.521  28.064  22.157  1.00  0.00    -0.275 OA
ATOM     10  N   UNL A   1      32.537  27.016  22.394  1.00  0.00    -0.343 N 
ATOM     11  C   UNL A   1      32.426  26.156  21.184  1.00  0.00     0.120 C 
ATOM     12  C   UNL A   1      33.583  26.635  23.302  1.00  0.00     0.120 C 
ATOM     13  C   UNL A   1      32.593  24.614  21.442  1.00  0.00     0.037 C 
ATOM     14  C   UNL A   1      33.294  25.202  23.691  1.00  0.00     0.037 C 
BRANCH   8  15
ATOM     15  C   UNL A   1      32.017  29.119  23.747  1.00  0.00     0.105 C 
BRANCH  15  16
ATOM     16  C   UNL A   1      31.308  29.306  25.123  1.00  0.00     0.053 C 
BRANCH  16  17
ATOM     17  C   UNL A   1      32.163  29.945  26.218  1.00  0.00     0.042 A 
ATOM     18  C   UNL A   1      33.178  27.776  27.078  1.00  0.00     0.046 C 
ATOM     19  C   UNL A   1      33.079  29.271  26.935  1.00  0.00    -0.030 A 
ATOM     20  C   UNL A   1      34.168  30.098  27.448  1.00  0.00     0.022 A 
ATOM     21  C   UNL A   1      31.961  31.391  26.580  1.00  0.00     0.339 A 
ATOM     22  C   UNL A   1      33.877  31.307  28.044  1.00  0.00     0.142 A 
ATOM     23  C   UNL A   1      35.502  29.783  27.243  1.00  0.00     0.024 A 
ATOM     24  O   UNL A   1      31.175  32.099  25.957  1.00  0.00    -0.246 OA
ATOM     25  O   UNL A   1      32.622  31.870  27.737  1.00  0.00    -0.422 OA
ATOM     26  C   UNL A   1      34.816  31.978  28.859  1.00  0.00     0.095 A 
ATOM     27  C   UNL A   1      36.499  30.511  27.879  1.00  0.00     0.025 A 
ATOM     28  C   UNL A   1      36.111  31.440  28.831  1.00  0.00     0.138 A 
ATOM     29  C   UNL A   1      37.890  30.331  27.983  1.00  0.00     0.001 A 
ATOM     30  O   UNL A   1      37.151  31.572  29.732  1.00  0.00    -0.461 OA
ATOM     31  C   UNL A   1      38.119  30.709  29.284  1.00  0.00     0.108 A 
ATOM     32  C   UNL A   1      38.739  29.292  27.349  1.00  0.00     0.040 C 
ATOM     33  C   UNL A   1      38.873  29.788  30.195  1.00  0.00     0.076 C 
ATOM     34  C   UNL A   1      38.659  28.034  28.220  1.00  0.00     0.005 C 
ATOM     35  C   UNL A   1      38.531  28.324  29.748  1.00  0.00     0.008 C 
ENDBRANCH  16  17
ENDBRANCH  15  16
ENDBRANCH   8  15
ENDBRANCH   5   7
ENDBRANCH   4   5
ENDBRANCH   3   4
ENDBRANCH   2   3
ENDBRANCH   1   2
BRANCH   1  36
ATOM     36  C   UNL A   1      37.593  21.252  25.133  1.00  0.00     0.202 C 
BRANCH  36  37
ATOM     37  C   UNL A   1      38.995  21.449  25.749  1.00  0.00     0.261 C 
BRANCH  37  38
ATOM     38  O   UNL A   1      39.038  22.164  26.994  1.00  0.00    -0.460 OA
BRANCH  38  39
ATOM     39  C   UNL A   1      39.281  23.493  26.965  1.00  0.00     0.338 C 
ATOM     40  O   UNL A   1      38.481  24.374  26.699  1.00  0.00    -0.246 OA
BRANCH  39  41
ATOM     41  C   UNL A   1      40.628  23.696  27.545  1.00  0.00     0.060 A 
ATOM     42  C   UNL A   1      41.327  22.651  28.154  1.00  0.00     0.016 A 
ATOM     43  C   UNL A   1      41.132  24.998  27.592  1.00  0.00     0.016 A 
ATOM     44  C   UNL A   1      42.532  22.918  28.816  1.00  0.00     0.010 A 
ATOM     45  C   UNL A   1      42.306  25.267  28.295  1.00  0.00     0.010 A 
ATOM     46  C   UNL A   1      43.032  24.231  28.899  1.00  0.00    -0.014 A 
BRANCH  46  47
ATOM     47  C   UNL A   1      44.364  24.473  29.514  1.00  0.00     0.031 A 
ATOM     48  C   UNL A   1      45.454  24.911  28.561  1.00  0.00     0.074 A 
ATOM     49  C   UNL A   1      44.392  24.951  30.777  1.00  0.00     0.049 A 
ATOM     50  N   UNL A   1      45.767  26.125  28.211  1.00  0.00    -0.248 NA
ATOM     51  C   UNL A   1      46.113  23.878  27.754  1.00  0.00     0.031 C 
ATOM     52  C   UNL A   1      43.926  26.283  31.159  1.00  0.00     0.029 A 
ATOM     53  N   UNL A   1      45.177  24.530  31.836  1.00  0.00    -0.354 N 
ATOM     54  C   UNL A   1      46.636  26.024  27.123  1.00  0.00     0.074 A 
ATOM     55  C   UNL A   1      46.802  24.610  26.871  1.00  0.00     0.031 C 
ATOM     56  C   UNL A   1      44.521  26.631  32.315  1.00  0.00     0.029 A 
ATOM     57  C   UNL A   1      45.403  25.550  32.760  1.00  0.00     0.049 A 
ATOM     58  H   UNL A   1      45.534  23.617  31.928  1.00  0.00     0.167 HD
ATOM     59  C   UNL A   1      47.210  27.080  26.483  1.00  0.00     0.034 A 
ATOM     60  C   UNL A   1      46.571  25.694  33.453  1.00  0.00     0.034 A 
ATOM     61  C   UNL A   1      46.962  28.363  27.068  1.00  0.00     0.049 A 
ATOM     62  C   UNL A   1      47.333  26.630  32.549  1.00  0.00     0.074 A 
ATOM     63  C   UNL A   1      46.129  29.438  26.854  1.00  0.00     0.029 A 
ATOM     64  N   UNL A   1      47.693  28.707  28.178  1.00  0.00    -0.354 N 
ATOM     65  N   UNL A   1      47.158  27.924  32.441  1.00  0.00    -0.248 NA
ATOM     66  C   UNL A   1      48.031  26.018  31.417  1.00  0.00     0.031 C 
ATOM     67  C   UNL A   1      46.094  30.147  28.098  1.00  0.00     0.029 A 
ATOM     68  C   UNL A   1      46.877  29.432  29.005  1.00  0.00     0.049 A 
ATOM     69  H   UNL A   1      48.634  28.473  28.350  1.00  0.00     0.167 HD
ATOM     70  C   UNL A   1      47.410  28.213  31.094  1.00  0.00     0.074 A 
ATOM     71  C   UNL A   1      48.010  27.014  30.543  1.00  0.00     0.031 C 
ATOM     72  C   UNL A   1      46.928  29.317  30.447  1.00  0.00     0.034 A 
BRANCH  59  73
ATOM     73  C   UNL A   1      48.221  26.961  25.397  1.00  0.00     0.023 A 
ATOM     74  C   UNL A   1      49.564  26.787  25.790  1.00  0.00     0.012 A 
ATOM     75  C   UNL A   1      47.929  27.185  24.039  1.00  0.00     0.148 A 
ATOM     76  C   UNL A   1      50.604  26.881  24.871  1.00  0.00     0.002 A 
ATOM     77  C   UNL A   1      48.976  27.269  23.119  1.00  0.00     0.091 A 
ATOM     78  F   UNL A   1      46.650  27.356  23.677  1.00  0.00    -0.205 F 
ATOM     79  C   UNL A   1      50.311  27.130  23.537  1.00  0.00     0.022 A 
BRANCH  77  80
ATOM     80  S   UNL A   1      48.729  27.575  21.364  1.00  0.00     0.127 S 
ATOM     81  O   UNL A   1      49.889  28.400  21.034  1.00  0.00    -0.237 OA
ATOM     82  O   UNL A   1      48.767  26.220  20.810  1.00  0.00    -0.237 OA
ATOM     83  O   UNL A   1      47.436  28.235  21.255  1.00  0.00    -0.744 OA
ENDBRANCH  77  80
ENDBRANCH  59  73
BRANCH  60  84
ATOM     84  C   UNL A   1      47.121  24.443  34.077  1.00  0.00     0.023 A 
ATOM     85  C   UNL A   1      46.171  23.575  34.670  1.00  0.00     0.012 A 
ATOM     86  C   UNL A   1      48.465  24.027  34.080  1.00  0.00     0.148 A 
ATOM     87  C   UNL A   1      46.518  22.306  35.138  1.00  0.00     0.002 A 
ATOM     88  C   UNL A   1      48.798  22.733  34.483  1.00  0.00     0.091 A 
ATOM     89  F   UNL A   1      49.415  24.881  33.690  1.00  0.00    -0.205 F 
ATOM     90  C   UNL A   1      47.828  21.870  35.010  1.00  0.00     0.022 A 
BRANCH  88  91
ATOM     91  S   UNL A   1      50.443  22.044  34.247  1.00  0.00     0.127 S 
ATOM     92  O   UNL A   1      51.183  22.625  35.366  1.00  0.00    -0.237 OA
ATOM     93  O   UNL A   1      50.172  20.612  34.364  1.00  0.00    -0.237 OA
ATOM     94  O   UNL A   1      50.871  22.484  32.927  1.00  0.00    -0.744 OA
ENDBRANCH  88  91
ENDBRANCH  60  84
BRANCH  72  95
ATOM     95  C   UNL A   1      46.226  30.338  31.290  1.00  0.00     0.023 A 
ATOM     96  C   UNL A   1      46.993  31.290  31.984  1.00  0.00     0.012 A 
ATOM     97  C   UNL A   1      44.819  30.421  31.341  1.00  0.00     0.148 A 
ATOM     98  C   UNL A   1      46.378  32.325  32.688  1.00  0.00     0.002 A 
ATOM     99  C   UNL A   1      44.211  31.482  32.002  1.00  0.00     0.091 A 
ATOM    100  F   UNL A   1      44.089  29.467  30.744  1.00  0.00    -0.205 F 
ATOM    101  C   UNL A   1      44.990  32.433  32.677  1.00  0.00     0.022 A 
BRANCH  99 102
ATOM    102  S   UNL A   1      42.434  31.746  31.983  1.00  0.00     0.127 S 
ATOM    103  O   UNL A   1      41.935  30.486  32.536  1.00  0.00    -0.237 OA
ATOM    104  O   UNL A   1      42.291  32.903  32.867  1.00  0.00    -0.237 OA
ATOM    105  O   UNL A   1      42.066  31.991  30.595  1.00  0.00    -0.744 OA
ENDBRANCH  99 102
ENDBRANCH  72  95
ENDBRANCH  46  47
ENDBRANCH  39  41
ENDBRANCH  38  39
ENDBRANCH  37  38
ENDBRANCH  36  37
ENDBRANCH   1  36
TORSDOF 20
ENDMDL
MODEL 3
REMARK VINA RESULT:     -11.1      3.563      8.072
REMARK SMILES Cc1c(CCC(=O)N2CCC(C(=O)OCCOCCOC(=O)c3ccc(-c4c5nc(c(-c6cccc(S(=O)(=O)[O-])c6F)c6ccc([nH]6)c(-c6cccc(S(=O)(=O)[O-])c6F)c6nc(c(-c7cccc(S(=O)(=O)[O-])c7F)c7ccc4[nH]7)C=C6)C=C5)cc3)CC2)c(=O)oc2cc3oc4c(c3cc12)CCCC4
REMARK SMILES IDX 17 1 16 2 15 3 14 4 12 5 13 6 11 7 6 8 7 9 8 10 9 11 87 12
REMARK SMILES IDX 10 13 86 14 5 15 4 16 3 17 1 18 2 19 99 20 88 21 91 22 98 23
REMARK SMILES IDX 89 24 90 25 92 26 97 27 93 28 96 29 94 30 95 31 100 32
REMARK SMILES IDX 103 33 101 34 102 35 18 36 19 37 20 38 21 39 22 40 23 41
REMARK SMILES IDX 24 42 85 43 25 44 84 45 26 46 27 47 28 48 78 49 29 50 83 51
REMARK SMILES IDX 77 52 79 53 30 54 82 55 76 56 75 57 31 59 63 60 43 61 62 62
REMARK SMILES IDX 44 63 47 64 61 65 80 66 45 67 46 68 60 70 81 71 48 72 32 73
REMARK SMILES IDX 33 74 41 75 34 76 36 77 42 78 35 79 37 80 38 81 39 82 40 83
REMARK SMILES IDX 64 84 65 85 73 86 66 87 68 88 74 89 67 90 69 91 70 92 71 93
REMARK SMILES IDX 72 94 49 95 50 96 58 97 51 98 53 99 59 100 52 101 54 102
REMARK SMILES IDX 55 103 56 104 57 105
REMARK H PARENT 79 58 47 69
REMARK Flexibility Score: inf
ROOT
ATOM      1  O   UNL A   1      37.114  33.234  33.590  1.00  0.00    -0.374 OA
ENDROOT
BRANCH   1   2
ATOM      2  C   UNL A   1      36.077  33.866  34.332  1.00  0.00     0.202 C 
BRANCH   2   3
ATOM      3  C   UNL A   1      35.025  34.559  33.445  1.00  0.00     0.261 C 
BRANCH   3   4
ATOM      4  O   UNL A   1      35.397  34.838  32.071  1.00  0.00    -0.463 OA
BRANCH   4   5
ATOM      5  C   UNL A   1      34.453  34.594  31.138  1.00  0.00     0.309 C 
ATOM      6  O   UNL A   1      33.247  34.780  31.272  1.00  0.00    -0.252 OA
BRANCH   5   7
ATOM      7  C   UNL A   1      34.913  33.819  29.935  1.00  0.00     0.103 C 
ATOM      8  C   UNL A   1      35.971  30.432  27.757  1.00  0.00     0.222 C 
ATOM      9  O   UNL A   1      37.170  30.268  27.516  1.00  0.00    -0.275 OA
ATOM     10  N   UNL A   1      35.483  31.688  28.112  1.00  0.00    -0.343 N 
ATOM     11  C   UNL A   1      36.271  32.946  28.000  1.00  0.00     0.120 C 
ATOM     12  C   UNL A   1      34.231  31.828  28.803  1.00  0.00     0.120 C 
ATOM     13  C   UNL A   1      36.289  33.841  29.293  1.00  0.00     0.037 C 
ATOM     14  C   UNL A   1      34.572  32.368  30.174  1.00  0.00     0.037 C 
BRANCH   8  15
ATOM     15  C   UNL A   1      34.962  29.266  27.491  1.00  0.00     0.105 C 
BRANCH  15  16
ATOM     16  C   UNL A   1      33.940  29.300  26.314  1.00  0.00     0.053 C 
BRANCH  16  17
ATOM     17  C   UNL A   1      33.005  28.092  26.226  1.00  0.00     0.042 A 
ATOM     18  C   UNL A   1      34.114  27.032  24.196  1.00  0.00     0.046 C 
ATOM     19  C   UNL A   1      33.210  27.052  25.398  1.00  0.00    -0.030 A 
ATOM     20  C   UNL A   1      32.627  25.794  25.860  1.00  0.00     0.022 A 
ATOM     21  C   UNL A   1      31.749  28.052  27.053  1.00  0.00     0.339 A 
ATOM     22  C   UNL A   1      31.337  25.783  26.345  1.00  0.00     0.142 A 
ATOM     23  C   UNL A   1      33.365  24.624  25.957  1.00  0.00     0.024 A 
ATOM     24  O   UNL A   1      31.495  28.937  27.865  1.00  0.00    -0.246 OA
ATOM     25  O   UNL A   1      30.820  27.022  26.775  1.00  0.00    -0.422 OA
ATOM     26  C   UNL A   1      30.602  24.583  26.473  1.00  0.00     0.095 A 
ATOM     27  C   UNL A   1      32.734  23.422  26.250  1.00  0.00     0.025 A 
ATOM     28  C   UNL A   1      31.349  23.411  26.283  1.00  0.00     0.138 A 
ATOM     29  C   UNL A   1      33.184  22.090  26.260  1.00  0.00     0.001 A 
ATOM     30  O   UNL A   1      30.935  22.132  25.965  1.00  0.00    -0.461 OA
ATOM     31  C   UNL A   1      32.093  21.429  25.748  1.00  0.00     0.108 A 
ATOM     32  C   UNL A   1      34.552  21.572  26.012  1.00  0.00     0.040 C 
ATOM     33  C   UNL A   1      32.276  20.499  24.587  1.00  0.00     0.076 C 
ATOM     34  C   UNL A   1      34.740  21.470  24.495  1.00  0.00     0.005 C 
ATOM     35  C   UNL A   1      33.445  21.081  23.717  1.00  0.00     0.008 C 
ENDBRANCH  16  17
ENDBRANCH  15  16
ENDBRANCH   8  15
ENDBRANCH   5   7
ENDBRANCH   4   5
ENDBRANCH   3   4
ENDBRANCH   2   3
ENDBRANCH   1   2
BRANCH   1  36
ATOM     36  C   UNL A   1      36.851  31.891  33.189  1.00  0.00     0.202 C 
BRANCH  36  37
ATOM     37  C   UNL A   1      37.612  31.354  31.957  1.00  0.00     0.261 C 
BRANCH  37  38
ATOM     38  O   UNL A   1      38.051  29.989  32.038  1.00  0.00    -0.460 OA
BRANCH  38  39
ATOM     39  C   UNL A   1      37.712  29.144  31.040  1.00  0.00     0.338 C 
ATOM     40  O   UNL A   1      36.592  28.952  30.598  1.00  0.00    -0.246 OA
BRANCH  39  41
ATOM     41  C   UNL A   1      38.975  28.674  30.427  1.00  0.00     0.060 A 
ATOM     42  C   UNL A   1      40.200  29.275  30.724  1.00  0.00     0.016 A 
ATOM     43  C   UNL A   1      38.897  27.696  29.432  1.00  0.00     0.016 A 
ATOM     44  C   UNL A   1      41.347  28.895  30.015  1.00  0.00     0.010 A 
ATOM     45  C   UNL A   1      40.031  27.359  28.695  1.00  0.00     0.010 A 
ATOM     46  C   UNL A   1      41.273  27.937  28.988  1.00  0.00    -0.014 A 
BRANCH  46  47
ATOM     47  C   UNL A   1      42.521  27.475  28.322  1.00  0.00     0.031 A 
ATOM     48  C   UNL A   1      43.524  28.557  27.991  1.00  0.00     0.074 A 
ATOM     49  C   UNL A   1      42.989  26.252  28.651  1.00  0.00     0.049 A 
ATOM     50  N   UNL A   1      44.488  29.008  28.741  1.00  0.00    -0.248 NA
ATOM     51  C   UNL A   1      43.288  29.365  26.789  1.00  0.00     0.031 C 
ATOM     52  C   UNL A   1      43.512  25.902  29.971  1.00  0.00     0.029 A 
ATOM     53  N   UNL A   1      43.450  25.255  27.810  1.00  0.00    -0.354 N 
ATOM     54  C   UNL A   1      44.966  30.170  28.134  1.00  0.00     0.074 A 
ATOM     55  C   UNL A   1      44.176  30.355  26.938  1.00  0.00     0.031 C 
ATOM     56  C   UNL A   1      44.323  24.835  29.844  1.00  0.00     0.029 A 
ATOM     57  C   UNL A   1      44.372  24.420  28.441  1.00  0.00     0.049 A 
ATOM     58  H   UNL A   1      43.160  25.146  26.875  1.00  0.00     0.167 HD
ATOM     59  C   UNL A   1      45.999  30.926  28.602  1.00  0.00     0.034 A 
ATOM     60  C   UNL A   1      45.440  23.858  27.802  1.00  0.00     0.034 A 
ATOM     61  C   UNL A   1      46.682  30.395  29.743  1.00  0.00     0.049 A 
ATOM     62  C   UNL A   1      46.511  24.887  28.063  1.00  0.00     0.074 A 
ATOM     63  C   UNL A   1      46.693  30.586  31.106  1.00  0.00     0.029 A 
ATOM     64  N   UNL A   1      47.589  29.386  29.527  1.00  0.00    -0.354 N 
ATOM     65  N   UNL A   1      47.177  25.053  29.178  1.00  0.00    -0.248 NA
ATOM     66  C   UNL A   1      46.531  26.046  27.169  1.00  0.00     0.031 C 
ATOM     67  C   UNL A   1      47.257  29.389  31.654  1.00  0.00     0.029 A 
ATOM     68  C   UNL A   1      47.513  28.525  30.589  1.00  0.00     0.049 A 
ATOM     69  H   UNL A   1      48.185  29.297  28.748  1.00  0.00     0.167 HD
ATOM     70  C   UNL A   1      47.397  26.433  29.268  1.00  0.00     0.074 A 
ATOM     71  C   UNL A   1      47.041  26.970  27.971  1.00  0.00     0.031 C 
ATOM     72  C   UNL A   1      47.646  27.091  30.440  1.00  0.00     0.034 A 
BRANCH  59  73
ATOM     73  C   UNL A   1      46.576  32.100  27.892  1.00  0.00     0.023 A 
ATOM     74  C   UNL A   1      45.666  33.061  27.405  1.00  0.00     0.012 A 
ATOM     75  C   UNL A   1      47.934  32.202  27.541  1.00  0.00     0.148 A 
ATOM     76  C   UNL A   1      46.079  34.076  26.546  1.00  0.00     0.002 A 
ATOM     77  C   UNL A   1      48.345  33.228  26.687  1.00  0.00     0.091 A 
ATOM     78  F   UNL A   1      48.789  31.279  28.003  1.00  0.00    -0.205 F 
ATOM     79  C   UNL A   1      47.416  34.155  26.181  1.00  0.00     0.022 A 
BRANCH  77  80
ATOM     80  S   UNL A   1      50.046  33.447  26.150  1.00  0.00     0.127 S 
ATOM     81  O   UNL A   1      50.443  32.075  25.835  1.00  0.00    -0.237 OA
ATOM     82  O   UNL A   1      49.889  34.318  24.984  1.00  0.00    -0.237 OA
ATOM     83  O   UNL A   1      50.742  34.060  27.273  1.00  0.00    -0.744 OA
ENDBRANCH  77  80
ENDBRANCH  59  73
BRANCH  60  84
ATOM     84  C   UNL A   1      45.148  23.221  26.473  1.00  0.00     0.023 A 
ATOM     85  C   UNL A   1      45.597  23.931  25.332  1.00  0.00     0.012 A 
ATOM     86  C   UNL A   1      44.530  21.977  26.255  1.00  0.00     0.148 A 
ATOM     87  C   UNL A   1      45.541  23.383  24.049  1.00  0.00     0.002 A 
ATOM     88  C   UNL A   1      44.539  21.401  24.984  1.00  0.00     0.091 A 
ATOM     89  F   UNL A   1      43.939  21.351  27.278  1.00  0.00    -0.205 F 
ATOM     90  C   UNL A   1      45.045  22.100  23.880  1.00  0.00     0.022 A 
BRANCH  88  91
ATOM     91  S   UNL A   1      44.025  19.702  24.691  1.00  0.00     0.127 S 
ATOM     92  O   UNL A   1      44.261  19.552  23.256  1.00  0.00    -0.237 OA
ATOM     93  O   UNL A   1      44.954  18.969  25.550  1.00  0.00    -0.237 OA
ATOM     94  O   UNL A   1      42.628  19.636  25.098  1.00  0.00    -0.744 OA
ENDBRANCH  88  91
ENDBRANCH  60  84
BRANCH  72  95
ATOM     95  C   UNL A   1      47.846  26.243  31.660  1.00  0.00     0.023 A 
ATOM     96  C   UNL A   1      49.123  25.712  31.916  1.00  0.00     0.012 A 
ATOM     97  C   UNL A   1      46.814  26.031  32.597  1.00  0.00     0.148 A 
ATOM     98  C   UNL A   1      49.379  25.013  33.095  1.00  0.00     0.002 A 
ATOM     99  C   UNL A   1      47.086  25.377  33.792  1.00  0.00     0.091 A 
ATOM    100  F   UNL A   1      45.579  26.471  32.313  1.00  0.00    -0.205 F 
ATOM    101  C   UNL A   1      48.369  24.865  34.042  1.00  0.00     0.022 A 
BRANCH  99 102
ATOM    102  S   UNL A   1      45.869  25.202  35.102  1.00  0.00     0.127 S 
ATOM    103  O   UNL A   1      45.518  26.595  35.377  1.00  0.00    -0.237 OA
ATOM    104  O   UNL A   1      44.821  24.426  34.438  1.00  0.00    -0.237 OA
ATOM    105  O   UNL A   1      46.537  24.512  36.198  1.00  0.00    -0.744 OA
ENDBRANCH  99 102
ENDBRANCH  72  95
ENDBRANCH  46  47
ENDBRANCH  39  41
ENDBRANCH  38  39
ENDBRANCH  37  38
ENDBRANCH  36  37
ENDBRANCH   1  36
TORSDOF 20
ENDMDL
