MODEL 1
REMARK VINA RESULT:     -10.8      0.000      0.000
REMARK SMILES C[C@@](NC(=O)c1ccc(C[NH3+])o1)(C(=O)OCCOCCOC(=O)c1ccc(-c2c3nc(c(-c4cccc(S(=O)(=O)[O-])c4F)c4ccc([nH]4)c(-c4cccc(S(=O)(=O)[O-])c4F)c4nc(c(-c5cccc(S(=O)(=O)[O-])c5F)c5ccc2[nH]5)C=C4)C=C3)cc1)C1CC1
REMARK SMILES IDX 17 1 16 2 15 3 13 4 14 5 2 6 1 7 3 8 4 9 5 11 6 12 7 13
REMARK SMILES IDX 12 14 8 15 9 16 10 17 11 18 87 22 88 23 89 24 18 25 19 26
REMARK SMILES IDX 20 27 21 28 22 29 23 30 24 31 25 32 86 33 26 34 85 35 27 36
REMARK SMILES IDX 28 37 29 38 79 39 30 40 84 41 78 42 80 43 31 44 83 45 77 46
REMARK SMILES IDX 76 47 32 49 64 50 44 51 63 52 45 53 48 54 62 55 81 56 46 57
REMARK SMILES IDX 47 58 61 60 82 61 49 62 33 63 34 64 42 65 35 66 37 67 43 68
REMARK SMILES IDX 36 69 38 70 39 71 40 72 41 73 65 74 66 75 74 76 67 77 69 78
REMARK SMILES IDX 75 79 68 80 70 81 71 82 72 83 73 84 50 85 51 86 59 87 52 88
REMARK SMILES IDX 54 89 60 90 53 91 55 92 56 93 57 94 58 95
REMARK H PARENT 3 10 11 19 11 20 11 21 80 48 48 59
REMARK Flexibility Score: inf
ROOT
ATOM      1  C   UNL A   1      33.507  27.741  25.434  1.00  0.00     0.202 C 
ENDROOT
BRANCH   1   2
ATOM      2  C   UNL A   1      33.267  27.096  24.064  1.00  0.00     0.261 C 
BRANCH   2   3
ATOM      3  O   UNL A   1      32.872  25.722  24.075  1.00  0.00    -0.461 OA
BRANCH   3   4
ATOM      4  C   UNL A   1      33.766  24.848  23.519  1.00  0.00     0.331 C 
ATOM      5  O   UNL A   1      33.989  24.769  22.315  1.00  0.00    -0.249 OA
BRANCH   4   6
ATOM      6  C   UNL A   1      34.374  23.889  24.597  1.00  0.00     0.138 C 
ATOM      7  C   UNL A   1      35.416  24.597  25.489  1.00  0.00     0.048 C 
BRANCH   6   8
ATOM      8  N   UNL A   1      33.321  23.315  25.481  1.00  0.00    -0.333 N 
ATOM      9  C   UNL A   1      32.140  22.736  25.070  1.00  0.00     0.287 C 
ATOM     10  H   UNL A   1      33.484  23.354  26.452  1.00  0.00     0.165 HD
ATOM     11  O   UNL A   1      31.097  23.163  25.567  1.00  0.00    -0.266 OA
BRANCH   9  12
ATOM     12  C   UNL A   1      32.218  21.576  24.218  1.00  0.00     0.191 A 
ATOM     13  C   UNL A   1      32.099  21.451  22.845  1.00  0.00     0.057 A 
ATOM     14  O   UNL A   1      32.453  20.348  24.770  1.00  0.00    -0.450 OA
ATOM     15  C   UNL A   1      32.249  20.078  22.545  1.00  0.00     0.052 A 
ATOM     16  C   UNL A   1      32.466  19.439  23.749  1.00  0.00     0.159 A 
BRANCH  16  17
ATOM     17  C   UNL A   1      32.641  18.012  24.125  1.00  0.00     0.335 C 
BRANCH  17  18
ATOM     18  N   UNL A   1      33.509  17.874  25.287  1.00  0.00    -0.351 N 
ATOM     19  H   UNL A   1      34.219  18.605  25.270  1.00  0.00     0.344 HD
ATOM     20  H   UNL A   1      33.961  16.960  25.267  1.00  0.00     0.344 HD
ATOM     21  H   UNL A   1      32.953  17.960  26.138  1.00  0.00     0.344 HD
ENDBRANCH  17  18
ENDBRANCH  16  17
ENDBRANCH   9  12
ENDBRANCH   6   8
BRANCH   6  22
ATOM     22  C   UNL A   1      35.055  22.647  23.965  1.00  0.00     0.026 C 
ATOM     23  C   UNL A   1      36.462  22.633  23.396  1.00  0.00     0.007 C 
ATOM     24  C   UNL A   1      36.161  21.868  24.649  1.00  0.00     0.007 C 
ENDBRANCH   6  22
ENDBRANCH   4   6
ENDBRANCH   3   4
ENDBRANCH   2   3
ENDBRANCH   1   2
BRANCH   1  25
ATOM     25  O   UNL A   1      32.433  28.425  26.060  1.00  0.00    -0.374 OA
BRANCH  25  26
ATOM     26  C   UNL A   1      31.960  29.631  25.462  1.00  0.00     0.202 C 
BRANCH  26  27
ATOM     27  C   UNL A   1      31.830  30.875  26.343  1.00  0.00     0.261 C 
BRANCH  27  28
ATOM     28  O   UNL A   1      32.686  30.816  27.501  1.00  0.00    -0.460 OA
BRANCH  28  29
ATOM     29  C   UNL A   1      33.505  31.879  27.645  1.00  0.00     0.338 C 
ATOM     30  O   UNL A   1      33.164  33.048  27.835  1.00  0.00    -0.246 OA
BRANCH  29  31
ATOM     31  C   UNL A   1      34.917  31.477  27.706  1.00  0.00     0.060 A 
ATOM     32  C   UNL A   1      35.193  30.101  27.695  1.00  0.00     0.016 A 
ATOM     33  C   UNL A   1      35.923  32.405  27.975  1.00  0.00     0.016 A 
ATOM     34  C   UNL A   1      36.457  29.646  28.057  1.00  0.00     0.010 A 
ATOM     35  C   UNL A   1      37.192  31.944  28.343  1.00  0.00     0.010 A 
ATOM     36  C   UNL A   1      37.440  30.565  28.453  1.00  0.00    -0.014 A 
BRANCH  36  37
ATOM     37  C   UNL A   1      38.612  30.065  29.211  1.00  0.00     0.031 A 
ATOM     38  C   UNL A   1      38.761  30.474  30.656  1.00  0.00     0.074 A 
ATOM     39  C   UNL A   1      39.507  29.235  28.647  1.00  0.00     0.049 A 
ATOM     40  N   UNL A   1      39.667  30.117  31.529  1.00  0.00    -0.248 NA
ATOM     41  C   UNL A   1      37.752  31.406  31.185  1.00  0.00     0.031 C 
ATOM     42  C   UNL A   1      39.471  28.767  27.264  1.00  0.00     0.029 A 
ATOM     43  N   UNL A   1      40.627  28.647  29.177  1.00  0.00    -0.354 N 
ATOM     44  C   UNL A   1      39.353  30.801  32.699  1.00  0.00     0.074 A 
ATOM     45  C   UNL A   1      38.183  31.602  32.423  1.00  0.00     0.031 C 
ATOM     46  C   UNL A   1      40.534  27.973  27.047  1.00  0.00     0.029 A 
ATOM     47  C   UNL A   1      41.325  27.882  28.273  1.00  0.00     0.049 A 
ATOM     48  H   UNL A   1      40.904  28.761  30.115  1.00  0.00     0.167 HD
ATOM     49  C   UNL A   1      39.970  30.753  33.903  1.00  0.00     0.034 A 
ATOM     50  C   UNL A   1      42.472  27.192  28.423  1.00  0.00     0.034 A 
ATOM     51  C   UNL A   1      41.115  29.933  34.189  1.00  0.00     0.049 A 
ATOM     52  C   UNL A   1      43.140  27.152  29.775  1.00  0.00     0.074 A 
ATOM     53  C   UNL A   1      41.782  29.775  35.391  1.00  0.00     0.029 A 
ATOM     54  N   UNL A   1      41.766  29.137  33.260  1.00  0.00    -0.354 N 
ATOM     55  N   UNL A   1      42.754  27.696  30.904  1.00  0.00    -0.248 NA
ATOM     56  C   UNL A   1      44.380  26.369  29.880  1.00  0.00     0.031 C 
ATOM     57  C   UNL A   1      42.848  28.891  35.184  1.00  0.00     0.029 A 
ATOM     58  C   UNL A   1      42.832  28.488  33.858  1.00  0.00     0.049 A 
ATOM     59  H   UNL A   1      41.507  29.047  32.315  1.00  0.00     0.167 HD
ATOM     60  C   UNL A   1      43.677  27.285  31.861  1.00  0.00     0.074 A 
ATOM     61  C   UNL A   1      44.634  26.438  31.180  1.00  0.00     0.031 C 
ATOM     62  C   UNL A   1      43.735  27.592  33.181  1.00  0.00     0.034 A 
BRANCH  49  63
ATOM     63  C   UNL A   1      39.391  31.589  35.013  1.00  0.00     0.023 A 
ATOM     64  C   UNL A   1      38.412  31.034  35.862  1.00  0.00     0.012 A 
ATOM     65  C   UNL A   1      39.834  32.907  35.234  1.00  0.00     0.148 A 
ATOM     66  C   UNL A   1      37.860  31.789  36.896  1.00  0.00     0.002 A 
ATOM     67  C   UNL A   1      39.305  33.641  36.291  1.00  0.00     0.091 A 
ATOM     68  F   UNL A   1      40.742  33.428  34.398  1.00  0.00    -0.205 F 
ATOM     69  C   UNL A   1      38.312  33.088  37.116  1.00  0.00     0.022 A 
BRANCH  67  70
ATOM     70  S   UNL A   1      39.879  35.297  36.686  1.00  0.00     0.127 S 
ATOM     71  O   UNL A   1      39.383  36.063  35.544  1.00  0.00    -0.237 OA
ATOM     72  O   UNL A   1      39.193  35.574  37.949  1.00  0.00    -0.237 OA
ATOM     73  O   UNL A   1      41.327  35.194  36.798  1.00  0.00    -0.744 OA
ENDBRANCH  67  70
ENDBRANCH  49  63
BRANCH  50  74
ATOM     74  C   UNL A   1      43.025  26.414  27.280  1.00  0.00     0.023 A 
ATOM     75  C   UNL A   1      43.951  27.027  26.412  1.00  0.00     0.012 A 
ATOM     76  C   UNL A   1      42.659  25.072  27.059  1.00  0.00     0.148 A 
ATOM     77  C   UNL A   1      44.485  26.324  25.332  1.00  0.00     0.002 A 
ATOM     78  C   UNL A   1      43.230  24.364  26.008  1.00  0.00     0.091 A 
ATOM     79  F   UNL A   1      41.762  24.516  27.884  1.00  0.00    -0.205 F 
ATOM     80  C   UNL A   1      44.133  24.992  25.135  1.00  0.00     0.022 A 
BRANCH  78  81
ATOM     81  S   UNL A   1      42.915  22.616  25.742  1.00  0.00     0.127 S 
ATOM     82  O   UNL A   1      43.403  22.429  24.378  1.00  0.00    -0.237 OA
ATOM     83  O   UNL A   1      43.741  21.999  26.781  1.00  0.00    -0.237 OA
ATOM     84  O   UNL A   1      41.481  22.445  25.932  1.00  0.00    -0.744 OA
ENDBRANCH  78  81
ENDBRANCH  50  74
BRANCH  62  85
ATOM     85  C   UNL A   1      44.841  26.976  33.998  1.00  0.00     0.023 A 
ATOM     86  C   UNL A   1      46.122  27.558  33.991  1.00  0.00     0.012 A 
ATOM     87  C   UNL A   1      44.586  25.873  34.835  1.00  0.00     0.148 A 
ATOM     88  C   UNL A   1      47.144  27.033  34.782  1.00  0.00     0.002 A 
ATOM     89  C   UNL A   1      45.597  25.382  35.655  1.00  0.00     0.091 A 
ATOM     90  F   UNL A   1      43.366  25.316  34.812  1.00  0.00    -0.205 F 
ATOM     91  C   UNL A   1      46.878  25.954  35.622  1.00  0.00     0.022 A 
BRANCH  89  92
ATOM     92  S   UNL A   1      45.301  24.057  36.832  1.00  0.00     0.127 S 
ATOM     93  O   UNL A   1      44.765  23.004  35.971  1.00  0.00    -0.237 OA
ATOM     94  O   UNL A   1      46.642  23.791  37.356  1.00  0.00    -0.237 OA
ATOM     95  O   UNL A   1      44.375  24.605  37.815  1.00  0.00    -0.744 OA
ENDBRANCH  89  92
ENDBRANCH  62  85
ENDBRANCH  36  37
ENDBRANCH  29  31
ENDBRANCH  28  29
ENDBRANCH  27  28
ENDBRANCH  26  27
ENDBRANCH  25  26
ENDBRANCH   1  25
TORSDOF 22
ENDMDL
MODEL 2
REMARK VINA RESULT:     -10.5      4.731      7.521
REMARK SMILES C[C@@](NC(=O)c1ccc(C[NH3+])o1)(C(=O)OCCOCCOC(=O)c1ccc(-c2c3nc(c(-c4cccc(S(=O)(=O)[O-])c4F)c4ccc([nH]4)c(-c4cccc(S(=O)(=O)[O-])c4F)c4nc(c(-c5cccc(S(=O)(=O)[O-])c5F)c5ccc2[nH]5)C=C4)C=C3)cc1)C1CC1
REMARK SMILES IDX 17 1 16 2 15 3 13 4 14 5 2 6 1 7 3 8 4 9 5 11 6 12 7 13
REMARK SMILES IDX 12 14 8 15 9 16 10 17 11 18 87 22 88 23 89 24 18 25 19 26
REMARK SMILES IDX 20 27 21 28 22 29 23 30 24 31 25 32 86 33 26 34 85 35 27 36
REMARK SMILES IDX 28 37 29 38 79 39 30 40 84 41 78 42 80 43 31 44 83 45 77 46
REMARK SMILES IDX 76 47 32 49 64 50 44 51 63 52 45 53 48 54 62 55 81 56 46 57
REMARK SMILES IDX 47 58 61 60 82 61 49 62 33 63 34 64 42 65 35 66 37 67 43 68
REMARK SMILES IDX 36 69 38 70 39 71 40 72 41 73 65 74 66 75 74 76 67 77 69 78
REMARK SMILES IDX 75 79 68 80 70 81 71 82 72 83 73 84 50 85 51 86 59 87 52 88
REMARK SMILES IDX 54 89 60 90 53 91 55 92 56 93 57 94 58 95
REMARK H PARENT 3 10 11 19 11 20 11 21 80 48 48 59
REMARK Flexibility Score: inf
ROOT
ATOM      1  C   UNL A   1      35.885  24.064  24.674  1.00  0.00     0.202 C 
ENDROOT
BRANCH   1   2
ATOM      2  C   UNL A   1      34.804  24.825  25.450  1.00  0.00     0.261 C 
BRANCH   2   3
ATOM      3  O   UNL A   1      33.488  24.795  24.891  1.00  0.00    -0.461 OA
BRANCH   3   4
ATOM      4  C   UNL A   1      32.639  25.773  25.334  1.00  0.00     0.331 C 
ATOM      5  O   UNL A   1      33.011  26.852  25.785  1.00  0.00    -0.249 OA
BRANCH   4   6
ATOM      6  C   UNL A   1      31.149  25.293  25.302  1.00  0.00     0.138 C 
ATOM      7  C   UNL A   1      30.909  24.200  24.238  1.00  0.00     0.048 C 
BRANCH   6   8
ATOM      8  N   UNL A   1      30.714  24.757  26.622  1.00  0.00    -0.333 N 
ATOM      9  C   UNL A   1      30.615  23.426  26.968  1.00  0.00     0.287 C 
ATOM     10  H   UNL A   1      30.474  25.415  27.314  1.00  0.00     0.165 HD
ATOM     11  O   UNL A   1      29.543  23.042  27.438  1.00  0.00    -0.266 OA
BRANCH   9  12
ATOM     12  C   UNL A   1      31.809  22.621  26.905  1.00  0.00     0.191 A 
ATOM     13  C   UNL A   1      32.926  22.594  27.721  1.00  0.00     0.057 A 
ATOM     14  O   UNL A   1      31.949  21.696  25.909  1.00  0.00    -0.450 OA
ATOM     15  C   UNL A   1      33.799  21.620  27.186  1.00  0.00     0.052 A 
ATOM     16  C   UNL A   1      33.163  21.093  26.081  1.00  0.00     0.159 A 
BRANCH  16  17
ATOM     17  C   UNL A   1      33.560  20.086  25.062  1.00  0.00     0.335 C 
BRANCH  17  18
ATOM     18  N   UNL A   1      32.732  18.891  25.148  1.00  0.00    -0.351 N 
ATOM     19  H   UNL A   1      32.119  18.843  24.334  1.00  0.00     0.344 HD
ATOM     20  H   UNL A   1      32.169  18.928  25.997  1.00  0.00     0.344 HD
ATOM     21  H   UNL A   1      33.330  18.065  25.171  1.00  0.00     0.344 HD
ENDBRANCH  17  18
ENDBRANCH  16  17
ENDBRANCH   9  12
ENDBRANCH   6   8
BRANCH   6  22
ATOM     22  C   UNL A   1      30.161  26.455  25.022  1.00  0.00     0.026 C 
ATOM     23  C   UNL A   1      30.157  27.295  23.758  1.00  0.00     0.007 C 
ATOM     24  C   UNL A   1      29.021  26.354  24.026  1.00  0.00     0.007 C 
ENDBRANCH   6  22
ENDBRANCH   4   6
ENDBRANCH   3   4
ENDBRANCH   2   3
ENDBRANCH   1   2
BRANCH   1  25
ATOM     25  O   UNL A   1      35.883  22.645  24.721  1.00  0.00    -0.374 OA
BRANCH  25  26
ATOM     26  C   UNL A   1      36.843  21.944  23.933  1.00  0.00     0.202 C 
BRANCH  26  27
ATOM     27  C   UNL A   1      37.714  20.889  24.620  1.00  0.00     0.261 C 
BRANCH  27  28
ATOM     28  O   UNL A   1      38.029  21.244  25.982  1.00  0.00    -0.460 OA
BRANCH  28  29
ATOM     29  C   UNL A   1      39.350  21.337  26.243  1.00  0.00     0.338 C 
ATOM     30  O   UNL A   1      40.234  20.584  25.832  1.00  0.00    -0.246 OA
BRANCH  29  31
ATOM     31  C   UNL A   1      39.676  22.566  26.978  1.00  0.00     0.060 A 
ATOM     32  C   UNL A   1      38.971  23.729  26.630  1.00  0.00     0.016 A 
ATOM     33  C   UNL A   1      40.776  22.628  27.833  1.00  0.00     0.016 A 
ATOM     34  C   UNL A   1      39.432  24.971  27.054  1.00  0.00     0.010 A 
ATOM     35  C   UNL A   1      41.240  23.880  28.254  1.00  0.00     0.010 A 
ATOM     36  C   UNL A   1      40.612  25.055  27.808  1.00  0.00    -0.014 A 
BRANCH  36  37
ATOM     37  C   UNL A   1      41.302  26.364  27.900  1.00  0.00     0.031 A 
ATOM     38  C   UNL A   1      40.646  27.469  28.689  1.00  0.00     0.074 A 
ATOM     39  C   UNL A   1      42.505  26.560  27.332  1.00  0.00     0.049 A 
ATOM     40  N   UNL A   1      41.085  28.671  28.955  1.00  0.00    -0.248 NA
ATOM     41  C   UNL A   1      39.317  27.177  29.254  1.00  0.00     0.031 C 
ATOM     42  C   UNL A   1      43.242  25.572  26.548  1.00  0.00     0.029 A 
ATOM     43  N   UNL A   1      43.312  27.670  27.326  1.00  0.00    -0.354 N 
ATOM     44  C   UNL A   1      40.079  29.286  29.693  1.00  0.00     0.074 A 
ATOM     45  C   UNL A   1      39.002  28.331  29.823  1.00  0.00     0.031 C 
ATOM     46  C   UNL A   1      44.390  26.125  26.121  1.00  0.00     0.029 A 
ATOM     47  C   UNL A   1      44.465  27.506  26.597  1.00  0.00     0.049 A 
ATOM     48  H   UNL A   1      43.086  28.503  27.799  1.00  0.00     0.167 HD
ATOM     49  C   UNL A   1      40.058  30.528  30.234  1.00  0.00     0.034 A 
ATOM     50  C   UNL A   1      45.463  28.375  26.344  1.00  0.00     0.034 A 
ATOM     51  C   UNL A   1      41.140  31.468  30.133  1.00  0.00     0.049 A 
ATOM     52  C   UNL A   1      45.418  29.752  26.959  1.00  0.00     0.074 A 
ATOM     53  C   UNL A   1      41.238  32.731  30.688  1.00  0.00     0.029 A 
ATOM     54  N   UNL A   1      42.311  31.248  29.425  1.00  0.00    -0.354 N 
ATOM     55  N   UNL A   1      44.522  30.268  27.765  1.00  0.00    -0.248 NA
ATOM     56  C   UNL A   1      46.544  30.650  26.660  1.00  0.00     0.031 C 
ATOM     57  C   UNL A   1      42.466  33.282  30.303  1.00  0.00     0.029 A 
ATOM     58  C   UNL A   1      43.137  32.354  29.523  1.00  0.00     0.049 A 
ATOM     59  H   UNL A   1      42.523  30.427  28.927  1.00  0.00     0.167 HD
ATOM     60  C   UNL A   1      44.997  31.532  28.104  1.00  0.00     0.074 A 
ATOM     61  C   UNL A   1      46.265  31.697  27.424  1.00  0.00     0.031 C 
ATOM     62  C   UNL A   1      44.429  32.475  28.896  1.00  0.00     0.034 A 
BRANCH  49  63
ATOM     63  C   UNL A   1      38.834  30.923  31.015  1.00  0.00     0.023 A 
ATOM     64  C   UNL A   1      38.809  30.733  32.412  1.00  0.00     0.012 A 
ATOM     65  C   UNL A   1      37.724  31.508  30.376  1.00  0.00     0.148 A 
ATOM     66  C   UNL A   1      37.686  31.091  33.156  1.00  0.00     0.002 A 
ATOM     67  C   UNL A   1      36.622  31.897  31.131  1.00  0.00     0.091 A 
ATOM     68  F   UNL A   1      37.752  31.653  29.044  1.00  0.00    -0.205 F 
ATOM     69  C   UNL A   1      36.598  31.680  32.518  1.00  0.00     0.022 A 
BRANCH  67  70
ATOM     70  S   UNL A   1      35.206  32.724  30.399  1.00  0.00     0.127 S 
ATOM     71  O   UNL A   1      34.299  32.826  31.541  1.00  0.00    -0.237 OA
ATOM     72  O   UNL A   1      35.778  33.997  29.960  1.00  0.00    -0.237 OA
ATOM     73  O   UNL A   1      34.762  31.858  29.314  1.00  0.00    -0.744 OA
ENDBRANCH  67  70
ENDBRANCH  49  63
BRANCH  50  74
ATOM     74  C   UNL A   1      46.633  27.945  25.529  1.00  0.00     0.023 A 
ATOM     75  C   UNL A   1      46.592  28.096  24.130  1.00  0.00     0.012 A 
ATOM     76  C   UNL A   1      47.789  27.410  26.130  1.00  0.00     0.148 A 
ATOM     77  C   UNL A   1      47.672  27.701  23.340  1.00  0.00     0.002 A 
ATOM     78  C   UNL A   1      48.879  27.061  25.342  1.00  0.00     0.091 A 
ATOM     79  F   UNL A   1      47.799  27.256  27.461  1.00  0.00    -0.205 F 
ATOM     80  C   UNL A   1      48.818  27.193  23.945  1.00  0.00     0.022 A 
BRANCH  78  81
ATOM     81  S   UNL A   1      50.433  26.497  26.043  1.00  0.00     0.127 S 
ATOM     82  O   UNL A   1      51.231  26.254  24.844  1.00  0.00    -0.237 OA
ATOM     83  O   UNL A   1      50.847  27.658  26.833  1.00  0.00    -0.237 OA
ATOM     84  O   UNL A   1      50.100  25.320  26.833  1.00  0.00    -0.744 OA
ENDBRANCH  78  81
ENDBRANCH  50  74
BRANCH  62  85
ATOM     85  C   UNL A   1      45.187  33.758  29.116  1.00  0.00     0.023 A 
ATOM     86  C   UNL A   1      46.158  33.831  30.133  1.00  0.00     0.012 A 
ATOM     87  C   UNL A   1      44.997  34.861  28.261  1.00  0.00     0.148 A 
ATOM     88  C   UNL A   1      46.906  34.993  30.316  1.00  0.00     0.002 A 
ATOM     89  C   UNL A   1      45.777  36.000  28.420  1.00  0.00     0.091 A 
ATOM     90  F   UNL A   1      44.052  34.783  27.311  1.00  0.00    -0.205 F 
ATOM     91  C   UNL A   1      46.725  36.072  29.453  1.00  0.00     0.022 A 
BRANCH  89  92
ATOM     92  S   UNL A   1      45.666  37.391  27.287  1.00  0.00     0.127 S 
ATOM     93  O   UNL A   1      44.266  37.331  26.874  1.00  0.00    -0.237 OA
ATOM     94  O   UNL A   1      46.001  38.529  28.146  1.00  0.00    -0.237 OA
ATOM     95  O   UNL A   1      46.648  37.125  26.243  1.00  0.00    -0.744 OA
ENDBRANCH  89  92
ENDBRANCH  62  85
ENDBRANCH  36  37
ENDBRANCH  29  31
ENDBRANCH  28  29
ENDBRANCH  27  28
ENDBRANCH  26  27
ENDBRANCH  25  26
ENDBRANCH   1  25
TORSDOF 22
ENDMDL
MODEL 3
REMARK VINA RESULT:     -10.4      1.386      1.985
REMARK SMILES C[C@@](NC(=O)c1ccc(C[NH3+])o1)(C(=O)OCCOCCOC(=O)c1ccc(-c2c3nc(c(-c4cccc(S(=O)(=O)[O-])c4F)c4ccc([nH]4)c(-c4cccc(S(=O)(=O)[O-])c4F)c4nc(c(-c5cccc(S(=O)(=O)[O-])c5F)c5ccc2[nH]5)C=C4)C=C3)cc1)C1CC1
REMARK SMILES IDX 17 1 16 2 15 3 13 4 14 5 2 6 1 7 3 8 4 9 5 11 6 12 7 13
REMARK SMILES IDX 12 14 8 15 9 16 10 17 11 18 87 22 88 23 89 24 18 25 19 26
REMARK SMILES IDX 20 27 21 28 22 29 23 30 24 31 25 32 86 33 26 34 85 35 27 36
REMARK SMILES IDX 28 37 29 38 79 39 30 40 84 41 78 42 80 43 31 44 83 45 77 46
REMARK SMILES IDX 76 47 32 49 64 50 44 51 63 52 45 53 48 54 62 55 81 56 46 57
REMARK SMILES IDX 47 58 61 60 82 61 49 62 33 63 34 64 42 65 35 66 37 67 43 68
REMARK SMILES IDX 36 69 38 70 39 71 40 72 41 73 65 74 66 75 74 76 67 77 69 78
REMARK SMILES IDX 75 79 68 80 70 81 71 82 72 83 73 84 50 85 51 86 59 87 52 88
REMARK SMILES IDX 54 89 60 90 53 91 55 92 56 93 57 94 58 95
REMARK H PARENT 3 10 11 19 11 20 11 21 80 48 48 59
REMARK Flexibility Score: inf
ROOT
ATOM      1  C   UNL A   1      30.825  29.676  24.190  1.00  0.00     0.202 C 
ENDROOT
BRANCH   1   2
ATOM      2  C   UNL A   1      31.155  28.291  23.622  1.00  0.00     0.261 C 
BRANCH   2   3
ATOM      3  O   UNL A   1      32.022  27.475  24.414  1.00  0.00    -0.461 OA
BRANCH   3   4
ATOM      4  C   UNL A   1      31.416  26.783  25.427  1.00  0.00     0.331 C 
ATOM      5  O   UNL A   1      30.609  27.278  26.209  1.00  0.00    -0.249 OA
BRANCH   4   6
ATOM      6  C   UNL A   1      31.970  25.322  25.532  1.00  0.00     0.138 C 
ATOM      7  C   UNL A   1      33.502  25.263  25.351  1.00  0.00     0.048 C 
BRANCH   6   8
ATOM      8  N   UNL A   1      31.634  24.698  26.843  1.00  0.00    -0.333 N 
ATOM      9  C   UNL A   1      31.503  23.349  27.092  1.00  0.00     0.287 C 
ATOM     10  H   UNL A   1      31.493  25.307  27.603  1.00  0.00     0.165 HD
ATOM     11  O   UNL A   1      30.463  22.972  27.633  1.00  0.00    -0.266 OA
BRANCH   9  12
ATOM     12  C   UNL A   1      32.646  22.504  26.852  1.00  0.00     0.191 A 
ATOM     13  C   UNL A   1      33.881  22.453  27.474  1.00  0.00     0.057 A 
ATOM     14  O   UNL A   1      32.591  21.557  25.868  1.00  0.00    -0.450 OA
ATOM     15  C   UNL A   1      34.624  21.441  26.825  1.00  0.00     0.052 A 
ATOM     16  C   UNL A   1      33.798  20.916  25.851  1.00  0.00     0.159 A 
BRANCH  16  17
ATOM     17  C   UNL A   1      33.991  19.879  24.804  1.00  0.00     0.335 C 
BRANCH  17  18
ATOM     18  N   UNL A   1      35.267  19.195  24.966  1.00  0.00    -0.351 N 
ATOM     19  H   UNL A   1      36.023  19.807  24.661  1.00  0.00     0.344 HD
ATOM     20  H   UNL A   1      35.270  18.345  24.404  1.00  0.00     0.344 HD
ATOM     21  H   UNL A   1      35.400  18.954  25.948  1.00  0.00     0.344 HD
ENDBRANCH  17  18
ENDBRANCH  16  17
ENDBRANCH   9  12
ENDBRANCH   6   8
BRANCH   6  22
ATOM     22  C   UNL A   1      31.330  24.372  24.486  1.00  0.00     0.026 C 
ATOM     23  C   UNL A   1      30.325  24.802  23.434  1.00  0.00     0.007 C 
ATOM     24  C   UNL A   1      31.703  24.384  23.017  1.00  0.00     0.007 C 
ENDBRANCH   6  22
ENDBRANCH   4   6
ENDBRANCH   3   4
ENDBRANCH   2   3
ENDBRANCH   1   2
BRANCH   1  25
ATOM     25  O   UNL A   1      31.738  30.273  25.098  1.00  0.00    -0.374 OA
BRANCH  25  26
ATOM     26  C   UNL A   1      31.217  30.855  26.292  1.00  0.00     0.202 C 
BRANCH  26  27
ATOM     27  C   UNL A   1      31.704  32.250  26.690  1.00  0.00     0.261 C 
BRANCH  27  28
ATOM     28  O   UNL A   1      32.526  32.224  27.874  1.00  0.00    -0.460 OA
BRANCH  28  29
ATOM     29  C   UNL A   1      33.501  33.157  27.898  1.00  0.00     0.338 C 
ATOM     30  O   UNL A   1      33.349  34.375  28.012  1.00  0.00    -0.246 OA
BRANCH  29  31
ATOM     31  C   UNL A   1      34.838  32.550  27.926  1.00  0.00     0.060 A 
ATOM     32  C   UNL A   1      34.907  31.156  28.079  1.00  0.00     0.016 A 
ATOM     33  C   UNL A   1      35.988  33.334  28.010  1.00  0.00     0.016 A 
ATOM     34  C   UNL A   1      36.114  30.555  28.421  1.00  0.00     0.010 A 
ATOM     35  C   UNL A   1      37.200  32.728  28.359  1.00  0.00     0.010 A 
ATOM     36  C   UNL A   1      37.250  31.350  28.634  1.00  0.00    -0.014 A 
BRANCH  36  37
ATOM     37  C   UNL A   1      38.392  30.768  29.379  1.00  0.00     0.031 A 
ATOM     38  C   UNL A   1      38.605  31.190  30.811  1.00  0.00     0.074 A 
ATOM     39  C   UNL A   1      39.202  29.855  28.814  1.00  0.00     0.049 A 
ATOM     40  N   UNL A   1      39.496  30.775  31.674  1.00  0.00    -0.248 NA
ATOM     41  C   UNL A   1      37.689  32.214  31.341  1.00  0.00     0.031 C 
ATOM     42  C   UNL A   1      39.098  29.366  27.442  1.00  0.00     0.029 A 
ATOM     43  N   UNL A   1      40.280  29.185  29.334  1.00  0.00    -0.354 N 
ATOM     44  C   UNL A   1      39.265  31.505  32.836  1.00  0.00     0.074 A 
ATOM     45  C   UNL A   1      38.161  32.396  32.566  1.00  0.00     0.031 C 
ATOM     46  C   UNL A   1      40.086  28.481  27.221  1.00  0.00     0.029 A 
ATOM     47  C   UNL A   1      40.893  28.348  28.433  1.00  0.00     0.049 A 
ATOM     48  H   UNL A   1      40.585  29.293  30.264  1.00  0.00     0.167 HD
ATOM     49  C   UNL A   1      39.902  31.427  34.029  1.00  0.00     0.034 A 
ATOM     50  C   UNL A   1      41.981  27.566  28.575  1.00  0.00     0.034 A 
ATOM     51  C   UNL A   1      40.980  30.520  34.309  1.00  0.00     0.049 A 
ATOM     52  C   UNL A   1      42.672  27.496  29.914  1.00  0.00     0.074 A 
ATOM     53  C   UNL A   1      41.657  30.328  35.500  1.00  0.00     0.029 A 
ATOM     54  N   UNL A   1      41.542  29.654  33.384  1.00  0.00    -0.354 N 
ATOM     55  N   UNL A   1      42.356  28.092  31.039  1.00  0.00    -0.248 NA
ATOM     56  C   UNL A   1      43.844  26.613  30.011  1.00  0.00     0.031 C 
ATOM     57  C   UNL A   1      42.640  29.354  35.291  1.00  0.00     0.029 A 
ATOM     58  C   UNL A   1      42.563  28.930  33.974  1.00  0.00     0.049 A 
ATOM     59  H   UNL A   1      41.257  29.569  32.446  1.00  0.00     0.167 HD
ATOM     60  C   UNL A   1      43.262  27.623  31.986  1.00  0.00     0.074 A 
ATOM     61  C   UNL A   1      44.130  26.685  31.304  1.00  0.00     0.031 C 
ATOM     62  C   UNL A   1      43.373  27.949  33.298  1.00  0.00     0.034 A 
BRANCH  49  63
ATOM     63  C   UNL A   1      39.418  32.330  35.132  1.00  0.00     0.023 A 
ATOM     64  C   UNL A   1      38.448  31.859  36.040  1.00  0.00     0.012 A 
ATOM     65  C   UNL A   1      39.941  33.627  35.289  1.00  0.00     0.148 A 
ATOM     66  C   UNL A   1      37.984  32.676  37.070  1.00  0.00     0.002 A 
ATOM     67  C   UNL A   1      39.500  34.424  36.341  1.00  0.00     0.091 A 
ATOM     68  F   UNL A   1      40.840  34.070  34.398  1.00  0.00    -0.205 F 
ATOM     69  C   UNL A   1      38.516  33.954  37.225  1.00  0.00     0.022 A 
BRANCH  67  70
ATOM     70  S   UNL A   1      40.180  36.056  36.654  1.00  0.00     0.127 S 
ATOM     71  O   UNL A   1      39.462  36.449  37.865  1.00  0.00    -0.237 OA
ATOM     72  O   UNL A   1      41.602  35.771  36.855  1.00  0.00    -0.237 OA
ATOM     73  O   UNL A   1      39.888  36.840  35.461  1.00  0.00    -0.744 OA
ENDBRANCH  67  70
ENDBRANCH  49  63
BRANCH  50  74
ATOM     74  C   UNL A   1      42.443  26.724  27.437  1.00  0.00     0.023 A 
ATOM     75  C   UNL A   1      43.276  27.290  26.453  1.00  0.00     0.012 A 
ATOM     76  C   UNL A   1      42.082  25.366  27.335  1.00  0.00     0.148 A 
ATOM     77  C   UNL A   1      43.723  26.526  25.375  1.00  0.00     0.002 A 
ATOM     78  C   UNL A   1      42.568  24.599  26.283  1.00  0.00     0.091 A 
ATOM     79  F   UNL A   1      41.272  24.853  28.271  1.00  0.00    -0.205 F 
ATOM     80  C   UNL A   1      43.378  25.181  25.295  1.00  0.00     0.022 A 
BRANCH  78  81
ATOM     81  S   UNL A   1      42.262  22.834  26.157  1.00  0.00     0.127 S 
ATOM     82  O   UNL A   1      40.803  22.781  26.186  1.00  0.00    -0.237 OA
ATOM     83  O   UNL A   1      42.864  22.515  24.861  1.00  0.00    -0.237 OA
ATOM     84  O   UNL A   1      42.941  22.238  27.299  1.00  0.00    -0.744 OA
ENDBRANCH  78  81
ENDBRANCH  50  74
BRANCH  62  85
ATOM     85  C   UNL A   1      44.440  27.257  34.105  1.00  0.00     0.023 A 
ATOM     86  C   UNL A   1      45.721  27.833  34.210  1.00  0.00     0.012 A 
ATOM     87  C   UNL A   1      44.148  26.084  34.827  1.00  0.00     0.148 A 
ATOM     88  C   UNL A   1      46.705  27.235  34.996  1.00  0.00     0.002 A 
ATOM     89  C   UNL A   1      45.120  25.517  35.644  1.00  0.00     0.091 A 
ATOM     90  F   UNL A   1      42.931  25.535  34.698  1.00  0.00    -0.205 F 
ATOM     91  C   UNL A   1      46.401  26.085  35.723  1.00  0.00     0.022 A 
BRANCH  89  92
ATOM     92  S   UNL A   1      44.771  24.092  36.682  1.00  0.00     0.127 S 
ATOM     93  O   UNL A   1      43.663  23.463  35.967  1.00  0.00    -0.237 OA
ATOM     94  O   UNL A   1      46.030  23.346  36.632  1.00  0.00    -0.237 OA
ATOM     95  O   UNL A   1      44.453  24.634  37.997  1.00  0.00    -0.744 OA
ENDBRANCH  89  92
ENDBRANCH  62  85
ENDBRANCH  36  37
ENDBRANCH  29  31
ENDBRANCH  28  29
ENDBRANCH  27  28
ENDBRANCH  26  27
ENDBRANCH  25  26
ENDBRANCH   1  25
TORSDOF 22
ENDMDL
