MODEL 1
REMARK VINA RESULT:     -11.6      0.000      0.000
REMARK SMILES Cn1c(=O)c(=O)n(C)c2cc(S(=O)(=O)N3CCC[C@H]3C(=O)OCCOCCOC(=O)c3ccc(-c4c5nc(c(-c6cccc(S(=O)(=O)[O-])c6F)c6ccc([nH]6)c(-c6cccc(S(=O)(=O)[O-])c6F)c6nc(c(-c7cccc(S(=O)(=O)[O-])c7F)c7ccc4[nH]7)C=C6)C=C5)cc3)ccc21
REMARK SMILES IDX 26 1 25 2 24 3 23 4 22 5 20 6 21 7 19 8 15 9 16 10 17 11
REMARK SMILES IDX 18 12 12 13 13 14 14 15 11 16 1 17 2 18 3 19 96 20 4 21 5 22
REMARK SMILES IDX 9 23 95 24 6 25 7 26 10 27 94 28 8 29 27 30 28 31 29 32
REMARK SMILES IDX 30 33 31 34 32 35 93 36 33 37 92 38 34 39 35 40 36 41 86 42
REMARK SMILES IDX 37 43 91 44 85 45 87 46 38 47 90 48 84 49 83 50 39 52 71 53
REMARK SMILES IDX 51 54 70 55 52 56 55 57 69 58 88 59 53 60 54 61 68 63 89 64
REMARK SMILES IDX 56 65 40 66 41 67 49 68 42 69 44 70 50 71 43 72 45 73 46 74
REMARK SMILES IDX 47 75 48 76 72 77 73 78 81 79 74 80 76 81 82 82 75 83 77 84
REMARK SMILES IDX 78 85 79 86 80 87 57 88 58 89 66 90 59 91 61 92 67 93 60 94
REMARK SMILES IDX 62 95 63 96 64 97 65 98
REMARK H PARENT 87 51 55 62
REMARK Flexibility Score: inf
ROOT
ATOM      1  C   UNL A   1      35.674  21.271  24.663  1.00  0.00     0.202 C 
ENDROOT
BRANCH   1   2
ATOM      2  O   UNL A   1      34.381  20.663  24.659  1.00  0.00    -0.374 OA
BRANCH   2   3
ATOM      3  C   UNL A   1      33.735  20.492  25.920  1.00  0.00     0.202 C 
BRANCH   3   4
ATOM      4  C   UNL A   1      34.209  21.378  27.077  1.00  0.00     0.261 C 
BRANCH   4   5
ATOM      5  O   UNL A   1      33.390  22.549  27.234  1.00  0.00    -0.462 OA
BRANCH   5   6
ATOM      6  C   UNL A   1      33.836  23.660  26.585  1.00  0.00     0.324 C 
ATOM      7  O   UNL A   1      35.014  23.998  26.521  1.00  0.00    -0.250 OA
BRANCH   6   8
ATOM      8  C   UNL A   1      32.716  24.377  25.830  1.00  0.00     0.183 C 
ATOM      9  N   UNL A   1      32.736  24.176  24.377  1.00  0.00    -0.184 NA
ATOM     10  C   UNL A   1      31.922  23.029  24.001  1.00  0.00     0.103 C 
ATOM     11  C   UNL A   1      30.865  22.947  25.099  1.00  0.00     0.019 C 
ATOM     12  C   UNL A   1      31.351  23.825  26.250  1.00  0.00     0.034 C 
BRANCH   9  13
ATOM     13  S   UNL A   1      33.350  25.289  23.304  1.00  0.00     0.243 S 
ATOM     14  O   UNL A   1      33.311  24.693  21.985  1.00  0.00    -0.207 OA
ATOM     15  O   UNL A   1      34.555  25.848  23.868  1.00  0.00    -0.207 OA
BRANCH  13  16
ATOM     16  C   UNL A   1      32.190  26.649  23.240  1.00  0.00     0.084 A 
ATOM     17  C   UNL A   1      28.537  30.057  22.124  1.00  0.00     0.154 C 
ATOM     18  N   UNL A   1      29.581  29.988  23.134  1.00  0.00    -0.305 N 
ATOM     19  C   UNL A   1      29.690  31.051  24.027  1.00  0.00     0.316 A 
ATOM     20  C   UNL A   1      30.463  28.875  23.186  1.00  0.00     0.068 A 
ATOM     21  O   UNL A   1      28.955  32.036  23.997  1.00  0.00    -0.263 OA
ATOM     22  C   UNL A   1      30.780  30.978  25.101  1.00  0.00     0.316 A 
ATOM     23  C   UNL A   1      31.478  28.809  24.160  1.00  0.00     0.069 A 
ATOM     24  C   UNL A   1      30.331  27.820  22.264  1.00  0.00     0.030 A 
ATOM     25  O   UNL A   1      30.862  31.902  25.907  1.00  0.00    -0.263 OA
ATOM     26  N   UNL A   1      31.617  29.861  25.109  1.00  0.00    -0.305 N 
ATOM     27  C   UNL A   1      32.338  27.690  24.173  1.00  0.00     0.050 A 
ATOM     28  C   UNL A   1      31.178  26.711  22.297  1.00  0.00     0.024 A 
ATOM     29  C   UNL A   1      32.646  29.798  26.137  1.00  0.00     0.154 C 
ENDBRANCH  13  16
ENDBRANCH   9  13
ENDBRANCH   6   8
ENDBRANCH   5   6
ENDBRANCH   4   5
ENDBRANCH   3   4
ENDBRANCH   2   3
ENDBRANCH   1   2
BRANCH   1  30
ATOM     30  C   UNL A   1      36.879  20.398  25.031  1.00  0.00     0.261 C 
BRANCH  30  31
ATOM     31  O   UNL A   1      38.114  21.126  24.949  1.00  0.00    -0.460 OA
BRANCH  31  32
ATOM     32  C   UNL A   1      39.041  20.815  25.886  1.00  0.00     0.338 C 
ATOM     33  O   UNL A   1      39.504  19.712  26.120  1.00  0.00    -0.246 OA
BRANCH  32  34
ATOM     34  C   UNL A   1      39.591  22.070  26.440  1.00  0.00     0.060 A 
ATOM     35  C   UNL A   1      40.672  22.070  27.323  1.00  0.00     0.016 A 
ATOM     36  C   UNL A   1      38.989  23.275  26.053  1.00  0.00     0.016 A 
ATOM     37  C   UNL A   1      41.174  23.289  27.788  1.00  0.00     0.010 A 
ATOM     38  C   UNL A   1      39.489  24.488  26.522  1.00  0.00     0.010 A 
ATOM     39  C   UNL A   1      40.601  24.506  27.374  1.00  0.00    -0.014 A 
BRANCH  39  40
ATOM     40  C   UNL A   1      41.255  25.793  27.708  1.00  0.00     0.031 A 
ATOM     41  C   UNL A   1      42.675  26.084  27.329  1.00  0.00     0.074 A 
ATOM     42  C   UNL A   1      40.549  26.698  28.413  1.00  0.00     0.049 A 
ATOM     43  N   UNL A   1      43.365  27.177  27.529  1.00  0.00    -0.248 NA
ATOM     44  C   UNL A   1      43.420  25.015  26.647  1.00  0.00     0.031 C 
ATOM     45  C   UNL A   1      39.182  26.498  28.899  1.00  0.00     0.029 A 
ATOM     46  N   UNL A   1      40.881  27.954  28.851  1.00  0.00    -0.354 N 
ATOM     47  C   UNL A   1      44.624  26.937  26.994  1.00  0.00     0.074 A 
ATOM     48  C   UNL A   1      44.612  25.579  26.490  1.00  0.00     0.031 C 
ATOM     49  C   UNL A   1      38.787  27.598  29.556  1.00  0.00     0.029 A 
ATOM     50  C   UNL A   1      39.877  28.571  29.556  1.00  0.00     0.049 A 
ATOM     51  H   UNL A   1      41.755  28.374  28.677  1.00  0.00     0.167 HD
ATOM     52  C   UNL A   1      45.677  27.784  26.902  1.00  0.00     0.034 A 
ATOM     53  C   UNL A   1      39.830  29.783  30.141  1.00  0.00     0.034 A 
ATOM     54  C   UNL A   1      45.683  29.134  27.401  1.00  0.00     0.049 A 
ATOM     55  C   UNL A   1      41.009  30.702  30.032  1.00  0.00     0.074 A 
ATOM     56  C   UNL A   1      46.696  30.074  27.315  1.00  0.00     0.029 A 
ATOM     57  N   UNL A   1      44.638  29.735  28.083  1.00  0.00    -0.354 N 
ATOM     58  N   UNL A   1      42.152  30.499  29.423  1.00  0.00    -0.248 NA
ATOM     59  C   UNL A   1      40.887  32.024  30.661  1.00  0.00     0.031 C 
ATOM     60  C   UNL A   1      46.268  31.240  27.959  1.00  0.00     0.029 A 
ATOM     61  C   UNL A   1      44.980  31.032  28.428  1.00  0.00     0.049 A 
ATOM     62  H   UNL A   1      43.778  29.304  28.293  1.00  0.00     0.167 HD
ATOM     63  C   UNL A   1      42.881  31.671  29.580  1.00  0.00     0.074 A 
ATOM     64  C   UNL A   1      42.044  32.587  30.331  1.00  0.00     0.031 C 
ATOM     65  C   UNL A   1      44.134  31.951  29.148  1.00  0.00     0.034 A 
BRANCH  52  66
ATOM     66  C   UNL A   1      46.897  27.302  26.164  1.00  0.00     0.023 A 
ATOM     67  C   UNL A   1      47.008  27.572  24.785  1.00  0.00     0.012 A 
ATOM     68  C   UNL A   1      47.962  26.671  26.835  1.00  0.00     0.148 A 
ATOM     69  C   UNL A   1      48.152  27.207  24.079  1.00  0.00     0.002 A 
ATOM     70  C   UNL A   1      49.112  26.333  26.130  1.00  0.00     0.091 A 
ATOM     71  F   UNL A   1      47.832  26.417  28.144  1.00  0.00    -0.205 F 
ATOM     72  C   UNL A   1      49.207  26.596  24.753  1.00  0.00     0.022 A 
BRANCH  70  73
ATOM     73  S   UNL A   1      50.547  25.579  26.904  1.00  0.00     0.127 S 
ATOM     74  O   UNL A   1      50.942  26.614  27.859  1.00  0.00    -0.237 OA
ATOM     75  O   UNL A   1      49.973  24.378  27.512  1.00  0.00    -0.237 OA
ATOM     76  O   UNL A   1      51.499  25.327  25.833  1.00  0.00    -0.744 OA
ENDBRANCH  70  73
ENDBRANCH  52  66
BRANCH  53  77
ATOM     77  C   UNL A   1      38.572  30.194  30.816  1.00  0.00     0.023 A 
ATOM     78  C   UNL A   1      38.438  29.992  32.202  1.00  0.00     0.012 A 
ATOM     79  C   UNL A   1      37.574  30.897  30.115  1.00  0.00     0.148 A 
ATOM     80  C   UNL A   1      37.329  30.494  32.883  1.00  0.00     0.002 A 
ATOM     81  C   UNL A   1      36.490  31.425  30.805  1.00  0.00     0.091 A 
ATOM     82  F   UNL A   1      37.737  31.082  28.798  1.00  0.00    -0.205 F 
ATOM     83  C   UNL A   1      36.363  31.219  32.189  1.00  0.00     0.022 A 
BRANCH  81  84
ATOM     84  S   UNL A   1      35.249  32.457  30.021  1.00  0.00     0.127 S 
ATOM     85  O   UNL A   1      34.303  32.671  31.116  1.00  0.00    -0.237 OA
ATOM     86  O   UNL A   1      36.035  33.633  29.648  1.00  0.00    -0.237 OA
ATOM     87  O   UNL A   1      34.734  31.683  28.901  1.00  0.00    -0.744 OA
ENDBRANCH  81  84
ENDBRANCH  53  77
BRANCH  65  88
ATOM     88  C   UNL A   1      44.705  33.308  29.462  1.00  0.00     0.023 A 
ATOM     89  C   UNL A   1      45.431  33.493  30.655  1.00  0.00     0.012 A 
ATOM     90  C   UNL A   1      44.631  34.355  28.523  1.00  0.00     0.148 A 
ATOM     91  C   UNL A   1      46.071  34.704  30.912  1.00  0.00     0.002 A 
ATOM     92  C   UNL A   1      45.298  35.549  28.770  1.00  0.00     0.091 A 
ATOM     93  F   UNL A   1      43.928  34.155  27.398  1.00  0.00    -0.205 F 
ATOM     94  C   UNL A   1      46.016  35.727  29.966  1.00  0.00     0.022 A 
BRANCH  92  95
ATOM     95  S   UNL A   1      45.342  36.902  27.588  1.00  0.00     0.127 S 
ATOM     96  O   UNL A   1      43.924  37.230  27.460  1.00  0.00    -0.237 OA
ATOM     97  O   UNL A   1      46.139  37.903  28.297  1.00  0.00    -0.237 OA
ATOM     98  O   UNL A   1      45.963  36.368  26.384  1.00  0.00    -0.744 OA
ENDBRANCH  92  95
ENDBRANCH  65  88
ENDBRANCH  39  40
ENDBRANCH  32  34
ENDBRANCH  31  32
ENDBRANCH  30  31
ENDBRANCH   1  30
TORSDOF 19
ENDMDL
MODEL 2
REMARK VINA RESULT:     -11.4      4.949     10.736
REMARK SMILES Cn1c(=O)c(=O)n(C)c2cc(S(=O)(=O)N3CCC[C@H]3C(=O)OCCOCCOC(=O)c3ccc(-c4c5nc(c(-c6cccc(S(=O)(=O)[O-])c6F)c6ccc([nH]6)c(-c6cccc(S(=O)(=O)[O-])c6F)c6nc(c(-c7cccc(S(=O)(=O)[O-])c7F)c7ccc4[nH]7)C=C6)C=C5)cc3)ccc21
REMARK SMILES IDX 26 1 25 2 24 3 23 4 22 5 20 6 21 7 19 8 15 9 16 10 17 11
REMARK SMILES IDX 18 12 12 13 13 14 14 15 11 16 1 17 2 18 3 19 96 20 4 21 5 22
REMARK SMILES IDX 9 23 95 24 6 25 7 26 10 27 94 28 8 29 27 30 28 31 29 32
REMARK SMILES IDX 30 33 31 34 32 35 93 36 33 37 92 38 34 39 35 40 36 41 86 42
REMARK SMILES IDX 37 43 91 44 85 45 87 46 38 47 90 48 84 49 83 50 39 52 71 53
REMARK SMILES IDX 51 54 70 55 52 56 55 57 69 58 88 59 53 60 54 61 68 63 89 64
REMARK SMILES IDX 56 65 40 66 41 67 49 68 42 69 44 70 50 71 43 72 45 73 46 74
REMARK SMILES IDX 47 75 48 76 72 77 73 78 81 79 74 80 76 81 82 82 75 83 77 84
REMARK SMILES IDX 78 85 79 86 80 87 57 88 58 89 66 90 59 91 61 92 67 93 60 94
REMARK SMILES IDX 62 95 63 96 64 97 65 98
REMARK H PARENT 87 51 55 62
REMARK Flexibility Score: inf
ROOT
ATOM      1  C   UNL A   1      31.581  32.524  26.829  1.00  0.00     0.202 C 
ENDROOT
BRANCH   1   2
ATOM      2  O   UNL A   1      31.355  31.248  26.226  1.00  0.00    -0.374 OA
BRANCH   2   3
ATOM      3  C   UNL A   1      32.140  30.154  26.698  1.00  0.00     0.202 C 
BRANCH   3   4
ATOM      4  C   UNL A   1      33.104  29.501  25.701  1.00  0.00     0.261 C 
BRANCH   4   5
ATOM      5  O   UNL A   1      32.411  28.750  24.691  1.00  0.00    -0.462 OA
BRANCH   5   6
ATOM      6  C   UNL A   1      33.151  28.433  23.593  1.00  0.00     0.324 C 
ATOM      7  O   UNL A   1      33.706  29.256  22.870  1.00  0.00    -0.250 OA
BRANCH   6   8
ATOM      8  C   UNL A   1      33.326  26.922  23.429  1.00  0.00     0.183 C 
ATOM      9  N   UNL A   1      32.264  26.117  24.040  1.00  0.00    -0.184 NA
ATOM     10  C   UNL A   1      31.199  25.851  23.084  1.00  0.00     0.103 C 
ATOM     11  C   UNL A   1      31.900  25.883  21.728  1.00  0.00     0.019 C 
ATOM     12  C   UNL A   1      33.262  26.535  21.948  1.00  0.00     0.034 C 
BRANCH   9  13
ATOM     13  S   UNL A   1      32.414  25.365  25.516  1.00  0.00     0.243 S 
ATOM     14  O   UNL A   1      31.121  25.408  26.164  1.00  0.00    -0.207 OA
ATOM     15  O   UNL A   1      33.618  25.846  26.151  1.00  0.00    -0.207 OA
BRANCH  13  16
ATOM     16  C   UNL A   1      32.720  23.632  25.190  1.00  0.00     0.084 A 
ATOM     17  C   UNL A   1      32.493  18.605  24.254  1.00  0.00     0.154 C 
ATOM     18  N   UNL A   1      33.574  19.530  24.553  1.00  0.00    -0.305 N 
ATOM     19  C   UNL A   1      34.865  19.012  24.636  1.00  0.00     0.316 A 
ATOM     20  C   UNL A   1      33.306  20.909  24.767  1.00  0.00     0.068 A 
ATOM     21  O   UNL A   1      35.127  17.823  24.473  1.00  0.00    -0.263 OA
ATOM     22  C   UNL A   1      36.010  19.985  24.937  1.00  0.00     0.316 A 
ATOM     23  C   UNL A   1      34.352  21.805  25.061  1.00  0.00     0.069 A 
ATOM     24  C   UNL A   1      31.990  21.398  24.684  1.00  0.00     0.030 A 
ATOM     25  O   UNL A   1      37.153  19.537  24.984  1.00  0.00    -0.263 OA
ATOM     26  N   UNL A   1      35.692  21.329  25.136  1.00  0.00    -0.305 N 
ATOM     27  C   UNL A   1      34.043  23.166  25.276  1.00  0.00     0.050 A 
ATOM     28  C   UNL A   1      31.699  22.749  24.882  1.00  0.00     0.024 A 
ATOM     29  C   UNL A   1      36.788  22.245  25.416  1.00  0.00     0.154 C 
ENDBRANCH  13  16
ENDBRANCH   9  13
ENDBRANCH   6   8
ENDBRANCH   5   6
ENDBRANCH   4   5
ENDBRANCH   3   4
ENDBRANCH   2   3
ENDBRANCH   1   2
BRANCH   1  30
ATOM     30  C   UNL A   1      32.996  32.848  27.323  1.00  0.00     0.261 C 
BRANCH  30  31
ATOM     31  O   UNL A   1      33.131  34.228  27.695  1.00  0.00    -0.460 OA
BRANCH  31  32
ATOM     32  C   UNL A   1      33.384  34.459  29.005  1.00  0.00     0.338 C 
ATOM     33  O   UNL A   1      32.663  35.038  29.799  1.00  0.00    -0.246 OA
BRANCH  32  34
ATOM     34  C   UNL A   1      34.584  33.691  29.396  1.00  0.00     0.060 A 
ATOM     35  C   UNL A   1      35.861  34.052  28.963  1.00  0.00     0.016 A 
ATOM     36  C   UNL A   1      34.404  32.573  30.223  1.00  0.00     0.016 A 
ATOM     37  C   UNL A   1      36.964  33.311  29.394  1.00  0.00     0.010 A 
ATOM     38  C   UNL A   1      35.505  31.832  30.647  1.00  0.00     0.010 A 
ATOM     39  C   UNL A   1      36.797  32.210  30.255  1.00  0.00    -0.014 A 
BRANCH  39  40
ATOM     40  C   UNL A   1      37.976  31.551  30.866  1.00  0.00     0.031 A 
ATOM     41  C   UNL A   1      38.436  31.876  32.255  1.00  0.00     0.074 A 
ATOM     42  C   UNL A   1      38.667  30.670  30.118  1.00  0.00     0.049 A 
ATOM     43  N   UNL A   1      39.430  31.357  32.927  1.00  0.00    -0.248 NA
ATOM     44  C   UNL A   1      37.694  32.918  32.981  1.00  0.00     0.031 C 
ATOM     45  C   UNL A   1      38.356  30.327  28.729  1.00  0.00     0.029 A 
ATOM     46  N   UNL A   1      39.773  29.915  30.412  1.00  0.00    -0.354 N 
ATOM     47  C   UNL A   1      39.436  31.999  34.158  1.00  0.00     0.074 A 
ATOM     48  C   UNL A   1      38.364  32.973  34.126  1.00  0.00     0.031 C 
ATOM     49  C   UNL A   1      39.241  29.419  28.295  1.00  0.00     0.029 A 
ATOM     50  C   UNL A   1      40.194  29.131  29.365  1.00  0.00     0.049 A 
ATOM     51  H   UNL A   1      40.223  29.933  31.288  1.00  0.00     0.167 HD
ATOM     52  C   UNL A   1      40.239  31.772  35.225  1.00  0.00     0.034 A 
ATOM     53  C   UNL A   1      41.228  28.275  29.269  1.00  0.00     0.034 A 
ATOM     54  C   UNL A   1      41.301  30.801  35.253  1.00  0.00     0.049 A 
ATOM     55  C   UNL A   1      42.108  28.042  30.461  1.00  0.00     0.074 A 
ATOM     56  C   UNL A   1      42.139  30.479  36.306  1.00  0.00     0.029 A 
ATOM     57  N   UNL A   1      41.679  30.004  34.184  1.00  0.00    -0.354 N 
ATOM     58  N   UNL A   1      42.028  28.577  31.654  1.00  0.00    -0.248 NA
ATOM     59  C   UNL A   1      43.200  27.071  30.306  1.00  0.00     0.031 C 
ATOM     60  C   UNL A   1      43.034  29.496  35.870  1.00  0.00     0.029 A 
ATOM     61  C   UNL A   1      42.740  29.192  34.551  1.00  0.00     0.049 A 
ATOM     62  H   UNL A   1      41.257  30.013  33.295  1.00  0.00     0.167 HD
ATOM     63  C   UNL A   1      43.047  27.999  32.400  1.00  0.00     0.074 A 
ATOM     64  C   UNL A   1      43.724  27.060  31.527  1.00  0.00     0.031 C 
ATOM     65  C   UNL A   1      43.391  28.237  33.689  1.00  0.00     0.034 A 
BRANCH  52  66
ATOM     66  C   UNL A   1      39.954  32.537  36.489  1.00  0.00     0.023 A 
ATOM     67  C   UNL A   1      40.686  33.713  36.750  1.00  0.00     0.012 A 
ATOM     68  C   UNL A   1      38.918  32.156  37.363  1.00  0.00     0.148 A 
ATOM     69  C   UNL A   1      40.406  34.491  37.872  1.00  0.00     0.002 A 
ATOM     70  C   UNL A   1      38.626  32.951  38.466  1.00  0.00     0.091 A 
ATOM     71  F   UNL A   1      38.241  31.031  37.099  1.00  0.00    -0.205 F 
ATOM     72  C   UNL A   1      39.370  34.115  38.724  1.00  0.00     0.022 A 
BRANCH  70  73
ATOM     73  S   UNL A   1      37.288  32.584  39.607  1.00  0.00     0.127 S 
ATOM     74  O   UNL A   1      37.466  33.629  40.614  1.00  0.00    -0.237 OA
ATOM     75  O   UNL A   1      36.106  32.749  38.760  1.00  0.00    -0.237 OA
ATOM     76  O   UNL A   1      37.519  31.225  40.076  1.00  0.00    -0.744 OA
ENDBRANCH  70  73
ENDBRANCH  52  66
BRANCH  53  77
ATOM     77  C   UNL A   1      41.415  27.531  27.996  1.00  0.00     0.023 A 
ATOM     78  C   UNL A   1      41.978  28.193  26.890  1.00  0.00     0.012 A 
ATOM     79  C   UNL A   1      41.159  26.148  27.925  1.00  0.00     0.148 A 
ATOM     80  C   UNL A   1      42.292  27.485  25.730  1.00  0.00     0.002 A 
ATOM     81  C   UNL A   1      41.508  25.443  26.780  1.00  0.00     0.091 A 
ATOM     82  F   UNL A   1      40.633  25.546  29.000  1.00  0.00    -0.205 F 
ATOM     83  C   UNL A   1      42.070  26.111  25.679  1.00  0.00     0.022 A 
BRANCH  81  84
ATOM     84  S   UNL A   1      41.357  23.659  26.655  1.00  0.00     0.127 S 
ATOM     85  O   UNL A   1      41.953  23.219  27.915  1.00  0.00    -0.237 OA
ATOM     86  O   UNL A   1      39.906  23.491  26.568  1.00  0.00    -0.237 OA
ATOM     87  O   UNL A   1      42.090  23.278  25.457  1.00  0.00    -0.744 OA
ENDBRANCH  81  84
ENDBRANCH  53  77
BRANCH  65  88
ATOM     88  C   UNL A   1      44.556  27.476  34.264  1.00  0.00     0.023 A 
ATOM     89  C   UNL A   1      45.860  27.979  34.097  1.00  0.00     0.012 A 
ATOM     90  C   UNL A   1      44.345  26.340  35.070  1.00  0.00     0.148 A 
ATOM     91  C   UNL A   1      46.942  27.359  34.721  1.00  0.00     0.002 A 
ATOM     92  C   UNL A   1      45.424  25.746  35.715  1.00  0.00     0.091 A 
ATOM     93  F   UNL A   1      43.094  25.877  35.206  1.00  0.00    -0.205 F 
ATOM     94  C   UNL A   1      46.723  26.251  35.538  1.00  0.00     0.022 A 
BRANCH  92  95
ATOM     95  S   UNL A   1      45.239  24.356  36.839  1.00  0.00     0.127 S 
ATOM     96  O   UNL A   1      44.805  23.295  35.932  1.00  0.00    -0.237 OA
ATOM     97  O   UNL A   1      46.598  24.198  37.357  1.00  0.00    -0.237 OA
ATOM     98  O   UNL A   1      44.251  24.764  37.829  1.00  0.00    -0.744 OA
ENDBRANCH  92  95
ENDBRANCH  65  88
ENDBRANCH  39  40
ENDBRANCH  32  34
ENDBRANCH  31  32
ENDBRANCH  30  31
ENDBRANCH   1  30
TORSDOF 19
ENDMDL
MODEL 3
REMARK VINA RESULT:     -11.3      1.453      1.833
REMARK SMILES Cn1c(=O)c(=O)n(C)c2cc(S(=O)(=O)N3CCC[C@H]3C(=O)OCCOCCOC(=O)c3ccc(-c4c5nc(c(-c6cccc(S(=O)(=O)[O-])c6F)c6ccc([nH]6)c(-c6cccc(S(=O)(=O)[O-])c6F)c6nc(c(-c7cccc(S(=O)(=O)[O-])c7F)c7ccc4[nH]7)C=C6)C=C5)cc3)ccc21
REMARK SMILES IDX 26 1 25 2 24 3 23 4 22 5 20 6 21 7 19 8 15 9 16 10 17 11
REMARK SMILES IDX 18 12 12 13 13 14 14 15 11 16 1 17 2 18 3 19 96 20 4 21 5 22
REMARK SMILES IDX 9 23 95 24 6 25 7 26 10 27 94 28 8 29 27 30 28 31 29 32
REMARK SMILES IDX 30 33 31 34 32 35 93 36 33 37 92 38 34 39 35 40 36 41 86 42
REMARK SMILES IDX 37 43 91 44 85 45 87 46 38 47 90 48 84 49 83 50 39 52 71 53
REMARK SMILES IDX 51 54 70 55 52 56 55 57 69 58 88 59 53 60 54 61 68 63 89 64
REMARK SMILES IDX 56 65 40 66 41 67 49 68 42 69 44 70 50 71 43 72 45 73 46 74
REMARK SMILES IDX 47 75 48 76 72 77 73 78 81 79 74 80 76 81 82 82 75 83 77 84
REMARK SMILES IDX 78 85 79 86 80 87 57 88 58 89 66 90 59 91 61 92 67 93 60 94
REMARK SMILES IDX 62 95 63 96 64 97 65 98
REMARK H PARENT 87 51 55 62
REMARK Flexibility Score: inf
ROOT
ATOM      1  C   UNL A   1      35.686  21.238  25.507  1.00  0.00     0.202 C 
ENDROOT
BRANCH   1   2
ATOM      2  O   UNL A   1      34.415  20.589  25.435  1.00  0.00    -0.374 OA
BRANCH   2   3
ATOM      3  C   UNL A   1      33.495  20.834  26.498  1.00  0.00     0.202 C 
BRANCH   3   4
ATOM      4  C   UNL A   1      33.438  22.258  27.063  1.00  0.00     0.261 C 
BRANCH   4   5
ATOM      5  O   UNL A   1      32.350  23.016  26.510  1.00  0.00    -0.462 OA
BRANCH   5   6
ATOM      6  C   UNL A   1      32.715  24.092  25.759  1.00  0.00     0.324 C 
ATOM      7  O   UNL A   1      33.593  24.891  26.074  1.00  0.00    -0.250 OA
BRANCH   6   8
ATOM      8  C   UNL A   1      31.998  24.126  24.409  1.00  0.00     0.183 C 
ATOM      9  N   UNL A   1      32.884  24.011  23.246  1.00  0.00    -0.184 NA
ATOM     10  C   UNL A   1      33.044  22.618  22.851  1.00  0.00     0.103 C 
ATOM     11  C   UNL A   1      31.748  21.952  23.304  1.00  0.00     0.019 C 
ATOM     12  C   UNL A   1      31.066  22.918  24.270  1.00  0.00     0.034 C 
BRANCH   9  13
ATOM     13  S   UNL A   1      33.378  25.312  22.334  1.00  0.00     0.243 S 
ATOM     14  O   UNL A   1      32.868  25.125  20.993  1.00  0.00    -0.207 OA
ATOM     15  O   UNL A   1      34.774  25.555  22.608  1.00  0.00    -0.207 OA
BRANCH  13  16
ATOM     16  C   UNL A   1      32.521  26.749  22.969  1.00  0.00     0.084 A 
ATOM     17  C   UNL A   1      29.448  30.740  23.878  1.00  0.00     0.154 C 
ATOM     18  N   UNL A   1      30.657  30.231  24.506  1.00  0.00    -0.305 N 
ATOM     19  C   UNL A   1      31.167  30.934  25.594  1.00  0.00     0.316 A 
ATOM     20  C   UNL A   1      31.294  29.063  24.005  1.00  0.00     0.068 A 
ATOM     21  O   UNL A   1      30.650  31.956  26.040  1.00  0.00    -0.263 OA
ATOM     22  C   UNL A   1      32.433  30.394  26.268  1.00  0.00     0.316 A 
ATOM     23  C   UNL A   1      32.466  28.571  24.609  1.00  0.00     0.069 A 
ATOM     24  C   UNL A   1      30.757  28.380  22.898  1.00  0.00     0.030 A 
ATOM     25  O   UNL A   1      32.871  30.997  27.245  1.00  0.00    -0.263 OA
ATOM     26  N   UNL A   1      33.016  29.242  25.738  1.00  0.00    -0.305 N 
ATOM     27  C   UNL A   1      33.073  27.413  24.077  1.00  0.00     0.050 A 
ATOM     28  C   UNL A   1      31.356  27.227  22.391  1.00  0.00     0.024 A 
ATOM     29  C   UNL A   1      34.215  28.735  26.389  1.00  0.00     0.154 C 
ENDBRANCH  13  16
ENDBRANCH   9  13
ENDBRANCH   6   8
ENDBRANCH   5   6
ENDBRANCH   4   5
ENDBRANCH   3   4
ENDBRANCH   2   3
ENDBRANCH   1   2
BRANCH   1  30
ATOM     30  C   UNL A   1      36.924  20.449  25.064  1.00  0.00     0.261 C 
BRANCH  30  31
ATOM     31  O   UNL A   1      38.103  21.268  25.043  1.00  0.00    -0.460 OA
BRANCH  31  32
ATOM     32  C   UNL A   1      39.043  20.965  25.969  1.00  0.00     0.338 C 
ATOM     33  O   UNL A   1      39.501  19.863  26.214  1.00  0.00    -0.246 OA
BRANCH  32  34
ATOM     34  C   UNL A   1      39.612  22.225  26.493  1.00  0.00     0.060 A 
ATOM     35  C   UNL A   1      40.677  22.229  27.396  1.00  0.00     0.016 A 
ATOM     36  C   UNL A   1      39.045  23.430  26.056  1.00  0.00     0.016 A 
ATOM     37  C   UNL A   1      41.199  23.451  27.831  1.00  0.00     0.010 A 
ATOM     38  C   UNL A   1      39.565  24.647  26.495  1.00  0.00     0.010 A 
ATOM     39  C   UNL A   1      40.662  24.666  27.367  1.00  0.00    -0.014 A 
BRANCH  39  40
ATOM     40  C   UNL A   1      41.339  25.949  27.672  1.00  0.00     0.031 A 
ATOM     41  C   UNL A   1      42.751  26.221  27.248  1.00  0.00     0.074 A 
ATOM     42  C   UNL A   1      40.665  26.866  28.391  1.00  0.00     0.049 A 
ATOM     43  N   UNL A   1      43.458  27.307  27.419  1.00  0.00    -0.248 NA
ATOM     44  C   UNL A   1      43.463  25.139  26.552  1.00  0.00     0.031 C 
ATOM     45  C   UNL A   1      39.311  26.685  28.919  1.00  0.00     0.029 A 
ATOM     46  N   UNL A   1      41.024  28.121  28.810  1.00  0.00    -0.354 N 
ATOM     47  C   UNL A   1      44.697  27.050  26.848  1.00  0.00     0.074 A 
ATOM     48  C   UNL A   1      44.656  25.688  26.355  1.00  0.00     0.031 C 
ATOM     49  C   UNL A   1      38.948  27.794  29.580  1.00  0.00     0.029 A 
ATOM     50  C   UNL A   1      40.048  28.754  29.541  1.00  0.00     0.049 A 
ATOM     51  H   UNL A   1      41.897  28.530  28.607  1.00  0.00     0.167 HD
ATOM     52  C   UNL A   1      45.757  27.884  26.718  1.00  0.00     0.034 A 
ATOM     53  C   UNL A   1      40.032  29.971  30.117  1.00  0.00     0.034 A 
ATOM     54  C   UNL A   1      45.792  29.237  27.207  1.00  0.00     0.049 A 
ATOM     55  C   UNL A   1      41.217  30.876  29.966  1.00  0.00     0.074 A 
ATOM     56  C   UNL A   1      46.812  30.165  27.084  1.00  0.00     0.029 A 
ATOM     57  N   UNL A   1      44.775  29.855  27.916  1.00  0.00    -0.354 N 
ATOM     58  N   UNL A   1      42.339  30.656  29.325  1.00  0.00    -0.248 NA
ATOM     59  C   UNL A   1      41.129  32.204  30.589  1.00  0.00     0.031 C 
ATOM     60  C   UNL A   1      46.417  31.340  27.732  1.00  0.00     0.029 A 
ATOM     61  C   UNL A   1      45.142  31.150  28.241  1.00  0.00     0.049 A 
ATOM     62  H   UNL A   1      43.918  29.435  28.155  1.00  0.00     0.167 HD
ATOM     63  C   UNL A   1      43.085  31.821  29.451  1.00  0.00     0.074 A 
ATOM     64  C   UNL A   1      42.282  32.751  30.220  1.00  0.00     0.031 C 
ATOM     65  C   UNL A   1      44.328  32.083  28.979  1.00  0.00     0.034 A 
BRANCH  52  66
ATOM     66  C   UNL A   1      46.949  27.383  25.948  1.00  0.00     0.023 A 
ATOM     67  C   UNL A   1      47.837  26.489  26.579  1.00  0.00     0.012 A 
ATOM     68  C   UNL A   1      47.144  27.717  24.594  1.00  0.00     0.148 A 
ATOM     69  C   UNL A   1      48.913  25.946  25.880  1.00  0.00     0.002 A 
ATOM     70  C   UNL A   1      48.204  27.150  23.896  1.00  0.00     0.091 A 
ATOM     71  F   UNL A   1      46.292  28.575  24.018  1.00  0.00    -0.205 F 
ATOM     72  C   UNL A   1      49.091  26.268  24.537  1.00  0.00     0.022 A 
BRANCH  70  73
ATOM     73  S   UNL A   1      48.504  27.465  22.153  1.00  0.00     0.127 S 
ATOM     74  O   UNL A   1      47.300  28.204  21.776  1.00  0.00    -0.237 OA
ATOM     75  O   UNL A   1      49.726  28.270  22.191  1.00  0.00    -0.237 OA
ATOM     76  O   UNL A   1      48.652  26.160  21.525  1.00  0.00    -0.744 OA
ENDBRANCH  70  73
ENDBRANCH  52  66
BRANCH  53  77
ATOM     77  C   UNL A   1      38.800  30.401  30.827  1.00  0.00     0.023 A 
ATOM     78  C   UNL A   1      38.672  30.138  32.203  1.00  0.00     0.012 A 
ATOM     79  C   UNL A   1      37.825  31.178  30.173  1.00  0.00     0.148 A 
ATOM     80  C   UNL A   1      37.592  30.651  32.922  1.00  0.00     0.002 A 
ATOM     81  C   UNL A   1      36.772  31.716  30.902  1.00  0.00     0.091 A 
ATOM     82  F   UNL A   1      37.982  31.420  28.864  1.00  0.00    -0.205 F 
ATOM     83  C   UNL A   1      36.650  31.449  32.275  1.00  0.00     0.022 A 
BRANCH  81  84
ATOM     84  S   UNL A   1      35.567  32.837  30.184  1.00  0.00     0.127 S 
ATOM     85  O   UNL A   1      35.440  32.309  28.826  1.00  0.00    -0.237 OA
ATOM     86  O   UNL A   1      34.405  32.611  31.043  1.00  0.00    -0.237 OA
ATOM     87  O   UNL A   1      36.151  34.167  30.280  1.00  0.00    -0.744 OA
ENDBRANCH  81  84
ENDBRANCH  53  77
BRANCH  65  88
ATOM     88  C   UNL A   1      44.923  33.436  29.266  1.00  0.00     0.023 A 
ATOM     89  C   UNL A   1      45.789  33.591  30.366  1.00  0.00     0.012 A 
ATOM     90  C   UNL A   1      44.725  34.513  28.379  1.00  0.00     0.148 A 
ATOM     91  C   UNL A   1      46.447  34.801  30.583  1.00  0.00     0.002 A 
ATOM     92  C   UNL A   1      45.409  35.705  28.583  1.00  0.00     0.091 A 
ATOM     93  F   UNL A   1      43.890  34.341  27.344  1.00  0.00    -0.205 F 
ATOM     94  C   UNL A   1      46.267  35.853  29.686  1.00  0.00     0.022 A 
BRANCH  92  95
ATOM     95  S   UNL A   1      45.296  37.096  27.451  1.00  0.00     0.127 S 
ATOM     96  O   UNL A   1      46.386  36.810  26.519  1.00  0.00    -0.237 OA
ATOM     97  O   UNL A   1      43.955  36.929  26.892  1.00  0.00    -0.237 OA
ATOM     98  O   UNL A   1      45.475  38.294  28.261  1.00  0.00    -0.744 OA
ENDBRANCH  92  95
ENDBRANCH  65  88
ENDBRANCH  39  40
ENDBRANCH  32  34
ENDBRANCH  31  32
ENDBRANCH  30  31
ENDBRANCH   1  30
TORSDOF 19
ENDMDL
