MODEL 1
REMARK VINA RESULT:     -12.0      0.000      0.000
REMARK SMILES Cc1ccccc1C(=O)Nc1cc(C(=O)OCCOCCOC(=O)c2ccc(-c3c4nc(c(-c5cccc(S(=O)(=O)[O-])c5F)c5ccc([nH]5)c(-c5cccc(S(=O)(=O)[O-])c5F)c5nc(c(-c6cccc(S(=O)(=O)[O-])c6F)c6ccc3[nH]6)C=C5)C=C4)cc2)ccc1N1CC[NH+](CC(=O)Nc2ccc(F)cc2)CC1
REMARK SMILES IDX 18 1 17 2 16 3 14 4 15 5 13 6 11 7 12 8 90 9 89 10 88 11
REMARK SMILES IDX 10 12 8 13 9 14 7 16 1 17 2 18 3 19 4 20 6 21 5 22 91 23
REMARK SMILES IDX 92 24 107 25 93 26 106 27 94 28 95 30 96 31 97 32 98 33
REMARK SMILES IDX 99 35 100 36 105 37 101 38 104 39 102 40 103 41 19 42 20 43
REMARK SMILES IDX 21 44 22 45 23 46 24 47 25 48 26 49 87 50 27 51 86 52 28 53
REMARK SMILES IDX 29 54 30 55 80 56 31 57 85 58 79 59 81 60 32 61 84 62 78 63
REMARK SMILES IDX 77 64 33 66 65 67 45 68 64 69 46 70 49 71 63 72 82 73 47 74
REMARK SMILES IDX 48 75 62 77 83 78 50 79 34 80 35 81 43 82 36 83 38 84 44 85
REMARK SMILES IDX 37 86 39 87 40 88 41 89 42 90 66 91 67 92 75 93 68 94 70 95
REMARK SMILES IDX 76 96 69 97 71 98 72 99 73 100 74 101 51 102 52 103 60 104
REMARK SMILES IDX 53 105 55 106 61 107 54 108 56 109 57 110 58 111 59 112
REMARK H PARENT 10 15 94 29 98 34 81 65 49 76
REMARK Flexibility Score: inf
ROOT
ATOM      1  C   UNL A   1      31.786  28.659  27.524  1.00  0.00     0.202 C 
ENDROOT
BRANCH   1   2
ATOM      2  C   UNL A   1      31.400  27.545  26.585  1.00  0.00     0.261 C 
BRANCH   2   3
ATOM      3  O   UNL A   1      30.496  26.519  27.080  1.00  0.00    -0.460 OA
BRANCH   3   4
ATOM      4  C   UNL A   1      30.052  25.522  26.272  1.00  0.00     0.338 C 
ATOM      5  O   UNL A   1      28.884  25.213  26.099  1.00  0.00    -0.246 OA
BRANCH   4   6
ATOM      6  C   UNL A   1      31.163  24.607  25.919  1.00  0.00     0.062 A 
ATOM      7  C   UNL A   1      32.821  24.084  24.292  1.00  0.00     0.065 A 
ATOM      8  C   UNL A   1      31.583  24.595  24.603  1.00  0.00     0.044 A 
ATOM      9  C   UNL A   1      33.645  23.411  25.243  1.00  0.00     0.061 A 
ATOM     10  C   UNL A   1      33.129  23.318  26.548  1.00  0.00     0.029 A 
ATOM     11  C   UNL A   1      31.920  23.953  26.896  1.00  0.00     0.018 A 
BRANCH   7  12
ATOM     12  N   UNL A   1      33.278  24.385  23.012  1.00  0.00    -0.320 N 
ATOM     13  C   UNL A   1      33.123  25.567  22.302  1.00  0.00     0.255 C 
ATOM     14  O   UNL A   1      33.744  25.612  21.229  1.00  0.00    -0.269 OA
ATOM     15  H   UNL A   1      33.773  23.668  22.553  1.00  0.00     0.170 HD
BRANCH  13  16
ATOM     16  C   UNL A   1      32.372  26.826  22.727  1.00  0.00     0.043 A 
ATOM     17  C   UNL A   1      34.217  28.620  23.324  1.00  0.00     0.045 C 
ATOM     18  C   UNL A   1      32.819  28.102  23.160  1.00  0.00    -0.038 A 
ATOM     19  C   UNL A   1      31.865  29.112  23.445  1.00  0.00     0.004 A 
ATOM     20  C   UNL A   1      30.513  28.948  23.185  1.00  0.00     0.000 A 
ATOM     21  C   UNL A   1      30.982  26.698  22.483  1.00  0.00     0.014 A 
ATOM     22  C   UNL A   1      30.072  27.743  22.679  1.00  0.00     0.001 A 
ENDBRANCH  13  16
ENDBRANCH   7  12
BRANCH   9  23
ATOM     23  N   UNL A   1      34.963  23.045  24.932  1.00  0.00    -0.359 N 
ATOM     24  C   UNL A   1      35.353  21.672  24.507  1.00  0.00     0.178 C 
ATOM     25  C   UNL A   1      35.990  23.599  25.818  1.00  0.00     0.178 C 
ATOM     26  C   UNL A   1      36.884  21.589  24.120  1.00  0.00     0.284 C 
ATOM     27  C   UNL A   1      37.283  23.744  25.028  1.00  0.00     0.284 C 
ATOM     28  N   UNL A   1      37.875  22.429  24.842  1.00  0.00    -0.324 N 
ATOM     29  H   UNL A   1      38.691  22.432  24.232  1.00  0.00     0.348 HD
BRANCH  28  30
ATOM     30  C   UNL A   1      38.533  21.921  26.076  1.00  0.00     0.364 C 
BRANCH  30  31
ATOM     31  C   UNL A   1      39.687  22.704  26.714  1.00  0.00     0.279 C 
ATOM     32  O   UNL A   1      39.467  23.860  27.112  1.00  0.00    -0.268 OA
ATOM     33  N   UNL A   1      40.942  22.218  26.984  1.00  0.00    -0.321 N 
ATOM     34  H   UNL A   1      41.368  22.760  27.688  1.00  0.00     0.170 HD
BRANCH  33  35
ATOM     35  C   UNL A   1      41.819  21.183  26.573  1.00  0.00     0.041 A 
ATOM     36  C   UNL A   1      43.006  21.593  25.932  1.00  0.00     0.029 A 
ATOM     37  C   UNL A   1      41.578  19.813  26.617  1.00  0.00     0.029 A 
ATOM     38  C   UNL A   1      43.897  20.672  25.355  1.00  0.00     0.041 A 
ATOM     39  C   UNL A   1      42.432  18.887  25.987  1.00  0.00     0.041 A 
ATOM     40  C   UNL A   1      43.591  19.323  25.371  1.00  0.00     0.123 A 
ATOM     41  F   UNL A   1      44.421  18.440  24.799  1.00  0.00    -0.207 F 
ENDBRANCH  33  35
ENDBRANCH  30  31
ENDBRANCH  28  30
ENDBRANCH   9  23
ENDBRANCH   4   6
ENDBRANCH   3   4
ENDBRANCH   2   3
ENDBRANCH   1   2
BRANCH   1  42
ATOM     42  O   UNL A   1      33.080  29.103  27.159  1.00  0.00    -0.374 OA
BRANCH  42  43
ATOM     43  C   UNL A   1      33.152  30.358  26.512  1.00  0.00     0.202 C 
BRANCH  43  44
ATOM     44  C   UNL A   1      33.168  31.525  27.501  1.00  0.00     0.261 C 
BRANCH  44  45
ATOM     45  O   UNL A   1      34.469  31.614  28.111  1.00  0.00    -0.460 OA
BRANCH  45  46
ATOM     46  C   UNL A   1      34.607  32.633  29.018  1.00  0.00     0.338 C 
ATOM     47  O   UNL A   1      33.885  33.595  29.062  1.00  0.00    -0.246 OA
BRANCH  46  48
ATOM     48  C   UNL A   1      35.889  32.459  29.774  1.00  0.00     0.060 A 
ATOM     49  C   UNL A   1      37.108  32.839  29.188  1.00  0.00     0.016 A 
ATOM     50  C   UNL A   1      35.894  31.677  30.925  1.00  0.00     0.016 A 
ATOM     51  C   UNL A   1      38.319  32.307  29.660  1.00  0.00     0.010 A 
ATOM     52  C   UNL A   1      37.071  31.072  31.316  1.00  0.00     0.010 A 
ATOM     53  C   UNL A   1      38.286  31.356  30.669  1.00  0.00    -0.014 A 
BRANCH  53  54
ATOM     54  C   UNL A   1      39.412  30.578  31.188  1.00  0.00     0.031 A 
ATOM     55  C   UNL A   1      39.686  29.298  30.492  1.00  0.00     0.074 A 
ATOM     56  C   UNL A   1      40.404  31.184  31.885  1.00  0.00     0.049 A 
ATOM     57  N   UNL A   1      40.779  28.637  30.602  1.00  0.00    -0.248 NA
ATOM     58  C   UNL A   1      38.742  28.666  29.572  1.00  0.00     0.031 C 
ATOM     59  C   UNL A   1      41.835  30.889  31.810  1.00  0.00     0.029 A 
ATOM     60  N   UNL A   1      40.354  32.193  32.859  1.00  0.00    -0.354 N 
ATOM     61  C   UNL A   1      40.848  27.759  29.551  1.00  0.00     0.074 A 
ATOM     62  C   UNL A   1      39.514  27.728  29.012  1.00  0.00     0.031 C 
ATOM     63  C   UNL A   1      42.460  31.408  32.874  1.00  0.00     0.029 A 
ATOM     64  C   UNL A   1      41.437  31.975  33.724  1.00  0.00     0.049 A 
ATOM     65  H   UNL A   1      39.686  32.913  32.923  1.00  0.00     0.167 HD
ATOM     66  C   UNL A   1      42.079  27.282  29.219  1.00  0.00     0.034 A 
ATOM     67  C   UNL A   1      41.263  31.737  35.048  1.00  0.00     0.034 A 
ATOM     68  C   UNL A   1      43.048  27.591  30.299  1.00  0.00     0.049 A 
ATOM     69  C   UNL A   1      41.835  30.384  35.347  1.00  0.00     0.074 A 
ATOM     70  C   UNL A   1      44.137  28.438  30.420  1.00  0.00     0.029 A 
ATOM     71  N   UNL A   1      42.743  27.173  31.602  1.00  0.00    -0.354 N 
ATOM     72  N   UNL A   1      41.895  29.441  34.439  1.00  0.00    -0.248 NA
ATOM     73  C   UNL A   1      42.618  30.067  36.537  1.00  0.00     0.031 C 
ATOM     74  C   UNL A   1      44.396  28.617  31.818  1.00  0.00     0.029 A 
ATOM     75  C   UNL A   1      43.486  27.860  32.548  1.00  0.00     0.049 A 
ATOM     76  H   UNL A   1      42.081  26.477  31.817  1.00  0.00     0.167 HD
ATOM     77  C   UNL A   1      42.833  28.525  34.806  1.00  0.00     0.074 A 
ATOM     78  C   UNL A   1      43.207  28.917  36.160  1.00  0.00     0.031 C 
ATOM     79  C   UNL A   1      43.350  27.568  33.978  1.00  0.00     0.034 A 
BRANCH  66  80
ATOM     80  C   UNL A   1      42.461  26.646  27.886  1.00  0.00     0.023 A 
ATOM     81  C   UNL A   1      41.494  26.676  26.856  1.00  0.00     0.012 A 
ATOM     82  C   UNL A   1      43.664  25.956  27.575  1.00  0.00     0.148 A 
ATOM     83  C   UNL A   1      41.704  26.083  25.603  1.00  0.00     0.002 A 
ATOM     84  C   UNL A   1      43.901  25.418  26.304  1.00  0.00     0.091 A 
ATOM     85  F   UNL A   1      44.576  25.735  28.522  1.00  0.00    -0.205 F 
ATOM     86  C   UNL A   1      42.916  25.471  25.317  1.00  0.00     0.022 A 
BRANCH  84  87
ATOM     87  S   UNL A   1      45.465  24.640  25.843  1.00  0.00     0.127 S 
ATOM     88  O   UNL A   1      46.410  25.752  25.957  1.00  0.00    -0.237 OA
ATOM     89  O   UNL A   1      45.617  23.611  26.872  1.00  0.00    -0.237 OA
ATOM     90  O   UNL A   1      45.288  24.121  24.493  1.00  0.00    -0.744 OA
ENDBRANCH  84  87
ENDBRANCH  66  80
BRANCH  67  91
ATOM     91  C   UNL A   1      40.159  32.562  35.619  1.00  0.00     0.023 A 
ATOM     92  C   UNL A   1      39.089  31.786  36.151  1.00  0.00     0.012 A 
ATOM     93  C   UNL A   1      40.376  33.849  36.152  1.00  0.00     0.148 A 
ATOM     94  C   UNL A   1      38.385  32.193  37.286  1.00  0.00     0.002 A 
ATOM     95  C   UNL A   1      39.660  34.251  37.286  1.00  0.00     0.091 A 
ATOM     96  F   UNL A   1      41.331  34.614  35.607  1.00  0.00    -0.205 F 
ATOM     97  C   UNL A   1      38.702  33.407  37.877  1.00  0.00     0.022 A 
BRANCH  95  98
ATOM     98  S   UNL A   1      39.996  35.782  38.173  1.00  0.00     0.127 S 
ATOM     99  O   UNL A   1      41.336  35.531  38.698  1.00  0.00    -0.237 OA
ATOM    100  O   UNL A   1      39.942  36.776  37.101  1.00  0.00    -0.237 OA
ATOM    101  O   UNL A   1      38.943  35.906  39.170  1.00  0.00    -0.744 OA
ENDBRANCH  95  98
ENDBRANCH  67  91
BRANCH  79 102
ATOM    102  C   UNL A   1      43.755  26.218  34.517  1.00  0.00     0.023 A 
ATOM    103  C   UNL A   1      42.877  25.115  34.459  1.00  0.00     0.012 A 
ATOM    104  C   UNL A   1      45.099  25.950  34.867  1.00  0.00     0.148 A 
ATOM    105  C   UNL A   1      43.289  23.822  34.777  1.00  0.00     0.002 A 
ATOM    106  C   UNL A   1      45.533  24.644  35.051  1.00  0.00     0.091 A 
ATOM    107  F   UNL A   1      45.969  26.956  35.025  1.00  0.00    -0.205 F 
ATOM    108  C   UNL A   1      44.627  23.581  35.040  1.00  0.00     0.022 A 
BRANCH 106 109
ATOM    109  S   UNL A   1      47.286  24.251  35.107  1.00  0.00     0.127 S 
ATOM    110  O   UNL A   1      47.658  24.749  36.429  1.00  0.00    -0.237 OA
ATOM    111  O   UNL A   1      47.276  22.792  34.982  1.00  0.00    -0.237 OA
ATOM    112  O   UNL A   1      47.875  24.944  33.970  1.00  0.00    -0.744 OA
ENDBRANCH 106 109
ENDBRANCH  79 102
ENDBRANCH  53  54
ENDBRANCH  46  48
ENDBRANCH  45  46
ENDBRANCH  44  45
ENDBRANCH  43  44
ENDBRANCH  42  43
ENDBRANCH   1  42
TORSDOF 23
ENDMDL
MODEL 2
REMARK VINA RESULT:     -11.9      4.419      8.895
REMARK SMILES Cc1ccccc1C(=O)Nc1cc(C(=O)OCCOCCOC(=O)c2ccc(-c3c4nc(c(-c5cccc(S(=O)(=O)[O-])c5F)c5ccc([nH]5)c(-c5cccc(S(=O)(=O)[O-])c5F)c5nc(c(-c6cccc(S(=O)(=O)[O-])c6F)c6ccc3[nH]6)C=C5)C=C4)cc2)ccc1N1CC[NH+](CC(=O)Nc2ccc(F)cc2)CC1
REMARK SMILES IDX 18 1 17 2 16 3 14 4 15 5 13 6 11 7 12 8 90 9 89 10 88 11
REMARK SMILES IDX 10 12 8 13 9 14 7 16 1 17 2 18 3 19 4 20 6 21 5 22 91 23
REMARK SMILES IDX 92 24 107 25 93 26 106 27 94 28 95 30 96 31 97 32 98 33
REMARK SMILES IDX 99 35 100 36 105 37 101 38 104 39 102 40 103 41 19 42 20 43
REMARK SMILES IDX 21 44 22 45 23 46 24 47 25 48 26 49 87 50 27 51 86 52 28 53
REMARK SMILES IDX 29 54 30 55 80 56 31 57 85 58 79 59 81 60 32 61 84 62 78 63
REMARK SMILES IDX 77 64 33 66 65 67 45 68 64 69 46 70 49 71 63 72 82 73 47 74
REMARK SMILES IDX 48 75 62 77 83 78 50 79 34 80 35 81 43 82 36 83 38 84 44 85
REMARK SMILES IDX 37 86 39 87 40 88 41 89 42 90 66 91 67 92 75 93 68 94 70 95
REMARK SMILES IDX 76 96 69 97 71 98 72 99 73 100 74 101 51 102 52 103 60 104
REMARK SMILES IDX 53 105 55 106 61 107 54 108 56 109 57 110 58 111 59 112
REMARK H PARENT 10 15 94 29 98 34 81 65 49 76
REMARK Flexibility Score: inf
ROOT
ATOM      1  C   UNL A   1      32.300  28.177  27.434  1.00  0.00     0.202 C 
ENDROOT
BRANCH   1   2
ATOM      2  C   UNL A   1      31.367  27.525  26.445  1.00  0.00     0.261 C 
BRANCH   2   3
ATOM      3  O   UNL A   1      30.380  26.587  26.957  1.00  0.00    -0.460 OA
BRANCH   3   4
ATOM      4  C   UNL A   1      29.958  25.533  26.213  1.00  0.00     0.338 C 
ATOM      5  O   UNL A   1      28.798  25.181  26.070  1.00  0.00    -0.246 OA
BRANCH   4   6
ATOM      6  C   UNL A   1      31.091  24.632  25.900  1.00  0.00     0.062 A 
ATOM      7  C   UNL A   1      32.727  24.042  24.272  1.00  0.00     0.065 A 
ATOM      8  C   UNL A   1      31.479  24.533  24.577  1.00  0.00     0.044 A 
ATOM      9  C   UNL A   1      33.597  23.472  25.248  1.00  0.00     0.061 A 
ATOM     10  C   UNL A   1      33.118  23.462  26.570  1.00  0.00     0.029 A 
ATOM     11  C   UNL A   1      31.896  24.081  26.902  1.00  0.00     0.018 A 
BRANCH   7  12
ATOM     12  N   UNL A   1      33.141  24.259  22.961  1.00  0.00    -0.320 N 
ATOM     13  C   UNL A   1      32.999  25.408  22.195  1.00  0.00     0.255 C 
ATOM     14  O   UNL A   1      33.576  25.374  21.098  1.00  0.00    -0.269 OA
ATOM     15  H   UNL A   1      33.590  23.501  22.521  1.00  0.00     0.170 HD
BRANCH  13  16
ATOM     16  C   UNL A   1      32.313  26.715  22.583  1.00  0.00     0.043 A 
ATOM     17  C   UNL A   1      34.236  28.503  22.867  1.00  0.00     0.045 C 
ATOM     18  C   UNL A   1      32.820  28.009  22.870  1.00  0.00    -0.038 A 
ATOM     19  C   UNL A   1      31.914  29.063  23.156  1.00  0.00     0.004 A 
ATOM     20  C   UNL A   1      30.541  28.912  23.031  1.00  0.00     0.000 A 
ATOM     21  C   UNL A   1      30.904  26.603  22.475  1.00  0.00     0.014 A 
ATOM     22  C   UNL A   1      30.035  27.682  22.665  1.00  0.00     0.001 A 
ENDBRANCH  13  16
ENDBRANCH   7  12
BRANCH   9  23
ATOM     23  N   UNL A   1      34.920  23.128  24.930  1.00  0.00    -0.359 N 
ATOM     24  C   UNL A   1      35.320  21.779  24.441  1.00  0.00     0.178 C 
ATOM     25  C   UNL A   1      35.937  23.642  25.850  1.00  0.00     0.178 C 
ATOM     26  C   UNL A   1      36.854  21.723  24.062  1.00  0.00     0.284 C 
ATOM     27  C   UNL A   1      37.235  23.833  25.078  1.00  0.00     0.284 C 
ATOM     28  N   UNL A   1      37.836  22.531  24.832  1.00  0.00    -0.324 N 
ATOM     29  H   UNL A   1      38.657  22.568  24.229  1.00  0.00     0.348 HD
BRANCH  28  30
ATOM     30  C   UNL A   1      38.487  21.967  26.045  1.00  0.00     0.364 C 
BRANCH  30  31
ATOM     31  C   UNL A   1      39.642  22.715  26.720  1.00  0.00     0.279 C 
ATOM     32  O   UNL A   1      39.436  23.866  27.138  1.00  0.00    -0.268 OA
ATOM     33  N   UNL A   1      40.883  22.201  27.004  1.00  0.00    -0.321 N 
ATOM     34  H   UNL A   1      41.305  22.721  27.727  1.00  0.00     0.170 HD
BRANCH  33  35
ATOM     35  C   UNL A   1      41.749  21.158  26.588  1.00  0.00     0.041 A 
ATOM     36  C   UNL A   1      42.922  21.556  25.916  1.00  0.00     0.029 A 
ATOM     37  C   UNL A   1      41.507  19.789  26.657  1.00  0.00     0.029 A 
ATOM     38  C   UNL A   1      43.798  20.626  25.332  1.00  0.00     0.041 A 
ATOM     39  C   UNL A   1      42.345  18.853  26.022  1.00  0.00     0.041 A 
ATOM     40  C   UNL A   1      43.491  19.278  25.374  1.00  0.00     0.123 A 
ATOM     41  F   UNL A   1      44.306  18.385  24.797  1.00  0.00    -0.207 F 
ENDBRANCH  33  35
ENDBRANCH  30  31
ENDBRANCH  28  30
ENDBRANCH   9  23
ENDBRANCH   4   6
ENDBRANCH   3   4
ENDBRANCH   2   3
ENDBRANCH   1   2
BRANCH   1  42
ATOM     42  O   UNL A   1      33.483  28.533  26.741  1.00  0.00    -0.374 OA
BRANCH  42  43
ATOM     43  C   UNL A   1      33.570  29.873  26.299  1.00  0.00     0.202 C 
BRANCH  43  44
ATOM     44  C   UNL A   1      33.463  30.876  27.449  1.00  0.00     0.261 C 
BRANCH  44  45
ATOM     45  O   UNL A   1      34.783  31.192  27.928  1.00  0.00    -0.460 OA
BRANCH  45  46
ATOM     46  C   UNL A   1      34.826  32.195  28.863  1.00  0.00     0.338 C 
ATOM     47  O   UNL A   1      33.933  32.978  29.050  1.00  0.00    -0.246 OA
BRANCH  46  48
ATOM     48  C   UNL A   1      36.208  32.280  29.440  1.00  0.00     0.060 A 
ATOM     49  C   UNL A   1      36.571  31.459  30.520  1.00  0.00     0.016 A 
ATOM     50  C   UNL A   1      37.022  33.353  29.087  1.00  0.00     0.016 A 
ATOM     51  C   UNL A   1      37.657  31.804  31.341  1.00  0.00     0.010 A 
ATOM     52  C   UNL A   1      38.018  33.748  29.956  1.00  0.00     0.010 A 
ATOM     53  C   UNL A   1      38.324  32.997  31.105  1.00  0.00    -0.014 A 
BRANCH  53  54
ATOM     54  C   UNL A   1      39.369  33.604  31.930  1.00  0.00     0.031 A 
ATOM     55  C   UNL A   1      38.925  34.157  33.231  1.00  0.00     0.074 A 
ATOM     56  C   UNL A   1      40.668  33.250  31.763  1.00  0.00     0.049 A 
ATOM     57  N   UNL A   1      39.715  34.453  34.196  1.00  0.00    -0.248 NA
ATOM     58  C   UNL A   1      37.521  34.394  33.565  1.00  0.00     0.031 C 
ATOM     59  C   UNL A   1      41.667  33.066  32.815  1.00  0.00     0.029 A 
ATOM     60  N   UNL A   1      41.407  33.007  30.596  1.00  0.00    -0.354 N 
ATOM     61  C   UNL A   1      38.965  34.545  35.341  1.00  0.00     0.074 A 
ATOM     62  C   UNL A   1      37.603  34.622  34.880  1.00  0.00     0.031 C 
ATOM     63  C   UNL A   1      42.895  33.082  32.279  1.00  0.00     0.029 A 
ATOM     64  C   UNL A   1      42.733  33.374  30.873  1.00  0.00     0.049 A 
ATOM     65  H   UNL A   1      41.062  32.649  29.747  1.00  0.00     0.167 HD
ATOM     66  C   UNL A   1      39.621  34.415  36.526  1.00  0.00     0.034 A 
ATOM     67  C   UNL A   1      43.373  34.342  30.169  1.00  0.00     0.034 A 
ATOM     68  C   UNL A   1      41.085  34.515  36.307  1.00  0.00     0.049 A 
ATOM     69  C   UNL A   1      43.757  35.426  31.131  1.00  0.00     0.074 A 
ATOM     70  C   UNL A   1      42.145  33.627  36.377  1.00  0.00     0.029 A 
ATOM     71  N   UNL A   1      41.579  35.647  35.644  1.00  0.00    -0.354 N 
ATOM     72  N   UNL A   1      43.077  35.652  32.228  1.00  0.00    -0.248 NA
ATOM     73  C   UNL A   1      45.035  36.131  31.108  1.00  0.00     0.031 C 
ATOM     74  C   UNL A   1      43.237  34.193  35.642  1.00  0.00     0.029 A 
ATOM     75  C   UNL A   1      42.854  35.434  35.145  1.00  0.00     0.049 A 
ATOM     76  H   UNL A   1      41.081  36.490  35.546  1.00  0.00     0.167 HD
ATOM     77  C   UNL A   1      43.861  36.332  33.109  1.00  0.00     0.074 A 
ATOM     78  C   UNL A   1      45.051  36.675  32.339  1.00  0.00     0.031 C 
ATOM     79  C   UNL A   1      43.578  36.494  34.436  1.00  0.00     0.034 A 
BRANCH  66  80
ATOM     80  C   UNL A   1      38.981  34.078  37.869  1.00  0.00     0.023 A 
ATOM     81  C   UNL A   1      39.132  35.022  38.910  1.00  0.00     0.012 A 
ATOM     82  C   UNL A   1      38.302  32.880  38.223  1.00  0.00     0.148 A 
ATOM     83  C   UNL A   1      38.633  34.809  40.204  1.00  0.00     0.002 A 
ATOM     84  C   UNL A   1      37.750  32.692  39.496  1.00  0.00     0.091 A 
ATOM     85  F   UNL A   1      38.242  31.863  37.364  1.00  0.00    -0.205 F 
ATOM     86  C   UNL A   1      37.923  33.653  40.494  1.00  0.00     0.022 A 
BRANCH  84  87
ATOM     87  S   UNL A   1      36.781  31.233  39.940  1.00  0.00     0.127 S 
ATOM     88  O   UNL A   1      37.762  30.414  40.652  1.00  0.00    -0.237 OA
ATOM     89  O   UNL A   1      35.735  31.800  40.792  1.00  0.00    -0.237 OA
ATOM     90  O   UNL A   1      36.296  30.661  38.690  1.00  0.00    -0.744 OA
ENDBRANCH  84  87
ENDBRANCH  66  80
BRANCH  67  91
ATOM     91  C   UNL A   1      43.023  34.297  28.720  1.00  0.00     0.023 A 
ATOM     92  C   UNL A   1      42.278  35.429  28.281  1.00  0.00     0.012 A 
ATOM     93  C   UNL A   1      43.814  33.615  27.773  1.00  0.00     0.148 A 
ATOM     94  C   UNL A   1      42.454  35.971  27.007  1.00  0.00     0.002 A 
ATOM     95  C   UNL A   1      43.979  34.162  26.496  1.00  0.00     0.091 A 
ATOM     96  F   UNL A   1      44.458  32.506  28.159  1.00  0.00    -0.205 F 
ATOM     97  C   UNL A   1      43.338  35.361  26.131  1.00  0.00     0.022 A 
BRANCH  95  98
ATOM     98  S   UNL A   1      45.122  33.493  25.275  1.00  0.00     0.127 S 
ATOM     99  O   UNL A   1      45.590  32.280  25.942  1.00  0.00    -0.237 OA
ATOM    100  O   UNL A   1      44.242  33.252  24.131  1.00  0.00    -0.237 OA
ATOM    101  O   UNL A   1      46.128  34.522  25.063  1.00  0.00    -0.744 OA
ENDBRANCH  95  98
ENDBRANCH  67  91
BRANCH  79 102
ATOM    102  C   UNL A   1      43.982  37.752  35.165  1.00  0.00     0.023 A 
ATOM    103  C   UNL A   1      44.893  37.711  36.243  1.00  0.00     0.012 A 
ATOM    104  C   UNL A   1      43.663  39.027  34.644  1.00  0.00     0.148 A 
ATOM    105  C   UNL A   1      45.423  38.869  36.809  1.00  0.00     0.002 A 
ATOM    106  C   UNL A   1      44.297  40.165  35.124  1.00  0.00     0.091 A 
ATOM    107  F   UNL A   1      42.743  39.151  33.678  1.00  0.00    -0.205 F 
ATOM    108  C   UNL A   1      45.150  40.095  36.228  1.00  0.00     0.022 A 
BRANCH 106 109
ATOM    109  S   UNL A   1      44.206  41.722  34.232  1.00  0.00     0.127 S 
ATOM    110  O   UNL A   1      44.822  42.644  35.182  1.00  0.00    -0.237 OA
ATOM    111  O   UNL A   1      45.010  41.441  33.041  1.00  0.00    -0.237 OA
ATOM    112  O   UNL A   1      42.791  41.930  33.961  1.00  0.00    -0.744 OA
ENDBRANCH 106 109
ENDBRANCH  79 102
ENDBRANCH  53  54
ENDBRANCH  46  48
ENDBRANCH  45  46
ENDBRANCH  44  45
ENDBRANCH  43  44
ENDBRANCH  42  43
ENDBRANCH   1  42
TORSDOF 23
ENDMDL
MODEL 3
REMARK VINA RESULT:     -11.4      4.241      9.261
REMARK SMILES Cc1ccccc1C(=O)Nc1cc(C(=O)OCCOCCOC(=O)c2ccc(-c3c4nc(c(-c5cccc(S(=O)(=O)[O-])c5F)c5ccc([nH]5)c(-c5cccc(S(=O)(=O)[O-])c5F)c5nc(c(-c6cccc(S(=O)(=O)[O-])c6F)c6ccc3[nH]6)C=C5)C=C4)cc2)ccc1N1CC[NH+](CC(=O)Nc2ccc(F)cc2)CC1
REMARK SMILES IDX 18 1 17 2 16 3 14 4 15 5 13 6 11 7 12 8 90 9 89 10 88 11
REMARK SMILES IDX 10 12 8 13 9 14 7 16 1 17 2 18 3 19 4 20 6 21 5 22 91 23
REMARK SMILES IDX 92 24 107 25 93 26 106 27 94 28 95 30 96 31 97 32 98 33
REMARK SMILES IDX 99 35 100 36 105 37 101 38 104 39 102 40 103 41 19 42 20 43
REMARK SMILES IDX 21 44 22 45 23 46 24 47 25 48 26 49 87 50 27 51 86 52 28 53
REMARK SMILES IDX 29 54 30 55 80 56 31 57 85 58 79 59 81 60 32 61 84 62 78 63
REMARK SMILES IDX 77 64 33 66 65 67 45 68 64 69 46 70 49 71 63 72 82 73 47 74
REMARK SMILES IDX 48 75 62 77 83 78 50 79 34 80 35 81 43 82 36 83 38 84 44 85
REMARK SMILES IDX 37 86 39 87 40 88 41 89 42 90 66 91 67 92 75 93 68 94 70 95
REMARK SMILES IDX 76 96 69 97 71 98 72 99 73 100 74 101 51 102 52 103 60 104
REMARK SMILES IDX 53 105 55 106 61 107 54 108 56 109 57 110 58 111 59 112
REMARK H PARENT 10 15 94 29 98 34 81 65 49 76
REMARK Flexibility Score: inf
ROOT
ATOM      1  C   UNL A   1      32.743  28.127  27.268  1.00  0.00     0.202 C 
ENDROOT
BRANCH   1   2
ATOM      2  C   UNL A   1      32.141  26.992  26.480  1.00  0.00     0.261 C 
BRANCH   2   3
ATOM      3  O   UNL A   1      30.956  26.343  27.018  1.00  0.00    -0.460 OA
BRANCH   3   4
ATOM      4  C   UNL A   1      30.501  25.170  26.506  1.00  0.00     0.338 C 
ATOM      5  O   UNL A   1      29.336  24.809  26.480  1.00  0.00    -0.246 OA
BRANCH   4   6
ATOM      6  C   UNL A   1      31.619  24.215  26.325  1.00  0.00     0.062 A 
ATOM      7  C   UNL A   1      33.085  23.198  24.747  1.00  0.00     0.065 A 
ATOM      8  C   UNL A   1      31.864  23.757  25.045  1.00  0.00     0.044 A 
ATOM      9  C   UNL A   1      34.071  22.915  25.738  1.00  0.00     0.061 A 
ATOM     10  C   UNL A   1      33.739  23.269  27.057  1.00  0.00     0.029 A 
ATOM     11  C   UNL A   1      32.543  23.957  27.343  1.00  0.00     0.018 A 
BRANCH   7  12
ATOM     12  N   UNL A   1      33.348  23.047  23.389  1.00  0.00    -0.320 N 
ATOM     13  C   UNL A   1      33.216  23.990  22.379  1.00  0.00     0.255 C 
ATOM     14  O   UNL A   1      33.645  23.628  21.273  1.00  0.00    -0.269 OA
ATOM     15  H   UNL A   1      33.667  22.158  23.109  1.00  0.00     0.170 HD
BRANCH  13  16
ATOM     16  C   UNL A   1      32.707  25.424  22.495  1.00  0.00     0.043 A 
ATOM     17  C   UNL A   1      30.095  25.254  22.848  1.00  0.00     0.045 C 
ATOM     18  C   UNL A   1      31.408  25.962  22.685  1.00  0.00    -0.038 A 
ATOM     19  C   UNL A   1      31.248  27.366  22.807  1.00  0.00     0.004 A 
ATOM     20  C   UNL A   1      32.329  28.229  22.887  1.00  0.00     0.000 A 
ATOM     21  C   UNL A   1      33.783  26.343  22.573  1.00  0.00     0.014 A 
ATOM     22  C   UNL A   1      33.605  27.713  22.793  1.00  0.00     0.001 A 
ENDBRANCH  13  16
ENDBRANCH   7  12
BRANCH   9  23
ATOM     23  N   UNL A   1      35.361  22.493  25.379  1.00  0.00    -0.359 N 
ATOM     24  C   UNL A   1      35.796  21.070  25.413  1.00  0.00     0.178 C 
ATOM     25  C   UNL A   1      36.451  23.355  25.845  1.00  0.00     0.178 C 
ATOM     26  C   UNL A   1      37.263  20.890  24.852  1.00  0.00     0.284 C 
ATOM     27  C   UNL A   1      37.611  23.237  24.867  1.00  0.00     0.284 C 
ATOM     28  N   UNL A   1      38.274  21.958  25.070  1.00  0.00    -0.324 N 
ATOM     29  H   UNL A   1      38.999  21.761  24.381  1.00  0.00     0.348 HD
BRANCH  28  30
ATOM     30  C   UNL A   1      39.128  21.947  26.288  1.00  0.00     0.364 C 
BRANCH  30  31
ATOM     31  C   UNL A   1      40.638  22.192  26.175  1.00  0.00     0.279 C 
ATOM     32  O   UNL A   1      41.381  21.218  25.975  1.00  0.00    -0.268 OA
ATOM     33  N   UNL A   1      41.260  23.416  26.176  1.00  0.00    -0.321 N 
ATOM     34  H   UNL A   1      42.144  23.343  25.747  1.00  0.00     0.170 HD
BRANCH  33  35
ATOM     35  C   UNL A   1      41.035  24.751  26.598  1.00  0.00     0.041 A 
ATOM     36  C   UNL A   1      40.402  24.909  27.848  1.00  0.00     0.029 A 
ATOM     37  C   UNL A   1      41.252  25.910  25.860  1.00  0.00     0.029 A 
ATOM     38  C   UNL A   1      39.997  26.167  28.324  1.00  0.00     0.041 A 
ATOM     39  C   UNL A   1      40.794  27.167  26.299  1.00  0.00     0.041 A 
ATOM     40  C   UNL A   1      40.181  27.288  27.534  1.00  0.00     0.123 A 
ATOM     41  F   UNL A   1      39.773  28.488  27.968  1.00  0.00    -0.207 F 
ENDBRANCH  33  35
ENDBRANCH  30  31
ENDBRANCH  28  30
ENDBRANCH   9  23
ENDBRANCH   4   6
ENDBRANCH   3   4
ENDBRANCH   2   3
ENDBRANCH   1   2
BRANCH   1  42
ATOM     42  O   UNL A   1      33.651  28.808  26.422  1.00  0.00    -0.374 OA
BRANCH  42  43
ATOM     43  C   UNL A   1      33.287  30.119  26.038  1.00  0.00     0.202 C 
BRANCH  43  44
ATOM     44  C   UNL A   1      33.213  31.077  27.228  1.00  0.00     0.261 C 
BRANCH  44  45
ATOM     45  O   UNL A   1      34.535  31.270  27.765  1.00  0.00    -0.460 OA
BRANCH  45  46
ATOM     46  C   UNL A   1      34.677  32.392  28.542  1.00  0.00     0.338 C 
ATOM     47  O   UNL A   1      33.874  33.287  28.582  1.00  0.00    -0.246 OA
BRANCH  46  48
ATOM     48  C   UNL A   1      36.051  32.412  29.142  1.00  0.00     0.060 A 
ATOM     49  C   UNL A   1      36.376  31.528  30.184  1.00  0.00     0.016 A 
ATOM     50  C   UNL A   1      36.897  33.481  28.857  1.00  0.00     0.016 A 
ATOM     51  C   UNL A   1      37.457  31.803  31.037  1.00  0.00     0.010 A 
ATOM     52  C   UNL A   1      37.888  33.805  29.759  1.00  0.00     0.010 A 
ATOM     53  C   UNL A   1      38.157  32.989  30.873  1.00  0.00    -0.014 A 
BRANCH  53  54
ATOM     54  C   UNL A   1      39.204  33.526  31.743  1.00  0.00     0.031 A 
ATOM     55  C   UNL A   1      38.752  34.028  33.062  1.00  0.00     0.074 A 
ATOM     56  C   UNL A   1      40.495  33.145  31.580  1.00  0.00     0.049 A 
ATOM     57  N   UNL A   1      39.533  34.255  34.053  1.00  0.00    -0.248 NA
ATOM     58  C   UNL A   1      37.350  34.288  33.384  1.00  0.00     0.031 C 
ATOM     59  C   UNL A   1      41.471  32.883  32.638  1.00  0.00     0.029 A 
ATOM     60  N   UNL A   1      41.248  32.938  30.415  1.00  0.00    -0.354 N 
ATOM     61  C   UNL A   1      38.766  34.313  35.189  1.00  0.00     0.074 A 
ATOM     62  C   UNL A   1      37.415  34.450  34.711  1.00  0.00     0.031 C 
ATOM     63  C   UNL A   1      42.707  32.890  32.124  1.00  0.00     0.029 A 
ATOM     64  C   UNL A   1      42.579  33.253  30.731  1.00  0.00     0.049 A 
ATOM     65  H   UNL A   1      40.908  32.630  29.544  1.00  0.00     0.167 HD
ATOM     66  C   UNL A   1      39.397  34.108  36.377  1.00  0.00     0.034 A 
ATOM     67  C   UNL A   1      43.257  34.235  30.086  1.00  0.00     0.034 A 
ATOM     68  C   UNL A   1      40.867  34.177  36.186  1.00  0.00     0.049 A 
ATOM     69  C   UNL A   1      43.653  35.261  31.105  1.00  0.00     0.074 A 
ATOM     70  C   UNL A   1      41.901  33.258  36.231  1.00  0.00     0.029 A 
ATOM     71  N   UNL A   1      41.403  35.326  35.587  1.00  0.00    -0.354 N 
ATOM     72  N   UNL A   1      42.960  35.453  32.200  1.00  0.00    -0.248 NA
ATOM     73  C   UNL A   1      44.950  35.930  31.137  1.00  0.00     0.031 C 
ATOM     74  C   UNL A   1      43.021  33.828  35.541  1.00  0.00     0.029 A 
ATOM     75  C   UNL A   1      42.681  35.102  35.099  1.00  0.00     0.049 A 
ATOM     76  H   UNL A   1      40.930  36.186  35.522  1.00  0.00     0.167 HD
ATOM     77  C   UNL A   1      43.747  36.068  33.126  1.00  0.00     0.074 A 
ATOM     78  C   UNL A   1      44.959  36.414  32.393  1.00  0.00     0.031 C 
ATOM     79  C   UNL A   1      43.445  36.173  34.455  1.00  0.00     0.034 A 
BRANCH  66  80
ATOM     80  C   UNL A   1      38.725  33.725  37.691  1.00  0.00     0.023 A 
ATOM     81  C   UNL A   1      37.848  32.617  37.668  1.00  0.00     0.012 A 
ATOM     82  C   UNL A   1      38.823  34.402  38.937  1.00  0.00     0.148 A 
ATOM     83  C   UNL A   1      37.132  32.195  38.798  1.00  0.00     0.002 A 
ATOM     84  C   UNL A   1      38.157  33.945  40.082  1.00  0.00     0.091 A 
ATOM     85  F   UNL A   1      39.498  35.547  39.029  1.00  0.00    -0.205 F 
ATOM     86  C   UNL A   1      37.301  32.845  40.012  1.00  0.00     0.022 A 
BRANCH  84  87
ATOM     87  S   UNL A   1      38.355  34.713  41.705  1.00  0.00     0.127 S 
ATOM     88  O   UNL A   1      39.764  34.452  42.002  1.00  0.00    -0.237 OA
ATOM     89  O   UNL A   1      38.046  36.116  41.426  1.00  0.00    -0.237 OA
ATOM     90  O   UNL A   1      37.407  34.053  42.595  1.00  0.00    -0.744 OA
ENDBRANCH  84  87
ENDBRANCH  66  80
BRANCH  67  91
ATOM     91  C   UNL A   1      42.931  34.270  28.631  1.00  0.00     0.023 A 
ATOM     92  C   UNL A   1      42.295  35.478  28.220  1.00  0.00     0.012 A 
ATOM     93  C   UNL A   1      43.677  33.554  27.672  1.00  0.00     0.148 A 
ATOM     94  C   UNL A   1      42.541  36.045  26.968  1.00  0.00     0.002 A 
ATOM     95  C   UNL A   1      43.913  34.127  26.418  1.00  0.00     0.091 A 
ATOM     96  F   UNL A   1      44.215  32.380  28.029  1.00  0.00    -0.205 F 
ATOM     97  C   UNL A   1      43.385  35.389  26.085  1.00  0.00     0.022 A 
BRANCH  95  98
ATOM     98  S   UNL A   1      45.016  33.402  25.192  1.00  0.00     0.127 S 
ATOM     99  O   UNL A   1      44.145  33.323  24.022  1.00  0.00    -0.237 OA
ATOM    100  O   UNL A   1      46.071  34.412  25.094  1.00  0.00    -0.237 OA
ATOM    101  O   UNL A   1      45.445  32.127  25.744  1.00  0.00    -0.744 OA
ENDBRANCH  95  98
ENDBRANCH  67  91
BRANCH  79 102
ATOM    102  C   UNL A   1      43.871  37.383  35.250  1.00  0.00     0.023 A 
ATOM    103  C   UNL A   1      44.694  37.255  36.389  1.00  0.00     0.012 A 
ATOM    104  C   UNL A   1      43.669  38.690  34.748  1.00  0.00     0.148 A 
ATOM    105  C   UNL A   1      45.251  38.362  37.029  1.00  0.00     0.002 A 
ATOM    106  C   UNL A   1      44.335  39.771  35.308  1.00  0.00     0.091 A 
ATOM    107  F   UNL A   1      42.833  38.897  33.722  1.00  0.00    -0.205 F 
ATOM    108  C   UNL A   1      45.098  39.618  36.468  1.00  0.00     0.022 A 
BRANCH 106 109
ATOM    109  S   UNL A   1      44.406  41.355  34.461  1.00  0.00     0.127 S 
ATOM    110  O   UNL A   1      44.957  40.972  33.164  1.00  0.00    -0.237 OA
ATOM    111  O   UNL A   1      42.996  41.751  34.435  1.00  0.00    -0.237 OA
ATOM    112  O   UNL A   1      45.248  42.201  35.293  1.00  0.00    -0.744 OA
ENDBRANCH 106 109
ENDBRANCH  79 102
ENDBRANCH  53  54
ENDBRANCH  46  48
ENDBRANCH  45  46
ENDBRANCH  44  45
ENDBRANCH  43  44
ENDBRANCH  42  43
ENDBRANCH   1  42
TORSDOF 23
ENDMDL
