MODEL 1
REMARK VINA RESULT:     -10.2      0.000      0.000
REMARK SMILES CN1CC[N@H+](CC(=O)OCCOCCOC(=O)c2ccc(-c3c4nc(c(-c5cccc(S(=O)(=O)[O-])c5F)c5ccc([nH]5)c(-c5cccc(S(=O)(=O)[O-])c5F)c5nc(c(-c6cccc(S(=O)(=O)[O-])c6F)c6ccc3[nH]6)C=C5)C=C4)cc2)C(C)(C)C1=O
REMARK SMILES IDX 13 1 12 2 11 3 10 4 9 5 7 6 8 7 6 8 5 9 1 10 2 11 3 12 84 13
REMARK SMILES IDX 4 14 81 15 85 16 82 17 83 18 14 20 15 21 16 22 17 23 18 24
REMARK SMILES IDX 19 25 80 26 20 27 79 28 21 29 22 30 23 31 73 32 24 33 78 34
REMARK SMILES IDX 72 35 74 36 25 37 77 38 71 39 70 40 26 42 58 43 38 44 57 45
REMARK SMILES IDX 39 46 42 47 56 48 75 49 40 50 41 51 55 53 76 54 43 55 27 56
REMARK SMILES IDX 28 57 36 58 29 59 31 60 37 61 30 62 32 63 33 64 34 65 35 66
REMARK SMILES IDX 59 67 60 68 68 69 61 70 63 71 69 72 62 73 64 74 65 75 66 76
REMARK SMILES IDX 67 77 44 78 45 79 53 80 46 81 48 82 54 83 47 84 49 85 50 86
REMARK SMILES IDX 51 87 52 88
REMARK H PARENT 5 19 74 41 42 52
REMARK Flexibility Score: inf
ROOT
ATOM      1  C   UNL A   1      41.789  19.753  26.976  1.00  0.00     0.202 C 
ENDROOT
BRANCH   1   2
ATOM      2  O   UNL A   1      42.242  18.592  26.281  1.00  0.00    -0.374 OA
BRANCH   2   3
ATOM      3  C   UNL A   1      43.650  18.363  26.292  1.00  0.00     0.202 C 
BRANCH   3   4
ATOM      4  C   UNL A   1      44.430  18.890  25.084  1.00  0.00     0.261 C 
BRANCH   4   5
ATOM      5  O   UNL A   1      44.056  20.202  24.617  1.00  0.00    -0.459 OA
BRANCH   5   6
ATOM      6  C   UNL A   1      45.092  21.032  24.325  1.00  0.00     0.361 C 
ATOM      7  O   UNL A   1      46.265  20.791  24.603  1.00  0.00    -0.245 OA
BRANCH   6   8
ATOM      8  C   UNL A   1      44.664  22.389  23.784  1.00  0.00     0.387 C 
BRANCH   8   9
ATOM      9  N   UNL A   1      44.482  23.511  24.707  1.00  0.00    -0.312 N 
ATOM     10  C   UNL A   1      44.894  23.797  28.997  1.00  0.00     0.147 C 
ATOM     11  N   UNL A   1      44.768  23.723  27.556  1.00  0.00    -0.335 N 
ATOM     12  C   UNL A   1      43.583  23.092  27.003  1.00  0.00     0.180 C 
ATOM     13  C   UNL A   1      45.902  23.903  26.758  1.00  0.00     0.283 C 
ATOM     14  C   UNL A   1      43.297  23.479  25.554  1.00  0.00     0.285 C 
ATOM     15  C   UNL A   1      45.637  24.252  25.263  1.00  0.00     0.172 C 
ATOM     16  O   UNL A   1      47.029  23.977  27.248  1.00  0.00    -0.268 OA
ATOM     17  C   UNL A   1      45.286  25.763  25.287  1.00  0.00     0.090 C 
ATOM     18  C   UNL A   1      46.926  24.134  24.424  1.00  0.00     0.090 C 
ATOM     19  H   UNL A   1      44.274  24.172  23.958  1.00  0.00     0.349 HD
ENDBRANCH   8   9
ENDBRANCH   6   8
ENDBRANCH   5   6
ENDBRANCH   4   5
ENDBRANCH   3   4
ENDBRANCH   2   3
ENDBRANCH   1   2
BRANCH   1  20
ATOM     20  C   UNL A   1      40.830  20.645  26.185  1.00  0.00     0.261 C 
BRANCH  20  21
ATOM     21  O   UNL A   1      40.401  21.765  26.977  1.00  0.00    -0.460 OA
BRANCH  21  22
ATOM     22  C   UNL A   1      39.440  22.520  26.394  1.00  0.00     0.338 C 
ATOM     23  O   UNL A   1      38.585  22.134  25.616  1.00  0.00    -0.246 OA
BRANCH  22  24
ATOM     24  C   UNL A   1      39.467  23.895  26.926  1.00  0.00     0.060 A 
ATOM     25  C   UNL A   1      39.874  24.918  26.067  1.00  0.00     0.016 A 
ATOM     26  C   UNL A   1      39.230  24.162  28.274  1.00  0.00     0.016 A 
ATOM     27  C   UNL A   1      40.121  26.192  26.580  1.00  0.00     0.010 A 
ATOM     28  C   UNL A   1      39.440  25.447  28.780  1.00  0.00     0.010 A 
ATOM     29  C   UNL A   1      39.955  26.450  27.950  1.00  0.00    -0.014 A 
BRANCH  29  30
ATOM     30  C   UNL A   1      40.451  27.728  28.516  1.00  0.00     0.031 A 
ATOM     31  C   UNL A   1      41.933  28.002  28.543  1.00  0.00     0.074 A 
ATOM     32  C   UNL A   1      39.584  28.647  28.976  1.00  0.00     0.049 A 
ATOM     33  N   UNL A   1      42.561  29.118  28.817  1.00  0.00    -0.248 NA
ATOM     34  C   UNL A   1      42.829  26.875  28.233  1.00  0.00     0.031 C 
ATOM     35  C   UNL A   1      38.138  28.457  29.092  1.00  0.00     0.029 A 
ATOM     36  N   UNL A   1      39.796  29.920  29.440  1.00  0.00    -0.354 N 
ATOM     37  C   UNL A   1      43.918  28.825  28.720  1.00  0.00     0.074 A 
ATOM     38  C   UNL A   1      44.025  27.419  28.405  1.00  0.00     0.031 C 
ATOM     39  C   UNL A   1      37.592  29.577  29.596  1.00  0.00     0.029 A 
ATOM     40  C   UNL A   1      38.644  30.565  29.823  1.00  0.00     0.049 A 
ATOM     41  H   UNL A   1      40.689  30.332  29.495  1.00  0.00     0.167 HD
ATOM     42  C   UNL A   1      44.976  29.660  28.847  1.00  0.00     0.034 A 
ATOM     43  C   UNL A   1      38.461  31.819  30.279  1.00  0.00     0.034 A 
ATOM     44  C   UNL A   1      44.855  31.065  29.131  1.00  0.00     0.049 A 
ATOM     45  C   UNL A   1      39.641  32.753  30.332  1.00  0.00     0.074 A 
ATOM     46  C   UNL A   1      45.848  32.025  29.182  1.00  0.00     0.029 A 
ATOM     47  N   UNL A   1      43.661  31.706  29.423  1.00  0.00    -0.354 N 
ATOM     48  N   UNL A   1      40.895  32.518  30.026  1.00  0.00    -0.248 NA
ATOM     49  C   UNL A   1      39.374  34.141  30.736  1.00  0.00     0.031 C 
ATOM     50  C   UNL A   1      45.256  33.246  29.524  1.00  0.00     0.029 A 
ATOM     51  C   UNL A   1      43.892  33.048  29.668  1.00  0.00     0.049 A 
ATOM     52  H   UNL A   1      42.779  31.271  29.454  1.00  0.00     0.167 HD
ATOM     53  C   UNL A   1      41.560  33.729  30.173  1.00  0.00     0.074 A 
ATOM     54  C   UNL A   1      40.562  34.705  30.566  1.00  0.00     0.031 C 
ATOM     55  C   UNL A   1      42.877  34.011  30.015  1.00  0.00     0.034 A 
BRANCH  42  56
ATOM     56  C   UNL A   1      46.353  29.093  28.610  1.00  0.00     0.023 A 
ATOM     57  C   UNL A   1      47.133  28.693  29.716  1.00  0.00     0.012 A 
ATOM     58  C   UNL A   1      46.852  28.896  27.309  1.00  0.00     0.148 A 
ATOM     59  C   UNL A   1      48.399  28.137  29.532  1.00  0.00     0.002 A 
ATOM     60  C   UNL A   1      48.098  28.304  27.131  1.00  0.00     0.091 A 
ATOM     61  F   UNL A   1      46.107  29.300  26.270  1.00  0.00    -0.205 F 
ATOM     62  C   UNL A   1      48.876  27.933  28.241  1.00  0.00     0.022 A 
BRANCH  60  63
ATOM     63  S   UNL A   1      48.775  27.931  25.508  1.00  0.00     0.127 S 
ATOM     64  O   UNL A   1      49.935  28.820  25.461  1.00  0.00    -0.237 OA
ATOM     65  O   UNL A   1      49.102  26.510  25.629  1.00  0.00    -0.237 OA
ATOM     66  O   UNL A   1      47.718  28.231  24.554  1.00  0.00    -0.744 OA
ENDBRANCH  60  63
ENDBRANCH  42  56
BRANCH  43  67
ATOM     67  C   UNL A   1      37.086  32.288  30.609  1.00  0.00     0.023 A 
ATOM     68  C   UNL A   1      36.636  32.237  31.943  1.00  0.00     0.012 A 
ATOM     69  C   UNL A   1      36.243  32.832  29.620  1.00  0.00     0.148 A 
ATOM     70  C   UNL A   1      35.361  32.694  32.282  1.00  0.00     0.002 A 
ATOM     71  C   UNL A   1      34.995  33.334  29.974  1.00  0.00     0.091 A 
ATOM     72  F   UNL A   1      36.682  32.857  28.354  1.00  0.00    -0.205 F 
ATOM     73  C   UNL A   1      34.547  33.254  31.301  1.00  0.00     0.022 A 
BRANCH  71  74
ATOM     74  S   UNL A   1      33.941  34.192  28.798  1.00  0.00     0.127 S 
ATOM     75  O   UNL A   1      34.836  35.230  28.296  1.00  0.00    -0.237 OA
ATOM     76  O   UNL A   1      33.627  33.132  27.839  1.00  0.00    -0.237 OA
ATOM     77  O   UNL A   1      32.796  34.655  29.569  1.00  0.00    -0.744 OA
ENDBRANCH  71  74
ENDBRANCH  43  67
BRANCH  55  78
ATOM     78  C   UNL A   1      43.319  35.430  30.262  1.00  0.00     0.023 A 
ATOM     79  C   UNL A   1      43.951  35.757  31.477  1.00  0.00     0.012 A 
ATOM     80  C   UNL A   1      43.169  36.419  29.271  1.00  0.00     0.148 A 
ATOM     81  C   UNL A   1      44.394  37.056  31.718  1.00  0.00     0.002 A 
ATOM     82  C   UNL A   1      43.655  37.700  29.499  1.00  0.00     0.091 A 
ATOM     83  F   UNL A   1      42.549  36.094  28.127  1.00  0.00    -0.205 F 
ATOM     84  C   UNL A   1      44.256  38.025  30.726  1.00  0.00     0.022 A 
BRANCH  82  85
ATOM     85  S   UNL A   1      43.600  38.980  28.239  1.00  0.00     0.127 S 
ATOM     86  O   UNL A   1      44.338  40.065  28.882  1.00  0.00    -0.237 OA
ATOM     87  O   UNL A   1      44.299  38.348  27.118  1.00  0.00    -0.237 OA
ATOM     88  O   UNL A   1      42.186  39.234  27.995  1.00  0.00    -0.744 OA
ENDBRANCH  82  85
ENDBRANCH  55  78
ENDBRANCH  29  30
ENDBRANCH  22  24
ENDBRANCH  21  22
ENDBRANCH  20  21
ENDBRANCH   1  20
TORSDOF 18
ENDMDL
MODEL 2
REMARK VINA RESULT:      -9.8      4.089      6.705
REMARK SMILES CN1CC[N@H+](CC(=O)OCCOCCOC(=O)c2ccc(-c3c4nc(c(-c5cccc(S(=O)(=O)[O-])c5F)c5ccc([nH]5)c(-c5cccc(S(=O)(=O)[O-])c5F)c5nc(c(-c6cccc(S(=O)(=O)[O-])c6F)c6ccc3[nH]6)C=C5)C=C4)cc2)C(C)(C)C1=O
REMARK SMILES IDX 13 1 12 2 11 3 10 4 9 5 7 6 8 7 6 8 5 9 1 10 2 11 3 12 84 13
REMARK SMILES IDX 4 14 81 15 85 16 82 17 83 18 14 20 15 21 16 22 17 23 18 24
REMARK SMILES IDX 19 25 80 26 20 27 79 28 21 29 22 30 23 31 73 32 24 33 78 34
REMARK SMILES IDX 72 35 74 36 25 37 77 38 71 39 70 40 26 42 58 43 38 44 57 45
REMARK SMILES IDX 39 46 42 47 56 48 75 49 40 50 41 51 55 53 76 54 43 55 27 56
REMARK SMILES IDX 28 57 36 58 29 59 31 60 37 61 30 62 32 63 33 64 34 65 35 66
REMARK SMILES IDX 59 67 60 68 68 69 61 70 63 71 69 72 62 73 64 74 65 75 66 76
REMARK SMILES IDX 67 77 44 78 45 79 53 80 46 81 48 82 54 83 47 84 49 85 50 86
REMARK SMILES IDX 51 87 52 88
REMARK H PARENT 5 19 74 41 42 52
REMARK Flexibility Score: inf
ROOT
ATOM      1  C   UNL A   1      35.565  21.522  25.194  1.00  0.00     0.202 C 
ENDROOT
BRANCH   1   2
ATOM      2  O   UNL A   1      35.128  21.578  26.551  1.00  0.00    -0.374 OA
BRANCH   2   3
ATOM      3  C   UNL A   1      34.251  22.653  26.884  1.00  0.00     0.202 C 
BRANCH   3   4
ATOM      4  C   UNL A   1      32.904  22.259  27.497  1.00  0.00     0.261 C 
BRANCH   4   5
ATOM      5  O   UNL A   1      31.943  23.325  27.640  1.00  0.00    -0.459 OA
BRANCH   5   6
ATOM      6  C   UNL A   1      31.140  23.530  26.562  1.00  0.00     0.361 C 
ATOM      7  O   UNL A   1      30.676  22.629  25.869  1.00  0.00    -0.245 OA
BRANCH   6   8
ATOM      8  C   UNL A   1      31.006  24.993  26.162  1.00  0.00     0.387 C 
BRANCH   8   9
ATOM      9  N   UNL A   1      31.339  25.402  24.796  1.00  0.00    -0.312 N 
ATOM     10  C   UNL A   1      30.609  29.073  22.639  1.00  0.00     0.147 C 
ATOM     11  N   UNL A   1      30.876  27.841  23.353  1.00  0.00    -0.335 N 
ATOM     12  C   UNL A   1      29.783  26.905  23.541  1.00  0.00     0.180 C 
ATOM     13  C   UNL A   1      32.025  27.744  24.145  1.00  0.00     0.283 C 
ATOM     14  C   UNL A   1      30.236  25.480  23.847  1.00  0.00     0.285 C 
ATOM     15  C   UNL A   1      32.481  26.300  24.512  1.00  0.00     0.172 C 
ATOM     16  O   UNL A   1      32.737  28.722  24.369  1.00  0.00    -0.268 OA
ATOM     17  C   UNL A   1      33.196  25.796  23.231  1.00  0.00     0.090 C 
ATOM     18  C   UNL A   1      33.560  26.317  25.615  1.00  0.00     0.090 C 
ATOM     19  H   UNL A   1      31.827  24.530  24.589  1.00  0.00     0.349 HD
ENDBRANCH   8   9
ENDBRANCH   6   8
ENDBRANCH   5   6
ENDBRANCH   4   5
ENDBRANCH   3   4
ENDBRANCH   2   3
ENDBRANCH   1   2
BRANCH   1  20
ATOM     20  C   UNL A   1      36.833  20.699  24.959  1.00  0.00     0.261 C 
BRANCH  20  21
ATOM     21  O   UNL A   1      37.990  21.549  24.885  1.00  0.00    -0.460 OA
BRANCH  21  22
ATOM     22  C   UNL A   1      38.993  21.195  25.721  1.00  0.00     0.338 C 
ATOM     23  O   UNL A   1      39.561  20.117  25.758  1.00  0.00    -0.246 OA
BRANCH  22  24
ATOM     24  C   UNL A   1      39.425  22.348  26.532  1.00  0.00     0.060 A 
ATOM     25  C   UNL A   1      38.888  23.600  26.222  1.00  0.00     0.016 A 
ATOM     26  C   UNL A   1      40.435  22.234  27.486  1.00  0.00     0.016 A 
ATOM     27  C   UNL A   1      39.423  24.745  26.812  1.00  0.00     0.010 A 
ATOM     28  C   UNL A   1      40.944  23.378  28.107  1.00  0.00     0.010 A 
ATOM     29  C   UNL A   1      40.489  24.645  27.720  1.00  0.00    -0.014 A 
BRANCH  29  30
ATOM     30  C   UNL A   1      41.201  25.873  28.147  1.00  0.00     0.031 A 
ATOM     31  C   UNL A   1      42.626  26.095  27.710  1.00  0.00     0.074 A 
ATOM     32  C   UNL A   1      40.572  26.795  28.896  1.00  0.00     0.049 A 
ATOM     33  N   UNL A   1      43.362  27.173  27.812  1.00  0.00    -0.248 NA
ATOM     34  C   UNL A   1      43.322  24.956  27.086  1.00  0.00     0.031 C 
ATOM     35  C   UNL A   1      39.230  26.649  29.461  1.00  0.00     0.029 A 
ATOM     36  N   UNL A   1      40.982  28.034  29.317  1.00  0.00    -0.354 N 
ATOM     37  C   UNL A   1      44.602  26.840  27.276  1.00  0.00     0.074 A 
ATOM     38  C   UNL A   1      44.535  25.450  26.887  1.00  0.00     0.031 C 
ATOM     39  C   UNL A   1      38.927  27.758  30.156  1.00  0.00     0.029 A 
ATOM     40  C   UNL A   1      40.044  28.696  30.074  1.00  0.00     0.049 A 
ATOM     41  H   UNL A   1      41.864  28.412  29.100  1.00  0.00     0.167 HD
ATOM     42  C   UNL A   1      45.685  27.631  27.090  1.00  0.00     0.034 A 
ATOM     43  C   UNL A   1      40.076  29.930  30.613  1.00  0.00     0.034 A 
ATOM     44  C   UNL A   1      45.729  29.022  27.452  1.00  0.00     0.049 A 
ATOM     45  C   UNL A   1      41.257  30.819  30.323  1.00  0.00     0.074 A 
ATOM     46  C   UNL A   1      46.733  29.945  27.221  1.00  0.00     0.029 A 
ATOM     47  N   UNL A   1      44.723  29.687  28.136  1.00  0.00    -0.354 N 
ATOM     48  N   UNL A   1      42.335  30.559  29.623  1.00  0.00    -0.248 NA
ATOM     49  C   UNL A   1      41.200  32.192  30.846  1.00  0.00     0.031 C 
ATOM     50  C   UNL A   1      46.341  31.165  27.782  1.00  0.00     0.029 A 
ATOM     51  C   UNL A   1      45.085  31.006  28.347  1.00  0.00     0.049 A 
ATOM     52  H   UNL A   1      43.877  29.281  28.430  1.00  0.00     0.167 HD
ATOM     53  C   UNL A   1      43.071  31.738  29.598  1.00  0.00     0.074 A 
ATOM     54  C   UNL A   1      42.299  32.724  30.327  1.00  0.00     0.031 C 
ATOM     55  C   UNL A   1      44.282  31.982  29.038  1.00  0.00     0.034 A 
BRANCH  42  56
ATOM     56  C   UNL A   1      46.886  27.031  26.403  1.00  0.00     0.023 A 
ATOM     57  C   UNL A   1      46.987  27.109  24.998  1.00  0.00     0.012 A 
ATOM     58  C   UNL A   1      47.938  26.451  27.138  1.00  0.00     0.148 A 
ATOM     59  C   UNL A   1      48.098  26.592  24.333  1.00  0.00     0.002 A 
ATOM     60  C   UNL A   1      49.061  25.973  26.471  1.00  0.00     0.091 A 
ATOM     61  F   UNL A   1      47.817  26.366  28.470  1.00  0.00    -0.205 F 
ATOM     62  C   UNL A   1      49.139  26.034  25.070  1.00  0.00     0.022 A 
BRANCH  60  63
ATOM     63  S   UNL A   1      50.490  25.300  27.332  1.00  0.00     0.127 S 
ATOM     64  O   UNL A   1      50.874  26.423  28.186  1.00  0.00    -0.237 OA
ATOM     65  O   UNL A   1      49.912  24.162  28.047  1.00  0.00    -0.237 OA
ATOM     66  O   UNL A   1      51.449  24.943  26.297  1.00  0.00    -0.744 OA
ENDBRANCH  60  63
ENDBRANCH  42  56
BRANCH  43  67
ATOM     67  C   UNL A   1      38.903  30.427  31.384  1.00  0.00     0.023 A 
ATOM     68  C   UNL A   1      38.815  30.162  32.765  1.00  0.00     0.012 A 
ATOM     69  C   UNL A   1      37.901  31.204  30.769  1.00  0.00     0.148 A 
ATOM     70  C   UNL A   1      37.738  30.638  33.514  1.00  0.00     0.002 A 
ATOM     71  C   UNL A   1      36.859  31.720  31.532  1.00  0.00     0.091 A 
ATOM     72  F   UNL A   1      37.993  31.432  29.451  1.00  0.00    -0.205 F 
ATOM     73  C   UNL A   1      36.768  31.428  32.901  1.00  0.00     0.022 A 
BRANCH  71  74
ATOM     74  S   UNL A   1      35.644  32.855  30.849  1.00  0.00     0.127 S 
ATOM     75  O   UNL A   1      34.826  31.962  30.033  1.00  0.00    -0.237 OA
ATOM     76  O   UNL A   1      34.988  33.362  32.055  1.00  0.00    -0.237 OA
ATOM     77  O   UNL A   1      36.413  33.857  30.124  1.00  0.00    -0.744 OA
ENDBRANCH  71  74
ENDBRANCH  43  67
BRANCH  55  78
ATOM     78  C   UNL A   1      44.847  33.371  29.186  1.00  0.00     0.023 A 
ATOM     79  C   UNL A   1      45.652  33.676  30.301  1.00  0.00     0.012 A 
ATOM     80  C   UNL A   1      44.640  34.348  28.194  1.00  0.00     0.148 A 
ATOM     81  C   UNL A   1      46.210  34.944  30.447  1.00  0.00     0.002 A 
ATOM     82  C   UNL A   1      45.237  35.596  28.323  1.00  0.00     0.091 A 
ATOM     83  F   UNL A   1      43.856  34.047  27.148  1.00  0.00    -0.205 F 
ATOM     84  C   UNL A   1      46.012  35.901  29.453  1.00  0.00     0.022 A 
BRANCH  82  85
ATOM     85  S   UNL A   1      45.109  36.852  27.043  1.00  0.00     0.127 S 
ATOM     86  O   UNL A   1      45.926  36.277  25.977  1.00  0.00    -0.237 OA
ATOM     87  O   UNL A   1      43.672  36.874  26.766  1.00  0.00    -0.237 OA
ATOM     88  O   UNL A   1      45.621  38.078  27.641  1.00  0.00    -0.744 OA
ENDBRANCH  82  85
ENDBRANCH  55  78
ENDBRANCH  29  30
ENDBRANCH  22  24
ENDBRANCH  21  22
ENDBRANCH  20  21
ENDBRANCH   1  20
TORSDOF 18
ENDMDL
MODEL 3
REMARK VINA RESULT:      -9.8      5.773     11.431
REMARK SMILES CN1CC[N@H+](CC(=O)OCCOCCOC(=O)c2ccc(-c3c4nc(c(-c5cccc(S(=O)(=O)[O-])c5F)c5ccc([nH]5)c(-c5cccc(S(=O)(=O)[O-])c5F)c5nc(c(-c6cccc(S(=O)(=O)[O-])c6F)c6ccc3[nH]6)C=C5)C=C4)cc2)C(C)(C)C1=O
REMARK SMILES IDX 13 1 12 2 11 3 10 4 9 5 7 6 8 7 6 8 5 9 1 10 2 11 3 12 84 13
REMARK SMILES IDX 4 14 81 15 85 16 82 17 83 18 14 20 15 21 16 22 17 23 18 24
REMARK SMILES IDX 19 25 80 26 20 27 79 28 21 29 22 30 23 31 73 32 24 33 78 34
REMARK SMILES IDX 72 35 74 36 25 37 77 38 71 39 70 40 26 42 58 43 38 44 57 45
REMARK SMILES IDX 39 46 42 47 56 48 75 49 40 50 41 51 55 53 76 54 43 55 27 56
REMARK SMILES IDX 28 57 36 58 29 59 31 60 37 61 30 62 32 63 33 64 34 65 35 66
REMARK SMILES IDX 59 67 60 68 68 69 61 70 63 71 69 72 62 73 64 74 65 75 66 76
REMARK SMILES IDX 67 77 44 78 45 79 53 80 46 81 48 82 54 83 47 84 49 85 50 86
REMARK SMILES IDX 51 87 52 88
REMARK H PARENT 5 19 74 41 42 52
REMARK Flexibility Score: inf
ROOT
ATOM      1  C   UNL A   1      31.585  29.657  25.134  1.00  0.00     0.202 C 
ENDROOT
BRANCH   1   2
ATOM      2  O   UNL A   1      31.434  28.349  25.685  1.00  0.00    -0.374 OA
BRANCH   2   3
ATOM      3  C   UNL A   1      30.943  27.346  24.797  1.00  0.00     0.202 C 
BRANCH   3   4
ATOM      4  C   UNL A   1      30.849  25.928  25.366  1.00  0.00     0.261 C 
BRANCH   4   5
ATOM      5  O   UNL A   1      31.853  25.572  26.338  1.00  0.00    -0.459 OA
BRANCH   5   6
ATOM      6  C   UNL A   1      32.146  24.246  26.411  1.00  0.00     0.361 C 
ATOM      7  O   UNL A   1      31.304  23.362  26.550  1.00  0.00    -0.245 OA
BRANCH   6   8
ATOM      8  C   UNL A   1      33.637  23.946  26.493  1.00  0.00     0.387 C 
BRANCH   8   9
ATOM      9  N   UNL A   1      34.219  22.930  25.616  1.00  0.00    -0.312 N 
ATOM     10  C   UNL A   1      32.413  19.797  23.253  1.00  0.00     0.147 C 
ATOM     11  N   UNL A   1      33.035  20.853  24.026  1.00  0.00    -0.335 N 
ATOM     12  C   UNL A   1      33.157  20.671  25.461  1.00  0.00     0.180 C 
ATOM     13  C   UNL A   1      33.155  22.131  23.470  1.00  0.00     0.283 C 
ATOM     14  C   UNL A   1      34.217  21.559  26.108  1.00  0.00     0.285 C 
ATOM     15  C   UNL A   1      34.197  23.073  24.142  1.00  0.00     0.172 C 
ATOM     16  O   UNL A   1      32.618  22.420  22.401  1.00  0.00    -0.268 OA
ATOM     17  C   UNL A   1      35.560  22.586  23.581  1.00  0.00     0.090 C 
ATOM     18  C   UNL A   1      34.037  24.527  23.652  1.00  0.00     0.090 C 
ATOM     19  H   UNL A   1      35.171  23.274  25.748  1.00  0.00     0.349 HD
ENDBRANCH   8   9
ENDBRANCH   6   8
ENDBRANCH   5   6
ENDBRANCH   4   5
ENDBRANCH   3   4
ENDBRANCH   2   3
ENDBRANCH   1   2
BRANCH   1  20
ATOM     20  C   UNL A   1      31.591  30.791  26.160  1.00  0.00     0.261 C 
BRANCH  20  21
ATOM     21  O   UNL A   1      32.589  30.564  27.170  1.00  0.00    -0.460 OA
BRANCH  21  22
ATOM     22  C   UNL A   1      33.294  31.667  27.511  1.00  0.00     0.338 C 
ATOM     23  O   UNL A   1      32.849  32.788  27.686  1.00  0.00    -0.246 OA
BRANCH  22  24
ATOM     24  C   UNL A   1      34.702  31.321  27.780  1.00  0.00     0.060 A 
ATOM     25  C   UNL A   1      35.007  29.980  28.025  1.00  0.00     0.016 A 
ATOM     26  C   UNL A   1      35.681  32.302  27.925  1.00  0.00     0.016 A 
ATOM     27  C   UNL A   1      36.275  29.636  28.493  1.00  0.00     0.010 A 
ATOM     28  C   UNL A   1      36.963  31.952  28.358  1.00  0.00     0.010 A 
ATOM     29  C   UNL A   1      37.245  30.627  28.712  1.00  0.00    -0.014 A 
BRANCH  29  30
ATOM     30  C   UNL A   1      38.492  30.280  29.434  1.00  0.00     0.031 A 
ATOM     31  C   UNL A   1      38.687  30.757  30.851  1.00  0.00     0.074 A 
ATOM     32  C   UNL A   1      39.431  29.522  28.840  1.00  0.00     0.049 A 
ATOM     33  N   UNL A   1      39.605  30.414  31.718  1.00  0.00    -0.248 NA
ATOM     34  C   UNL A   1      37.733  31.758  31.358  1.00  0.00     0.031 C 
ATOM     35  C   UNL A   1      39.400  29.083  27.445  1.00  0.00     0.029 A 
ATOM     36  N   UNL A   1      40.596  28.995  29.335  1.00  0.00    -0.354 N 
ATOM     37  C   UNL A   1      39.346  31.159  32.864  1.00  0.00     0.074 A 
ATOM     38  C   UNL A   1      38.210  32.004  32.570  1.00  0.00     0.031 C 
ATOM     39  C   UNL A   1      40.500  28.352  27.195  1.00  0.00     0.029 A 
ATOM     40  C   UNL A   1      41.301  28.258  28.413  1.00  0.00     0.049 A 
ATOM     41  H   UNL A   1      40.900  29.133  30.261  1.00  0.00     0.167 HD
ATOM     42  C   UNL A   1      39.972  31.117  34.062  1.00  0.00     0.034 A 
ATOM     43  C   UNL A   1      42.449  27.565  28.548  1.00  0.00     0.034 A 
ATOM     44  C   UNL A   1      41.082  30.250  34.353  1.00  0.00     0.049 A 
ATOM     45  C   UNL A   1      43.081  27.466  29.911  1.00  0.00     0.074 A 
ATOM     46  C   UNL A   1      41.730  30.049  35.558  1.00  0.00     0.029 A 
ATOM     47  N   UNL A   1      41.715  29.445  33.418  1.00  0.00    -0.354 N 
ATOM     48  N   UNL A   1      42.696  28.007  31.043  1.00  0.00    -0.248 NA
ATOM     49  C   UNL A   1      44.274  26.615  30.031  1.00  0.00     0.031 C 
ATOM     50  C   UNL A   1      42.769  29.134  35.347  1.00  0.00     0.029 A 
ATOM     51  C   UNL A   1      42.755  28.754  34.014  1.00  0.00     0.049 A 
ATOM     52  H   UNL A   1      41.463  29.377  32.469  1.00  0.00     0.167 HD
ATOM     53  C   UNL A   1      43.577  27.542  32.011  1.00  0.00     0.074 A 
ATOM     54  C   UNL A   1      44.499  26.649  31.337  1.00  0.00     0.031 C 
ATOM     55  C   UNL A   1      43.633  27.836  33.334  1.00  0.00     0.034 A 
BRANCH  42  56
ATOM     56  C   UNL A   1      39.430  31.982  35.172  1.00  0.00     0.023 A 
ATOM     57  C   UNL A   1      38.462  31.451  36.050  1.00  0.00     0.012 A 
ATOM     58  C   UNL A   1      39.913  33.287  35.389  1.00  0.00     0.148 A 
ATOM     59  C   UNL A   1      37.961  32.212  37.105  1.00  0.00     0.002 A 
ATOM     60  C   UNL A   1      39.438  34.027  36.467  1.00  0.00     0.091 A 
ATOM     61  F   UNL A   1      40.817  33.785  34.533  1.00  0.00    -0.205 F 
ATOM     62  C   UNL A   1      38.456  33.495  37.319  1.00  0.00     0.022 A 
BRANCH  60  63
ATOM     63  S   UNL A   1      40.063  35.663  36.874  1.00  0.00     0.127 S 
ATOM     64  O   UNL A   1      39.381  35.932  38.139  1.00  0.00    -0.237 OA
ATOM     65  O   UNL A   1      41.501  35.422  36.998  1.00  0.00    -0.237 OA
ATOM     66  O   UNL A   1      39.686  36.524  35.764  1.00  0.00    -0.744 OA
ENDBRANCH  60  63
ENDBRANCH  42  56
BRANCH  43  67
ATOM     67  C   UNL A   1      43.001  26.823  27.381  1.00  0.00     0.023 A 
ATOM     68  C   UNL A   1      43.938  27.451  26.537  1.00  0.00     0.012 A 
ATOM     69  C   UNL A   1      42.646  25.482  27.134  1.00  0.00     0.148 A 
ATOM     70  C   UNL A   1      44.489  26.768  25.452  1.00  0.00     0.002 A 
ATOM     71  C   UNL A   1      43.239  24.791  26.083  1.00  0.00     0.091 A 
ATOM     72  F   UNL A   1      41.741  24.905  27.938  1.00  0.00    -0.205 F 
ATOM     73  C   UNL A   1      44.150  25.435  25.233  1.00  0.00     0.022 A 
BRANCH  71  74
ATOM     74  S   UNL A   1      42.961  23.036  25.814  1.00  0.00     0.127 S 
ATOM     75  O   UNL A   1      43.299  22.892  24.401  1.00  0.00    -0.237 OA
ATOM     76  O   UNL A   1      43.917  22.429  26.742  1.00  0.00    -0.237 OA
ATOM     77  O   UNL A   1      41.566  22.806  26.163  1.00  0.00    -0.744 OA
ENDBRANCH  71  74
ENDBRANCH  43  67
BRANCH  55  78
ATOM     78  C   UNL A   1      44.723  27.185  34.145  1.00  0.00     0.023 A 
ATOM     79  C   UNL A   1      46.026  27.720  34.110  1.00  0.00     0.012 A 
ATOM     80  C   UNL A   1      44.446  26.092  34.987  1.00  0.00     0.148 A 
ATOM     81  C   UNL A   1      47.045  27.153  34.872  1.00  0.00     0.002 A 
ATOM     82  C   UNL A   1      45.456  25.560  35.779  1.00  0.00     0.091 A 
ATOM     83  F   UNL A   1      43.205  25.583  34.993  1.00  0.00    -0.205 F 
ATOM     84  C   UNL A   1      46.759  26.081  35.715  1.00  0.00     0.022 A 
BRANCH  82  85
ATOM     85  S   UNL A   1      45.149  24.241  36.959  1.00  0.00     0.127 S 
ATOM     86  O   UNL A   1      44.785  23.131  36.080  1.00  0.00    -0.237 OA
ATOM     87  O   UNL A   1      46.448  24.097  37.617  1.00  0.00    -0.237 OA
ATOM     88  O   UNL A   1      44.088  24.730  37.831  1.00  0.00    -0.744 OA
ENDBRANCH  82  85
ENDBRANCH  55  78
ENDBRANCH  29  30
ENDBRANCH  22  24
ENDBRANCH  21  22
ENDBRANCH  20  21
ENDBRANCH   1  20
TORSDOF 18
ENDMDL
