MODEL 1
REMARK VINA RESULT:      -9.9      0.000      0.000
REMARK SMILES CN(Cc1ccccc1Br)C(=O)N[C@H]1C=C[C@H](C(=O)OCCOCCOC(=O)c2ccc(-c3c4nc(c(-c5cccc(S(=O)(=O)[O-])c5F)c5ccc([nH]5)c(-c5cccc(S(=O)(=O)[O-])c5F)c5nc(c(-c6cccc(S(=O)(=O)[O-])c6F)c6ccc3[nH]6)C=C5)C=C4)cc2)C1
REMARK SMILES IDX 22 1 21 2 20 3 18 4 19 5 17 6 14 7 15 8 92 9 16 10 13 11
REMARK SMILES IDX 11 12 12 13 2 15 1 16 3 17 4 18 5 19 9 20 6 21 8 22 10 23
REMARK SMILES IDX 7 24 23 25 24 26 25 27 26 28 27 29 28 30 29 31 30 32 91 33
REMARK SMILES IDX 31 34 90 35 32 36 33 37 34 38 84 39 35 40 89 41 83 42 85 43
REMARK SMILES IDX 36 44 88 45 82 46 81 47 37 49 69 50 49 51 68 52 50 53 53 54
REMARK SMILES IDX 67 55 86 56 51 57 52 58 66 60 87 61 54 62 38 63 39 64 47 65
REMARK SMILES IDX 40 66 42 67 48 68 41 69 43 70 44 71 45 72 46 73 70 74 71 75
REMARK SMILES IDX 79 76 72 77 74 78 80 79 73 80 75 81 76 82 77 83 78 84 55 85
REMARK SMILES IDX 56 86 64 87 57 88 59 89 65 90 58 91 60 92 61 93 62 94 63 95
REMARK H PARENT 13 14 85 48 53 59
REMARK Flexibility Score: inf
ROOT
ATOM      1  C   UNL A   1      34.485  32.395  28.717  1.00  0.00     0.202 C 
ENDROOT
BRANCH   1   2
ATOM      2  C   UNL A   1      34.073  31.607  27.471  1.00  0.00     0.261 C 
BRANCH   2   3
ATOM      3  O   UNL A   1      33.690  30.268  27.792  1.00  0.00    -0.463 OA
BRANCH   3   4
ATOM      4  C   UNL A   1      34.468  29.294  27.236  1.00  0.00     0.312 C 
ATOM      5  O   UNL A   1      35.607  29.006  27.575  1.00  0.00    -0.252 OA
BRANCH   4   6
ATOM      6  C   UNL A   1      33.680  28.586  26.155  1.00  0.00     0.124 C 
ATOM      7  C   UNL A   1      31.405  29.017  25.341  1.00  0.00     0.107 C 
ATOM      8  C   UNL A   1      31.442  27.889  26.302  1.00  0.00    -0.006 C 
ATOM      9  C   UNL A   1      32.840  29.551  25.314  1.00  0.00     0.048 C 
ATOM     10  C   UNL A   1      32.675  27.660  26.762  1.00  0.00    -0.014 C 
BRANCH   7  11
ATOM     11  N   UNL A   1      30.953  28.688  24.005  1.00  0.00    -0.332 N 
ATOM     12  C   UNL A   1      30.569  27.508  23.480  1.00  0.00     0.317 C 
ATOM     13  O   UNL A   1      29.379  27.416  23.162  1.00  0.00    -0.249 OA
ATOM     14  H   UNL A   1      30.920  29.448  23.381  1.00  0.00     0.165 HD
BRANCH  12  15
ATOM     15  N   UNL A   1      31.493  26.544  23.169  1.00  0.00    -0.324 N 
ATOM     16  C   UNL A   1      32.646  26.980  22.396  1.00  0.00     0.149 C 
BRANCH  15  17
ATOM     17  C   UNL A   1      31.450  25.098  23.391  1.00  0.00     0.157 C 
BRANCH  17  18
ATOM     18  C   UNL A   1      31.991  24.388  24.614  1.00  0.00    -0.014 A 
ATOM     19  C   UNL A   1      30.996  24.103  25.590  1.00  0.00     0.007 A 
ATOM     20  C   UNL A   1      33.287  23.941  24.892  1.00  0.00     0.022 A 
ATOM     21  C   UNL A   1      31.297  23.529  26.827  1.00  0.00     0.000 A 
ATOM     22  C   UNL A   1      33.596  23.405  26.159  1.00  0.00     0.016 A 
ATOM     23  Br  UNL A   1      34.705  23.890  23.633  1.00  0.00    -0.050 Br
ATOM     24  C   UNL A   1      32.611  23.216  27.127  1.00  0.00     0.001 A 
ENDBRANCH  17  18
ENDBRANCH  15  17
ENDBRANCH  12  15
ENDBRANCH   7  11
ENDBRANCH   4   6
ENDBRANCH   3   4
ENDBRANCH   2   3
ENDBRANCH   1   2
BRANCH   1  25
ATOM     25  O   UNL A   1      34.506  33.818  28.590  1.00  0.00    -0.374 OA
BRANCH  25  26
ATOM     26  C   UNL A   1      33.233  34.464  28.617  1.00  0.00     0.202 C 
BRANCH  26  27
ATOM     27  C   UNL A   1      33.059  35.591  29.638  1.00  0.00     0.261 C 
BRANCH  27  28
ATOM     28  O   UNL A   1      32.642  35.077  30.908  1.00  0.00    -0.460 OA
BRANCH  28  29
ATOM     29  C   UNL A   1      33.478  35.388  31.927  1.00  0.00     0.338 C 
ATOM     30  O   UNL A   1      33.265  36.153  32.849  1.00  0.00    -0.246 OA
BRANCH  29  31
ATOM     31  C   UNL A   1      34.647  34.494  31.879  1.00  0.00     0.060 A 
ATOM     32  C   UNL A   1      34.463  33.181  32.334  1.00  0.00     0.016 A 
ATOM     33  C   UNL A   1      35.898  34.933  31.443  1.00  0.00     0.016 A 
ATOM     34  C   UNL A   1      35.548  32.322  32.422  1.00  0.00     0.010 A 
ATOM     35  C   UNL A   1      36.990  34.071  31.541  1.00  0.00     0.010 A 
ATOM     36  C   UNL A   1      36.824  32.782  32.078  1.00  0.00    -0.014 A 
BRANCH  36  37
ATOM     37  C   UNL A   1      38.003  31.975  32.458  1.00  0.00     0.031 A 
ATOM     38  C   UNL A   1      38.677  32.267  33.769  1.00  0.00     0.074 A 
ATOM     39  C   UNL A   1      38.440  30.986  31.662  1.00  0.00     0.049 A 
ATOM     40  N   UNL A   1      39.729  31.704  34.302  1.00  0.00    -0.248 NA
ATOM     41  C   UNL A   1      38.090  33.342  34.589  1.00  0.00     0.031 C 
ATOM     42  C   UNL A   1      37.845  30.608  30.380  1.00  0.00     0.029 A 
ATOM     43  N   UNL A   1      39.501  30.131  31.809  1.00  0.00    -0.354 N 
ATOM     44  C   UNL A   1      39.949  32.374  35.499  1.00  0.00     0.074 A 
ATOM     45  C   UNL A   1      38.932  33.395  35.611  1.00  0.00     0.031 C 
ATOM     46  C   UNL A   1      38.569  29.611  29.843  1.00  0.00     0.029 A 
ATOM     47  C   UNL A   1      39.689  29.303  30.730  1.00  0.00     0.049 A 
ATOM     48  H   UNL A   1      40.072  30.112  32.611  1.00  0.00     0.167 HD
ATOM     49  C   UNL A   1      40.907  32.149  36.429  1.00  0.00     0.034 A 
ATOM     50  C   UNL A   1      40.672  28.416  30.479  1.00  0.00     0.034 A 
ATOM     51  C   UNL A   1      41.904  31.120  36.314  1.00  0.00     0.049 A 
ATOM     52  C   UNL A   1      41.744  28.206  31.515  1.00  0.00     0.074 A 
ATOM     53  C   UNL A   1      42.893  30.776  37.217  1.00  0.00     0.029 A 
ATOM     54  N   UNL A   1      42.049  30.279  35.220  1.00  0.00    -0.354 N 
ATOM     55  N   UNL A   1      41.880  28.773  32.691  1.00  0.00    -0.248 NA
ATOM     56  C   UNL A   1      42.781  27.212  31.205  1.00  0.00     0.031 C 
ATOM     57  C   UNL A   1      43.661  29.753  36.651  1.00  0.00     0.029 A 
ATOM     58  C   UNL A   1      43.122  29.429  35.415  1.00  0.00     0.049 A 
ATOM     59  H   UNL A   1      41.472  30.288  34.422  1.00  0.00     0.167 HD
ATOM     60  C   UNL A   1      42.992  28.176  33.277  1.00  0.00     0.074 A 
ATOM     61  C   UNL A   1      43.480  27.192  32.332  1.00  0.00     0.031 C 
ATOM     62  C   UNL A   1      43.563  28.424  34.482  1.00  0.00     0.034 A 
BRANCH  49  63
ATOM     63  C   UNL A   1      40.916  33.029  37.651  1.00  0.00     0.023 A 
ATOM     64  C   UNL A   1      40.111  32.702  38.762  1.00  0.00     0.012 A 
ATOM     65  C   UNL A   1      41.756  34.157  37.715  1.00  0.00     0.148 A 
ATOM     66  C   UNL A   1      40.116  33.503  39.903  1.00  0.00     0.002 A 
ATOM     67  C   UNL A   1      41.793  34.923  38.874  1.00  0.00     0.091 A 
ATOM     68  F   UNL A   1      42.495  34.467  36.640  1.00  0.00    -0.205 F 
ATOM     69  C   UNL A   1      40.965  34.607  39.963  1.00  0.00     0.022 A 
BRANCH  67  70
ATOM     70  S   UNL A   1      42.908  36.316  39.080  1.00  0.00     0.127 S 
ATOM     71  O   UNL A   1      42.541  37.157  37.940  1.00  0.00    -0.237 OA
ATOM     72  O   UNL A   1      42.502  36.845  40.382  1.00  0.00    -0.237 OA
ATOM     73  O   UNL A   1      44.254  35.764  39.039  1.00  0.00    -0.744 OA
ENDBRANCH  67  70
ENDBRANCH  49  63
BRANCH  50  74
ATOM     74  C   UNL A   1      40.672  27.643  29.205  1.00  0.00     0.023 A 
ATOM     75  C   UNL A   1      39.756  26.589  29.029  1.00  0.00     0.012 A 
ATOM     76  C   UNL A   1      41.562  27.963  28.161  1.00  0.00     0.148 A 
ATOM     77  C   UNL A   1      39.750  25.843  27.849  1.00  0.00     0.002 A 
ATOM     78  C   UNL A   1      41.511  27.255  26.967  1.00  0.00     0.091 A 
ATOM     79  F   UNL A   1      42.434  28.963  28.354  1.00  0.00    -0.205 F 
ATOM     80  C   UNL A   1      40.619  26.183  26.816  1.00  0.00     0.022 A 
BRANCH  78  81
ATOM     81  S   UNL A   1      42.500  27.707  25.537  1.00  0.00     0.127 S 
ATOM     82  O   UNL A   1      42.275  26.573  24.646  1.00  0.00    -0.237 OA
ATOM     83  O   UNL A   1      41.865  28.957  25.118  1.00  0.00    -0.237 OA
ATOM     84  O   UNL A   1      43.861  27.863  26.031  1.00  0.00    -0.744 OA
ENDBRANCH  78  81
ENDBRANCH  50  74
BRANCH  62  85
ATOM     85  C   UNL A   1      44.753  27.588  34.874  1.00  0.00     0.023 A 
ATOM     86  C   UNL A   1      46.058  28.048  34.612  1.00  0.00     0.012 A 
ATOM     87  C   UNL A   1      44.574  26.376  35.570  1.00  0.00     0.148 A 
ATOM     88  C   UNL A   1      47.166  27.296  35.002  1.00  0.00     0.002 A 
ATOM     89  C   UNL A   1      45.682  25.660  36.004  1.00  0.00     0.091 A 
ATOM     90  F   UNL A   1      43.324  25.947  35.796  1.00  0.00    -0.205 F 
ATOM     91  C   UNL A   1      46.979  26.111  35.708  1.00  0.00     0.022 A 
BRANCH  89  92
ATOM     92  S   UNL A   1      45.538  24.175  37.007  1.00  0.00     0.127 S 
ATOM     93  O   UNL A   1      44.894  23.250  36.076  1.00  0.00    -0.237 OA
ATOM     94  O   UNL A   1      46.938  23.867  37.304  1.00  0.00    -0.237 OA
ATOM     95  O   UNL A   1      44.741  24.549  38.168  1.00  0.00    -0.744 OA
ENDBRANCH  89  92
ENDBRANCH  62  85
ENDBRANCH  36  37
ENDBRANCH  29  31
ENDBRANCH  28  29
ENDBRANCH  27  28
ENDBRANCH  26  27
ENDBRANCH  25  26
ENDBRANCH   1  25
TORSDOF 21
ENDMDL
MODEL 2
REMARK VINA RESULT:      -9.4      1.902      2.234
REMARK SMILES CN(Cc1ccccc1Br)C(=O)N[C@H]1C=C[C@H](C(=O)OCCOCCOC(=O)c2ccc(-c3c4nc(c(-c5cccc(S(=O)(=O)[O-])c5F)c5ccc([nH]5)c(-c5cccc(S(=O)(=O)[O-])c5F)c5nc(c(-c6cccc(S(=O)(=O)[O-])c6F)c6ccc3[nH]6)C=C5)C=C4)cc2)C1
REMARK SMILES IDX 22 1 21 2 20 3 18 4 19 5 17 6 14 7 15 8 92 9 16 10 13 11
REMARK SMILES IDX 11 12 12 13 2 15 1 16 3 17 4 18 5 19 9 20 6 21 8 22 10 23
REMARK SMILES IDX 7 24 23 25 24 26 25 27 26 28 27 29 28 30 29 31 30 32 91 33
REMARK SMILES IDX 31 34 90 35 32 36 33 37 34 38 84 39 35 40 89 41 83 42 85 43
REMARK SMILES IDX 36 44 88 45 82 46 81 47 37 49 69 50 49 51 68 52 50 53 53 54
REMARK SMILES IDX 67 55 86 56 51 57 52 58 66 60 87 61 54 62 38 63 39 64 47 65
REMARK SMILES IDX 40 66 42 67 48 68 41 69 43 70 44 71 45 72 46 73 70 74 71 75
REMARK SMILES IDX 79 76 72 77 74 78 80 79 73 80 75 81 76 82 77 83 78 84 55 85
REMARK SMILES IDX 56 86 64 87 57 88 59 89 65 90 58 91 60 92 61 93 62 94 63 95
REMARK H PARENT 13 14 85 48 53 59
REMARK Flexibility Score: inf
ROOT
ATOM      1  C   UNL A   1      34.394  32.505  28.589  1.00  0.00     0.202 C 
ENDROOT
BRANCH   1   2
ATOM      2  C   UNL A   1      33.758  31.813  27.382  1.00  0.00     0.261 C 
BRANCH   2   3
ATOM      3  O   UNL A   1      33.513  30.427  27.631  1.00  0.00    -0.463 OA
BRANCH   3   4
ATOM      4  C   UNL A   1      34.426  29.570  27.089  1.00  0.00     0.312 C 
ATOM      5  O   UNL A   1      35.583  29.428  27.459  1.00  0.00    -0.252 OA
BRANCH   4   6
ATOM      6  C   UNL A   1      33.769  28.782  25.976  1.00  0.00     0.124 C 
ATOM      7  C   UNL A   1      31.405  28.666  25.327  1.00  0.00     0.107 C 
ATOM      8  C   UNL A   1      31.807  27.504  26.155  1.00  0.00    -0.006 C 
ATOM      9  C   UNL A   1      32.645  29.563  25.289  1.00  0.00     0.048 C 
ATOM     10  C   UNL A   1      33.089  27.569  26.526  1.00  0.00    -0.014 C 
BRANCH   7  11
ATOM     11  N   UNL A   1      30.952  28.355  23.987  1.00  0.00    -0.332 N 
ATOM     12  C   UNL A   1      30.571  27.182  23.445  1.00  0.00     0.317 C 
ATOM     13  O   UNL A   1      29.381  27.092  23.127  1.00  0.00    -0.249 OA
ATOM     14  H   UNL A   1      30.917  29.124  23.374  1.00  0.00     0.165 HD
BRANCH  12  15
ATOM     15  N   UNL A   1      31.497  26.225  23.121  1.00  0.00    -0.324 N 
ATOM     16  C   UNL A   1      32.614  26.661  22.296  1.00  0.00     0.149 C 
BRANCH  15  17
ATOM     17  C   UNL A   1      31.483  24.783  23.374  1.00  0.00     0.157 C 
BRANCH  17  18
ATOM     18  C   UNL A   1      31.891  24.124  24.674  1.00  0.00    -0.014 A 
ATOM     19  C   UNL A   1      30.789  23.655  25.441  1.00  0.00     0.007 A 
ATOM     20  C   UNL A   1      33.167  23.872  25.191  1.00  0.00     0.022 A 
ATOM     21  C   UNL A   1      30.940  23.093  26.710  1.00  0.00     0.000 A 
ATOM     22  C   UNL A   1      33.314  23.347  26.491  1.00  0.00     0.016 A 
ATOM     23  Br  UNL A   1      34.784  24.084  24.223  1.00  0.00    -0.050 Br
ATOM     24  C   UNL A   1      32.208  22.975  27.253  1.00  0.00     0.001 A 
ENDBRANCH  17  18
ENDBRANCH  15  17
ENDBRANCH  12  15
ENDBRANCH   7  11
ENDBRANCH   4   6
ENDBRANCH   3   4
ENDBRANCH   2   3
ENDBRANCH   1   2
BRANCH   1  25
ATOM     25  O   UNL A   1      34.410  33.933  28.567  1.00  0.00    -0.374 OA
BRANCH  25  26
ATOM     26  C   UNL A   1      33.134  34.569  28.497  1.00  0.00     0.202 C 
BRANCH  26  27
ATOM     27  C   UNL A   1      32.903  35.748  29.446  1.00  0.00     0.261 C 
BRANCH  27  28
ATOM     28  O   UNL A   1      32.197  35.334  30.621  1.00  0.00    -0.460 OA
BRANCH  28  29
ATOM     29  C   UNL A   1      32.868  35.566  31.775  1.00  0.00     0.338 C 
ATOM     30  O   UNL A   1      32.472  36.180  32.748  1.00  0.00    -0.246 OA
BRANCH  29  31
ATOM     31  C   UNL A   1      34.112  34.777  31.774  1.00  0.00     0.060 A 
ATOM     32  C   UNL A   1      34.013  33.434  32.159  1.00  0.00     0.016 A 
ATOM     33  C   UNL A   1      35.346  35.342  31.447  1.00  0.00     0.016 A 
ATOM     34  C   UNL A   1      35.162  32.666  32.290  1.00  0.00     0.010 A 
ATOM     35  C   UNL A   1      36.500  34.572  31.588  1.00  0.00     0.010 A 
ATOM     36  C   UNL A   1      36.413  33.249  32.057  1.00  0.00    -0.014 A 
BRANCH  36  37
ATOM     37  C   UNL A   1      37.629  32.528  32.488  1.00  0.00     0.031 A 
ATOM     38  C   UNL A   1      38.170  32.795  33.864  1.00  0.00     0.074 A 
ATOM     39  C   UNL A   1      38.217  31.634  31.675  1.00  0.00     0.049 A 
ATOM     40  N   UNL A   1      39.226  32.296  34.449  1.00  0.00    -0.248 NA
ATOM     41  C   UNL A   1      37.424  33.759  34.691  1.00  0.00     0.031 C 
ATOM     42  C   UNL A   1      37.761  31.287  30.330  1.00  0.00     0.029 A 
ATOM     43  N   UNL A   1      39.339  30.870  31.861  1.00  0.00    -0.354 N 
ATOM     44  C   UNL A   1      39.290  32.905  35.696  1.00  0.00     0.074 A 
ATOM     45  C   UNL A   1      38.176  33.823  35.780  1.00  0.00     0.031 C 
ATOM     46  C   UNL A   1      38.614  30.395  29.799  1.00  0.00     0.029 A 
ATOM     47  C   UNL A   1      39.686  30.131  30.756  1.00  0.00     0.049 A 
ATOM     48  H   UNL A   1      39.846  30.851  32.705  1.00  0.00     0.167 HD
ATOM     49  C   UNL A   1      40.190  32.708  36.687  1.00  0.00     0.034 A 
ATOM     50  C   UNL A   1      40.765  29.354  30.538  1.00  0.00     0.034 A 
ATOM     51  C   UNL A   1      41.286  31.782  36.597  1.00  0.00     0.049 A 
ATOM     52  C   UNL A   1      41.769  29.175  31.646  1.00  0.00     0.074 A 
ATOM     53  C   UNL A   1      42.230  31.470  37.557  1.00  0.00     0.029 A 
ATOM     54  N   UNL A   1      41.592  31.028  35.473  1.00  0.00    -0.354 N 
ATOM     55  N   UNL A   1      41.761  29.676  32.859  1.00  0.00    -0.248 NA
ATOM     56  C   UNL A   1      42.915  28.299  31.366  1.00  0.00     0.031 C 
ATOM     57  C   UNL A   1      43.132  30.557  37.000  1.00  0.00     0.029 A 
ATOM     58  C   UNL A   1      42.722  30.266  35.708  1.00  0.00     0.049 A 
ATOM     59  H   UNL A   1      41.080  31.035  34.632  1.00  0.00     0.167 HD
ATOM     60  C   UNL A   1      42.875  29.144  33.499  1.00  0.00     0.074 A 
ATOM     61  C   UNL A   1      43.525  28.270  32.544  1.00  0.00     0.031 C 
ATOM     62  C   UNL A   1      43.326  29.366  34.760  1.00  0.00     0.034 A 
BRANCH  49  63
ATOM     63  C   UNL A   1      40.023  33.506  37.954  1.00  0.00     0.023 A 
ATOM     64  C   UNL A   1      40.810  34.656  38.171  1.00  0.00     0.012 A 
ATOM     65  C   UNL A   1      39.056  33.140  38.909  1.00  0.00     0.148 A 
ATOM     66  C   UNL A   1      40.661  35.409  39.335  1.00  0.00     0.002 A 
ATOM     67  C   UNL A   1      38.878  33.923  40.043  1.00  0.00     0.091 A 
ATOM     68  F   UNL A   1      38.335  32.029  38.697  1.00  0.00    -0.205 F 
ATOM     69  C   UNL A   1      39.688  35.049  40.265  1.00  0.00     0.022 A 
BRANCH  67  70
ATOM     70  S   UNL A   1      37.601  33.589  41.260  1.00  0.00     0.127 S 
ATOM     71  O   UNL A   1      38.266  32.617  42.127  1.00  0.00    -0.237 OA
ATOM     72  O   UNL A   1      37.400  34.906  41.864  1.00  0.00    -0.237 OA
ATOM     73  O   UNL A   1      36.458  33.080  40.516  1.00  0.00    -0.744 OA
ENDBRANCH  67  70
ENDBRANCH  49  63
BRANCH  50  74
ATOM     74  C   UNL A   1      40.935  28.667  29.227  1.00  0.00     0.023 A 
ATOM     75  C   UNL A   1      41.580  29.333  28.169  1.00  0.00     0.012 A 
ATOM     76  C   UNL A   1      40.477  27.349  29.033  1.00  0.00     0.148 A 
ATOM     77  C   UNL A   1      41.735  28.712  26.928  1.00  0.00     0.002 A 
ATOM     78  C   UNL A   1      40.688  26.715  27.815  1.00  0.00     0.091 A 
ATOM     79  F   UNL A   1      39.855  26.737  30.050  1.00  0.00    -0.205 F 
ATOM     80  C   UNL A   1      41.299  27.401  26.755  1.00  0.00     0.022 A 
BRANCH  78  81
ATOM     81  S   UNL A   1      40.278  24.988  27.545  1.00  0.00     0.127 S 
ATOM     82  O   UNL A   1      40.486  24.850  26.106  1.00  0.00    -0.237 OA
ATOM     83  O   UNL A   1      41.271  24.310  28.379  1.00  0.00    -0.237 OA
ATOM     84  O   UNL A   1      38.904  24.831  28.003  1.00  0.00    -0.744 OA
ENDBRANCH  78  81
ENDBRANCH  50  74
BRANCH  62  85
ATOM     85  C   UNL A   1      44.556  28.616  35.201  1.00  0.00     0.023 A 
ATOM     86  C   UNL A   1      45.830  29.201  35.060  1.00  0.00     0.012 A 
ATOM     87  C   UNL A   1      44.438  27.357  35.823  1.00  0.00     0.148 A 
ATOM     88  C   UNL A   1      46.970  28.527  35.497  1.00  0.00     0.002 A 
ATOM     89  C   UNL A   1      45.572  26.717  36.306  1.00  0.00     0.091 A 
ATOM     90  F   UNL A   1      43.218  26.810  35.933  1.00  0.00    -0.205 F 
ATOM     91  C   UNL A   1      46.841  27.294  36.130  1.00  0.00     0.022 A 
BRANCH  89  92
ATOM     92  S   UNL A   1      45.492  25.174  37.223  1.00  0.00     0.127 S 
ATOM     93  O   UNL A   1      46.899  24.948  37.547  1.00  0.00    -0.237 OA
ATOM     94  O   UNL A   1      44.652  25.538  38.365  1.00  0.00    -0.237 OA
ATOM     95  O   UNL A   1      44.895  24.200  36.319  1.00  0.00    -0.744 OA
ENDBRANCH  89  92
ENDBRANCH  62  85
ENDBRANCH  36  37
ENDBRANCH  29  31
ENDBRANCH  28  29
ENDBRANCH  27  28
ENDBRANCH  26  27
ENDBRANCH  25  26
ENDBRANCH   1  25
TORSDOF 21
ENDMDL
MODEL 3
REMARK VINA RESULT:      -9.4      4.703      8.274
REMARK SMILES CN(Cc1ccccc1Br)C(=O)N[C@H]1C=C[C@H](C(=O)OCCOCCOC(=O)c2ccc(-c3c4nc(c(-c5cccc(S(=O)(=O)[O-])c5F)c5ccc([nH]5)c(-c5cccc(S(=O)(=O)[O-])c5F)c5nc(c(-c6cccc(S(=O)(=O)[O-])c6F)c6ccc3[nH]6)C=C5)C=C4)cc2)C1
REMARK SMILES IDX 22 1 21 2 20 3 18 4 19 5 17 6 14 7 15 8 92 9 16 10 13 11
REMARK SMILES IDX 11 12 12 13 2 15 1 16 3 17 4 18 5 19 9 20 6 21 8 22 10 23
REMARK SMILES IDX 7 24 23 25 24 26 25 27 26 28 27 29 28 30 29 31 30 32 91 33
REMARK SMILES IDX 31 34 90 35 32 36 33 37 34 38 84 39 35 40 89 41 83 42 85 43
REMARK SMILES IDX 36 44 88 45 82 46 81 47 37 49 69 50 49 51 68 52 50 53 53 54
REMARK SMILES IDX 67 55 86 56 51 57 52 58 66 60 87 61 54 62 38 63 39 64 47 65
REMARK SMILES IDX 40 66 42 67 48 68 41 69 43 70 44 71 45 72 46 73 70 74 71 75
REMARK SMILES IDX 79 76 72 77 74 78 80 79 73 80 75 81 76 82 77 83 78 84 55 85
REMARK SMILES IDX 56 86 64 87 57 88 59 89 65 90 58 91 60 92 61 93 62 94 63 95
REMARK H PARENT 13 14 85 48 53 59
REMARK Flexibility Score: inf
ROOT
ATOM      1  C   UNL A   1      38.616  31.872  36.595  1.00  0.00     0.202 C 
ENDROOT
BRANCH   1   2
ATOM      2  C   UNL A   1      37.401  32.566  35.974  1.00  0.00     0.261 C 
BRANCH   2   3
ATOM      3  O   UNL A   1      37.503  32.642  34.550  1.00  0.00    -0.463 OA
BRANCH   3   4
ATOM      4  C   UNL A   1      36.317  32.788  33.891  1.00  0.00     0.312 C 
ATOM      5  O   UNL A   1      35.285  33.240  34.365  1.00  0.00    -0.252 OA
BRANCH   4   6
ATOM      6  C   UNL A   1      36.487  32.340  32.455  1.00  0.00     0.124 C 
ATOM      7  C   UNL A   1      38.514  31.622  31.272  1.00  0.00     0.107 C 
ATOM      8  C   UNL A   1      38.177  33.036  30.979  1.00  0.00    -0.006 C 
ATOM      9  C   UNL A   1      37.483  31.185  32.316  1.00  0.00     0.048 C 
ATOM     10  C   UNL A   1      37.083  33.438  31.633  1.00  0.00    -0.014 C 
BRANCH   7  11
ATOM     11  N   UNL A   1      38.507  30.727  30.134  1.00  0.00    -0.332 N 
ATOM     12  C   UNL A   1      38.457  29.381  30.083  1.00  0.00     0.317 C 
ATOM     13  O   UNL A   1      37.430  28.893  29.601  1.00  0.00    -0.249 OA
ATOM     14  H   UNL A   1      38.544  31.172  29.257  1.00  0.00     0.165 HD
BRANCH  12  15
ATOM     15  N   UNL A   1      39.558  28.626  30.395  1.00  0.00    -0.324 N 
ATOM     16  C   UNL A   1      39.779  28.360  31.808  1.00  0.00     0.149 C 
BRANCH  15  17
ATOM     17  C   UNL A   1      40.633  28.135  29.531  1.00  0.00     0.157 C 
BRANCH  17  18
ATOM     18  C   UNL A   1      40.450  27.171  28.378  1.00  0.00    -0.014 A 
ATOM     19  C   UNL A   1      39.655  26.038  28.708  1.00  0.00     0.007 A 
ATOM     20  C   UNL A   1      40.897  27.258  27.055  1.00  0.00     0.022 A 
ATOM     21  C   UNL A   1      39.434  24.988  27.815  1.00  0.00     0.000 A 
ATOM     22  C   UNL A   1      40.711  26.176  26.171  1.00  0.00     0.016 A 
ATOM     23  Br  UNL A   1      41.672  28.806  26.278  1.00  0.00    -0.050 Br
ATOM     24  C   UNL A   1      39.999  25.041  26.553  1.00  0.00     0.001 A 
ENDBRANCH  17  18
ENDBRANCH  15  17
ENDBRANCH  12  15
ENDBRANCH   7  11
ENDBRANCH   4   6
ENDBRANCH   3   4
ENDBRANCH   2   3
ENDBRANCH   1   2
BRANCH   1  25
ATOM     25  O   UNL A   1      39.077  32.394  37.841  1.00  0.00    -0.374 OA
BRANCH  25  26
ATOM     26  C   UNL A   1      38.407  33.564  38.312  1.00  0.00     0.202 C 
BRANCH  26  27
ATOM     27  C   UNL A   1      39.185  34.880  38.226  1.00  0.00     0.261 C 
BRANCH  27  28
ATOM     28  O   UNL A   1      39.171  35.401  36.892  1.00  0.00    -0.460 OA
BRANCH  28  29
ATOM     29  C   UNL A   1      40.322  36.019  36.532  1.00  0.00     0.338 C 
ATOM     30  O   UNL A   1      40.858  36.961  37.086  1.00  0.00    -0.246 OA
BRANCH  29  31
ATOM     31  C   UNL A   1      40.967  35.245  35.458  1.00  0.00     0.060 A 
ATOM     32  C   UNL A   1      40.124  34.635  34.520  1.00  0.00     0.016 A 
ATOM     33  C   UNL A   1      42.352  35.085  35.390  1.00  0.00     0.016 A 
ATOM     34  C   UNL A   1      40.659  33.799  33.550  1.00  0.00     0.010 A 
ATOM     35  C   UNL A   1      42.888  34.237  34.420  1.00  0.00     0.010 A 
ATOM     36  C   UNL A   1      42.037  33.555  33.532  1.00  0.00    -0.014 A 
BRANCH  36  37
ATOM     37  C   UNL A   1      42.556  32.445  32.707  1.00  0.00     0.031 A 
ATOM     38  C   UNL A   1      42.607  31.068  33.308  1.00  0.00     0.074 A 
ATOM     39  C   UNL A   1      42.946  32.659  31.439  1.00  0.00     0.049 A 
ATOM     40  N   UNL A   1      43.035  29.951  32.783  1.00  0.00    -0.248 NA
ATOM     41  C   UNL A   1      42.113  30.933  34.689  1.00  0.00     0.031 C 
ATOM     42  C   UNL A   1      42.919  33.951  30.755  1.00  0.00     0.029 A 
ATOM     43  N   UNL A   1      43.460  31.793  30.509  1.00  0.00    -0.354 N 
ATOM     44  C   UNL A   1      42.892  28.990  33.775  1.00  0.00     0.074 A 
ATOM     45  C   UNL A   1      42.353  29.654  34.940  1.00  0.00     0.031 C 
ATOM     46  C   UNL A   1      43.422  33.798  29.518  1.00  0.00     0.029 A 
ATOM     47  C   UNL A   1      43.829  32.406  29.337  1.00  0.00     0.049 A 
ATOM     48  H   UNL A   1      43.554  30.826  30.666  1.00  0.00     0.167 HD
ATOM     49  C   UNL A   1      43.175  27.667  33.716  1.00  0.00     0.034 A 
ATOM     50  C   UNL A   1      44.451  31.901  28.253  1.00  0.00     0.034 A 
ATOM     51  C   UNL A   1      43.698  27.014  32.548  1.00  0.00     0.049 A 
ATOM     52  C   UNL A   1      44.784  30.432  28.225  1.00  0.00     0.074 A 
ATOM     53  C   UNL A   1      43.979  25.673  32.364  1.00  0.00     0.029 A 
ATOM     54  N   UNL A   1      44.034  27.660  31.367  1.00  0.00    -0.354 N 
ATOM     55  N   UNL A   1      44.547  29.512  29.131  1.00  0.00    -0.248 NA
ATOM     56  C   UNL A   1      45.441  29.925  27.012  1.00  0.00     0.031 C 
ATOM     57  C   UNL A   1      44.522  25.514  31.085  1.00  0.00     0.029 A 
ATOM     58  C   UNL A   1      44.538  26.749  30.455  1.00  0.00     0.049 A 
ATOM     59  H   UNL A   1      43.930  28.625  31.202  1.00  0.00     0.167 HD
ATOM     60  C   UNL A   1      44.988  28.313  28.582  1.00  0.00     0.074 A 
ATOM     61  C   UNL A   1      45.490  28.622  27.258  1.00  0.00     0.031 C 
ATOM     62  C   UNL A   1      44.988  27.070  29.126  1.00  0.00     0.034 A 
BRANCH  49  63
ATOM     63  C   UNL A   1      42.920  26.841  34.950  1.00  0.00     0.023 A 
ATOM     64  C   UNL A   1      41.756  26.050  35.040  1.00  0.00     0.012 A 
ATOM     65  C   UNL A   1      43.856  26.816  36.002  1.00  0.00     0.148 A 
ATOM     66  C   UNL A   1      41.511  25.274  36.173  1.00  0.00     0.002 A 
ATOM     67  C   UNL A   1      43.628  26.003  37.106  1.00  0.00     0.091 A 
ATOM     68  F   UNL A   1      44.943  27.595  35.910  1.00  0.00    -0.205 F 
ATOM     69  C   UNL A   1      42.452  25.242  37.200  1.00  0.00     0.022 A 
BRANCH  67  70
ATOM     70  S   UNL A   1      44.815  25.832  38.443  1.00  0.00     0.127 S 
ATOM     71  O   UNL A   1      44.233  26.700  39.466  1.00  0.00    -0.237 OA
ATOM     72  O   UNL A   1      44.737  24.402  38.742  1.00  0.00    -0.237 OA
ATOM     73  O   UNL A   1      46.094  26.273  37.906  1.00  0.00    -0.744 OA
ENDBRANCH  67  70
ENDBRANCH  49  63
BRANCH  50  74
ATOM     74  C   UNL A   1      44.774  32.785  27.100  1.00  0.00     0.023 A 
ATOM     75  C   UNL A   1      43.856  32.914  26.041  1.00  0.00     0.012 A 
ATOM     76  C   UNL A   1      45.979  33.514  27.057  1.00  0.00     0.148 A 
ATOM     77  C   UNL A   1      44.146  33.726  24.943  1.00  0.00     0.002 A 
ATOM     78  C   UNL A   1      46.236  34.366  25.991  1.00  0.00     0.091 A 
ATOM     79  F   UNL A   1      46.845  33.368  28.070  1.00  0.00    -0.205 F 
ATOM     80  C   UNL A   1      45.330  34.459  24.923  1.00  0.00     0.022 A 
BRANCH  78  81
ATOM     81  S   UNL A   1      47.670  35.445  25.945  1.00  0.00     0.127 S 
ATOM     82  O   UNL A   1      48.337  35.112  27.200  1.00  0.00    -0.237 OA
ATOM     83  O   UNL A   1      48.356  34.980  24.739  1.00  0.00    -0.237 OA
ATOM     84  O   UNL A   1      47.143  36.800  25.849  1.00  0.00    -0.744 OA
ENDBRANCH  78  81
ENDBRANCH  50  74
BRANCH  62  85
ATOM     85  C   UNL A   1      45.501  25.938  28.275  1.00  0.00     0.023 A 
ATOM     86  C   UNL A   1      46.885  25.687  28.191  1.00  0.00     0.012 A 
ATOM     87  C   UNL A   1      44.601  25.076  27.616  1.00  0.00     0.148 A 
ATOM     88  C   UNL A   1      47.366  24.621  27.433  1.00  0.00     0.002 A 
ATOM     89  C   UNL A   1      45.085  23.984  26.909  1.00  0.00     0.091 A 
ATOM     90  F   UNL A   1      43.289  25.341  27.696  1.00  0.00    -0.205 F 
ATOM     91  C   UNL A   1      46.468  23.762  26.803  1.00  0.00     0.022 A 
BRANCH  89  92
ATOM     92  S   UNL A   1      44.000  22.769  26.150  1.00  0.00     0.127 S 
ATOM     93  O   UNL A   1      44.957  21.775  25.669  1.00  0.00    -0.237 OA
ATOM     94  O   UNL A   1      43.184  22.333  27.285  1.00  0.00    -0.237 OA
ATOM     95  O   UNL A   1      43.263  23.479  25.113  1.00  0.00    -0.744 OA
ENDBRANCH  89  92
ENDBRANCH  62  85
ENDBRANCH  36  37
ENDBRANCH  29  31
ENDBRANCH  28  29
ENDBRANCH  27  28
ENDBRANCH  26  27
ENDBRANCH  25  26
ENDBRANCH   1  25
TORSDOF 21
ENDMDL
