MODEL 1
REMARK VINA RESULT:     -10.8      0.000      0.000
REMARK SMILES C[C@@H]1[C@@H](C(=O)OCCOCCOC(=O)c2ccc(-c3c4nc(c(-c5cccc(S(=O)(=O)[O-])c5F)c5ccc([nH]5)c(-c5cccc(S(=O)(=O)[O-])c5F)c5nc(c(-c6cccc(S(=O)(=O)[O-])c6F)c6ccc3[nH]6)C=C5)C=C4)cc2)CCN1C(=O)CN1C(=O)CNC1=O
REMARK SMILES IDX 9 1 8 2 7 3 6 4 4 5 5 6 3 7 1 8 2 9 80 10 78 11 79 12 81 13
REMARK SMILES IDX 82 14 83 15 84 16 85 17 89 18 86 19 87 20 88 21 90 22 10 24
REMARK SMILES IDX 11 25 12 26 13 27 14 28 15 29 16 30 77 31 17 32 76 33 18 34
REMARK SMILES IDX 19 35 20 36 70 37 21 38 75 39 69 40 71 41 22 42 74 43 68 44
REMARK SMILES IDX 67 45 23 47 55 48 35 49 54 50 36 51 39 52 53 53 72 54 37 55
REMARK SMILES IDX 38 56 52 58 73 59 40 60 24 61 25 62 33 63 26 64 28 65 34 66
REMARK SMILES IDX 27 67 29 68 30 69 31 70 32 71 56 72 57 73 65 74 58 75 60 76
REMARK SMILES IDX 66 77 59 78 61 79 62 80 63 81 64 82 41 83 42 84 50 85 43 86
REMARK SMILES IDX 45 87 51 88 44 89 46 90 47 91 48 92 49 93
REMARK H PARENT 88 23 71 46 39 57
REMARK Flexibility Score: inf
ROOT
ATOM      1  O   UNL A   1      32.390  30.654  26.544  1.00  0.00    -0.374 OA
ENDROOT
BRANCH   1   2
ATOM      2  C   UNL A   1      32.051  29.470  27.257  1.00  0.00     0.202 C 
BRANCH   2   3
ATOM      3  C   UNL A   1      32.464  28.104  26.696  1.00  0.00     0.261 C 
BRANCH   3   4
ATOM      4  O   UNL A   1      31.419  27.122  26.702  1.00  0.00    -0.463 OA
BRANCH   4   5
ATOM      5  C   UNL A   1      30.976  26.790  25.455  1.00  0.00     0.311 C 
ATOM      6  O   UNL A   1      31.123  27.496  24.465  1.00  0.00    -0.252 OA
BRANCH   5   7
ATOM      7  C   UNL A   1      30.290  25.425  25.458  1.00  0.00     0.123 C 
ATOM      8  C   UNL A   1      30.441  23.138  26.647  1.00  0.00     0.032 C 
ATOM      9  C   UNL A   1      31.154  24.422  26.230  1.00  0.00     0.096 C 
ATOM     10  N   UNL A   1      32.234  24.148  25.289  1.00  0.00    -0.338 N 
ATOM     11  C   UNL A   1      30.309  24.839  24.052  1.00  0.00     0.039 C 
ATOM     12  C   UNL A   1      31.749  24.321  23.914  1.00  0.00     0.121 C 
BRANCH  10  13
ATOM     13  C   UNL A   1      33.591  24.282  25.587  1.00  0.00     0.243 C 
ATOM     14  O   UNL A   1      34.286  25.142  25.040  1.00  0.00    -0.273 OA
BRANCH  13  15
ATOM     15  C   UNL A   1      34.209  23.318  26.624  1.00  0.00     0.230 C 
BRANCH  15  16
ATOM     16  N   UNL A   1      34.916  22.160  26.088  1.00  0.00    -0.253 N 
ATOM     17  C   UNL A   1      36.246  22.153  25.766  1.00  0.00     0.250 C 
ATOM     18  C   UNL A   1      34.337  21.014  25.631  1.00  0.00     0.325 C 
ATOM     19  O   UNL A   1      37.036  23.083  25.866  1.00  0.00    -0.272 OA
ATOM     20  C   UNL A   1      36.590  20.816  25.127  1.00  0.00     0.218 C 
ATOM     21  N   UNL A   1      35.317  20.170  25.168  1.00  0.00    -0.329 N 
ATOM     22  O   UNL A   1      33.153  20.752  25.503  1.00  0.00    -0.248 OA
ATOM     23  H   UNL A   1      35.162  19.236  24.899  1.00  0.00     0.165 HD
ENDBRANCH  15  16
ENDBRANCH  13  15
ENDBRANCH  10  13
ENDBRANCH   5   7
ENDBRANCH   4   5
ENDBRANCH   3   4
ENDBRANCH   2   3
ENDBRANCH   1   2
BRANCH   1  24
ATOM     24  C   UNL A   1      31.450  31.726  26.502  1.00  0.00     0.202 C 
BRANCH  24  25
ATOM     25  C   UNL A   1      31.924  33.157  26.794  1.00  0.00     0.261 C 
BRANCH  25  26
ATOM     26  O   UNL A   1      32.525  33.321  28.089  1.00  0.00    -0.460 OA
BRANCH  26  27
ATOM     27  C   UNL A   1      33.653  34.081  28.091  1.00  0.00     0.338 C 
ATOM     28  O   UNL A   1      33.724  35.292  28.003  1.00  0.00    -0.246 OA
BRANCH  27  29
ATOM     29  C   UNL A   1      34.824  33.245  28.411  1.00  0.00     0.060 A 
ATOM     30  C   UNL A   1      34.593  32.001  29.014  1.00  0.00     0.016 A 
ATOM     31  C   UNL A   1      36.123  33.719  28.228  1.00  0.00     0.016 A 
ATOM     32  C   UNL A   1      35.665  31.240  29.473  1.00  0.00     0.010 A 
ATOM     33  C   UNL A   1      37.196  32.957  28.699  1.00  0.00     0.010 A 
ATOM     34  C   UNL A   1      36.970  31.733  29.355  1.00  0.00    -0.014 A 
BRANCH  34  35
ATOM     35  C   UNL A   1      38.081  31.029  30.039  1.00  0.00     0.031 A 
ATOM     36  C   UNL A   1      38.424  31.404  31.454  1.00  0.00     0.074 A 
ATOM     37  C   UNL A   1      38.769  30.063  29.406  1.00  0.00     0.049 A 
ATOM     38  N   UNL A   1      39.373  30.941  32.226  1.00  0.00    -0.248 NA
ATOM     39  C   UNL A   1      37.589  32.441  32.084  1.00  0.00     0.031 C 
ATOM     40  C   UNL A   1      38.521  29.608  28.038  1.00  0.00     0.029 A 
ATOM     41  N   UNL A   1      39.836  29.308  29.825  1.00  0.00    -0.354 N 
ATOM     42  C   UNL A   1      39.272  31.650  33.417  1.00  0.00     0.074 A 
ATOM     43  C   UNL A   1      38.176  32.581  33.264  1.00  0.00     0.031 C 
ATOM     44  C   UNL A   1      39.431  28.671  27.721  1.00  0.00     0.029 A 
ATOM     45  C   UNL A   1      40.339  28.481  28.850  1.00  0.00     0.049 A 
ATOM     46  H   UNL A   1      40.205  29.354  30.737  1.00  0.00     0.167 HD
ATOM     47  C   UNL A   1      40.016  31.526  34.541  1.00  0.00     0.034 A 
ATOM     48  C   UNL A   1      41.425  27.684  28.860  1.00  0.00     0.034 A 
ATOM     49  C   UNL A   1      41.094  30.586  34.695  1.00  0.00     0.049 A 
ATOM     50  C   UNL A   1      42.253  27.585  30.114  1.00  0.00     0.074 A 
ATOM     51  C   UNL A   1      41.877  30.351  35.810  1.00  0.00     0.029 A 
ATOM     52  N   UNL A   1      41.552  29.737  33.699  1.00  0.00    -0.354 N 
ATOM     53  N   UNL A   1      42.077  28.177  31.270  1.00  0.00    -0.248 NA
ATOM     54  C   UNL A   1      43.413  26.681  30.076  1.00  0.00     0.031 C 
ATOM     55  C   UNL A   1      42.832  29.384  35.478  1.00  0.00     0.029 A 
ATOM     56  C   UNL A   1      42.617  28.988  34.167  1.00  0.00     0.049 A 
ATOM     57  H   UNL A   1      41.175  29.677  32.791  1.00  0.00     0.167 HD
ATOM     58  C   UNL A   1      43.075  27.690  32.107  1.00  0.00     0.074 A 
ATOM     59  C   UNL A   1      43.842  26.739  31.329  1.00  0.00     0.031 C 
ATOM     60  C   UNL A   1      43.340  28.008  33.399  1.00  0.00     0.034 A 
BRANCH  47  61
ATOM     61  C   UNL A   1      39.680  32.422  35.706  1.00  0.00     0.023 A 
ATOM     62  C   UNL A   1      40.244  33.711  35.787  1.00  0.00     0.012 A 
ATOM     63  C   UNL A   1      38.761  32.007  36.690  1.00  0.00     0.148 A 
ATOM     64  C   UNL A   1      39.923  34.561  36.844  1.00  0.00     0.002 A 
ATOM     65  C   UNL A   1      38.411  32.877  37.716  1.00  0.00     0.091 A 
ATOM     66  F   UNL A   1      38.252  30.769  36.608  1.00  0.00    -0.205 F 
ATOM     67  C   UNL A   1      39.000  34.148  37.801  1.00  0.00     0.022 A 
BRANCH  65  68
ATOM     68  S   UNL A   1      37.174  32.469  38.952  1.00  0.00     0.127 S 
ATOM     69  O   UNL A   1      37.452  31.054  39.194  1.00  0.00    -0.237 OA
ATOM     70  O   UNL A   1      37.539  33.360  40.055  1.00  0.00    -0.237 OA
ATOM     71  O   UNL A   1      35.883  32.755  38.341  1.00  0.00    -0.744 OA
ENDBRANCH  65  68
ENDBRANCH  47  61
BRANCH  48  72
ATOM     72  C   UNL A   1      41.781  26.894  27.646  1.00  0.00     0.023 A 
ATOM     73  C   UNL A   1      42.338  27.546  26.528  1.00  0.00     0.012 A 
ATOM     74  C   UNL A   1      41.576  25.502  27.600  1.00  0.00     0.148 A 
ATOM     75  C   UNL A   1      42.654  26.829  25.374  1.00  0.00     0.002 A 
ATOM     76  C   UNL A   1      41.948  24.785  26.468  1.00  0.00     0.091 A 
ATOM     77  F   UNL A   1      41.030  24.903  28.668  1.00  0.00    -0.205 F 
ATOM     78  C   UNL A   1      42.470  25.449  25.348  1.00  0.00     0.022 A 
BRANCH  76  79
ATOM     79  S   UNL A   1      41.864  22.993  26.394  1.00  0.00     0.127 S 
ATOM     80  O   UNL A   1      40.424  22.758  26.448  1.00  0.00    -0.237 OA
ATOM     81  O   UNL A   1      42.487  22.716  25.099  1.00  0.00    -0.237 OA
ATOM     82  O   UNL A   1      42.626  22.515  27.539  1.00  0.00    -0.744 OA
ENDBRANCH  76  79
ENDBRANCH  48  72
BRANCH  60  83
ATOM     83  C   UNL A   1      44.479  27.290  34.078  1.00  0.00     0.023 A 
ATOM     84  C   UNL A   1      45.789  27.801  33.990  1.00  0.00     0.012 A 
ATOM     85  C   UNL A   1      44.234  26.147  34.866  1.00  0.00     0.148 A 
ATOM     86  C   UNL A   1      46.844  27.166  34.646  1.00  0.00     0.002 A 
ATOM     87  C   UNL A   1      45.281  25.550  35.558  1.00  0.00     0.091 A 
ATOM     88  F   UNL A   1      42.985  25.666  34.925  1.00  0.00    -0.205 F 
ATOM     89  C   UNL A   1      46.587  26.049  35.438  1.00  0.00     0.022 A 
BRANCH  87  90
ATOM     90  S   UNL A   1      45.031  24.171  36.682  1.00  0.00     0.127 S 
ATOM     91  O   UNL A   1      44.145  24.762  37.685  1.00  0.00    -0.237 OA
ATOM     92  O   UNL A   1      44.394  23.178  35.816  1.00  0.00    -0.237 OA
ATOM     93  O   UNL A   1      46.353  23.796  37.161  1.00  0.00    -0.744 OA
ENDBRANCH  87  90
ENDBRANCH  60  83
ENDBRANCH  34  35
ENDBRANCH  27  29
ENDBRANCH  26  27
ENDBRANCH  25  26
ENDBRANCH  24  25
ENDBRANCH   1  24
TORSDOF 20
ENDMDL
MODEL 2
REMARK VINA RESULT:     -10.6      2.152      4.054
REMARK SMILES C[C@@H]1[C@@H](C(=O)OCCOCCOC(=O)c2ccc(-c3c4nc(c(-c5cccc(S(=O)(=O)[O-])c5F)c5ccc([nH]5)c(-c5cccc(S(=O)(=O)[O-])c5F)c5nc(c(-c6cccc(S(=O)(=O)[O-])c6F)c6ccc3[nH]6)C=C5)C=C4)cc2)CCN1C(=O)CN1C(=O)CNC1=O
REMARK SMILES IDX 9 1 8 2 7 3 6 4 4 5 5 6 3 7 1 8 2 9 80 10 78 11 79 12 81 13
REMARK SMILES IDX 82 14 83 15 84 16 85 17 89 18 86 19 87 20 88 21 90 22 10 24
REMARK SMILES IDX 11 25 12 26 13 27 14 28 15 29 16 30 77 31 17 32 76 33 18 34
REMARK SMILES IDX 19 35 20 36 70 37 21 38 75 39 69 40 71 41 22 42 74 43 68 44
REMARK SMILES IDX 67 45 23 47 55 48 35 49 54 50 36 51 39 52 53 53 72 54 37 55
REMARK SMILES IDX 38 56 52 58 73 59 40 60 24 61 25 62 33 63 26 64 28 65 34 66
REMARK SMILES IDX 27 67 29 68 30 69 31 70 32 71 56 72 57 73 65 74 58 75 60 76
REMARK SMILES IDX 66 77 59 78 61 79 62 80 63 81 64 82 41 83 42 84 50 85 43 86
REMARK SMILES IDX 45 87 51 88 44 89 46 90 47 91 48 92 49 93
REMARK H PARENT 88 23 71 46 39 57
REMARK Flexibility Score: inf
ROOT
ATOM      1  O   UNL A   1      32.729  30.712  26.832  1.00  0.00    -0.374 OA
ENDROOT
BRANCH   1   2
ATOM      2  C   UNL A   1      32.315  29.427  27.279  1.00  0.00     0.202 C 
BRANCH   2   3
ATOM      3  C   UNL A   1      32.954  28.172  26.673  1.00  0.00     0.261 C 
BRANCH   3   4
ATOM      4  O   UNL A   1      32.325  27.711  25.469  1.00  0.00    -0.463 OA
BRANCH   4   5
ATOM      5  C   UNL A   1      31.443  26.692  25.670  1.00  0.00     0.311 C 
ATOM      6  O   UNL A   1      30.789  26.544  26.695  1.00  0.00    -0.252 OA
BRANCH   5   7
ATOM      7  C   UNL A   1      31.372  25.774  24.450  1.00  0.00     0.123 C 
ATOM      8  C   UNL A   1      31.866  25.809  21.917  1.00  0.00     0.032 C 
ATOM      9  C   UNL A   1      31.534  26.607  23.175  1.00  0.00     0.096 C 
ATOM     10  N   UNL A   1      30.235  27.262  23.062  1.00  0.00    -0.338 N 
ATOM     11  C   UNL A   1      29.956  25.235  24.296  1.00  0.00     0.039 C 
ATOM     12  C   UNL A   1      29.201  26.421  23.678  1.00  0.00     0.121 C 
BRANCH  10  13
ATOM     13  C   UNL A   1      30.056  28.641  22.947  1.00  0.00     0.243 C 
ATOM     14  O   UNL A   1      31.011  29.398  22.758  1.00  0.00    -0.273 OA
BRANCH  13  15
ATOM     15  C   UNL A   1      28.622  29.204  23.067  1.00  0.00     0.230 C 
BRANCH  15  16
ATOM     16  N   UNL A   1      28.435  30.589  22.651  1.00  0.00    -0.253 N 
ATOM     17  C   UNL A   1      28.139  30.976  21.372  1.00  0.00     0.250 C 
ATOM     18  C   UNL A   1      28.736  31.692  23.395  1.00  0.00     0.325 C 
ATOM     19  O   UNL A   1      27.988  30.251  20.397  1.00  0.00    -0.272 OA
ATOM     20  C   UNL A   1      28.143  32.496  21.304  1.00  0.00     0.218 C 
ATOM     21  N   UNL A   1      28.464  32.819  22.658  1.00  0.00    -0.329 N 
ATOM     22  O   UNL A   1      29.276  31.756  24.487  1.00  0.00    -0.248 OA
ATOM     23  H   UNL A   1      28.485  33.734  23.018  1.00  0.00     0.165 HD
ENDBRANCH  15  16
ENDBRANCH  13  15
ENDBRANCH  10  13
ENDBRANCH   5   7
ENDBRANCH   4   5
ENDBRANCH   3   4
ENDBRANCH   2   3
ENDBRANCH   1   2
BRANCH   1  24
ATOM     24  C   UNL A   1      31.751  31.741  26.693  1.00  0.00     0.202 C 
BRANCH  24  25
ATOM     25  C   UNL A   1      32.178  33.210  26.824  1.00  0.00     0.261 C 
BRANCH  25  26
ATOM     26  O   UNL A   1      32.447  33.623  28.174  1.00  0.00    -0.460 OA
BRANCH  26  27
ATOM     27  C   UNL A   1      33.591  34.342  28.323  1.00  0.00     0.338 C 
ATOM     28  O   UNL A   1      33.700  35.553  28.356  1.00  0.00    -0.246 OA
BRANCH  27  29
ATOM     29  C   UNL A   1      34.715  33.442  28.640  1.00  0.00     0.060 A 
ATOM     30  C   UNL A   1      34.445  32.310  29.421  1.00  0.00     0.016 A 
ATOM     31  C   UNL A   1      36.023  33.761  28.276  1.00  0.00     0.016 A 
ATOM     32  C   UNL A   1      35.491  31.511  29.874  1.00  0.00     0.010 A 
ATOM     33  C   UNL A   1      37.072  32.963  28.741  1.00  0.00     0.010 A 
ATOM     34  C   UNL A   1      36.814  31.856  29.571  1.00  0.00    -0.014 A 
BRANCH  34  35
ATOM     35  C   UNL A   1      37.927  31.137  30.234  1.00  0.00     0.031 A 
ATOM     36  C   UNL A   1      38.213  31.410  31.685  1.00  0.00     0.074 A 
ATOM     37  C   UNL A   1      38.668  30.248  29.552  1.00  0.00     0.049 A 
ATOM     38  N   UNL A   1      39.153  30.919  32.450  1.00  0.00    -0.248 NA
ATOM     39  C   UNL A   1      37.322  32.366  32.366  1.00  0.00     0.031 C 
ATOM     40  C   UNL A   1      38.479  29.894  28.145  1.00  0.00     0.029 A 
ATOM     41  N   UNL A   1      39.747  29.497  29.946  1.00  0.00    -0.354 N 
ATOM     42  C   UNL A   1      38.990  31.527  33.689  1.00  0.00     0.074 A 
ATOM     43  C   UNL A   1      37.867  32.431  33.572  1.00  0.00     0.031 C 
ATOM     44  C   UNL A   1      39.430  29.015  27.786  1.00  0.00     0.029 A 
ATOM     45  C   UNL A   1      40.309  28.767  28.927  1.00  0.00     0.049 A 
ATOM     46  H   UNL A   1      40.086  29.483  30.871  1.00  0.00     0.167 HD
ATOM     47  C   UNL A   1      39.703  31.339  34.825  1.00  0.00     0.034 A 
ATOM     48  C   UNL A   1      41.422  28.007  28.911  1.00  0.00     0.034 A 
ATOM     49  C   UNL A   1      40.808  30.426  34.941  1.00  0.00     0.049 A 
ATOM     50  C   UNL A   1      42.214  27.836  30.181  1.00  0.00     0.074 A 
ATOM     51  C   UNL A   1      41.563  30.128  36.060  1.00  0.00     0.029 A 
ATOM     52  N   UNL A   1      41.326  29.674  33.897  1.00  0.00    -0.354 N 
ATOM     53  N   UNL A   1      41.980  28.329  31.373  1.00  0.00    -0.248 NA
ATOM     54  C   UNL A   1      43.405  26.977  30.112  1.00  0.00     0.031 C 
ATOM     55  C   UNL A   1      42.562  29.223  35.685  1.00  0.00     0.029 A 
ATOM     56  C   UNL A   1      42.402  28.925  34.341  1.00  0.00     0.049 A 
ATOM     57  H   UNL A   1      40.980  29.674  32.975  1.00  0.00     0.167 HD
ATOM     58  C   UNL A   1      42.969  27.809  32.203  1.00  0.00     0.074 A 
ATOM     59  C   UNL A   1      43.792  26.949  31.379  1.00  0.00     0.031 C 
ATOM     60  C   UNL A   1      43.182  28.033  33.523  1.00  0.00     0.034 A 
BRANCH  47  61
ATOM     61  C   UNL A   1      39.299  32.128  36.044  1.00  0.00     0.023 A 
ATOM     62  C   UNL A   1      39.787  33.438  36.226  1.00  0.00     0.012 A 
ATOM     63  C   UNL A   1      38.393  31.592  36.979  1.00  0.00     0.148 A 
ATOM     64  C   UNL A   1      39.403  34.190  37.335  1.00  0.00     0.002 A 
ATOM     65  C   UNL A   1      37.979  32.365  38.057  1.00  0.00     0.091 A 
ATOM     66  F   UNL A   1      37.957  30.337  36.800  1.00  0.00    -0.205 F 
ATOM     67  C   UNL A   1      38.492  33.659  38.244  1.00  0.00     0.022 A 
BRANCH  65  68
ATOM     68  S   UNL A   1      36.750  31.800  39.240  1.00  0.00     0.127 S 
ATOM     69  O   UNL A   1      37.471  31.938  40.504  1.00  0.00    -0.237 OA
ATOM     70  O   UNL A   1      35.670  32.769  39.045  1.00  0.00    -0.237 OA
ATOM     71  O   UNL A   1      36.419  30.435  38.856  1.00  0.00    -0.744 OA
ENDBRANCH  65  68
ENDBRANCH  47  61
BRANCH  48  72
ATOM     72  C   UNL A   1      41.842  27.328  27.652  1.00  0.00     0.023 A 
ATOM     73  C   UNL A   1      42.323  28.095  26.573  1.00  0.00     0.012 A 
ATOM     74  C   UNL A   1      41.775  25.927  27.525  1.00  0.00     0.148 A 
ATOM     75  C   UNL A   1      42.698  27.481  25.377  1.00  0.00     0.002 A 
ATOM     76  C   UNL A   1      42.205  25.317  26.352  1.00  0.00     0.091 A 
ATOM     77  F   UNL A   1      41.299  25.217  28.558  1.00  0.00    -0.205 F 
ATOM     78  C   UNL A   1      42.649  26.093  25.271  1.00  0.00     0.022 A 
BRANCH  76  79
ATOM     79  S   UNL A   1      42.296  23.533  26.173  1.00  0.00     0.127 S 
ATOM     80  O   UNL A   1      42.866  23.395  24.836  1.00  0.00    -0.237 OA
ATOM     81  O   UNL A   1      43.196  23.167  27.269  1.00  0.00    -0.237 OA
ATOM     82  O   UNL A   1      40.932  23.050  26.332  1.00  0.00    -0.744 OA
ENDBRANCH  76  79
ENDBRANCH  48  72
BRANCH  60  83
ATOM     83  C   UNL A   1      44.324  27.301  34.183  1.00  0.00     0.023 A 
ATOM     84  C   UNL A   1      45.588  27.914  34.289  1.00  0.00     0.012 A 
ATOM     85  C   UNL A   1      44.120  26.033  34.762  1.00  0.00     0.148 A 
ATOM     86  C   UNL A   1      46.641  27.262  34.931  1.00  0.00     0.002 A 
ATOM     87  C   UNL A   1      45.159  25.411  35.444  1.00  0.00     0.091 A 
ATOM     88  F   UNL A   1      42.916  25.458  34.636  1.00  0.00    -0.205 F 
ATOM     89  C   UNL A   1      46.423  26.017  35.517  1.00  0.00     0.022 A 
BRANCH  87  90
ATOM     90  S   UNL A   1      44.944  23.856  36.317  1.00  0.00     0.127 S 
ATOM     91  O   UNL A   1      46.282  23.272  36.218  1.00  0.00    -0.237 OA
ATOM     92  O   UNL A   1      44.572  24.303  37.660  1.00  0.00    -0.237 OA
ATOM     93  O   UNL A   1      43.896  23.137  35.607  1.00  0.00    -0.744 OA
ENDBRANCH  87  90
ENDBRANCH  60  83
ENDBRANCH  34  35
ENDBRANCH  27  29
ENDBRANCH  26  27
ENDBRANCH  25  26
ENDBRANCH  24  25
ENDBRANCH   1  24
TORSDOF 20
ENDMDL
MODEL 3
REMARK VINA RESULT:     -10.6      5.023      8.343
REMARK SMILES C[C@@H]1[C@@H](C(=O)OCCOCCOC(=O)c2ccc(-c3c4nc(c(-c5cccc(S(=O)(=O)[O-])c5F)c5ccc([nH]5)c(-c5cccc(S(=O)(=O)[O-])c5F)c5nc(c(-c6cccc(S(=O)(=O)[O-])c6F)c6ccc3[nH]6)C=C5)C=C4)cc2)CCN1C(=O)CN1C(=O)CNC1=O
REMARK SMILES IDX 9 1 8 2 7 3 6 4 4 5 5 6 3 7 1 8 2 9 80 10 78 11 79 12 81 13
REMARK SMILES IDX 82 14 83 15 84 16 85 17 89 18 86 19 87 20 88 21 90 22 10 24
REMARK SMILES IDX 11 25 12 26 13 27 14 28 15 29 16 30 77 31 17 32 76 33 18 34
REMARK SMILES IDX 19 35 20 36 70 37 21 38 75 39 69 40 71 41 22 42 74 43 68 44
REMARK SMILES IDX 67 45 23 47 55 48 35 49 54 50 36 51 39 52 53 53 72 54 37 55
REMARK SMILES IDX 38 56 52 58 73 59 40 60 24 61 25 62 33 63 26 64 28 65 34 66
REMARK SMILES IDX 27 67 29 68 30 69 31 70 32 71 56 72 57 73 65 74 58 75 60 76
REMARK SMILES IDX 66 77 59 78 61 79 62 80 63 81 64 82 41 83 42 84 50 85 43 86
REMARK SMILES IDX 45 87 51 88 44 89 46 90 47 91 48 92 49 93
REMARK H PARENT 88 23 71 46 39 57
REMARK Flexibility Score: inf
ROOT
ATOM      1  O   UNL A   1      34.046  19.856  25.385  1.00  0.00    -0.374 OA
ENDROOT
BRANCH   1   2
ATOM      2  C   UNL A   1      32.895  19.723  24.560  1.00  0.00     0.202 C 
BRANCH   2   3
ATOM      3  C   UNL A   1      32.506  20.864  23.613  1.00  0.00     0.261 C 
BRANCH   3   4
ATOM      4  O   UNL A   1      32.409  22.149  24.243  1.00  0.00    -0.463 OA
BRANCH   4   5
ATOM      5  C   UNL A   1      33.037  23.143  23.552  1.00  0.00     0.311 C 
ATOM      6  O   UNL A   1      34.246  23.332  23.570  1.00  0.00    -0.252 OA
BRANCH   5   7
ATOM      7  C   UNL A   1      32.036  23.975  22.750  1.00  0.00     0.123 C 
ATOM      8  C   UNL A   1      31.819  26.311  21.674  1.00  0.00     0.032 C 
ATOM      9  C   UNL A   1      32.488  25.438  22.733  1.00  0.00     0.096 C 
ATOM     10  N   UNL A   1      32.152  25.887  24.080  1.00  0.00    -0.338 N 
ATOM     11  C   UNL A   1      30.718  24.062  23.510  1.00  0.00     0.039 C 
ATOM     12  C   UNL A   1      31.011  25.116  24.589  1.00  0.00     0.121 C 
BRANCH  10  13
ATOM     13  C   UNL A   1      33.056  26.484  24.959  1.00  0.00     0.243 C 
ATOM     14  O   UNL A   1      33.386  25.933  26.013  1.00  0.00    -0.273 OA
BRANCH  13  15
ATOM     15  C   UNL A   1      33.637  27.866  24.582  1.00  0.00     0.230 C 
BRANCH  15  16
ATOM     16  N   UNL A   1      32.930  29.028  25.108  1.00  0.00    -0.253 N 
ATOM     17  C   UNL A   1      33.200  29.611  26.316  1.00  0.00     0.250 C 
ATOM     18  C   UNL A   1      31.784  29.561  24.598  1.00  0.00     0.325 C 
ATOM     19  O   UNL A   1      34.047  29.266  27.131  1.00  0.00    -0.272 OA
ATOM     20  C   UNL A   1      32.182  30.713  26.570  1.00  0.00     0.218 C 
ATOM     21  N   UNL A   1      31.395  30.621  25.381  1.00  0.00    -0.329 N 
ATOM     22  O   UNL A   1      31.089  29.152  23.683  1.00  0.00    -0.248 OA
ATOM     23  H   UNL A   1      30.666  31.241  25.152  1.00  0.00     0.165 HD
ENDBRANCH  15  16
ENDBRANCH  13  15
ENDBRANCH  10  13
ENDBRANCH   5   7
ENDBRANCH   4   5
ENDBRANCH   3   4
ENDBRANCH   2   3
ENDBRANCH   1   2
BRANCH   1  24
ATOM     24  C   UNL A   1      35.229  20.427  24.830  1.00  0.00     0.202 C 
BRANCH  24  25
ATOM     25  C   UNL A   1      36.162  21.253  25.728  1.00  0.00     0.261 C 
BRANCH  25  26
ATOM     26  O   UNL A   1      37.383  21.658  25.087  1.00  0.00    -0.460 OA
BRANCH  26  27
ATOM     27  C   UNL A   1      38.511  21.314  25.762  1.00  0.00     0.338 C 
ATOM     28  O   UNL A   1      39.092  20.245  25.729  1.00  0.00    -0.246 OA
BRANCH  27  29
ATOM     29  C   UNL A   1      39.081  22.498  26.429  1.00  0.00     0.060 A 
ATOM     30  C   UNL A   1      38.533  23.750  26.116  1.00  0.00     0.016 A 
ATOM     31  C   UNL A   1      40.201  22.396  27.255  1.00  0.00     0.016 A 
ATOM     32  C   UNL A   1      39.130  24.911  26.600  1.00  0.00     0.010 A 
ATOM     33  C   UNL A   1      40.803  23.565  27.730  1.00  0.00     0.010 A 
ATOM     34  C   UNL A   1      40.292  24.827  27.376  1.00  0.00    -0.014 A 
BRANCH  34  35
ATOM     35  C   UNL A   1      41.045  26.062  27.700  1.00  0.00     0.031 A 
ATOM     36  C   UNL A   1      40.359  27.156  28.471  1.00  0.00     0.074 A 
ATOM     37  C   UNL A   1      42.326  26.200  27.318  1.00  0.00     0.049 A 
ATOM     38  N   UNL A   1      40.818  28.326  28.833  1.00  0.00    -0.248 NA
ATOM     39  C   UNL A   1      38.970  26.900  28.887  1.00  0.00     0.031 C 
ATOM     40  C   UNL A   1      43.098  25.204  26.576  1.00  0.00     0.029 A 
ATOM     41  N   UNL A   1      43.197  27.249  27.482  1.00  0.00    -0.354 N 
ATOM     42  C   UNL A   1      39.769  28.958  29.489  1.00  0.00     0.074 A 
ATOM     43  C   UNL A   1      38.646  28.047  29.467  1.00  0.00     0.031 C 
ATOM     44  C   UNL A   1      44.320  25.702  26.323  1.00  0.00     0.029 A 
ATOM     45  C   UNL A   1      44.407  27.058  26.859  1.00  0.00     0.049 A 
ATOM     46  H   UNL A   1      42.976  28.059  27.996  1.00  0.00     0.167 HD
ATOM     47  C   UNL A   1      39.747  30.182  30.068  1.00  0.00     0.034 A 
ATOM     48  C   UNL A   1      45.454  27.895  26.717  1.00  0.00     0.034 A 
ATOM     49  C   UNL A   1      40.872  31.077  30.102  1.00  0.00     0.049 A 
ATOM     50  C   UNL A   1      45.394  29.261  27.347  1.00  0.00     0.074 A 
ATOM     51  C   UNL A   1      40.965  32.317  30.707  1.00  0.00     0.029 A 
ATOM     52  N   UNL A   1      42.095  30.836  29.495  1.00  0.00    -0.354 N 
ATOM     53  N   UNL A   1      44.436  29.801  28.062  1.00  0.00    -0.248 NA
ATOM     54  C   UNL A   1      46.574  30.123  27.180  1.00  0.00     0.031 C 
ATOM     55  C   UNL A   1      42.233  32.842  30.434  1.00  0.00     0.029 A 
ATOM     56  C   UNL A   1      42.944  31.910  29.694  1.00  0.00     0.049 A 
ATOM     57  H   UNL A   1      42.324  30.020  28.993  1.00  0.00     0.167 HD
ATOM     58  C   UNL A   1      44.912  31.045  28.462  1.00  0.00     0.074 A 
ATOM     59  C   UNL A   1      46.251  31.171  27.925  1.00  0.00     0.031 C 
ATOM     60  C   UNL A   1      44.292  32.001  29.198  1.00  0.00     0.034 A 
BRANCH  47  61
ATOM     61  C   UNL A   1      38.466  30.621  30.730  1.00  0.00     0.023 A 
ATOM     62  C   UNL A   1      38.239  30.321  32.088  1.00  0.00     0.012 A 
ATOM     63  C   UNL A   1      37.514  31.380  30.021  1.00  0.00     0.148 A 
ATOM     64  C   UNL A   1      37.070  30.742  32.722  1.00  0.00     0.002 A 
ATOM     65  C   UNL A   1      36.374  31.836  30.672  1.00  0.00     0.091 A 
ATOM     66  F   UNL A   1      37.738  31.637  28.724  1.00  0.00    -0.205 F 
ATOM     67  C   UNL A   1      36.144  31.507  32.018  1.00  0.00     0.022 A 
BRANCH  65  68
ATOM     68  S   UNL A   1      35.160  32.893  29.875  1.00  0.00     0.127 S 
ATOM     69  O   UNL A   1      34.249  33.182  30.982  1.00  0.00    -0.237 OA
ATOM     70  O   UNL A   1      35.978  34.028  29.446  1.00  0.00    -0.237 OA
ATOM     71  O   UNL A   1      34.592  32.107  28.789  1.00  0.00    -0.744 OA
ENDBRANCH  65  68
ENDBRANCH  47  61
BRANCH  48  72
ATOM     72  C   UNL A   1      46.662  27.454  25.962  1.00  0.00     0.023 A 
ATOM     73  C   UNL A   1      46.756  27.716  24.581  1.00  0.00     0.012 A 
ATOM     74  C   UNL A   1      47.719  26.785  26.609  1.00  0.00     0.148 A 
ATOM     75  C   UNL A   1      47.867  27.291  23.852  1.00  0.00     0.002 A 
ATOM     76  C   UNL A   1      48.849  26.415  25.888  1.00  0.00     0.091 A 
ATOM     77  F   UNL A   1      47.602  26.531  27.920  1.00  0.00    -0.205 F 
ATOM     78  C   UNL A   1      48.917  26.651  24.507  1.00  0.00     0.022 A 
BRANCH  76  79
ATOM     79  S   UNL A   1      50.298  25.702  26.671  1.00  0.00     0.127 S 
ATOM     80  O   UNL A   1      51.216  25.574  25.542  1.00  0.00    -0.237 OA
ATOM     81  O   UNL A   1      50.655  26.737  27.643  1.00  0.00    -0.237 OA
ATOM     82  O   UNL A   1      49.850  24.451  27.266  1.00  0.00    -0.744 OA
ENDBRANCH  76  79
ENDBRANCH  48  72
BRANCH  60  83
ATOM     83  C   UNL A   1      45.068  33.256  29.513  1.00  0.00     0.023 A 
ATOM     84  C   UNL A   1      45.880  33.313  30.663  1.00  0.00     0.012 A 
ATOM     85  C   UNL A   1      45.046  34.351  28.627  1.00  0.00     0.148 A 
ATOM     86  C   UNL A   1      46.632  34.455  30.944  1.00  0.00     0.002 A 
ATOM     87  C   UNL A   1      45.837  35.464  28.887  1.00  0.00     0.091 A 
ATOM     88  F   UNL A   1      44.255  34.285  27.547  1.00  0.00    -0.205 F 
ATOM     89  C   UNL A   1      46.619  35.523  30.051  1.00  0.00     0.022 A 
BRANCH  87  90
ATOM     90  S   UNL A   1      45.963  36.845  27.744  1.00  0.00     0.127 S 
ATOM     91  O   UNL A   1      46.865  37.745  28.462  1.00  0.00    -0.237 OA
ATOM     92  O   UNL A   1      46.546  36.214  26.559  1.00  0.00    -0.237 OA
ATOM     93  O   UNL A   1      44.606  37.339  27.559  1.00  0.00    -0.744 OA
ENDBRANCH  87  90
ENDBRANCH  60  83
ENDBRANCH  34  35
ENDBRANCH  27  29
ENDBRANCH  26  27
ENDBRANCH  25  26
ENDBRANCH  24  25
ENDBRANCH   1  24
TORSDOF 20
ENDMDL
