MODEL 1
REMARK VINA RESULT:     -10.9      0.000      0.000
REMARK SMILES CCOc1ccc(NC(=O)CC2(CC(=O)OCCOCCOC(=O)c3ccc(-c4c5nc(c(-c6cccc(S(=O)(=O)[O-])c6F)c6ccc([nH]6)c(-c6cccc(S(=O)(=O)[O-])c6F)c6nc(c(-c7cccc(S(=O)(=O)[O-])c7F)c7ccc4[nH]7)C=C6)C=C5)cc3)CCCCC2)cc1
REMARK SMILES IDX 17 1 16 2 14 3 15 4 13 5 12 6 88 7 92 8 89 9 91 10 90 11
REMARK SMILES IDX 11 12 9 13 8 14 10 16 7 17 4 18 5 19 94 20 6 21 93 22 3 23
REMARK SMILES IDX 2 24 1 25 18 26 19 27 20 28 21 29 22 30 23 31 24 32 25 33
REMARK SMILES IDX 26 34 87 35 27 36 86 37 28 38 29 39 30 40 80 41 31 42 85 43
REMARK SMILES IDX 79 44 81 45 32 46 84 47 78 48 77 49 33 51 65 52 45 53 64 54
REMARK SMILES IDX 46 55 49 56 63 57 82 58 47 59 48 60 62 62 83 63 50 64 34 65
REMARK SMILES IDX 35 66 43 67 36 68 38 69 44 70 37 71 39 72 40 73 41 74 42 75
REMARK SMILES IDX 66 76 67 77 75 78 68 79 70 80 76 81 69 82 71 83 72 84 73 85
REMARK SMILES IDX 74 86 51 87 52 88 60 89 53 90 55 91 61 92 54 93 56 94 57 95
REMARK SMILES IDX 58 96 59 97
REMARK H PARENT 8 15 81 50 49 61
REMARK Flexibility Score: inf
ROOT
ATOM      1  C   UNL A   1      33.816  28.236  26.217  1.00  0.00     0.261 C 
ENDROOT
BRANCH   1   2
ATOM      2  O   UNL A   1      34.145  27.965  24.839  1.00  0.00    -0.463 OA
BRANCH   2   3
ATOM      3  C   UNL A   1      33.861  26.725  24.376  1.00  0.00     0.306 C 
ATOM      4  O   UNL A   1      33.386  26.482  23.272  1.00  0.00    -0.252 OA
BRANCH   3   5
ATOM      5  C   UNL A   1      34.039  25.642  25.419  1.00  0.00     0.130 C 
BRANCH   5   6
ATOM      6  C   UNL A   1      33.728  24.138  25.159  1.00  0.00    -0.011 C 
ATOM      7  C   UNL A   1      34.525  23.329  26.226  1.00  0.00     0.008 C 
ATOM      8  C   UNL A   1      34.215  23.620  23.773  1.00  0.00     0.008 C 
ATOM      9  C   UNL A   1      36.044  23.321  26.051  1.00  0.00     0.001 C 
ATOM     10  C   UNL A   1      35.729  23.671  23.582  1.00  0.00     0.001 C 
ATOM     11  C   UNL A   1      36.449  22.869  24.658  1.00  0.00     0.000 C 
BRANCH   6  12
ATOM     12  C   UNL A   1      32.202  23.782  25.253  1.00  0.00     0.108 C 
BRANCH  12  13
ATOM     13  C   UNL A   1      31.341  24.366  26.371  1.00  0.00     0.224 C 
ATOM     14  N   UNL A   1      30.475  25.400  26.203  1.00  0.00    -0.326 N 
ATOM     15  H   UNL A   1      29.919  25.597  26.990  1.00  0.00     0.169 HD
ATOM     16  O   UNL A   1      31.373  23.855  27.496  1.00  0.00    -0.275 OA
BRANCH  14  17
ATOM     17  C   UNL A   1      30.235  26.232  25.109  1.00  0.00     0.041 A 
ATOM     18  C   UNL A   1      29.454  28.137  23.246  1.00  0.00     0.119 A 
ATOM     19  C   UNL A   1      29.084  26.808  23.064  1.00  0.00     0.048 A 
ATOM     20  C   UNL A   1      30.288  28.504  24.298  1.00  0.00     0.048 A 
ATOM     21  C   UNL A   1      29.487  25.846  23.994  1.00  0.00     0.030 A 
ATOM     22  C   UNL A   1      30.718  27.540  25.207  1.00  0.00     0.030 A 
BRANCH  18  23
ATOM     23  O   UNL A   1      28.868  29.119  22.502  1.00  0.00    -0.494 OA
BRANCH  23  24
ATOM     24  C   UNL A   1      27.617  29.544  23.042  1.00  0.00     0.226 C 
ATOM     25  C   UNL A   1      27.680  31.009  23.443  1.00  0.00     0.049 C 
ENDBRANCH  23  24
ENDBRANCH  18  23
ENDBRANCH  14  17
ENDBRANCH  12  13
ENDBRANCH   6  12
ENDBRANCH   5   6
ENDBRANCH   3   5
ENDBRANCH   2   3
ENDBRANCH   1   2
BRANCH   1  26
ATOM     26  C   UNL A   1      33.689  29.736  26.492  1.00  0.00     0.202 C 
BRANCH  26  27
ATOM     27  O   UNL A   1      32.673  30.413  25.749  1.00  0.00    -0.374 OA
BRANCH  27  28
ATOM     28  C   UNL A   1      31.664  31.066  26.519  1.00  0.00     0.202 C 
BRANCH  28  29
ATOM     29  C   UNL A   1      31.857  32.575  26.678  1.00  0.00     0.261 C 
BRANCH  29  30
ATOM     30  O   UNL A   1      32.346  32.884  27.999  1.00  0.00    -0.460 OA
BRANCH  30  31
ATOM     31  C   UNL A   1      33.387  33.742  28.026  1.00  0.00     0.338 C 
ATOM     32  O   UNL A   1      33.340  34.968  28.009  1.00  0.00    -0.246 OA
BRANCH  31  33
ATOM     33  C   UNL A   1      34.640  33.010  28.275  1.00  0.00     0.060 A 
ATOM     34  C   UNL A   1      34.533  31.768  28.913  1.00  0.00     0.016 A 
ATOM     35  C   UNL A   1      35.892  33.555  27.978  1.00  0.00     0.016 A 
ATOM     36  C   UNL A   1      35.682  31.099  29.325  1.00  0.00     0.010 A 
ATOM     37  C   UNL A   1      37.045  32.879  28.398  1.00  0.00     0.010 A 
ATOM     38  C   UNL A   1      36.942  31.673  29.115  1.00  0.00    -0.014 A 
BRANCH  38  39
ATOM     39  C   UNL A   1      38.118  31.075  29.795  1.00  0.00     0.031 A 
ATOM     40  C   UNL A   1      38.425  31.471  31.215  1.00  0.00     0.074 A 
ATOM     41  C   UNL A   1      38.869  30.144  29.179  1.00  0.00     0.049 A 
ATOM     42  N   UNL A   1      39.343  31.009  32.022  1.00  0.00    -0.248 NA
ATOM     43  C   UNL A   1      37.583  32.526  31.804  1.00  0.00     0.031 C 
ATOM     44  C   UNL A   1      38.677  29.676  27.808  1.00  0.00     0.029 A 
ATOM     45  N   UNL A   1      39.950  29.429  29.632  1.00  0.00    -0.354 N 
ATOM     46  C   UNL A   1      39.201  31.721  33.207  1.00  0.00     0.074 A 
ATOM     47  C   UNL A   1      38.121  32.664  33.008  1.00  0.00     0.031 C 
ATOM     48  C   UNL A   1      39.620  28.761  27.524  1.00  0.00     0.029 A 
ATOM     49  C   UNL A   1      40.486  28.585  28.689  1.00  0.00     0.049 A 
ATOM     50  H   UNL A   1      40.308  29.514  30.544  1.00  0.00     0.167 HD
ATOM     51  C   UNL A   1      39.887  31.588  34.366  1.00  0.00     0.034 A 
ATOM     52  C   UNL A   1      41.555  27.766  28.757  1.00  0.00     0.034 A 
ATOM     53  C   UNL A   1      40.944  30.635  34.576  1.00  0.00     0.049 A 
ATOM     54  C   UNL A   1      42.312  27.645  30.054  1.00  0.00     0.074 A 
ATOM     55  C   UNL A   1      41.663  30.390  35.732  1.00  0.00     0.029 A 
ATOM     56  N   UNL A   1      41.437  29.775  33.608  1.00  0.00    -0.354 N 
ATOM     57  N   UNL A   1      42.073  28.225  31.205  1.00  0.00    -0.248 NA
ATOM     58  C   UNL A   1      43.461  26.727  30.073  1.00  0.00     0.031 C 
ATOM     59  C   UNL A   1      42.608  29.396  35.455  1.00  0.00     0.029 A 
ATOM     60  C   UNL A   1      42.463  29.009  34.133  1.00  0.00     0.049 A 
ATOM     61  H   UNL A   1      41.107  29.719  32.682  1.00  0.00     0.167 HD
ATOM     62  C   UNL A   1      43.020  27.721  32.092  1.00  0.00     0.074 A 
ATOM     63  C   UNL A   1      43.823  26.770  31.349  1.00  0.00     0.031 C 
ATOM     64  C   UNL A   1      43.218  28.027  33.398  1.00  0.00     0.034 A 
BRANCH  51  65
ATOM     65  C   UNL A   1      39.489  32.471  35.518  1.00  0.00     0.023 A 
ATOM     66  C   UNL A   1      38.668  31.949  36.539  1.00  0.00     0.012 A 
ATOM     67  C   UNL A   1      39.969  33.791  35.622  1.00  0.00     0.148 A 
ATOM     68  C   UNL A   1      38.310  32.736  37.633  1.00  0.00     0.002 A 
ATOM     69  C   UNL A   1      39.638  34.557  36.734  1.00  0.00     0.091 A 
ATOM     70  F   UNL A   1      40.726  34.276  34.627  1.00  0.00    -0.205 F 
ATOM     71  C   UNL A   1      38.803  34.034  37.735  1.00  0.00     0.022 A 
BRANCH  69  72
ATOM     72  S   UNL A   1      40.280  36.215  36.987  1.00  0.00     0.127 S 
ATOM     73  O   UNL A   1      41.705  35.955  37.177  1.00  0.00    -0.237 OA
ATOM     74  O   UNL A   1      39.944  36.874  35.724  1.00  0.00    -0.237 OA
ATOM     75  O   UNL A   1      39.577  36.743  38.148  1.00  0.00    -0.744 OA
ENDBRANCH  69  72
ENDBRANCH  51  65
BRANCH  52  76
ATOM     76  C   UNL A   1      41.942  26.955  27.568  1.00  0.00     0.023 A 
ATOM     77  C   UNL A   1      42.616  27.568  26.494  1.00  0.00     0.012 A 
ATOM     78  C   UNL A   1      41.669  25.574  27.508  1.00  0.00     0.148 A 
ATOM     79  C   UNL A   1      42.990  26.826  25.373  1.00  0.00     0.002 A 
ATOM     80  C   UNL A   1      42.092  24.830  26.413  1.00  0.00     0.091 A 
ATOM     81  F   UNL A   1      41.003  25.013  28.528  1.00  0.00    -0.205 F 
ATOM     82  C   UNL A   1      42.740  25.457  25.337  1.00  0.00     0.022 A 
BRANCH  80  83
ATOM     83  S   UNL A   1      41.926  23.043  26.349  1.00  0.00     0.127 S 
ATOM     84  O   UNL A   1      40.476  22.875  26.361  1.00  0.00    -0.237 OA
ATOM     85  O   UNL A   1      42.574  22.721  25.077  1.00  0.00    -0.237 OA
ATOM     86  O   UNL A   1      42.635  22.545  27.522  1.00  0.00    -0.744 OA
ENDBRANCH  80  83
ENDBRANCH  52  76
BRANCH  64  87
ATOM     87  C   UNL A   1      44.331  27.320  34.125  1.00  0.00     0.023 A 
ATOM     88  C   UNL A   1      45.595  27.934  34.229  1.00  0.00     0.012 A 
ATOM     89  C   UNL A   1      44.105  26.091  34.775  1.00  0.00     0.148 A 
ATOM     90  C   UNL A   1      46.624  27.325  34.946  1.00  0.00     0.002 A 
ATOM     91  C   UNL A   1      45.123  25.510  35.524  1.00  0.00     0.091 A 
ATOM     92  F   UNL A   1      42.902  25.511  34.649  1.00  0.00    -0.205 F 
ATOM     93  C   UNL A   1      46.385  26.120  35.603  1.00  0.00     0.022 A 
BRANCH  91  94
ATOM     94  S   UNL A   1      44.874  24.006  36.477  1.00  0.00     0.127 S 
ATOM     95  O   UNL A   1      43.860  23.315  35.683  1.00  0.00    -0.237 OA
ATOM     96  O   UNL A   1      46.201  23.389  36.441  1.00  0.00    -0.237 OA
ATOM     97  O   UNL A   1      44.449  24.440  37.801  1.00  0.00    -0.744 OA
ENDBRANCH  91  94
ENDBRANCH  64  87
ENDBRANCH  38  39
ENDBRANCH  31  33
ENDBRANCH  30  31
ENDBRANCH  29  30
ENDBRANCH  28  29
ENDBRANCH  27  28
ENDBRANCH  26  27
ENDBRANCH   1  26
TORSDOF 23
ENDMDL
MODEL 2
REMARK VINA RESULT:     -10.0      1.937      3.418
REMARK SMILES CCOc1ccc(NC(=O)CC2(CC(=O)OCCOCCOC(=O)c3ccc(-c4c5nc(c(-c6cccc(S(=O)(=O)[O-])c6F)c6ccc([nH]6)c(-c6cccc(S(=O)(=O)[O-])c6F)c6nc(c(-c7cccc(S(=O)(=O)[O-])c7F)c7ccc4[nH]7)C=C6)C=C5)cc3)CCCCC2)cc1
REMARK SMILES IDX 17 1 16 2 14 3 15 4 13 5 12 6 88 7 92 8 89 9 91 10 90 11
REMARK SMILES IDX 11 12 9 13 8 14 10 16 7 17 4 18 5 19 94 20 6 21 93 22 3 23
REMARK SMILES IDX 2 24 1 25 18 26 19 27 20 28 21 29 22 30 23 31 24 32 25 33
REMARK SMILES IDX 26 34 87 35 27 36 86 37 28 38 29 39 30 40 80 41 31 42 85 43
REMARK SMILES IDX 79 44 81 45 32 46 84 47 78 48 77 49 33 51 65 52 45 53 64 54
REMARK SMILES IDX 46 55 49 56 63 57 82 58 47 59 48 60 62 62 83 63 50 64 34 65
REMARK SMILES IDX 35 66 43 67 36 68 38 69 44 70 37 71 39 72 40 73 41 74 42 75
REMARK SMILES IDX 66 76 67 77 75 78 68 79 70 80 76 81 69 82 71 83 72 84 73 85
REMARK SMILES IDX 74 86 51 87 52 88 60 89 53 90 55 91 61 92 54 93 56 94 57 95
REMARK SMILES IDX 58 96 59 97
REMARK H PARENT 8 15 81 50 49 61
REMARK Flexibility Score: inf
ROOT
ATOM      1  C   UNL A   1      32.975  29.408  24.890  1.00  0.00     0.261 C 
ENDROOT
BRANCH   1   2
ATOM      2  O   UNL A   1      32.641  28.873  23.592  1.00  0.00    -0.463 OA
BRANCH   2   3
ATOM      3  C   UNL A   1      33.575  28.101  22.991  1.00  0.00     0.306 C 
ATOM      4  O   UNL A   1      33.852  28.140  21.797  1.00  0.00    -0.252 OA
BRANCH   3   5
ATOM      5  C   UNL A   1      34.160  27.047  23.907  1.00  0.00     0.130 C 
BRANCH   5   6
ATOM      6  C   UNL A   1      33.320  25.902  24.548  1.00  0.00    -0.011 C 
ATOM      7  C   UNL A   1      34.169  24.601  24.415  1.00  0.00     0.008 C 
ATOM      8  C   UNL A   1      31.976  25.614  23.814  1.00  0.00     0.008 C 
ATOM      9  C   UNL A   1      34.327  24.056  22.996  1.00  0.00     0.001 C 
ATOM     10  C   UNL A   1      32.138  25.127  22.376  1.00  0.00     0.001 C 
ATOM     11  C   UNL A   1      32.982  23.860  22.315  1.00  0.00     0.000 C 
BRANCH   6  12
ATOM     12  C   UNL A   1      32.958  26.149  26.055  1.00  0.00     0.108 C 
BRANCH  12  13
ATOM     13  C   UNL A   1      31.544  25.875  26.563  1.00  0.00     0.224 C 
ATOM     14  N   UNL A   1      31.033  24.630  26.755  1.00  0.00    -0.326 N 
ATOM     15  H   UNL A   1      30.146  24.616  27.182  1.00  0.00     0.169 HD
ATOM     16  O   UNL A   1      30.814  26.822  26.877  1.00  0.00    -0.275 OA
BRANCH  14  17
ATOM     17  C   UNL A   1      31.545  23.368  26.455  1.00  0.00     0.041 A 
ATOM     18  C   UNL A   1      32.980  21.106  25.724  1.00  0.00     0.119 A 
ATOM     19  C   UNL A   1      31.854  21.470  24.992  1.00  0.00     0.048 A 
ATOM     20  C   UNL A   1      33.339  21.808  26.871  1.00  0.00     0.048 A 
ATOM     21  C   UNL A   1      31.124  22.601  25.367  1.00  0.00     0.030 A 
ATOM     22  C   UNL A   1      32.591  22.915  27.265  1.00  0.00     0.030 A 
BRANCH  18  23
ATOM     23  O   UNL A   1      33.842  20.169  25.234  1.00  0.00    -0.494 OA
BRANCH  23  24
ATOM     24  C   UNL A   1      33.260  18.867  25.173  1.00  0.00     0.226 C 
ATOM     25  C   UNL A   1      32.830  18.541  23.752  1.00  0.00     0.049 C 
ENDBRANCH  23  24
ENDBRANCH  18  23
ENDBRANCH  14  17
ENDBRANCH  12  13
ENDBRANCH   6  12
ENDBRANCH   5   6
ENDBRANCH   3   5
ENDBRANCH   2   3
ENDBRANCH   1   2
BRANCH   1  26
ATOM     26  C   UNL A   1      31.730  29.806  25.685  1.00  0.00     0.202 C 
BRANCH  26  27
ATOM     27  O   UNL A   1      31.968  30.222  27.031  1.00  0.00    -0.374 OA
BRANCH  27  28
ATOM     28  C   UNL A   1      32.908  31.283  27.202  1.00  0.00     0.202 C 
BRANCH  28  29
ATOM     29  C   UNL A   1      32.293  32.683  27.232  1.00  0.00     0.261 C 
BRANCH  29  30
ATOM     30  O   UNL A   1      33.327  33.687  27.296  1.00  0.00    -0.460 OA
BRANCH  30  31
ATOM     31  C   UNL A   1      33.368  34.379  28.453  1.00  0.00     0.338 C 
ATOM     32  O   UNL A   1      32.512  35.141  28.892  1.00  0.00    -0.246 OA
BRANCH  31  33
ATOM     33  C   UNL A   1      34.527  33.958  29.256  1.00  0.00     0.060 A 
ATOM     34  C   UNL A   1      35.788  34.391  28.826  1.00  0.00     0.016 A 
ATOM     35  C   UNL A   1      34.404  33.089  30.344  1.00  0.00     0.016 A 
ATOM     36  C   UNL A   1      36.936  33.899  29.438  1.00  0.00     0.010 A 
ATOM     37  C   UNL A   1      35.564  32.594  30.954  1.00  0.00     0.010 A 
ATOM     38  C   UNL A   1      36.834  32.960  30.472  1.00  0.00    -0.014 A 
BRANCH  38  39
ATOM     39  C   UNL A   1      38.062  32.257  30.920  1.00  0.00     0.031 A 
ATOM     40  C   UNL A   1      38.703  32.660  32.222  1.00  0.00     0.074 A 
ATOM     41  C   UNL A   1      38.566  31.232  30.210  1.00  0.00     0.049 A 
ATOM     42  N   UNL A   1      39.722  32.123  32.841  1.00  0.00    -0.248 NA
ATOM     43  C   UNL A   1      38.118  33.818  32.918  1.00  0.00     0.031 C 
ATOM     44  C   UNL A   1      38.039  30.748  28.936  1.00  0.00     0.029 A 
ATOM     45  N   UNL A   1      39.642  30.417  30.463  1.00  0.00    -0.354 N 
ATOM     46  C   UNL A   1      39.909  32.882  33.991  1.00  0.00     0.074 A 
ATOM     47  C   UNL A   1      38.912  33.931  33.973  1.00  0.00     0.031 C 
ATOM     48  C   UNL A   1      38.802  29.727  28.509  1.00  0.00     0.029 A 
ATOM     49  C   UNL A   1      39.875  29.491  29.474  1.00  0.00     0.049 A 
ATOM     50  H   UNL A   1      40.193  30.489  31.274  1.00  0.00     0.167 HD
ATOM     51  C   UNL A   1      40.811  32.709  34.986  1.00  0.00     0.034 A 
ATOM     52  C   UNL A   1      40.846  28.562  29.359  1.00  0.00     0.034 A 
ATOM     53  C   UNL A   1      41.786  31.652  35.019  1.00  0.00     0.049 A 
ATOM     54  C   UNL A   1      41.847  28.398  30.473  1.00  0.00     0.074 A 
ATOM     55  C   UNL A   1      42.708  31.365  36.009  1.00  0.00     0.029 A 
ATOM     56  N   UNL A   1      41.972  30.716  34.015  1.00  0.00    -0.354 N 
ATOM     57  N   UNL A   1      41.920  29.034  31.617  1.00  0.00    -0.248 NA
ATOM     58  C   UNL A   1      42.875  27.361  30.299  1.00  0.00     0.031 C 
ATOM     59  C   UNL A   1      43.467  30.266  35.593  1.00  0.00     0.029 A 
ATOM     60  C   UNL A   1      43.004  29.858  34.353  1.00  0.00     0.049 A 
ATOM     61  H   UNL A   1      41.448  30.669  33.183  1.00  0.00     0.167 HD
ATOM     62  C   UNL A   1      42.978  28.456  32.310  1.00  0.00     0.074 A 
ATOM     63  C   UNL A   1      43.504  27.402  31.466  1.00  0.00     0.031 C 
ATOM     64  C   UNL A   1      43.481  28.778  33.528  1.00  0.00     0.034 A 
BRANCH  51  65
ATOM     65  C   UNL A   1      40.759  33.664  36.148  1.00  0.00     0.023 A 
ATOM     66  C   UNL A   1      41.412  34.909  36.051  1.00  0.00     0.012 A 
ATOM     67  C   UNL A   1      40.020  33.358  37.307  1.00  0.00     0.148 A 
ATOM     68  C   UNL A   1      41.353  35.825  37.101  1.00  0.00     0.002 A 
ATOM     69  C   UNL A   1      39.934  34.291  38.334  1.00  0.00     0.091 A 
ATOM     70  F   UNL A   1      39.428  32.158  37.390  1.00  0.00    -0.205 F 
ATOM     71  C   UNL A   1      40.606  35.520  38.236  1.00  0.00     0.022 A 
BRANCH  69  72
ATOM     72  S   UNL A   1      38.941  34.017  39.806  1.00  0.00     0.127 S 
ATOM     73  O   UNL A   1      39.850  33.225  40.632  1.00  0.00    -0.237 OA
ATOM     74  O   UNL A   1      38.714  35.381  40.286  1.00  0.00    -0.237 OA
ATOM     75  O   UNL A   1      37.741  33.328  39.354  1.00  0.00    -0.744 OA
ENDBRANCH  69  72
ENDBRANCH  51  65
BRANCH  52  76
ATOM     76  C   UNL A   1      40.886  27.679  28.159  1.00  0.00     0.023 A 
ATOM     77  C   UNL A   1      41.537  28.119  26.990  1.00  0.00     0.012 A 
ATOM     78  C   UNL A   1      40.305  26.396  28.180  1.00  0.00     0.148 A 
ATOM     79  C   UNL A   1      41.588  27.306  25.857  1.00  0.00     0.002 A 
ATOM     80  C   UNL A   1      40.407  25.570  27.067  1.00  0.00     0.091 A 
ATOM     81  F   UNL A   1      39.668  26.005  29.293  1.00  0.00    -0.205 F 
ATOM     82  C   UNL A   1      41.035  26.029  25.899  1.00  0.00     0.022 A 
BRANCH  80  83
ATOM     83  S   UNL A   1      39.839  23.866  27.085  1.00  0.00     0.127 S 
ATOM     84  O   UNL A   1      40.282  23.388  25.779  1.00  0.00    -0.237 OA
ATOM     85  O   UNL A   1      40.570  23.313  28.226  1.00  0.00    -0.237 OA
ATOM     86  O   UNL A   1      38.396  23.941  27.280  1.00  0.00    -0.744 OA
ENDBRANCH  80  83
ENDBRANCH  52  76
BRANCH  64  87
ATOM     87  C   UNL A   1      44.648  27.975  34.041  1.00  0.00     0.023 A 
ATOM     88  C   UNL A   1      45.956  28.476  33.893  1.00  0.00     0.012 A 
ATOM     89  C   UNL A   1      44.444  26.770  34.743  1.00  0.00     0.148 A 
ATOM     90  C   UNL A   1      47.046  27.777  34.411  1.00  0.00     0.002 A 
ATOM     91  C   UNL A   1      45.532  26.101  35.294  1.00  0.00     0.091 A 
ATOM     92  F   UNL A   1      43.194  26.299  34.858  1.00  0.00    -0.205 F 
ATOM     93  C   UNL A   1      46.833  26.598  35.121  1.00  0.00     0.022 A 
BRANCH  91  94
ATOM     94  S   UNL A   1      45.340  24.625  36.301  1.00  0.00     0.127 S 
ATOM     95  O   UNL A   1      46.533  23.861  35.940  1.00  0.00    -0.237 OA
ATOM     96  O   UNL A   1      45.353  25.168  37.660  1.00  0.00    -0.237 OA
ATOM     97  O   UNL A   1      44.070  24.033  35.902  1.00  0.00    -0.744 OA
ENDBRANCH  91  94
ENDBRANCH  64  87
ENDBRANCH  38  39
ENDBRANCH  31  33
ENDBRANCH  30  31
ENDBRANCH  29  30
ENDBRANCH  28  29
ENDBRANCH  27  28
ENDBRANCH  26  27
ENDBRANCH   1  26
TORSDOF 23
ENDMDL
MODEL 3
REMARK VINA RESULT:      -9.7      2.892      4.289
REMARK SMILES CCOc1ccc(NC(=O)CC2(CC(=O)OCCOCCOC(=O)c3ccc(-c4c5nc(c(-c6cccc(S(=O)(=O)[O-])c6F)c6ccc([nH]6)c(-c6cccc(S(=O)(=O)[O-])c6F)c6nc(c(-c7cccc(S(=O)(=O)[O-])c7F)c7ccc4[nH]7)C=C6)C=C5)cc3)CCCCC2)cc1
REMARK SMILES IDX 17 1 16 2 14 3 15 4 13 5 12 6 88 7 92 8 89 9 91 10 90 11
REMARK SMILES IDX 11 12 9 13 8 14 10 16 7 17 4 18 5 19 94 20 6 21 93 22 3 23
REMARK SMILES IDX 2 24 1 25 18 26 19 27 20 28 21 29 22 30 23 31 24 32 25 33
REMARK SMILES IDX 26 34 87 35 27 36 86 37 28 38 29 39 30 40 80 41 31 42 85 43
REMARK SMILES IDX 79 44 81 45 32 46 84 47 78 48 77 49 33 51 65 52 45 53 64 54
REMARK SMILES IDX 46 55 49 56 63 57 82 58 47 59 48 60 62 62 83 63 50 64 34 65
REMARK SMILES IDX 35 66 43 67 36 68 38 69 44 70 37 71 39 72 40 73 41 74 42 75
REMARK SMILES IDX 66 76 67 77 75 78 68 79 70 80 76 81 69 82 71 83 72 84 73 85
REMARK SMILES IDX 74 86 51 87 52 88 60 89 53 90 55 91 61 92 54 93 56 94 57 95
REMARK SMILES IDX 58 96 59 97
REMARK H PARENT 8 15 81 50 49 61
REMARK Flexibility Score: inf
ROOT
ATOM      1  C   UNL A   1      33.409  29.198  25.086  1.00  0.00     0.261 C 
ENDROOT
BRANCH   1   2
ATOM      2  O   UNL A   1      33.040  29.109  23.695  1.00  0.00    -0.463 OA
BRANCH   2   3
ATOM      3  C   UNL A   1      33.681  28.179  22.951  1.00  0.00     0.306 C 
ATOM      4  O   UNL A   1      33.910  28.279  21.750  1.00  0.00    -0.252 OA
BRANCH   3   5
ATOM      5  C   UNL A   1      33.966  26.900  23.709  1.00  0.00     0.130 C 
BRANCH   5   6
ATOM      6  C   UNL A   1      32.885  25.820  24.010  1.00  0.00    -0.011 C 
ATOM      7  C   UNL A   1      33.648  24.480  24.242  1.00  0.00     0.008 C 
ATOM      8  C   UNL A   1      31.903  25.557  22.828  1.00  0.00     0.008 C 
ATOM      9  C   UNL A   1      34.300  23.867  23.002  1.00  0.00     0.001 C 
ATOM     10  C   UNL A   1      32.570  25.001  21.572  1.00  0.00     0.001 C 
ATOM     11  C   UNL A   1      33.304  23.699  21.867  1.00  0.00     0.000 C 
BRANCH   6  12
ATOM     12  C   UNL A   1      31.994  26.147  25.261  1.00  0.00     0.108 C 
BRANCH  12  13
ATOM     13  C   UNL A   1      30.591  25.556  25.383  1.00  0.00     0.224 C 
ATOM     14  N   UNL A   1      30.335  24.274  25.754  1.00  0.00    -0.326 N 
ATOM     15  H   UNL A   1      29.381  24.072  25.885  1.00  0.00     0.169 HD
ATOM     16  O   UNL A   1      29.606  26.279  25.191  1.00  0.00    -0.275 OA
BRANCH  14  17
ATOM     17  C   UNL A   1      31.188  23.194  25.982  1.00  0.00     0.041 A 
ATOM     18  C   UNL A   1      33.253  21.372  26.338  1.00  0.00     0.119 A 
ATOM     19  C   UNL A   1      32.366  21.205  25.278  1.00  0.00     0.048 A 
ATOM     20  C   UNL A   1      33.059  22.386  27.272  1.00  0.00     0.048 A 
ATOM     21  C   UNL A   1      31.319  22.114  25.106  1.00  0.00     0.030 A 
ATOM     22  C   UNL A   1      31.996  23.272  27.120  1.00  0.00     0.030 A 
BRANCH  18  23
ATOM     23  O   UNL A   1      34.414  20.657  26.378  1.00  0.00    -0.494 OA
BRANCH  23  24
ATOM     24  C   UNL A   1      35.041  20.557  25.099  1.00  0.00     0.226 C 
ATOM     25  C   UNL A   1      36.177  21.560  24.982  1.00  0.00     0.049 C 
ENDBRANCH  23  24
ENDBRANCH  18  23
ENDBRANCH  14  17
ENDBRANCH  12  13
ENDBRANCH   6  12
ENDBRANCH   5   6
ENDBRANCH   3   5
ENDBRANCH   2   3
ENDBRANCH   1   2
BRANCH   1  26
ATOM     26  C   UNL A   1      32.523  30.180  25.854  1.00  0.00     0.202 C 
BRANCH  26  27
ATOM     27  O   UNL A   1      32.797  30.291  27.253  1.00  0.00    -0.374 OA
BRANCH  27  28
ATOM     28  C   UNL A   1      33.929  31.084  27.608  1.00  0.00     0.202 C 
BRANCH  28  29
ATOM     29  C   UNL A   1      33.589  32.460  28.185  1.00  0.00     0.261 C 
BRANCH  29  30
ATOM     30  O   UNL A   1      34.742  33.032  28.836  1.00  0.00    -0.460 OA
BRANCH  30  31
ATOM     31  C   UNL A   1      35.030  32.498  30.041  1.00  0.00     0.338 C 
ATOM     32  O   UNL A   1      34.327  32.515  31.047  1.00  0.00    -0.246 OA
BRANCH  31  33
ATOM     33  C   UNL A   1      36.261  31.696  29.959  1.00  0.00     0.060 A 
ATOM     34  C   UNL A   1      36.263  30.466  30.629  1.00  0.00     0.016 A 
ATOM     35  C   UNL A   1      37.415  32.166  29.326  1.00  0.00     0.016 A 
ATOM     36  C   UNL A   1      37.441  29.733  30.730  1.00  0.00     0.010 A 
ATOM     37  C   UNL A   1      38.600  31.426  29.436  1.00  0.00     0.010 A 
ATOM     38  C   UNL A   1      38.628  30.232  30.178  1.00  0.00    -0.014 A 
BRANCH  38  39
ATOM     39  C   UNL A   1      39.910  29.571  30.529  1.00  0.00     0.031 A 
ATOM     40  C   UNL A   1      40.656  30.023  31.757  1.00  0.00     0.074 A 
ATOM     41  C   UNL A   1      40.373  28.539  29.802  1.00  0.00     0.049 A 
ATOM     42  N   UNL A   1      41.740  29.527  32.294  1.00  0.00    -0.248 NA
ATOM     43  C   UNL A   1      40.107  31.185  32.475  1.00  0.00     0.031 C 
ATOM     44  C   UNL A   1      39.746  28.009  28.594  1.00  0.00     0.029 A 
ATOM     45  N   UNL A   1      41.488  27.756  29.975  1.00  0.00    -0.354 N 
ATOM     46  C   UNL A   1      42.011  30.320  33.403  1.00  0.00     0.074 A 
ATOM     47  C   UNL A   1      40.990  31.344  33.451  1.00  0.00     0.031 C 
ATOM     48  C   UNL A   1      40.493  26.995  28.123  1.00  0.00     0.029 A 
ATOM     49  C   UNL A   1      41.655  26.811  28.992  1.00  0.00     0.049 A 
ATOM     50  H   UNL A   1      42.109  27.863  30.731  1.00  0.00     0.167 HD
ATOM     51  C   UNL A   1      43.004  30.195  34.315  1.00  0.00     0.034 A 
ATOM     52  C   UNL A   1      42.635  25.902  28.811  1.00  0.00     0.034 A 
ATOM     53  C   UNL A   1      44.005  29.163  34.285  1.00  0.00     0.049 A 
ATOM     54  C   UNL A   1      43.736  25.791  29.833  1.00  0.00     0.074 A 
ATOM     55  C   UNL A   1      45.020  28.924  35.193  1.00  0.00     0.029 A 
ATOM     56  N   UNL A   1      44.122  28.205  33.291  1.00  0.00    -0.354 N 
ATOM     57  N   UNL A   1      43.896  26.459  30.949  1.00  0.00    -0.248 NA
ATOM     58  C   UNL A   1      44.771  24.774  29.591  1.00  0.00     0.031 C 
ATOM     59  C   UNL A   1      45.765  27.831  34.737  1.00  0.00     0.029 A 
ATOM     60  C   UNL A   1      45.203  27.380  33.554  1.00  0.00     0.049 A 
ATOM     61  H   UNL A   1      43.526  28.123  32.512  1.00  0.00     0.167 HD
ATOM     62  C   UNL A   1      45.028  25.924  31.557  1.00  0.00     0.074 A 
ATOM     63  C   UNL A   1      45.502  24.861  30.694  1.00  0.00     0.031 C 
ATOM     64  C   UNL A   1      45.631  26.290  32.715  1.00  0.00     0.034 A 
BRANCH  51  65
ATOM     65  C   UNL A   1      43.033  31.179  35.453  1.00  0.00     0.023 A 
ATOM     66  C   UNL A   1      42.379  30.861  36.661  1.00  0.00     0.012 A 
ATOM     67  C   UNL A   1      43.750  32.387  35.352  1.00  0.00     0.148 A 
ATOM     68  C   UNL A   1      42.417  31.741  37.742  1.00  0.00     0.002 A 
ATOM     69  C   UNL A   1      43.815  33.241  36.446  1.00  0.00     0.091 A 
ATOM     70  F   UNL A   1      44.343  32.682  34.186  1.00  0.00    -0.205 F 
ATOM     71  C   UNL A   1      43.143  32.924  37.638  1.00  0.00     0.022 A 
BRANCH  69  72
ATOM     72  S   UNL A   1      44.782  34.756  36.430  1.00  0.00     0.127 S 
ATOM     73  O   UNL A   1      44.154  35.495  35.337  1.00  0.00    -0.237 OA
ATOM     74  O   UNL A   1      44.523  35.303  37.763  1.00  0.00    -0.237 OA
ATOM     75  O   UNL A   1      46.160  34.347  36.202  1.00  0.00    -0.744 OA
ENDBRANCH  69  72
ENDBRANCH  51  65
BRANCH  52  76
ATOM     76  C   UNL A   1      42.588  24.988  27.635  1.00  0.00     0.023 A 
ATOM     77  C   UNL A   1      43.401  25.251  26.515  1.00  0.00     0.012 A 
ATOM     78  C   UNL A   1      41.763  23.847  27.632  1.00  0.00     0.148 A 
ATOM     79  C   UNL A   1      43.374  24.406  25.405  1.00  0.00     0.002 A 
ATOM     80  C   UNL A   1      41.782  22.980  26.546  1.00  0.00     0.091 A 
ATOM     81  F   UNL A   1      40.978  23.627  28.696  1.00  0.00    -0.205 F 
ATOM     82  C   UNL A   1      42.576  23.265  25.424  1.00  0.00     0.022 A 
BRANCH  80  83
ATOM     83  S   UNL A   1      40.885  21.423  26.548  1.00  0.00     0.127 S 
ATOM     84  O   UNL A   1      41.755  20.575  25.739  1.00  0.00    -0.237 OA
ATOM     85  O   UNL A   1      40.852  21.093  27.973  1.00  0.00    -0.237 OA
ATOM     86  O   UNL A   1      39.580  21.727  25.976  1.00  0.00    -0.744 OA
ENDBRANCH  80  83
ENDBRANCH  52  76
BRANCH  64  87
ATOM     87  C   UNL A   1      46.859  25.528  33.140  1.00  0.00     0.023 A 
ATOM     88  C   UNL A   1      46.740  24.481  34.074  1.00  0.00     0.012 A 
ATOM     89  C   UNL A   1      48.113  25.791  32.552  1.00  0.00     0.148 A 
ATOM     90  C   UNL A   1      47.854  23.725  34.439  1.00  0.00     0.002 A 
ATOM     91  C   UNL A   1      49.209  25.005  32.888  1.00  0.00     0.091 A 
ATOM     92  F   UNL A   1      48.211  26.804  31.679  1.00  0.00    -0.205 F 
ATOM     93  C   UNL A   1      49.084  23.979  33.838  1.00  0.00     0.022 A 
BRANCH  91  94
ATOM     94  S   UNL A   1      50.810  25.203  32.095  1.00  0.00     0.127 S 
ATOM     95  O   UNL A   1      51.609  24.186  32.777  1.00  0.00    -0.237 OA
ATOM     96  O   UNL A   1      50.507  24.901  30.695  1.00  0.00    -0.237 OA
ATOM     97  O   UNL A   1      51.208  26.583  32.340  1.00  0.00    -0.744 OA
ENDBRANCH  91  94
ENDBRANCH  64  87
ENDBRANCH  38  39
ENDBRANCH  31  33
ENDBRANCH  30  31
ENDBRANCH  29  30
ENDBRANCH  28  29
ENDBRANCH  27  28
ENDBRANCH  26  27
ENDBRANCH   1  26
TORSDOF 23
ENDMDL
