MODEL 1
REMARK VINA RESULT:     -11.8      0.000      0.000
REMARK SMILES CC1(C)[C@H](O)CC[C@]2(C)[C@@H]1CC[C@@]1(C)Oc3oc(C(=O)OCCOCCOC(=O)c4ccc(-c5c6nc(c(-c7cccc(S(=O)(=O)[O-])c7F)c7ccc([nH]7)c(-c7cccc(S(=O)(=O)[O-])c7F)c7nc(c(-c8cccc(S(=O)(=O)[O-])c8F)c8ccc5[nH]8)C=C7)C=C6)cc4)cc(=O)c3C[C@H]21
REMARK SMILES IDX 25 1 24 2 23 3 22 4 21 5 19 6 20 7 18 8 1 9 2 10 3 11 4 12
REMARK SMILES IDX 10 13 6 14 8 15 11 16 7 17 9 18 98 19 12 20 13 21 97 22
REMARK SMILES IDX 14 23 15 24 96 25 16 26 94 27 17 28 93 29 95 30 5 31 26 33
REMARK SMILES IDX 27 34 28 35 29 36 30 37 31 38 92 39 32 40 91 41 33 42 34 43
REMARK SMILES IDX 35 44 85 45 36 46 90 47 84 48 86 49 37 50 89 51 83 52 82 53
REMARK SMILES IDX 38 55 70 56 50 57 69 58 51 59 54 60 68 61 87 62 52 63 53 64
REMARK SMILES IDX 67 66 88 67 55 68 39 69 40 70 48 71 41 72 43 73 49 74 42 75
REMARK SMILES IDX 44 76 45 77 46 78 47 79 71 80 72 81 80 82 73 83 75 84 81 85
REMARK SMILES IDX 74 86 76 87 77 88 78 89 79 90 56 91 57 92 65 93 58 94 60 95
REMARK SMILES IDX 66 96 59 97 61 98 62 99 63 100 64 101
REMARK H PARENT 5 32 86 54 54 65
REMARK Flexibility Score: inf
ROOT
ATOM      1  C   UNL A   1      32.886  32.919  27.486  1.00  0.00     0.202 C 
ENDROOT
BRANCH   1   2
ATOM      2  O   UNL A   1      33.817  31.960  27.986  1.00  0.00    -0.374 OA
BRANCH   2   3
ATOM      3  C   UNL A   1      33.940  30.710  27.315  1.00  0.00     0.202 C 
BRANCH   3   4
ATOM      4  C   UNL A   1      32.656  29.988  26.886  1.00  0.00     0.261 C 
BRANCH   4   5
ATOM      5  O   UNL A   1      32.463  30.058  25.477  1.00  0.00    -0.457 OA
BRANCH   5   6
ATOM      6  C   UNL A   1      31.367  29.476  24.911  1.00  0.00     0.374 C 
ATOM      7  O   UNL A   1      30.384  30.053  24.462  1.00  0.00    -0.242 OA
BRANCH   6   8
ATOM      8  C   UNL A   1      31.642  28.012  24.795  1.00  0.00     0.219 A 
ATOM      9  C   UNL A   1      36.921  20.096  24.671  1.00  0.00     0.014 C 
ATOM     10  C   UNL A   1      36.683  21.494  25.320  1.00  0.00    -0.006 C 
ATOM     11  C   UNL A   1      37.951  21.772  26.170  1.00  0.00     0.014 C 
ATOM     12  C   UNL A   1      36.859  22.523  23.967  1.00  0.00     0.120 C 
ATOM     13  C   UNL A   1      35.017  21.549  26.053  1.00  0.00     0.004 C 
ATOM     14  C   UNL A   1      35.653  22.527  23.056  1.00  0.00     0.033 C 
ATOM     15  C   UNL A   1      34.575  22.815  25.380  1.00  0.00    -0.022 C 
ATOM     16  C   UNL A   1      34.274  21.571  27.451  1.00  0.00     0.009 C 
ATOM     17  C   UNL A   1      34.517  22.177  23.928  1.00  0.00     0.010 C 
ATOM     18  C   UNL A   1      35.545  23.770  26.310  1.00  0.00     0.012 C 
ATOM     19  C   UNL A   1      33.363  23.694  25.478  1.00  0.00     0.044 C 
ATOM     20  C   UNL A   1      33.041  22.667  27.715  1.00  0.00     0.049 C 
ATOM     21  C   UNL A   1      32.310  23.407  26.490  1.00  0.00     0.113 C 
ATOM     22  C   UNL A   1      32.823  24.169  24.157  1.00  0.00     0.055 C 
ATOM     23  C   UNL A   1      31.165  22.521  25.980  1.00  0.00     0.057 C 
ATOM     24  O   UNL A   1      31.727  24.790  26.774  1.00  0.00    -0.458 OA
ATOM     25  C   UNL A   1      32.049  25.367  24.423  1.00  0.00     0.081 A 
ATOM     26  C   UNL A   1      31.657  25.730  25.653  1.00  0.00     0.292 A 
ATOM     27  C   UNL A   1      32.091  26.250  23.260  1.00  0.00     0.192 A 
ATOM     28  O   UNL A   1      31.354  27.106  25.854  1.00  0.00    -0.418 OA
ATOM     29  C   UNL A   1      32.026  27.649  23.561  1.00  0.00     0.107 A 
ATOM     30  O   UNL A   1      32.262  25.848  22.118  1.00  0.00    -0.289 OA
BRANCH  12  31
ATOM     31  O   UNL A   1      37.185  23.874  24.295  1.00  0.00    -0.393 OA
ATOM     32  H   UNL A   1      36.369  24.392  24.381  1.00  0.00     0.210 HD
ENDBRANCH  12  31
ENDBRANCH   6   8
ENDBRANCH   5   6
ENDBRANCH   4   5
ENDBRANCH   3   4
ENDBRANCH   2   3
ENDBRANCH   1   2
BRANCH   1  33
ATOM     33  C   UNL A   1      33.005  34.389  27.904  1.00  0.00     0.261 C 
BRANCH  33  34
ATOM     34  O   UNL A   1      32.506  34.660  29.221  1.00  0.00    -0.460 OA
BRANCH  34  35
ATOM     35  C   UNL A   1      33.404  35.263  30.039  1.00  0.00     0.338 C 
ATOM     36  O   UNL A   1      33.304  36.356  30.569  1.00  0.00    -0.246 OA
BRANCH  35  37
ATOM     37  C   UNL A   1      34.521  34.353  30.319  1.00  0.00     0.060 A 
ATOM     38  C   UNL A   1      34.335  33.345  31.271  1.00  0.00     0.016 A 
ATOM     39  C   UNL A   1      35.778  34.599  29.766  1.00  0.00     0.016 A 
ATOM     40  C   UNL A   1      35.424  32.594  31.704  1.00  0.00     0.010 A 
ATOM     41  C   UNL A   1      36.871  33.852  30.212  1.00  0.00     0.010 A 
ATOM     42  C   UNL A   1      36.703  32.875  31.208  1.00  0.00    -0.014 A 
BRANCH  42  43
ATOM     43  C   UNL A   1      37.883  32.247  31.838  1.00  0.00     0.031 A 
ATOM     44  C   UNL A   1      38.570  31.112  31.132  1.00  0.00     0.074 A 
ATOM     45  C   UNL A   1      38.341  32.691  33.021  1.00  0.00     0.049 A 
ATOM     46  N   UNL A   1      39.596  30.403  31.518  1.00  0.00    -0.248 NA
ATOM     47  C   UNL A   1      38.034  30.726  29.814  1.00  0.00     0.031 C 
ATOM     48  C   UNL A   1      37.766  33.797  33.785  1.00  0.00     0.029 A 
ATOM     49  N   UNL A   1      39.384  32.251  33.793  1.00  0.00    -0.354 N 
ATOM     50  C   UNL A   1      39.816  29.475  30.509  1.00  0.00     0.074 A 
ATOM     51  C   UNL A   1      38.814  29.704  29.492  1.00  0.00     0.031 C 
ATOM     52  C   UNL A   1      38.452  33.935  34.931  1.00  0.00     0.029 A 
ATOM     53  C   UNL A   1      39.496  32.914  34.991  1.00  0.00     0.049 A 
ATOM     54  H   UNL A   1      39.993  31.529  33.517  1.00  0.00     0.167 HD
ATOM     55  C   UNL A   1      40.777  28.527  30.432  1.00  0.00     0.034 A 
ATOM     56  C   UNL A   1      40.336  32.709  36.025  1.00  0.00     0.034 A 
ATOM     57  C   UNL A   1      41.784  28.317  31.435  1.00  0.00     0.049 A 
ATOM     58  C   UNL A   1      41.372  31.623  35.932  1.00  0.00     0.074 A 
ATOM     59  C   UNL A   1      42.823  27.404  31.425  1.00  0.00     0.029 A 
ATOM     60  N   UNL A   1      41.872  29.015  32.627  1.00  0.00    -0.354 N 
ATOM     61  N   UNL A   1      41.617  30.806  34.938  1.00  0.00    -0.248 NA
ATOM     62  C   UNL A   1      42.261  31.444  37.090  1.00  0.00     0.031 C 
ATOM     63  C   UNL A   1      43.528  27.535  32.623  1.00  0.00     0.029 A 
ATOM     64  C   UNL A   1      42.943  28.549  33.367  1.00  0.00     0.049 A 
ATOM     65  H   UNL A   1      41.263  29.737  32.906  1.00  0.00     0.167 HD
ATOM     66  C   UNL A   1      42.703  30.034  35.336  1.00  0.00     0.074 A 
ATOM     67  C   UNL A   1      43.074  30.486  36.661  1.00  0.00     0.031 C 
ATOM     68  C   UNL A   1      43.328  29.037  34.664  1.00  0.00     0.034 A 
BRANCH  55  69
ATOM     69  C   UNL A   1      40.822  27.660  29.206  1.00  0.00     0.023 A 
ATOM     70  C   UNL A   1      39.899  26.605  29.075  1.00  0.00     0.012 A 
ATOM     71  C   UNL A   1      41.697  27.961  28.145  1.00  0.00     0.148 A 
ATOM     72  C   UNL A   1      39.847  25.856  27.900  1.00  0.00     0.002 A 
ATOM     73  C   UNL A   1      41.619  27.228  26.967  1.00  0.00     0.091 A 
ATOM     74  F   UNL A   1      42.573  28.961  28.304  1.00  0.00    -0.205 F 
ATOM     75  C   UNL A   1      40.697  26.176  26.844  1.00  0.00     0.022 A 
BRANCH  73  76
ATOM     76  S   UNL A   1      42.632  27.588  25.528  1.00  0.00     0.127 S 
ATOM     77  O   UNL A   1      42.024  28.827  25.042  1.00  0.00    -0.237 OA
ATOM     78  O   UNL A   1      43.958  27.752  26.121  1.00  0.00    -0.237 OA
ATOM     79  O   UNL A   1      42.494  26.444  24.639  1.00  0.00    -0.744 OA
ENDBRANCH  73  76
ENDBRANCH  55  69
BRANCH  56  80
ATOM     80  C   UNL A   1      40.248  33.592  37.217  1.00  0.00     0.023 A 
ATOM     81  C   UNL A   1      39.313  33.295  38.227  1.00  0.00     0.012 A 
ATOM     82  C   UNL A   1      41.131  34.677  37.387  1.00  0.00     0.148 A 
ATOM     83  C   UNL A   1      39.256  34.067  39.386  1.00  0.00     0.002 A 
ATOM     84  C   UNL A   1      41.091  35.419  38.560  1.00  0.00     0.091 A 
ATOM     85  F   UNL A   1      42.011  34.935  36.410  1.00  0.00    -0.205 F 
ATOM     86  C   UNL A   1      40.149  35.122  39.558  1.00  0.00     0.022 A 
BRANCH  84  87
ATOM     87  S   UNL A   1      42.256  36.741  38.913  1.00  0.00     0.127 S 
ATOM     88  O   UNL A   1      41.423  37.683  39.657  1.00  0.00    -0.237 OA
ATOM     89  O   UNL A   1      43.262  36.042  39.714  1.00  0.00    -0.237 OA
ATOM     90  O   UNL A   1      42.729  37.213  37.619  1.00  0.00    -0.744 OA
ENDBRANCH  84  87
ENDBRANCH  56  80
BRANCH  68  91
ATOM     91  C   UNL A   1      44.501  28.361  35.319  1.00  0.00     0.023 A 
ATOM     92  C   UNL A   1      45.797  28.876  35.122  1.00  0.00     0.012 A 
ATOM     93  C   UNL A   1      44.298  27.318  36.245  1.00  0.00     0.148 A 
ATOM     94  C   UNL A   1      46.876  28.357  35.836  1.00  0.00     0.002 A 
ATOM     95  C   UNL A   1      45.373  26.830  36.977  1.00  0.00     0.091 A 
ATOM     96  F   UNL A   1      43.053  26.848  36.411  1.00  0.00    -0.205 F 
ATOM     97  C   UNL A   1      46.663  27.347  36.772  1.00  0.00     0.022 A 
BRANCH  95  98
ATOM     98  S   UNL A   1      45.190  25.580  38.254  1.00  0.00     0.127 S 
ATOM     99  O   UNL A   1      44.428  24.547  37.552  1.00  0.00    -0.237 OA
ATOM    100  O   UNL A   1      46.579  25.226  38.542  1.00  0.00    -0.237 OA
ATOM    101  O   UNL A   1      44.483  26.225  39.354  1.00  0.00    -0.744 OA
ENDBRANCH  95  98
ENDBRANCH  68  91
ENDBRANCH  42  43
ENDBRANCH  35  37
ENDBRANCH  34  35
ENDBRANCH  33  34
ENDBRANCH   1  33
TORSDOF 18
ENDMDL
MODEL 2
REMARK VINA RESULT:     -11.5      3.321      8.431
REMARK SMILES CC1(C)[C@H](O)CC[C@]2(C)[C@@H]1CC[C@@]1(C)Oc3oc(C(=O)OCCOCCOC(=O)c4ccc(-c5c6nc(c(-c7cccc(S(=O)(=O)[O-])c7F)c7ccc([nH]7)c(-c7cccc(S(=O)(=O)[O-])c7F)c7nc(c(-c8cccc(S(=O)(=O)[O-])c8F)c8ccc5[nH]8)C=C7)C=C6)cc4)cc(=O)c3C[C@H]21
REMARK SMILES IDX 25 1 24 2 23 3 22 4 21 5 19 6 20 7 18 8 1 9 2 10 3 11 4 12
REMARK SMILES IDX 10 13 6 14 8 15 11 16 7 17 9 18 98 19 12 20 13 21 97 22
REMARK SMILES IDX 14 23 15 24 96 25 16 26 94 27 17 28 93 29 95 30 5 31 26 33
REMARK SMILES IDX 27 34 28 35 29 36 30 37 31 38 92 39 32 40 91 41 33 42 34 43
REMARK SMILES IDX 35 44 85 45 36 46 90 47 84 48 86 49 37 50 89 51 83 52 82 53
REMARK SMILES IDX 38 55 70 56 50 57 69 58 51 59 54 60 68 61 87 62 52 63 53 64
REMARK SMILES IDX 67 66 88 67 55 68 39 69 40 70 48 71 41 72 43 73 49 74 42 75
REMARK SMILES IDX 44 76 45 77 46 78 47 79 71 80 72 81 80 82 73 83 75 84 81 85
REMARK SMILES IDX 74 86 76 87 77 88 78 89 79 90 56 91 57 92 65 93 58 94 60 95
REMARK SMILES IDX 66 96 59 97 61 98 62 99 63 100 64 101
REMARK H PARENT 5 32 86 54 54 65
REMARK Flexibility Score: inf
ROOT
ATOM      1  C   UNL A   1      33.255  35.144  29.902  1.00  0.00     0.202 C 
ENDROOT
BRANCH   1   2
ATOM      2  O   UNL A   1      33.753  34.771  28.618  1.00  0.00    -0.374 OA
BRANCH   2   3
ATOM      3  C   UNL A   1      33.354  33.520  28.065  1.00  0.00     0.202 C 
BRANCH   3   4
ATOM      4  C   UNL A   1      34.421  32.432  27.894  1.00  0.00     0.261 C 
BRANCH   4   5
ATOM      5  O   UNL A   1      33.891  31.135  28.151  1.00  0.00    -0.457 OA
BRANCH   5   6
ATOM      6  C   UNL A   1      34.689  30.037  28.024  1.00  0.00     0.374 C 
ATOM      7  O   UNL A   1      35.743  29.827  28.613  1.00  0.00    -0.242 OA
BRANCH   6   8
ATOM      8  C   UNL A   1      33.974  29.058  27.150  1.00  0.00     0.219 A 
ATOM      9  C   UNL A   1      32.418  20.742  22.795  1.00  0.00     0.014 C 
ATOM     10  C   UNL A   1      32.908  21.465  24.087  1.00  0.00    -0.006 C 
ATOM     11  C   UNL A   1      33.594  20.364  24.937  1.00  0.00     0.014 C 
ATOM     12  C   UNL A   1      34.210  22.388  23.477  1.00  0.00     0.120 C 
ATOM     13  C   UNL A   1      31.559  22.485  24.763  1.00  0.00     0.004 C 
ATOM     14  C   UNL A   1      33.770  23.621  22.722  1.00  0.00     0.033 C 
ATOM     15  C   UNL A   1      32.342  23.760  24.865  1.00  0.00    -0.022 C 
ATOM     16  C   UNL A   1      30.540  22.555  25.973  1.00  0.00     0.009 C 
ATOM     17  C   UNL A   1      32.456  23.968  23.295  1.00  0.00     0.010 C 
ATOM     18  C   UNL A   1      33.236  23.230  26.144  1.00  0.00     0.012 C 
ATOM     19  C   UNL A   1      32.070  25.123  25.429  1.00  0.00     0.044 C 
ATOM     20  C   UNL A   1      30.328  23.995  26.793  1.00  0.00     0.049 C 
ATOM     21  C   UNL A   1      30.796  25.393  26.153  1.00  0.00     0.113 C 
ATOM     22  C   UNL A   1      32.530  26.265  24.564  1.00  0.00     0.055 C 
ATOM     23  C   UNL A   1      29.668  25.943  25.269  1.00  0.00     0.057 C 
ATOM     24  O   UNL A   1      31.191  26.497  27.131  1.00  0.00    -0.458 OA
ATOM     25  C   UNL A   1      32.686  27.417  25.433  1.00  0.00     0.081 A 
ATOM     26  C   UNL A   1      32.184  27.473  26.675  1.00  0.00     0.292 A 
ATOM     27  C   UNL A   1      33.733  28.291  24.910  1.00  0.00     0.192 A 
ATOM     28  O   UNL A   1      32.791  28.393  27.576  1.00  0.00    -0.418 OA
ATOM     29  C   UNL A   1      34.472  29.009  25.904  1.00  0.00     0.107 A 
ATOM     30  O   UNL A   1      34.030  28.348  23.725  1.00  0.00    -0.289 OA
BRANCH  12  31
ATOM     31  O   UNL A   1      35.167  22.777  24.462  1.00  0.00    -0.393 OA
ATOM     32  H   UNL A   1      34.912  22.410  25.324  1.00  0.00     0.210 HD
ENDBRANCH  12  31
ENDBRANCH   6   8
ENDBRANCH   5   6
ENDBRANCH   4   5
ENDBRANCH   3   4
ENDBRANCH   2   3
ENDBRANCH   1   2
BRANCH   1  33
ATOM     33  C   UNL A   1      34.163  35.040  31.133  1.00  0.00     0.261 C 
BRANCH  33  34
ATOM     34  O   UNL A   1      35.285  34.166  30.953  1.00  0.00    -0.460 OA
BRANCH  34  35
ATOM     35  C   UNL A   1      35.087  32.909  31.422  1.00  0.00     0.338 C 
ATOM     36  O   UNL A   1      34.062  32.448  31.894  1.00  0.00    -0.246 OA
BRANCH  35  37
ATOM     37  C   UNL A   1      36.279  32.087  31.180  1.00  0.00     0.060 A 
ATOM     38  C   UNL A   1      36.412  30.884  31.882  1.00  0.00     0.016 A 
ATOM     39  C   UNL A   1      37.320  32.580  30.393  1.00  0.00     0.016 A 
ATOM     40  C   UNL A   1      37.612  30.181  31.828  1.00  0.00     0.010 A 
ATOM     41  C   UNL A   1      38.527  31.879  30.351  1.00  0.00     0.010 A 
ATOM     42  C   UNL A   1      38.688  30.699  31.097  1.00  0.00    -0.014 A 
BRANCH  42  43
ATOM     43  C   UNL A   1      40.024  30.083  31.233  1.00  0.00     0.031 A 
ATOM     44  C   UNL A   1      40.955  30.589  32.299  1.00  0.00     0.074 A 
ATOM     45  C   UNL A   1      40.396  29.079  30.422  1.00  0.00     0.049 A 
ATOM     46  N   UNL A   1      42.176  30.213  32.570  1.00  0.00    -0.248 NA
ATOM     47  C   UNL A   1      40.444  31.655  33.179  1.00  0.00     0.031 C 
ATOM     48  C   UNL A   1      39.568  28.496  29.368  1.00  0.00     0.029 A 
ATOM     49  N   UNL A   1      41.577  28.386  30.348  1.00  0.00    -0.354 N 
ATOM     50  C   UNL A   1      42.589  31.007  33.632  1.00  0.00     0.074 A 
ATOM     51  C   UNL A   1      41.492  31.892  33.956  1.00  0.00     0.031 C 
ATOM     52  C   UNL A   1      40.275  27.546  28.735  1.00  0.00     0.029 A 
ATOM     53  C   UNL A   1      41.611  27.471  29.324  1.00  0.00     0.049 A 
ATOM     54  H   UNL A   1      42.328  28.530  30.968  1.00  0.00     0.167 HD
ATOM     55  C   UNL A   1      43.772  30.989  34.286  1.00  0.00     0.034 A 
ATOM     56  C   UNL A   1      42.614  26.676  28.900  1.00  0.00     0.034 A 
ATOM     57  C   UNL A   1      44.852  30.094  33.975  1.00  0.00     0.049 A 
ATOM     58  C   UNL A   1      43.933  26.702  29.619  1.00  0.00     0.074 A 
ATOM     59  C   UNL A   1      46.075  29.978  34.610  1.00  0.00     0.029 A 
ATOM     60  N   UNL A   1      44.845  29.175  32.940  1.00  0.00    -0.354 N 
ATOM     61  N   UNL A   1      44.281  27.402  30.671  1.00  0.00    -0.248 NA
ATOM     62  C   UNL A   1      44.991  25.813  29.113  1.00  0.00     0.031 C 
ATOM     63  C   UNL A   1      46.818  29.001  33.944  1.00  0.00     0.029 A 
ATOM     64  C   UNL A   1      46.047  28.491  32.911  1.00  0.00     0.049 A 
ATOM     65  H   UNL A   1      44.095  29.029  32.318  1.00  0.00     0.167 HD
ATOM     66  C   UNL A   1      45.585  27.022  30.969  1.00  0.00     0.074 A 
ATOM     67  C   UNL A   1      45.964  26.024  29.991  1.00  0.00     0.031 C 
ATOM     68  C   UNL A   1      46.394  27.469  31.960  1.00  0.00     0.034 A 
BRANCH  55  69
ATOM     69  C   UNL A   1      43.962  31.938  35.435  1.00  0.00     0.023 A 
ATOM     70  C   UNL A   1      44.441  33.238  35.183  1.00  0.00     0.012 A 
ATOM     71  C   UNL A   1      43.562  31.580  36.737  1.00  0.00     0.148 A 
ATOM     72  C   UNL A   1      44.521  34.171  36.215  1.00  0.00     0.002 A 
ATOM     73  C   UNL A   1      43.617  32.525  37.753  1.00  0.00     0.091 A 
ATOM     74  F   UNL A   1      43.123  30.332  36.949  1.00  0.00    -0.205 F 
ATOM     75  C   UNL A   1      44.098  33.820  37.495  1.00  0.00     0.022 A 
BRANCH  73  76
ATOM     76  S   UNL A   1      43.052  32.191  39.425  1.00  0.00     0.127 S 
ATOM     77  O   UNL A   1      43.314  33.470  40.085  1.00  0.00    -0.237 OA
ATOM     78  O   UNL A   1      41.637  31.892  39.215  1.00  0.00    -0.237 OA
ATOM     79  O   UNL A   1      43.851  31.074  39.907  1.00  0.00    -0.744 OA
ENDBRANCH  73  76
ENDBRANCH  55  69
BRANCH  56  80
ATOM     80  C   UNL A   1      42.376  25.758  27.755  1.00  0.00     0.023 A 
ATOM     81  C   UNL A   1      42.563  26.231  26.443  1.00  0.00     0.012 A 
ATOM     82  C   UNL A   1      42.038  24.406  27.963  1.00  0.00     0.148 A 
ATOM     83  C   UNL A   1      42.412  25.373  25.354  1.00  0.00     0.002 A 
ATOM     84  C   UNL A   1      41.924  23.549  26.877  1.00  0.00     0.091 A 
ATOM     85  F   UNL A   1      41.867  23.984  29.224  1.00  0.00    -0.205 F 
ATOM     86  C   UNL A   1      42.103  24.032  25.570  1.00  0.00     0.022 A 
BRANCH  84  87
ATOM     87  S   UNL A   1      41.616  21.788  27.055  1.00  0.00     0.127 S 
ATOM     88  O   UNL A   1      40.233  21.774  27.530  1.00  0.00    -0.237 OA
ATOM     89  O   UNL A   1      41.801  21.315  25.683  1.00  0.00    -0.237 OA
ATOM     90  O   UNL A   1      42.606  21.304  28.006  1.00  0.00    -0.744 OA
ENDBRANCH  84  87
ENDBRANCH  56  80
BRANCH  68  91
ATOM     91  C   UNL A   1      47.774  26.880  32.076  1.00  0.00     0.023 A 
ATOM     92  C   UNL A   1      47.974  25.734  32.870  1.00  0.00     0.012 A 
ATOM     93  C   UNL A   1      48.828  27.371  31.279  1.00  0.00     0.148 A 
ATOM     94  C   UNL A   1      49.208  25.087  32.872  1.00  0.00     0.002 A 
ATOM     95  C   UNL A   1      50.044  26.700  31.261  1.00  0.00     0.091 A 
ATOM     96  F   UNL A   1      48.607  28.464  30.534  1.00  0.00    -0.205 F 
ATOM     97  C   UNL A   1      50.237  25.560  32.059  1.00  0.00     0.022 A 
BRANCH  95  98
ATOM     98  S   UNL A   1      51.405  27.188  30.196  1.00  0.00     0.127 S 
ATOM     99  O   UNL A   1      50.791  27.104  28.871  1.00  0.00    -0.237 OA
ATOM    100  O   UNL A   1      51.684  28.549  30.655  1.00  0.00    -0.237 OA
ATOM    101  O   UNL A   1      52.476  26.230  30.441  1.00  0.00    -0.744 OA
ENDBRANCH  95  98
ENDBRANCH  68  91
ENDBRANCH  42  43
ENDBRANCH  35  37
ENDBRANCH  34  35
ENDBRANCH  33  34
ENDBRANCH   1  33
TORSDOF 18
ENDMDL
MODEL 3
REMARK VINA RESULT:     -11.4      1.792      7.514
REMARK SMILES CC1(C)[C@H](O)CC[C@]2(C)[C@@H]1CC[C@@]1(C)Oc3oc(C(=O)OCCOCCOC(=O)c4ccc(-c5c6nc(c(-c7cccc(S(=O)(=O)[O-])c7F)c7ccc([nH]7)c(-c7cccc(S(=O)(=O)[O-])c7F)c7nc(c(-c8cccc(S(=O)(=O)[O-])c8F)c8ccc5[nH]8)C=C7)C=C6)cc4)cc(=O)c3C[C@H]21
REMARK SMILES IDX 25 1 24 2 23 3 22 4 21 5 19 6 20 7 18 8 1 9 2 10 3 11 4 12
REMARK SMILES IDX 10 13 6 14 8 15 11 16 7 17 9 18 98 19 12 20 13 21 97 22
REMARK SMILES IDX 14 23 15 24 96 25 16 26 94 27 17 28 93 29 95 30 5 31 26 33
REMARK SMILES IDX 27 34 28 35 29 36 30 37 31 38 92 39 32 40 91 41 33 42 34 43
REMARK SMILES IDX 35 44 85 45 36 46 90 47 84 48 86 49 37 50 89 51 83 52 82 53
REMARK SMILES IDX 38 55 70 56 50 57 69 58 51 59 54 60 68 61 87 62 52 63 53 64
REMARK SMILES IDX 67 66 88 67 55 68 39 69 40 70 48 71 41 72 43 73 49 74 42 75
REMARK SMILES IDX 44 76 45 77 46 78 47 79 71 80 72 81 80 82 73 83 75 84 81 85
REMARK SMILES IDX 74 86 76 87 77 88 78 89 79 90 56 91 57 92 65 93 58 94 60 95
REMARK SMILES IDX 66 96 59 97 61 98 62 99 63 100 64 101
REMARK H PARENT 5 32 86 54 54 65
REMARK Flexibility Score: inf
ROOT
ATOM      1  C   UNL A   1      33.433  35.354  28.600  1.00  0.00     0.202 C 
ENDROOT
BRANCH   1   2
ATOM      2  O   UNL A   1      33.453  33.943  28.814  1.00  0.00    -0.374 OA
BRANCH   2   3
ATOM      3  C   UNL A   1      34.559  33.191  28.322  1.00  0.00     0.202 C 
BRANCH   3   4
ATOM      4  C   UNL A   1      34.479  31.661  28.386  1.00  0.00     0.261 C 
BRANCH   4   5
ATOM      5  O   UNL A   1      34.125  31.103  27.125  1.00  0.00    -0.457 OA
BRANCH   5   6
ATOM      6  C   UNL A   1      32.812  30.989  26.776  1.00  0.00     0.374 C 
ATOM      7  O   UNL A   1      31.945  31.846  26.902  1.00  0.00    -0.242 OA
BRANCH   6   8
ATOM      8  C   UNL A   1      32.644  29.683  26.069  1.00  0.00     0.219 A 
ATOM      9  C   UNL A   1      34.063  20.432  24.350  1.00  0.00     0.014 C 
ATOM     10  C   UNL A   1      33.890  21.546  25.427  1.00  0.00    -0.006 C 
ATOM     11  C   UNL A   1      34.306  20.886  26.768  1.00  0.00     0.014 C 
ATOM     12  C   UNL A   1      35.199  22.579  25.051  1.00  0.00     0.120 C 
ATOM     13  C   UNL A   1      32.265  22.343  25.224  1.00  0.00     0.004 C 
ATOM     14  C   UNL A   1      34.949  23.445  23.837  1.00  0.00     0.033 C 
ATOM     15  C   UNL A   1      32.770  23.754  25.180  1.00  0.00    -0.022 C 
ATOM     16  C   UNL A   1      30.843  22.458  25.911  1.00  0.00     0.009 C 
ATOM     17  C   UNL A   1      33.483  23.593  23.771  1.00  0.00     0.010 C 
ATOM     18  C   UNL A   1      33.127  23.787  26.789  1.00  0.00     0.012 C 
ATOM     19  C   UNL A   1      32.121  25.107  25.145  1.00  0.00     0.044 C 
ATOM     20  C   UNL A   1      30.135  23.960  26.098  1.00  0.00     0.049 C 
ATOM     21  C   UNL A   1      30.640  25.229  25.251  1.00  0.00     0.113 C 
ATOM     22  C   UNL A   1      32.743  26.078  24.180  1.00  0.00     0.055 C 
ATOM     23  C   UNL A   1      29.908  25.256  23.903  1.00  0.00     0.057 C 
ATOM     24  O   UNL A   1      30.459  26.601  25.898  1.00  0.00    -0.458 OA
ATOM     25  C   UNL A   1      32.385  27.410  24.632  1.00  0.00     0.081 A 
ATOM     26  C   UNL A   1      31.418  27.645  25.532  1.00  0.00     0.292 A 
ATOM     27  C   UNL A   1      33.433  28.356  24.258  1.00  0.00     0.192 A 
ATOM     28  O   UNL A   1      31.485  28.876  26.243  1.00  0.00    -0.418 OA
ATOM     29  C   UNL A   1      33.607  29.453  25.162  1.00  0.00     0.107 A 
ATOM     30  O   UNL A   1      34.175  28.191  23.300  1.00  0.00    -0.289 OA
BRANCH  12  31
ATOM     31  O   UNL A   1      35.615  23.416  26.129  1.00  0.00    -0.393 OA
ATOM     32  H   UNL A   1      36.519  23.727  25.968  1.00  0.00     0.210 HD
ENDBRANCH  12  31
ENDBRANCH   6   8
ENDBRANCH   5   6
ENDBRANCH   4   5
ENDBRANCH   3   4
ENDBRANCH   2   3
ENDBRANCH   1   2
BRANCH   1  33
ATOM     33  C   UNL A   1      32.796  36.276  29.646  1.00  0.00     0.261 C 
BRANCH  33  34
ATOM     34  O   UNL A   1      32.190  35.578  30.742  1.00  0.00    -0.460 OA
BRANCH  34  35
ATOM     35  C   UNL A   1      32.840  35.732  31.922  1.00  0.00     0.338 C 
ATOM     36  O   UNL A   1      32.504  36.424  32.867  1.00  0.00    -0.246 OA
BRANCH  35  37
ATOM     37  C   UNL A   1      33.999  34.833  31.979  1.00  0.00     0.060 A 
ATOM     38  C   UNL A   1      33.835  33.572  32.564  1.00  0.00     0.016 A 
ATOM     39  C   UNL A   1      35.261  35.295  31.607  1.00  0.00     0.016 A 
ATOM     40  C   UNL A   1      34.949  32.776  32.813  1.00  0.00     0.010 A 
ATOM     41  C   UNL A   1      36.379  34.500  31.870  1.00  0.00     0.010 A 
ATOM     42  C   UNL A   1      36.229  33.256  32.507  1.00  0.00    -0.014 A 
BRANCH  42  43
ATOM     43  C   UNL A   1      37.417  32.520  32.987  1.00  0.00     0.031 A 
ATOM     44  C   UNL A   1      38.051  32.928  34.288  1.00  0.00     0.074 A 
ATOM     45  C   UNL A   1      37.916  31.495  32.276  1.00  0.00     0.049 A 
ATOM     46  N   UNL A   1      39.111  32.440  34.874  1.00  0.00    -0.248 NA
ATOM     47  C   UNL A   1      37.405  34.026  35.028  1.00  0.00     0.031 C 
ATOM     48  C   UNL A   1      37.370  31.001  31.013  1.00  0.00     0.029 A 
ATOM     49  N   UNL A   1      39.008  30.699  32.509  1.00  0.00    -0.354 N 
ATOM     50  C   UNL A   1      39.275  33.182  36.036  1.00  0.00     0.074 A 
ATOM     51  C   UNL A   1      38.209  34.159  36.073  1.00  0.00     0.031 C 
ATOM     52  C   UNL A   1      38.144  29.997  30.569  1.00  0.00     0.029 A 
ATOM     53  C   UNL A   1      39.250  29.796  31.503  1.00  0.00     0.049 A 
ATOM     54  H   UNL A   1      39.564  30.768  33.318  1.00  0.00     0.167 HD
ATOM     55  C   UNL A   1      40.221  33.050  36.992  1.00  0.00     0.034 A 
ATOM     56  C   UNL A   1      40.261  28.918  31.347  1.00  0.00     0.034 A 
ATOM     57  C   UNL A   1      41.266  32.065  36.962  1.00  0.00     0.049 A 
ATOM     58  C   UNL A   1      41.323  28.816  32.405  1.00  0.00     0.074 A 
ATOM     59  C   UNL A   1      42.248  31.831  37.908  1.00  0.00     0.029 A 
ATOM     60  N   UNL A   1      41.472  31.161  35.934  1.00  0.00    -0.354 N 
ATOM     61  N   UNL A   1      41.420  29.470  33.536  1.00  0.00    -0.248 NA
ATOM     62  C   UNL A   1      42.402  27.841  32.182  1.00  0.00     0.031 C 
ATOM     63  C   UNL A   1      43.063  30.798  37.440  1.00  0.00     0.029 A 
ATOM     64  C   UNL A   1      42.572  30.371  36.216  1.00  0.00     0.049 A 
ATOM     65  H   UNL A   1      40.918  31.090  35.123  1.00  0.00     0.167 HD
ATOM     66  C   UNL A   1      42.551  28.971  34.171  1.00  0.00     0.074 A 
ATOM     67  C   UNL A   1      43.104  27.953  33.302  1.00  0.00     0.031 C 
ATOM     68  C   UNL A   1      43.085  29.332  35.364  1.00  0.00     0.034 A 
BRANCH  55  69
ATOM     69  C   UNL A   1      40.161  33.965  38.182  1.00  0.00     0.023 A 
ATOM     70  C   UNL A   1      40.840  35.198  38.139  1.00  0.00     0.012 A 
ATOM     71  C   UNL A   1      39.344  33.655  39.287  1.00  0.00     0.148 A 
ATOM     72  C   UNL A   1      40.710  36.112  39.182  1.00  0.00     0.002 A 
ATOM     73  C   UNL A   1      39.197  34.584  40.309  1.00  0.00     0.091 A 
ATOM     74  F   UNL A   1      38.721  32.470  39.307  1.00  0.00    -0.205 F 
ATOM     75  C   UNL A   1      39.880  35.811  40.260  1.00  0.00     0.022 A 
BRANCH  73  76
ATOM     76  S   UNL A   1      38.114  34.317  41.717  1.00  0.00     0.127 S 
ATOM     77  O   UNL A   1      36.901  33.824  41.067  1.00  0.00    -0.237 OA
ATOM     78  O   UNL A   1      38.849  33.310  42.481  1.00  0.00    -0.237 OA
ATOM     79  O   UNL A   1      37.979  35.610  42.375  1.00  0.00    -0.744 OA
ENDBRANCH  73  76
ENDBRANCH  55  69
BRANCH  56  80
ATOM     80  C   UNL A   1      40.277  28.037  30.148  1.00  0.00     0.023 A 
ATOM     81  C   UNL A   1      39.384  26.952  30.080  1.00  0.00     0.012 A 
ATOM     82  C   UNL A   1      41.119  28.313  29.053  1.00  0.00     0.148 A 
ATOM     83  C   UNL A   1      39.332  26.151  28.939  1.00  0.00     0.002 A 
ATOM     84  C   UNL A   1      41.036  27.533  27.907  1.00  0.00     0.091 A 
ATOM     85  F   UNL A   1      41.958  29.354  29.147  1.00  0.00    -0.205 F 
ATOM     86  C   UNL A   1      40.150  26.445  27.851  1.00  0.00     0.022 A 
BRANCH  84  87
ATOM     87  S   UNL A   1      41.983  27.885  26.421  1.00  0.00     0.127 S 
ATOM     88  O   UNL A   1      41.498  26.854  25.506  1.00  0.00    -0.237 OA
ATOM     89  O   UNL A   1      41.545  29.245  26.106  1.00  0.00    -0.237 OA
ATOM     90  O   UNL A   1      43.384  27.770  26.804  1.00  0.00    -0.744 OA
ENDBRANCH  84  87
ENDBRANCH  56  80
BRANCH  68  91
ATOM     91  C   UNL A   1      44.322  28.619  35.838  1.00  0.00     0.023 A 
ATOM     92  C   UNL A   1      45.588  29.093  35.442  1.00  0.00     0.012 A 
ATOM     93  C   UNL A   1      44.230  27.585  36.791  1.00  0.00     0.148 A 
ATOM     94  C   UNL A   1      46.747  28.542  35.987  1.00  0.00     0.002 A 
ATOM     95  C   UNL A   1      45.388  27.065  37.354  1.00  0.00     0.091 A 
ATOM     96  F   UNL A   1      43.011  27.155  37.147  1.00  0.00    -0.205 F 
ATOM     97  C   UNL A   1      46.647  27.541  36.951  1.00  0.00     0.022 A 
BRANCH  95  98
ATOM     98  S   UNL A   1      45.363  25.825  38.652  1.00  0.00     0.127 S 
ATOM     99  O   UNL A   1      44.567  26.490  39.684  1.00  0.00    -0.237 OA
ATOM    100  O   UNL A   1      44.695  24.702  37.995  1.00  0.00    -0.237 OA
ATOM    101  O   UNL A   1      46.755  25.583  39.009  1.00  0.00    -0.744 OA
ENDBRANCH  95  98
ENDBRANCH  68  91
ENDBRANCH  42  43
ENDBRANCH  35  37
ENDBRANCH  34  35
ENDBRANCH  33  34
ENDBRANCH   1  33
TORSDOF 18
ENDMDL
