MODEL 1
REMARK VINA RESULT:     -10.0      0.000      0.000
REMARK SMILES C[C@](O)(c1cnccn1)[C@H](F)C(=O)OCCOCCOC(=O)c1ccc(-c2c3nc(c(-c4cccc(S(=O)(=O)[O-])c4F)c4ccc([nH]4)c(-c4cccc(S(=O)(=O)[O-])c4F)c4nc(c(-c5cccc(S(=O)(=O)[O-])c5F)c5ccc2[nH]5)C=C4)C=C3)cc1
REMARK SMILES IDX 18 1 17 2 16 3 15 4 14 5 12 6 13 7 10 8 11 9 2 10 1 11 4 12
REMARK SMILES IDX 5 13 9 14 6 15 8 16 7 17 3 18 19 20 20 21 21 22 22 23 23 24
REMARK SMILES IDX 24 25 85 26 25 27 84 28 26 29 27 30 28 31 78 32 29 33 83 34
REMARK SMILES IDX 77 35 79 36 30 37 82 38 76 39 75 40 31 42 63 43 43 44 62 45
REMARK SMILES IDX 44 46 47 47 61 48 80 49 45 50 46 51 60 53 81 54 48 55 32 56
REMARK SMILES IDX 33 57 41 58 34 59 36 60 42 61 35 62 37 63 38 64 39 65 40 66
REMARK SMILES IDX 64 67 65 68 73 69 66 70 68 71 74 72 67 73 69 74 70 75 71 76
REMARK SMILES IDX 72 77 49 78 50 79 58 80 51 81 53 82 59 83 52 84 54 85 55 86
REMARK SMILES IDX 56 87 57 88
REMARK H PARENT 3 19 79 41 47 52
REMARK Flexibility Score: inf
ROOT
ATOM      1  C   UNL A   1      35.962  20.105  25.034  1.00  0.00     0.202 C 
ENDROOT
BRANCH   1   2
ATOM      2  O   UNL A   1      34.728  20.819  25.148  1.00  0.00    -0.374 OA
BRANCH   2   3
ATOM      3  C   UNL A   1      33.574  20.229  24.548  1.00  0.00     0.202 C 
BRANCH   3   4
ATOM      4  C   UNL A   1      32.286  21.053  24.617  1.00  0.00     0.261 C 
BRANCH   4   5
ATOM      5  O   UNL A   1      32.174  21.717  25.884  1.00  0.00    -0.461 OA
BRANCH   5   6
ATOM      6  C   UNL A   1      31.825  23.028  25.849  1.00  0.00     0.344 C 
ATOM      7  O   UNL A   1      30.754  23.465  25.440  1.00  0.00    -0.249 OA
BRANCH   6   8
ATOM      8  C   UNL A   1      32.921  23.918  26.394  1.00  0.00     0.313 C 
ATOM      9  F   UNL A   1      33.772  23.253  27.234  1.00  0.00    -0.231 F 
BRANCH   8  10
ATOM     10  C   UNL A   1      33.704  24.650  25.284  1.00  0.00     0.147 C 
ATOM     11  C   UNL A   1      35.211  24.336  25.353  1.00  0.00     0.053 C 
BRANCH  10  12
ATOM     12  C   UNL A   1      33.399  26.148  25.306  1.00  0.00     0.094 A 
ATOM     13  C   UNL A   1      32.529  26.710  26.241  1.00  0.00     0.138 A 
ATOM     14  N   UNL A   1      33.965  26.937  24.353  1.00  0.00    -0.255 NA
ATOM     15  N   UNL A   1      32.211  28.023  26.279  1.00  0.00    -0.261 NA
ATOM     16  C   UNL A   1      33.677  28.263  24.411  1.00  0.00     0.131 A 
ATOM     17  C   UNL A   1      32.827  28.799  25.360  1.00  0.00     0.131 A 
ENDBRANCH  10  12
BRANCH  10  18
ATOM     18  O   UNL A   1      33.310  24.106  23.994  1.00  0.00    -0.380 OA
ATOM     19  H   UNL A   1      33.932  23.408  23.732  1.00  0.00     0.212 HD
ENDBRANCH  10  18
ENDBRANCH   8  10
ENDBRANCH   6   8
ENDBRANCH   5   6
ENDBRANCH   4   5
ENDBRANCH   3   4
ENDBRANCH   2   3
ENDBRANCH   1   2
BRANCH   1  20
ATOM     20  C   UNL A   1      37.215  20.919  24.687  1.00  0.00     0.261 C 
BRANCH  20  21
ATOM     21  O   UNL A   1      37.690  21.700  25.797  1.00  0.00    -0.460 OA
BRANCH  21  22
ATOM     22  C   UNL A   1      38.976  21.478  26.154  1.00  0.00     0.338 C 
ATOM     23  O   UNL A   1      39.654  20.490  25.900  1.00  0.00    -0.246 OA
BRANCH  22  24
ATOM     24  C   UNL A   1      39.546  22.698  26.751  1.00  0.00     0.060 A 
ATOM     25  C   UNL A   1      39.052  23.932  26.309  1.00  0.00     0.016 A 
ATOM     26  C   UNL A   1      40.579  22.640  27.688  1.00  0.00     0.016 A 
ATOM     27  C   UNL A   1      39.603  25.119  26.791  1.00  0.00     0.010 A 
ATOM     28  C   UNL A   1      41.141  23.833  28.159  1.00  0.00     0.010 A 
ATOM     29  C   UNL A   1      40.669  25.075  27.699  1.00  0.00    -0.014 A 
BRANCH  29  30
ATOM     30  C   UNL A   1      41.334  26.330  28.125  1.00  0.00     0.031 A 
ATOM     31  C   UNL A   1      40.526  27.409  28.792  1.00  0.00     0.074 A 
ATOM     32  C   UNL A   1      42.645  26.513  27.887  1.00  0.00     0.049 A 
ATOM     33  N   UNL A   1      40.904  28.597  29.184  1.00  0.00    -0.248 NA
ATOM     34  C   UNL A   1      39.107  27.112  29.049  1.00  0.00     0.031 C 
ATOM     35  C   UNL A   1      43.528  25.544  27.240  1.00  0.00     0.029 A 
ATOM     36  N   UNL A   1      43.452  27.597  28.128  1.00  0.00    -0.354 N 
ATOM     37  C   UNL A   1      39.767  29.205  29.703  1.00  0.00     0.074 A 
ATOM     38  C   UNL A   1      38.685  28.252  29.582  1.00  0.00     0.031 C 
ATOM     39  C   UNL A   1      44.745  26.093  27.095  1.00  0.00     0.029 A 
ATOM     40  C   UNL A   1      44.719  27.460  27.613  1.00  0.00     0.049 A 
ATOM     41  H   UNL A   1      43.153  28.395  28.621  1.00  0.00     0.167 HD
ATOM     42  C   UNL A   1      39.641  30.440  30.242  1.00  0.00     0.034 A 
ATOM     43  C   UNL A   1      45.729  28.349  27.534  1.00  0.00     0.034 A 
ATOM     44  C   UNL A   1      40.723  31.376  30.386  1.00  0.00     0.049 A 
ATOM     45  C   UNL A   1      45.551  29.726  28.118  1.00  0.00     0.074 A 
ATOM     46  C   UNL A   1      40.708  32.619  30.995  1.00  0.00     0.029 A 
ATOM     47  N   UNL A   1      42.005  31.187  29.897  1.00  0.00    -0.354 N 
ATOM     48  N   UNL A   1      44.518  30.227  28.748  1.00  0.00    -0.248 NA
ATOM     49  C   UNL A   1      46.687  30.652  28.000  1.00  0.00     0.031 C 
ATOM     50  C   UNL A   1      41.974  33.195  30.846  1.00  0.00     0.029 A 
ATOM     51  C   UNL A   1      42.783  32.301  30.164  1.00  0.00     0.049 A 
ATOM     52  H   UNL A   1      42.318  30.379  29.430  1.00  0.00     0.167 HD
ATOM     53  C   UNL A   1      44.886  31.515  29.122  1.00  0.00     0.074 A 
ATOM     54  C   UNL A   1      46.249  31.707  28.675  1.00  0.00     0.031 C 
ATOM     55  C   UNL A   1      44.154  32.463  29.758  1.00  0.00     0.034 A 
BRANCH  42  56
ATOM     56  C   UNL A   1      38.288  30.858  30.749  1.00  0.00     0.023 A 
ATOM     57  C   UNL A   1      37.944  30.618  32.094  1.00  0.00     0.012 A 
ATOM     58  C   UNL A   1      37.403  31.581  29.924  1.00  0.00     0.148 A 
ATOM     59  C   UNL A   1      36.733  31.080  32.608  1.00  0.00     0.002 A 
ATOM     60  C   UNL A   1      36.215  32.070  30.454  1.00  0.00     0.091 A 
ATOM     61  F   UNL A   1      37.743  31.780  28.643  1.00  0.00    -0.205 F 
ATOM     62  C   UNL A   1      35.876  31.815  31.793  1.00  0.00     0.022 A 
BRANCH  60  63
ATOM     63  S   UNL A   1      35.077  33.089  29.509  1.00  0.00     0.127 S 
ATOM     64  O   UNL A   1      34.571  32.132  28.526  1.00  0.00    -0.237 OA
ATOM     65  O   UNL A   1      34.104  33.487  30.528  1.00  0.00    -0.237 OA
ATOM     66  O   UNL A   1      35.870  34.180  28.962  1.00  0.00    -0.744 OA
ENDBRANCH  60  63
ENDBRANCH  42  56
BRANCH  43  67
ATOM     67  C   UNL A   1      47.006  27.968  26.866  1.00  0.00     0.023 A 
ATOM     68  C   UNL A   1      48.113  27.575  27.642  1.00  0.00     0.012 A 
ATOM     69  C   UNL A   1      47.127  27.994  25.464  1.00  0.00     0.148 A 
ATOM     70  C   UNL A   1      49.327  27.249  27.034  1.00  0.00     0.002 A 
ATOM     71  C   UNL A   1      48.319  27.611  24.862  1.00  0.00     0.091 A 
ATOM     72  F   UNL A   1      46.073  28.399  24.739  1.00  0.00    -0.205 F 
ATOM     73  C   UNL A   1      49.427  27.255  25.645  1.00  0.00     0.022 A 
BRANCH  71  74
ATOM     74  S   UNL A   1      48.463  27.469  23.077  1.00  0.00     0.127 S 
ATOM     75  O   UNL A   1      49.801  28.004  22.840  1.00  0.00    -0.237 OA
ATOM     76  O   UNL A   1      48.331  26.026  22.868  1.00  0.00    -0.237 OA
ATOM     77  O   UNL A   1      47.353  28.251  22.543  1.00  0.00    -0.744 OA
ENDBRANCH  71  74
ENDBRANCH  43  67
BRANCH  55  78
ATOM     78  C   UNL A   1      44.808  33.795  30.023  1.00  0.00     0.023 A 
ATOM     79  C   UNL A   1      45.556  33.978  31.203  1.00  0.00     0.012 A 
ATOM     80  C   UNL A   1      44.750  34.834  29.072  1.00  0.00     0.148 A 
ATOM     81  C   UNL A   1      46.212  35.183  31.447  1.00  0.00     0.002 A 
ATOM     82  C   UNL A   1      45.445  36.016  29.301  1.00  0.00     0.091 A 
ATOM     83  F   UNL A   1      44.021  34.646  27.963  1.00  0.00    -0.205 F 
ATOM     84  C   UNL A   1      46.167  36.197  30.493  1.00  0.00     0.022 A 
BRANCH  82  85
ATOM     85  S   UNL A   1      45.520  37.341  28.091  1.00  0.00     0.127 S 
ATOM     86  O   UNL A   1      44.118  37.746  28.005  1.00  0.00    -0.237 OA
ATOM     87  O   UNL A   1      46.396  38.313  28.747  1.00  0.00    -0.237 OA
ATOM     88  O   UNL A   1      46.074  36.749  26.880  1.00  0.00    -0.744 OA
ENDBRANCH  82  85
ENDBRANCH  55  78
ENDBRANCH  29  30
ENDBRANCH  22  24
ENDBRANCH  21  22
ENDBRANCH  20  21
ENDBRANCH   1  20
TORSDOF 20
ENDMDL
MODEL 2
REMARK VINA RESULT:      -9.8      5.476      7.871
REMARK SMILES C[C@](O)(c1cnccn1)[C@H](F)C(=O)OCCOCCOC(=O)c1ccc(-c2c3nc(c(-c4cccc(S(=O)(=O)[O-])c4F)c4ccc([nH]4)c(-c4cccc(S(=O)(=O)[O-])c4F)c4nc(c(-c5cccc(S(=O)(=O)[O-])c5F)c5ccc2[nH]5)C=C4)C=C3)cc1
REMARK SMILES IDX 18 1 17 2 16 3 15 4 14 5 12 6 13 7 10 8 11 9 2 10 1 11 4 12
REMARK SMILES IDX 5 13 9 14 6 15 8 16 7 17 3 18 19 20 20 21 21 22 22 23 23 24
REMARK SMILES IDX 24 25 85 26 25 27 84 28 26 29 27 30 28 31 78 32 29 33 83 34
REMARK SMILES IDX 77 35 79 36 30 37 82 38 76 39 75 40 31 42 63 43 43 44 62 45
REMARK SMILES IDX 44 46 47 47 61 48 80 49 45 50 46 51 60 53 81 54 48 55 32 56
REMARK SMILES IDX 33 57 41 58 34 59 36 60 42 61 35 62 37 63 38 64 39 65 40 66
REMARK SMILES IDX 64 67 65 68 73 69 66 70 68 71 74 72 67 73 69 74 70 75 71 76
REMARK SMILES IDX 72 77 49 78 50 79 58 80 51 81 53 82 59 83 52 84 54 85 55 86
REMARK SMILES IDX 56 87 57 88
REMARK H PARENT 3 19 79 41 47 52
REMARK Flexibility Score: inf
ROOT
ATOM      1  C   UNL A   1      32.024  28.925  27.516  1.00  0.00     0.202 C 
ENDROOT
BRANCH   1   2
ATOM      2  O   UNL A   1      31.936  27.844  26.584  1.00  0.00    -0.374 OA
BRANCH   2   3
ATOM      3  C   UNL A   1      33.162  27.257  26.148  1.00  0.00     0.202 C 
BRANCH   3   4
ATOM      4  C   UNL A   1      33.662  27.690  24.768  1.00  0.00     0.261 C 
BRANCH   4   5
ATOM      5  O   UNL A   1      32.708  27.350  23.752  1.00  0.00    -0.461 OA
BRANCH   5   6
ATOM      6  C   UNL A   1      32.341  28.351  22.911  1.00  0.00     0.344 C 
ATOM      7  O   UNL A   1      33.021  29.337  22.647  1.00  0.00    -0.249 OA
BRANCH   6   8
ATOM      8  C   UNL A   1      30.976  28.108  22.306  1.00  0.00     0.313 C 
ATOM      9  F   UNL A   1      30.795  26.809  21.916  1.00  0.00    -0.231 F 
BRANCH   8  10
ATOM     10  C   UNL A   1      29.825  28.573  23.223  1.00  0.00     0.147 C 
ATOM     11  C   UNL A   1      28.726  27.500  23.341  1.00  0.00     0.053 C 
BRANCH  10  12
ATOM     12  C   UNL A   1      29.292  29.934  22.771  1.00  0.00     0.094 A 
ATOM     13  C   UNL A   1      28.863  30.161  21.463  1.00  0.00     0.138 A 
ATOM     14  N   UNL A   1      29.285  30.956  23.669  1.00  0.00    -0.255 NA
ATOM     15  N   UNL A   1      28.411  31.353  21.016  1.00  0.00    -0.261 NA
ATOM     16  C   UNL A   1      28.796  32.146  23.233  1.00  0.00     0.131 A 
ATOM     17  C   UNL A   1      28.357  32.340  21.938  1.00  0.00     0.131 A 
ENDBRANCH  10  12
BRANCH  10  18
ATOM     18  O   UNL A   1      30.325  28.690  24.583  1.00  0.00    -0.380 OA
ATOM     19  H   UNL A   1      31.236  28.355  24.623  1.00  0.00     0.212 HD
ENDBRANCH  10  18
ENDBRANCH   8  10
ENDBRANCH   6   8
ENDBRANCH   5   6
ENDBRANCH   4   5
ENDBRANCH   3   4
ENDBRANCH   2   3
ENDBRANCH   1   2
BRANCH   1  20
ATOM     20  C   UNL A   1      32.094  30.346  26.940  1.00  0.00     0.261 C 
BRANCH  20  21
ATOM     21  O   UNL A   1      33.434  30.736  26.594  1.00  0.00    -0.460 OA
BRANCH  21  22
ATOM     22  C   UNL A   1      33.998  31.657  27.410  1.00  0.00     0.338 C 
ATOM     23  O   UNL A   1      33.495  32.703  27.801  1.00  0.00    -0.246 OA
BRANCH  22  24
ATOM     24  C   UNL A   1      35.270  31.140  27.942  1.00  0.00     0.060 A 
ATOM     25  C   UNL A   1      35.321  29.791  28.315  1.00  0.00     0.016 A 
ATOM     26  C   UNL A   1      36.379  31.969  28.121  1.00  0.00     0.016 A 
ATOM     27  C   UNL A   1      36.479  29.267  28.887  1.00  0.00     0.010 A 
ATOM     28  C   UNL A   1      37.535  31.445  28.710  1.00  0.00     0.010 A 
ATOM     29  C   UNL A   1      37.584  30.098  29.112  1.00  0.00    -0.014 A 
BRANCH  29  30
ATOM     30  C   UNL A   1      38.774  29.575  29.825  1.00  0.00     0.031 A 
ATOM     31  C   UNL A   1      39.149  30.148  31.164  1.00  0.00     0.074 A 
ATOM     32  C   UNL A   1      39.531  28.616  29.262  1.00  0.00     0.049 A 
ATOM     33  N   UNL A   1      40.180  29.873  31.919  1.00  0.00    -0.248 NA
ATOM     34  C   UNL A   1      38.246  31.167  31.726  1.00  0.00     0.031 C 
ATOM     35  C   UNL A   1      39.273  27.991  27.966  1.00  0.00     0.029 A 
ATOM     36  N   UNL A   1      40.694  28.030  29.694  1.00  0.00    -0.354 N 
ATOM     37  C   UNL A   1      40.072  30.703  33.027  1.00  0.00     0.074 A 
ATOM     38  C   UNL A   1      38.871  31.491  32.851  1.00  0.00     0.031 C 
ATOM     39  C   UNL A   1      40.273  27.140  27.687  1.00  0.00     0.029 A 
ATOM     40  C   UNL A   1      41.254  27.180  28.770  1.00  0.00     0.049 A 
ATOM     41  H   UNL A   1      41.089  28.200  30.580  1.00  0.00     0.167 HD
ATOM     42  C   UNL A   1      40.894  30.791  34.100  1.00  0.00     0.034 A 
ATOM     43  C   UNL A   1      42.439  26.539  28.780  1.00  0.00     0.034 A 
ATOM     44  C   UNL A   1      42.072  29.990  34.286  1.00  0.00     0.049 A 
ATOM     45  C   UNL A   1      43.346  26.678  29.975  1.00  0.00     0.074 A 
ATOM     46  C   UNL A   1      42.921  29.951  35.379  1.00  0.00     0.029 A 
ATOM     47  N   UNL A   1      42.584  29.104  33.352  1.00  0.00    -0.354 N 
ATOM     48  N   UNL A   1      43.151  27.345  31.085  1.00  0.00    -0.248 NA
ATOM     49  C   UNL A   1      44.627  25.956  29.928  1.00  0.00     0.031 C 
ATOM     50  C   UNL A   1      43.964  29.065  35.093  1.00  0.00     0.029 A 
ATOM     51  C   UNL A   1      43.753  28.536  33.831  1.00  0.00     0.049 A 
ATOM     52  H   UNL A   1      42.177  28.907  32.478  1.00  0.00     0.167 HD
ATOM     53  C   UNL A   1      44.269  27.106  31.877  1.00  0.00     0.074 A 
ATOM     54  C   UNL A   1      45.124  26.207  31.132  1.00  0.00     0.031 C 
ATOM     55  C   UNL A   1      44.572  27.604  33.101  1.00  0.00     0.034 A 
BRANCH  42  56
ATOM     56  C   UNL A   1      40.542  31.774  35.183  1.00  0.00     0.023 A 
ATOM     57  C   UNL A   1      41.225  33.005  35.253  1.00  0.00     0.012 A 
ATOM     58  C   UNL A   1      39.470  31.523  36.062  1.00  0.00     0.148 A 
ATOM     59  C   UNL A   1      40.852  33.968  36.191  1.00  0.00     0.002 A 
ATOM     60  C   UNL A   1      39.080  32.502  36.968  1.00  0.00     0.091 A 
ATOM     61  F   UNL A   1      38.849  30.337  35.989  1.00  0.00    -0.205 F 
ATOM     62  C   UNL A   1      39.773  33.722  37.038  1.00  0.00     0.022 A 
BRANCH  60  63
ATOM     63  S   UNL A   1      37.660  32.313  38.052  1.00  0.00     0.127 S 
ATOM     64  O   UNL A   1      38.152  32.917  39.289  1.00  0.00    -0.237 OA
ATOM     65  O   UNL A   1      36.638  33.096  37.356  1.00  0.00    -0.237 OA
ATOM     66  O   UNL A   1      37.393  30.884  38.122  1.00  0.00    -0.744 OA
ENDBRANCH  60  63
ENDBRANCH  42  56
BRANCH  43  67
ATOM     67  C   UNL A   1      42.846  25.707  27.612  1.00  0.00     0.023 A 
ATOM     68  C   UNL A   1      43.723  26.236  26.646  1.00  0.00     0.012 A 
ATOM     69  C   UNL A   1      42.365  24.393  27.455  1.00  0.00     0.148 A 
ATOM     70  C   UNL A   1      44.085  25.482  25.527  1.00  0.00     0.002 A 
ATOM     71  C   UNL A   1      42.777  23.628  26.372  1.00  0.00     0.091 A 
ATOM     72  F   UNL A   1      41.507  23.913  28.368  1.00  0.00    -0.205 F 
ATOM     73  C   UNL A   1      43.622  24.175  25.396  1.00  0.00     0.022 A 
BRANCH  71  74
ATOM     74  S   UNL A   1      42.323  21.896  26.222  1.00  0.00     0.127 S 
ATOM     75  O   UNL A   1      40.894  21.984  25.934  1.00  0.00    -0.237 OA
ATOM     76  O   UNL A   1      43.151  21.453  25.100  1.00  0.00    -0.237 OA
ATOM     77  O   UNL A   1      42.685  21.297  27.502  1.00  0.00    -0.744 OA
ENDBRANCH  71  74
ENDBRANCH  43  67
BRANCH  55  78
ATOM     78  C   UNL A   1      45.878  27.184  33.725  1.00  0.00     0.023 A 
ATOM     79  C   UNL A   1      47.023  27.986  33.547  1.00  0.00     0.012 A 
ATOM     80  C   UNL A   1      45.955  26.043  34.550  1.00  0.00     0.148 A 
ATOM     81  C   UNL A   1      48.230  27.645  34.156  1.00  0.00     0.002 A 
ATOM     82  C   UNL A   1      47.149  25.735  35.190  1.00  0.00     0.091 A 
ATOM     83  F   UNL A   1      44.859  25.285  34.694  1.00  0.00    -0.205 F 
ATOM     84  C   UNL A   1      48.290  26.528  34.985  1.00  0.00     0.022 A 
BRANCH  82  85
ATOM     85  S   UNL A   1      47.299  24.370  36.348  1.00  0.00     0.127 S 
ATOM     86  O   UNL A   1      47.087  23.215  35.478  1.00  0.00    -0.237 OA
ATOM     87  O   UNL A   1      48.671  24.524  36.835  1.00  0.00    -0.237 OA
ATOM     88  O   UNL A   1      46.272  24.586  37.359  1.00  0.00    -0.744 OA
ENDBRANCH  82  85
ENDBRANCH  55  78
ENDBRANCH  29  30
ENDBRANCH  22  24
ENDBRANCH  21  22
ENDBRANCH  20  21
ENDBRANCH   1  20
TORSDOF 20
ENDMDL
MODEL 3
REMARK VINA RESULT:      -9.8      5.204      7.644
REMARK SMILES C[C@](O)(c1cnccn1)[C@H](F)C(=O)OCCOCCOC(=O)c1ccc(-c2c3nc(c(-c4cccc(S(=O)(=O)[O-])c4F)c4ccc([nH]4)c(-c4cccc(S(=O)(=O)[O-])c4F)c4nc(c(-c5cccc(S(=O)(=O)[O-])c5F)c5ccc2[nH]5)C=C4)C=C3)cc1
REMARK SMILES IDX 18 1 17 2 16 3 15 4 14 5 12 6 13 7 10 8 11 9 2 10 1 11 4 12
REMARK SMILES IDX 5 13 9 14 6 15 8 16 7 17 3 18 19 20 20 21 21 22 22 23 23 24
REMARK SMILES IDX 24 25 85 26 25 27 84 28 26 29 27 30 28 31 78 32 29 33 83 34
REMARK SMILES IDX 77 35 79 36 30 37 82 38 76 39 75 40 31 42 63 43 43 44 62 45
REMARK SMILES IDX 44 46 47 47 61 48 80 49 45 50 46 51 60 53 81 54 48 55 32 56
REMARK SMILES IDX 33 57 41 58 34 59 36 60 42 61 35 62 37 63 38 64 39 65 40 66
REMARK SMILES IDX 64 67 65 68 73 69 66 70 68 71 74 72 67 73 69 74 70 75 71 76
REMARK SMILES IDX 72 77 49 78 50 79 58 80 51 81 53 82 59 83 52 84 54 85 55 86
REMARK SMILES IDX 56 87 57 88
REMARK H PARENT 3 19 79 41 47 52
REMARK Flexibility Score: inf
ROOT
ATOM      1  C   UNL A   1      31.750  28.871  27.110  1.00  0.00     0.202 C 
ENDROOT
BRANCH   1   2
ATOM      2  O   UNL A   1      31.739  27.914  26.047  1.00  0.00    -0.374 OA
BRANCH   2   3
ATOM      3  C   UNL A   1      32.993  27.348  25.665  1.00  0.00     0.202 C 
BRANCH   3   4
ATOM      4  C   UNL A   1      33.385  27.512  24.195  1.00  0.00     0.261 C 
BRANCH   4   5
ATOM      5  O   UNL A   1      34.140  26.380  23.740  1.00  0.00    -0.461 OA
BRANCH   5   6
ATOM      6  C   UNL A   1      33.548  25.599  22.801  1.00  0.00     0.344 C 
ATOM      7  O   UNL A   1      33.690  25.718  21.589  1.00  0.00    -0.249 OA
BRANCH   6   8
ATOM      8  C   UNL A   1      32.680  24.527  23.425  1.00  0.00     0.313 C 
ATOM      9  F   UNL A   1      31.411  24.513  22.915  1.00  0.00    -0.231 F 
BRANCH   8  10
ATOM     10  C   UNL A   1      33.319  23.124  23.351  1.00  0.00     0.147 C 
ATOM     11  C   UNL A   1      32.457  22.152  22.523  1.00  0.00     0.053 C 
BRANCH  10  12
ATOM     12  C   UNL A   1      33.637  22.602  24.753  1.00  0.00     0.094 A 
ATOM     13  C   UNL A   1      32.754  22.771  25.821  1.00  0.00     0.138 A 
ATOM     14  N   UNL A   1      34.838  21.997  24.961  1.00  0.00    -0.255 NA
ATOM     15  N   UNL A   1      33.007  22.349  27.080  1.00  0.00    -0.261 NA
ATOM     16  C   UNL A   1      35.079  21.539  26.216  1.00  0.00     0.131 A 
ATOM     17  C   UNL A   1      34.180  21.700  27.253  1.00  0.00     0.131 A 
ENDBRANCH  10  12
BRANCH  10  18
ATOM     18  O   UNL A   1      34.553  23.209  22.587  1.00  0.00    -0.380 OA
ATOM     19  H   UNL A   1      34.922  24.104  22.666  1.00  0.00     0.212 HD
ENDBRANCH  10  18
ENDBRANCH   8  10
ENDBRANCH   6   8
ENDBRANCH   5   6
ENDBRANCH   4   5
ENDBRANCH   3   4
ENDBRANCH   2   3
ENDBRANCH   1   2
BRANCH   1  20
ATOM     20  C   UNL A   1      31.876  30.350  26.722  1.00  0.00     0.261 C 
BRANCH  20  21
ATOM     21  O   UNL A   1      33.236  30.739  26.464  1.00  0.00    -0.460 OA
BRANCH  21  22
ATOM     22  C   UNL A   1      33.752  31.647  27.325  1.00  0.00     0.338 C 
ATOM     23  O   UNL A   1      33.207  32.659  27.747  1.00  0.00    -0.246 OA
BRANCH  22  24
ATOM     24  C   UNL A   1      35.032  31.152  27.861  1.00  0.00     0.060 A 
ATOM     25  C   UNL A   1      35.119  29.795  28.197  1.00  0.00     0.016 A 
ATOM     26  C   UNL A   1      36.113  32.009  28.078  1.00  0.00     0.016 A 
ATOM     27  C   UNL A   1      36.285  29.290  28.771  1.00  0.00     0.010 A 
ATOM     28  C   UNL A   1      37.277  31.502  28.669  1.00  0.00     0.010 A 
ATOM     29  C   UNL A   1      37.361  30.147  29.034  1.00  0.00    -0.014 A 
BRANCH  29  30
ATOM     30  C   UNL A   1      38.556  29.640  29.750  1.00  0.00     0.031 A 
ATOM     31  C   UNL A   1      38.913  30.207  31.096  1.00  0.00     0.074 A 
ATOM     32  C   UNL A   1      39.335  28.700  29.182  1.00  0.00     0.049 A 
ATOM     33  N   UNL A   1      39.944  29.944  31.854  1.00  0.00    -0.248 NA
ATOM     34  C   UNL A   1      37.988  31.203  31.662  1.00  0.00     0.031 C 
ATOM     35  C   UNL A   1      39.095  28.083  27.878  1.00  0.00     0.029 A 
ATOM     36  N   UNL A   1      40.506  28.132  29.615  1.00  0.00    -0.354 N 
ATOM     37  C   UNL A   1      39.815  30.761  32.970  1.00  0.00     0.074 A 
ATOM     38  C   UNL A   1      38.600  31.528  32.794  1.00  0.00     0.031 C 
ATOM     39  C   UNL A   1      40.113  27.253  27.597  1.00  0.00     0.029 A 
ATOM     40  C   UNL A   1      41.087  27.301  28.686  1.00  0.00     0.049 A 
ATOM     41  H   UNL A   1      40.893  28.301  30.505  1.00  0.00     0.167 HD
ATOM     42  C   UNL A   1      40.628  30.855  34.048  1.00  0.00     0.034 A 
ATOM     43  C   UNL A   1      42.284  26.683  28.697  1.00  0.00     0.034 A 
ATOM     44  C   UNL A   1      41.820  30.074  34.233  1.00  0.00     0.049 A 
ATOM     45  C   UNL A   1      43.181  26.827  29.899  1.00  0.00     0.074 A 
ATOM     46  C   UNL A   1      42.663  30.040  35.331  1.00  0.00     0.029 A 
ATOM     47  N   UNL A   1      42.355  29.207  33.295  1.00  0.00    -0.354 N 
ATOM     48  N   UNL A   1      42.967  27.480  31.015  1.00  0.00    -0.248 NA
ATOM     49  C   UNL A   1      44.476  26.131  29.853  1.00  0.00     0.031 C 
ATOM     50  C   UNL A   1      43.725  29.177  35.043  1.00  0.00     0.029 A 
ATOM     51  C   UNL A   1      43.531  28.656  33.774  1.00  0.00     0.049 A 
ATOM     52  H   UNL A   1      41.956  29.011  32.416  1.00  0.00     0.167 HD
ATOM     53  C   UNL A   1      44.085  27.255  31.811  1.00  0.00     0.074 A 
ATOM     54  C   UNL A   1      44.961  26.379  31.062  1.00  0.00     0.031 C 
ATOM     55  C   UNL A   1      44.372  27.747  33.041  1.00  0.00     0.034 A 
BRANCH  42  56
ATOM     56  C   UNL A   1      40.252  31.821  35.138  1.00  0.00     0.023 A 
ATOM     57  C   UNL A   1      40.751  33.138  35.103  1.00  0.00     0.012 A 
ATOM     58  C   UNL A   1      39.325  31.455  36.135  1.00  0.00     0.148 A 
ATOM     59  C   UNL A   1      40.341  34.075  36.051  1.00  0.00     0.002 A 
ATOM     60  C   UNL A   1      38.894  32.404  37.053  1.00  0.00     0.091 A 
ATOM     61  F   UNL A   1      38.880  30.191  36.159  1.00  0.00    -0.205 F 
ATOM     62  C   UNL A   1      39.405  33.712  37.016  1.00  0.00     0.022 A 
BRANCH  60  63
ATOM     63  S   UNL A   1      37.638  32.059  38.290  1.00  0.00     0.127 S 
ATOM     64  O   UNL A   1      38.349  32.372  39.527  1.00  0.00    -0.237 OA
ATOM     65  O   UNL A   1      36.586  33.013  37.933  1.00  0.00    -0.237 OA
ATOM     66  O   UNL A   1      37.276  30.660  38.119  1.00  0.00    -0.744 OA
ENDBRANCH  60  63
ENDBRANCH  42  56
BRANCH  43  67
ATOM     67  C   UNL A   1      42.713  25.870  27.524  1.00  0.00     0.023 A 
ATOM     68  C   UNL A   1      43.532  26.445  26.534  1.00  0.00     0.012 A 
ATOM     69  C   UNL A   1      42.310  24.528  27.386  1.00  0.00     0.148 A 
ATOM     70  C   UNL A   1      43.913  25.708  25.411  1.00  0.00     0.002 A 
ATOM     71  C   UNL A   1      42.742  23.783  26.296  1.00  0.00     0.091 A 
ATOM     72  F   UNL A   1      41.506  24.002  28.322  1.00  0.00    -0.205 F 
ATOM     73  C   UNL A   1      43.529  24.374  25.298  1.00  0.00     0.022 A 
BRANCH  71  74
ATOM     74  S   UNL A   1      42.392  22.025  26.167  1.00  0.00     0.127 S 
ATOM     75  O   UNL A   1      42.824  21.536  27.473  1.00  0.00    -0.237 OA
ATOM     76  O   UNL A   1      40.944  22.011  25.952  1.00  0.00    -0.237 OA
ATOM     77  O   UNL A   1      43.168  21.567  25.019  1.00  0.00    -0.744 OA
ENDBRANCH  71  74
ENDBRANCH  43  67
BRANCH  55  78
ATOM     78  C   UNL A   1      45.682  27.346  33.669  1.00  0.00     0.023 A 
ATOM     79  C   UNL A   1      46.813  28.169  33.503  1.00  0.00     0.012 A 
ATOM     80  C   UNL A   1      45.774  26.200  34.485  1.00  0.00     0.148 A 
ATOM     81  C   UNL A   1      48.022  27.845  34.115  1.00  0.00     0.002 A 
ATOM     82  C   UNL A   1      46.970  25.909  35.130  1.00  0.00     0.091 A 
ATOM     83  F   UNL A   1      44.691  25.421  34.619  1.00  0.00    -0.205 F 
ATOM     84  C   UNL A   1      48.099  26.723  34.937  1.00  0.00     0.022 A 
BRANCH  82  85
ATOM     85  S   UNL A   1      47.139  24.538  36.279  1.00  0.00     0.127 S 
ATOM     86  O   UNL A   1      46.798  23.396  35.433  1.00  0.00    -0.237 OA
ATOM     87  O   UNL A   1      48.551  24.619  36.655  1.00  0.00    -0.237 OA
ATOM     88  O   UNL A   1      46.208  24.809  37.367  1.00  0.00    -0.744 OA
ENDBRANCH  82  85
ENDBRANCH  55  78
ENDBRANCH  29  30
ENDBRANCH  22  24
ENDBRANCH  21  22
ENDBRANCH  20  21
ENDBRANCH   1  20
TORSDOF 20
ENDMDL
