MODEL 1
REMARK VINA RESULT:     -11.1      0.000      0.000
REMARK SMILES Cc1ccc([N+](=O)[O-])c(NCc2ccc(C(=O)OCCOCCOC(=O)c3ccc(-c4c5nc(c(-c6cccc(S(=O)(=O)[O-])c6F)c6ccc([nH]6)c(-c6cccc(S(=O)(=O)[O-])c6F)c6nc(c(-c7cccc(S(=O)(=O)[O-])c7F)c7ccc4[nH]7)C=C6)C=C5)cc3)cc2)c1
REMARK SMILES IDX 20 1 19 2 18 3 16 4 17 5 15 6 12 7 13 8 91 9 14 10 90 11
REMARK SMILES IDX 11 12 10 13 9 15 1 16 2 17 3 18 92 19 4 20 5 21 6 22 7 23
REMARK SMILES IDX 8 24 21 25 22 26 23 27 24 28 25 29 26 30 27 31 28 32 89 33
REMARK SMILES IDX 29 34 88 35 30 36 31 37 32 38 82 39 33 40 87 41 81 42 83 43
REMARK SMILES IDX 34 44 86 45 80 46 79 47 35 49 67 50 47 51 66 52 48 53 51 54
REMARK SMILES IDX 65 55 84 56 49 57 50 58 64 60 85 61 52 62 36 63 37 64 45 65
REMARK SMILES IDX 38 66 40 67 46 68 39 69 41 70 42 71 43 72 44 73 68 74 69 75
REMARK SMILES IDX 77 76 70 77 72 78 78 79 71 80 73 81 74 82 75 83 76 84 53 85
REMARK SMILES IDX 54 86 62 87 55 88 57 89 63 90 56 91 58 92 59 93 60 94 61 95
REMARK H PARENT 10 14 83 48 51 59
REMARK Flexibility Score: inf
ROOT
ATOM      1  C   UNL A   1      36.789  22.099  25.482  1.00  0.00     0.202 C 
ENDROOT
BRANCH   1   2
ATOM      2  C   UNL A   1      35.949  20.941  25.040  1.00  0.00     0.261 C 
BRANCH   2   3
ATOM      3  O   UNL A   1      34.857  20.720  25.961  1.00  0.00    -0.460 OA
BRANCH   3   4
ATOM      4  C   UNL A   1      33.578  20.473  25.552  1.00  0.00     0.338 C 
ATOM      5  O   UNL A   1      32.990  19.438  25.358  1.00  0.00    -0.246 OA
BRANCH   4   6
ATOM      6  C   UNL A   1      32.875  21.758  25.574  1.00  0.00     0.060 A 
ATOM      7  C   UNL A   1      31.162  23.922  25.710  1.00  0.00    -0.029 A 
ATOM      8  C   UNL A   1      31.391  23.283  24.479  1.00  0.00     0.006 A 
ATOM      9  C   UNL A   1      31.785  23.445  26.870  1.00  0.00     0.006 A 
ATOM     10  C   UNL A   1      32.245  22.196  24.407  1.00  0.00     0.016 A 
ATOM     11  C   UNL A   1      32.683  22.407  26.790  1.00  0.00     0.016 A 
BRANCH   7  12
ATOM     12  C   UNL A   1      30.222  25.097  25.711  1.00  0.00     0.149 C 
BRANCH  12  13
ATOM     13  N   UNL A   1      30.584  26.088  24.727  1.00  0.00    -0.375 N 
ATOM     14  H   UNL A   1      30.594  25.766  23.796  1.00  0.00     0.161 HD
BRANCH  13  15
ATOM     15  C   UNL A   1      30.916  27.413  24.887  1.00  0.00     0.114 A 
ATOM     16  C   UNL A   1      33.152  29.031  27.571  1.00  0.00     0.044 C 
ATOM     17  C   UNL A   1      32.262  28.879  26.376  1.00  0.00    -0.049 A 
ATOM     18  C   UNL A   1      31.924  29.976  25.597  1.00  0.00     0.010 A 
ATOM     19  C   UNL A   1      31.750  27.630  26.019  1.00  0.00     0.036 A 
ATOM     20  C   UNL A   1      31.072  29.818  24.507  1.00  0.00     0.088 A 
ATOM     21  C   UNL A   1      30.549  28.554  24.152  1.00  0.00     0.292 A 
BRANCH  21  22
ATOM     22  N   UNL A   1      29.679  28.569  22.963  1.00  0.00     0.064 N 
ATOM     23  O   UNL A   1      30.092  27.975  21.952  1.00  0.00    -0.258 OA
ATOM     24  O   UNL A   1      28.634  29.228  22.972  1.00  0.00    -0.258 OA
ENDBRANCH  21  22
ENDBRANCH  13  15
ENDBRANCH  12  13
ENDBRANCH   7  12
ENDBRANCH   4   6
ENDBRANCH   3   4
ENDBRANCH   2   3
ENDBRANCH   1   2
BRANCH   1  25
ATOM     25  O   UNL A   1      38.107  21.605  25.564  1.00  0.00    -0.374 OA
BRANCH  25  26
ATOM     26  C   UNL A   1      38.321  20.258  25.231  1.00  0.00     0.202 C 
BRANCH  26  27
ATOM     27  C   UNL A   1      39.595  19.741  25.892  1.00  0.00     0.261 C 
BRANCH  27  28
ATOM     28  O   UNL A   1      40.472  20.852  26.188  1.00  0.00    -0.460 OA
BRANCH  28  29
ATOM     29  C   UNL A   1      41.804  20.623  25.970  1.00  0.00     0.338 C 
ATOM     30  O   UNL A   1      42.238  19.599  25.467  1.00  0.00    -0.246 OA
BRANCH  29  31
ATOM     31  C   UNL A   1      42.639  21.670  26.644  1.00  0.00     0.060 A 
ATOM     32  C   UNL A   1      42.369  22.039  27.974  1.00  0.00     0.016 A 
ATOM     33  C   UNL A   1      43.439  22.493  25.859  1.00  0.00     0.016 A 
ATOM     34  C   UNL A   1      42.706  23.323  28.437  1.00  0.00     0.010 A 
ATOM     35  C   UNL A   1      43.674  23.786  26.291  1.00  0.00     0.010 A 
ATOM     36  C   UNL A   1      43.237  24.246  27.552  1.00  0.00    -0.014 A 
BRANCH  36  37
ATOM     37  C   UNL A   1      43.468  25.681  27.811  1.00  0.00     0.031 A 
ATOM     38  C   UNL A   1      42.240  26.502  27.882  1.00  0.00     0.074 A 
ATOM     39  C   UNL A   1      44.620  26.198  28.320  1.00  0.00     0.049 A 
ATOM     40  N   UNL A   1      42.210  27.732  28.249  1.00  0.00    -0.248 NA
ATOM     41  C   UNL A   1      40.921  25.992  27.502  1.00  0.00     0.031 C 
ATOM     42  C   UNL A   1      44.720  27.201  29.395  1.00  0.00     0.029 A 
ATOM     43  N   UNL A   1      45.960  25.888  28.086  1.00  0.00    -0.354 N 
ATOM     44  C   UNL A   1      40.899  28.040  28.510  1.00  0.00     0.074 A 
ATOM     45  C   UNL A   1      40.132  26.996  27.892  1.00  0.00     0.031 C 
ATOM     46  C   UNL A   1      46.003  27.545  29.597  1.00  0.00     0.029 A 
ATOM     47  C   UNL A   1      46.778  26.935  28.537  1.00  0.00     0.049 A 
ATOM     48  H   UNL A   1      46.284  25.059  27.665  1.00  0.00     0.167 HD
ATOM     49  C   UNL A   1      40.653  29.070  29.359  1.00  0.00     0.034 A 
ATOM     50  C   UNL A   1      47.666  27.544  27.703  1.00  0.00     0.034 A 
ATOM     51  C   UNL A   1      41.889  29.847  29.595  1.00  0.00     0.049 A 
ATOM     52  C   UNL A   1      47.243  28.972  27.486  1.00  0.00     0.074 A 
ATOM     53  C   UNL A   1      42.756  29.968  30.666  1.00  0.00     0.029 A 
ATOM     54  N   UNL A   1      42.555  30.398  28.495  1.00  0.00    -0.354 N 
ATOM     55  N   UNL A   1      46.114  29.439  27.945  1.00  0.00    -0.248 NA
ATOM     56  C   UNL A   1      48.019  30.002  26.809  1.00  0.00     0.031 C 
ATOM     57  C   UNL A   1      43.986  30.506  30.173  1.00  0.00     0.029 A 
ATOM     58  C   UNL A   1      43.854  30.766  28.816  1.00  0.00     0.049 A 
ATOM     59  H   UNL A   1      42.153  30.511  27.604  1.00  0.00     0.167 HD
ATOM     60  C   UNL A   1      45.932  30.726  27.574  1.00  0.00     0.074 A 
ATOM     61  C   UNL A   1      47.185  31.057  26.909  1.00  0.00     0.031 C 
ATOM     62  C   UNL A   1      44.743  31.361  27.806  1.00  0.00     0.034 A 
BRANCH  49  63
ATOM     63  C   UNL A   1      39.349  29.299  30.106  1.00  0.00     0.023 A 
ATOM     64  C   UNL A   1      39.008  28.343  31.087  1.00  0.00     0.012 A 
ATOM     65  C   UNL A   1      38.383  30.317  29.872  1.00  0.00     0.148 A 
ATOM     66  C   UNL A   1      37.801  28.391  31.796  1.00  0.00     0.002 A 
ATOM     67  C   UNL A   1      37.209  30.405  30.629  1.00  0.00     0.091 A 
ATOM     68  F   UNL A   1      38.529  31.167  28.854  1.00  0.00    -0.205 F 
ATOM     69  C   UNL A   1      36.910  29.432  31.583  1.00  0.00     0.022 A 
BRANCH  67  70
ATOM     70  S   UNL A   1      36.024  31.755  30.448  1.00  0.00     0.127 S 
ATOM     71  O   UNL A   1      36.900  32.912  30.261  1.00  0.00    -0.237 OA
ATOM     72  O   UNL A   1      35.281  31.360  29.251  1.00  0.00    -0.237 OA
ATOM     73  O   UNL A   1      35.229  31.776  31.670  1.00  0.00    -0.744 OA
ENDBRANCH  67  70
ENDBRANCH  49  63
BRANCH  50  74
ATOM     74  C   UNL A   1      48.249  26.566  26.726  1.00  0.00     0.023 A 
ATOM     75  C   UNL A   1      47.611  26.507  25.457  1.00  0.00     0.012 A 
ATOM     76  C   UNL A   1      49.611  26.219  26.810  1.00  0.00     0.148 A 
ATOM     77  C   UNL A   1      48.347  26.283  24.290  1.00  0.00     0.002 A 
ATOM     78  C   UNL A   1      50.345  26.041  25.637  1.00  0.00     0.091 A 
ATOM     79  F   UNL A   1      50.185  26.177  28.019  1.00  0.00    -0.205 F 
ATOM     80  C   UNL A   1      49.724  26.110  24.378  1.00  0.00     0.022 A 
BRANCH  78  81
ATOM     81  S   UNL A   1      52.140  25.917  25.660  1.00  0.00     0.127 S 
ATOM     82  O   UNL A   1      52.474  26.211  24.269  1.00  0.00    -0.237 OA
ATOM     83  O   UNL A   1      52.515  26.967  26.610  1.00  0.00    -0.237 OA
ATOM     84  O   UNL A   1      52.429  24.567  26.115  1.00  0.00    -0.744 OA
ENDBRANCH  78  81
ENDBRANCH  50  74
BRANCH  62  85
ATOM     85  C   UNL A   1      44.334  32.623  27.083  1.00  0.00     0.023 A 
ATOM     86  C   UNL A   1      44.117  32.642  25.691  1.00  0.00     0.012 A 
ATOM     87  C   UNL A   1      44.003  33.801  27.795  1.00  0.00     0.148 A 
ATOM     88  C   UNL A   1      43.709  33.794  25.019  1.00  0.00     0.002 A 
ATOM     89  C   UNL A   1      43.463  34.899  27.139  1.00  0.00     0.091 A 
ATOM     90  F   UNL A   1      44.227  33.874  29.114  1.00  0.00    -0.205 F 
ATOM     91  C   UNL A   1      43.362  34.919  25.747  1.00  0.00     0.022 A 
BRANCH  89  92
ATOM     92  S   UNL A   1      42.730  36.264  28.046  1.00  0.00     0.127 S 
ATOM     93  O   UNL A   1      42.187  37.083  26.964  1.00  0.00    -0.237 OA
ATOM     94  O   UNL A   1      41.724  35.583  28.862  1.00  0.00    -0.237 OA
ATOM     95  O   UNL A   1      43.819  36.857  28.811  1.00  0.00    -0.744 OA
ENDBRANCH  89  92
ENDBRANCH  62  85
ENDBRANCH  36  37
ENDBRANCH  29  31
ENDBRANCH  28  29
ENDBRANCH  27  28
ENDBRANCH  26  27
ENDBRANCH  25  26
ENDBRANCH   1  25
TORSDOF 21
ENDMDL
MODEL 2
REMARK VINA RESULT:     -10.6     10.249     14.240
REMARK SMILES Cc1ccc([N+](=O)[O-])c(NCc2ccc(C(=O)OCCOCCOC(=O)c3ccc(-c4c5nc(c(-c6cccc(S(=O)(=O)[O-])c6F)c6ccc([nH]6)c(-c6cccc(S(=O)(=O)[O-])c6F)c6nc(c(-c7cccc(S(=O)(=O)[O-])c7F)c7ccc4[nH]7)C=C6)C=C5)cc3)cc2)c1
REMARK SMILES IDX 20 1 19 2 18 3 16 4 17 5 15 6 12 7 13 8 91 9 14 10 90 11
REMARK SMILES IDX 11 12 10 13 9 15 1 16 2 17 3 18 92 19 4 20 5 21 6 22 7 23
REMARK SMILES IDX 8 24 21 25 22 26 23 27 24 28 25 29 26 30 27 31 28 32 89 33
REMARK SMILES IDX 29 34 88 35 30 36 31 37 32 38 82 39 33 40 87 41 81 42 83 43
REMARK SMILES IDX 34 44 86 45 80 46 79 47 35 49 67 50 47 51 66 52 48 53 51 54
REMARK SMILES IDX 65 55 84 56 49 57 50 58 64 60 85 61 52 62 36 63 37 64 45 65
REMARK SMILES IDX 38 66 40 67 46 68 39 69 41 70 42 71 43 72 44 73 68 74 69 75
REMARK SMILES IDX 77 76 70 77 72 78 78 79 71 80 73 81 74 82 75 83 76 84 53 85
REMARK SMILES IDX 54 86 62 87 55 88 57 89 63 90 56 91 58 92 59 93 60 94 61 95
REMARK H PARENT 10 14 83 48 51 59
REMARK Flexibility Score: inf
ROOT
ATOM      1  C   UNL A   1      44.820  16.452  39.131  1.00  0.00     0.202 C 
ENDROOT
BRANCH   1   2
ATOM      2  C   UNL A   1      43.524  15.777  38.803  1.00  0.00     0.261 C 
BRANCH   2   3
ATOM      3  O   UNL A   1      42.703  15.645  39.984  1.00  0.00    -0.460 OA
BRANCH   3   4
ATOM      4  C   UNL A   1      42.078  14.481  40.328  1.00  0.00     0.338 C 
ATOM      5  O   UNL A   1      41.784  13.511  39.675  1.00  0.00    -0.246 OA
BRANCH   4   6
ATOM      6  C   UNL A   1      41.977  14.475  41.790  1.00  0.00     0.060 A 
ATOM      7  C   UNL A   1      42.202  14.236  44.534  1.00  0.00    -0.029 A 
ATOM      8  C   UNL A   1      41.536  13.243  43.794  1.00  0.00     0.006 A 
ATOM      9  C   UNL A   1      42.772  15.332  43.875  1.00  0.00     0.006 A 
ATOM     10  C   UNL A   1      41.424  13.358  42.419  1.00  0.00     0.016 A 
ATOM     11  C   UNL A   1      42.607  15.481  42.519  1.00  0.00     0.016 A 
BRANCH   7  12
ATOM     12  C   UNL A   1      42.284  14.044  46.024  1.00  0.00     0.149 C 
BRANCH  12  13
ATOM     13  N   UNL A   1      43.629  13.771  46.469  1.00  0.00    -0.375 N 
ATOM     14  H   UNL A   1      43.754  13.785  47.445  1.00  0.00     0.161 HD
BRANCH  13  15
ATOM     15  C   UNL A   1      44.761  13.493  45.741  1.00  0.00     0.114 A 
ATOM     16  C   UNL A   1      45.880  10.143  44.206  1.00  0.00     0.044 C 
ATOM     17  C   UNL A   1      45.871  11.593  44.584  1.00  0.00    -0.049 A 
ATOM     18  C   UNL A   1      46.886  12.442  44.168  1.00  0.00     0.010 A 
ATOM     19  C   UNL A   1      44.841  12.124  45.364  1.00  0.00     0.036 A 
ATOM     20  C   UNL A   1      46.874  13.781  44.554  1.00  0.00     0.088 A 
ATOM     21  C   UNL A   1      45.834  14.313  45.350  1.00  0.00     0.292 A 
BRANCH  21  22
ATOM     22  N   UNL A   1      45.974  15.749  45.649  1.00  0.00     0.064 N 
ATOM     23  O   UNL A   1      45.590  16.133  46.768  1.00  0.00    -0.258 OA
ATOM     24  O   UNL A   1      46.373  16.524  44.775  1.00  0.00    -0.258 OA
ENDBRANCH  21  22
ENDBRANCH  13  15
ENDBRANCH  12  13
ENDBRANCH   7  12
ENDBRANCH   4   6
ENDBRANCH   3   4
ENDBRANCH   2   3
ENDBRANCH   1   2
BRANCH   1  25
ATOM     25  O   UNL A   1      44.704  17.765  38.629  1.00  0.00    -0.374 OA
BRANCH  25  26
ATOM     26  C   UNL A   1      45.088  17.993  37.298  1.00  0.00     0.202 C 
BRANCH  26  27
ATOM     27  C   UNL A   1      46.019  19.197  37.211  1.00  0.00     0.261 C 
BRANCH  27  28
ATOM     28  O   UNL A   1      45.532  20.116  36.205  1.00  0.00    -0.460 OA
BRANCH  28  29
ATOM     29  C   UNL A   1      45.811  21.436  36.431  1.00  0.00     0.338 C 
ATOM     30  O   UNL A   1      46.011  21.903  37.541  1.00  0.00    -0.246 OA
BRANCH  29  31
ATOM     31  C   UNL A   1      45.597  22.243  35.187  1.00  0.00     0.060 A 
ATOM     32  C   UNL A   1      46.461  23.310  34.881  1.00  0.00     0.016 A 
ATOM     33  C   UNL A   1      44.373  22.151  34.534  1.00  0.00     0.016 A 
ATOM     34  C   UNL A   1      46.008  24.390  34.103  1.00  0.00     0.010 A 
ATOM     35  C   UNL A   1      43.904  23.263  33.856  1.00  0.00     0.010 A 
ATOM     36  C   UNL A   1      44.682  24.431  33.704  1.00  0.00    -0.014 A 
BRANCH  36  37
ATOM     37  C   UNL A   1      43.993  25.564  33.056  1.00  0.00     0.031 A 
ATOM     38  C   UNL A   1      43.263  26.456  33.982  1.00  0.00     0.074 A 
ATOM     39  C   UNL A   1      44.270  26.022  31.803  1.00  0.00     0.049 A 
ATOM     40  N   UNL A   1      42.731  27.574  33.645  1.00  0.00    -0.248 NA
ATOM     41  C   UNL A   1      43.042  26.126  35.392  1.00  0.00     0.031 C 
ATOM     42  C   UNL A   1      44.432  27.434  31.413  1.00  0.00     0.029 A 
ATOM     43  N   UNL A   1      44.572  25.354  30.616  1.00  0.00    -0.354 N 
ATOM     44  C   UNL A   1      42.455  28.252  34.805  1.00  0.00     0.074 A 
ATOM     45  C   UNL A   1      42.518  27.266  35.847  1.00  0.00     0.031 C 
ATOM     46  C   UNL A   1      44.621  27.533  30.086  1.00  0.00     0.029 A 
ATOM     47  C   UNL A   1      44.395  26.218  29.524  1.00  0.00     0.049 A 
ATOM     48  H   UNL A   1      44.865  24.417  30.553  1.00  0.00     0.167 HD
ATOM     49  C   UNL A   1      42.363  29.605  34.735  1.00  0.00     0.034 A 
ATOM     50  C   UNL A   1      43.571  25.887  28.492  1.00  0.00     0.034 A 
ATOM     51  C   UNL A   1      42.288  30.042  33.325  1.00  0.00     0.049 A 
ATOM     52  C   UNL A   1      42.402  26.835  28.469  1.00  0.00     0.074 A 
ATOM     53  C   UNL A   1      43.176  30.665  32.465  1.00  0.00     0.029 A 
ATOM     54  N   UNL A   1      41.260  29.539  32.520  1.00  0.00    -0.354 N 
ATOM     55  N   UNL A   1      42.206  27.719  29.408  1.00  0.00    -0.248 NA
ATOM     56  C   UNL A   1      41.398  26.931  27.418  1.00  0.00     0.031 C 
ATOM     57  C   UNL A   1      42.718  30.441  31.129  1.00  0.00     0.029 A 
ATOM     58  C   UNL A   1      41.525  29.732  31.172  1.00  0.00     0.049 A 
ATOM     59  H   UNL A   1      40.450  29.101  32.867  1.00  0.00     0.167 HD
ATOM     60  C   UNL A   1      41.064  28.412  29.196  1.00  0.00     0.074 A 
ATOM     61  C   UNL A   1      40.618  27.921  27.898  1.00  0.00     0.031 C 
ATOM     62  C   UNL A   1      40.581  29.273  30.142  1.00  0.00     0.034 A 
BRANCH  49  63
ATOM     63  C   UNL A   1      42.497  30.554  35.914  1.00  0.00     0.023 A 
ATOM     64  C   UNL A   1      43.753  30.589  36.558  1.00  0.00     0.012 A 
ATOM     65  C   UNL A   1      41.477  31.352  36.505  1.00  0.00     0.148 A 
ATOM     66  C   UNL A   1      43.991  31.362  37.701  1.00  0.00     0.002 A 
ATOM     67  C   UNL A   1      41.734  32.178  37.605  1.00  0.00     0.091 A 
ATOM     68  F   UNL A   1      40.216  31.262  36.080  1.00  0.00    -0.205 F 
ATOM     69  C   UNL A   1      42.989  32.172  38.214  1.00  0.00     0.022 A 
BRANCH  67  70
ATOM     70  S   UNL A   1      40.501  33.299  38.300  1.00  0.00     0.127 S 
ATOM     71  O   UNL A   1      41.243  33.940  39.386  1.00  0.00    -0.237 OA
ATOM     72  O   UNL A   1      40.206  34.178  37.168  1.00  0.00    -0.237 OA
ATOM     73  O   UNL A   1      39.381  32.470  38.726  1.00  0.00    -0.744 OA
ENDBRANCH  67  70
ENDBRANCH  49  63
BRANCH  50  74
ATOM     74  C   UNL A   1      43.605  24.412  28.224  1.00  0.00     0.023 A 
ATOM     75  C   UNL A   1      42.403  23.707  28.504  1.00  0.00     0.012 A 
ATOM     76  C   UNL A   1      44.472  23.897  27.242  1.00  0.00     0.148 A 
ATOM     77  C   UNL A   1      41.997  22.630  27.710  1.00  0.00     0.002 A 
ATOM     78  C   UNL A   1      44.039  22.850  26.426  1.00  0.00     0.091 A 
ATOM     79  F   UNL A   1      45.650  24.504  27.050  1.00  0.00    -0.205 F 
ATOM     80  C   UNL A   1      42.789  22.243  26.635  1.00  0.00     0.022 A 
BRANCH  78  81
ATOM     81  S   UNL A   1      44.953  22.363  24.956  1.00  0.00     0.127 S 
ATOM     82  O   UNL A   1      45.107  23.640  24.266  1.00  0.00    -0.237 OA
ATOM     83  O   UNL A   1      46.193  21.824  25.521  1.00  0.00    -0.237 OA
ATOM     84  O   UNL A   1      44.119  21.374  24.292  1.00  0.00    -0.744 OA
ENDBRANCH  78  81
ENDBRANCH  50  74
BRANCH  62  85
ATOM     85  C   UNL A   1      39.150  29.757  30.153  1.00  0.00     0.023 A 
ATOM     86  C   UNL A   1      38.076  28.893  30.444  1.00  0.00     0.012 A 
ATOM     87  C   UNL A   1      38.841  31.133  30.020  1.00  0.00     0.148 A 
ATOM     88  C   UNL A   1      36.755  29.337  30.488  1.00  0.00     0.002 A 
ATOM     89  C   UNL A   1      37.543  31.590  30.204  1.00  0.00     0.091 A 
ATOM     90  F   UNL A   1      39.802  32.009  29.696  1.00  0.00    -0.205 F 
ATOM     91  C   UNL A   1      36.490  30.692  30.387  1.00  0.00     0.022 A 
BRANCH  89  92
ATOM     92  S   UNL A   1      37.182  33.340  30.374  1.00  0.00     0.127 S 
ATOM     93  O   UNL A   1      38.099  33.732  31.442  1.00  0.00    -0.237 OA
ATOM     94  O   UNL A   1      37.531  33.854  29.049  1.00  0.00    -0.237 OA
ATOM     95  O   UNL A   1      35.762  33.419  30.691  1.00  0.00    -0.744 OA
ENDBRANCH  89  92
ENDBRANCH  62  85
ENDBRANCH  36  37
ENDBRANCH  29  31
ENDBRANCH  28  29
ENDBRANCH  27  28
ENDBRANCH  26  27
ENDBRANCH  25  26
ENDBRANCH   1  25
TORSDOF 21
ENDMDL
MODEL 3
REMARK VINA RESULT:     -10.5      5.503     10.256
REMARK SMILES Cc1ccc([N+](=O)[O-])c(NCc2ccc(C(=O)OCCOCCOC(=O)c3ccc(-c4c5nc(c(-c6cccc(S(=O)(=O)[O-])c6F)c6ccc([nH]6)c(-c6cccc(S(=O)(=O)[O-])c6F)c6nc(c(-c7cccc(S(=O)(=O)[O-])c7F)c7ccc4[nH]7)C=C6)C=C5)cc3)cc2)c1
REMARK SMILES IDX 20 1 19 2 18 3 16 4 17 5 15 6 12 7 13 8 91 9 14 10 90 11
REMARK SMILES IDX 11 12 10 13 9 15 1 16 2 17 3 18 92 19 4 20 5 21 6 22 7 23
REMARK SMILES IDX 8 24 21 25 22 26 23 27 24 28 25 29 26 30 27 31 28 32 89 33
REMARK SMILES IDX 29 34 88 35 30 36 31 37 32 38 82 39 33 40 87 41 81 42 83 43
REMARK SMILES IDX 34 44 86 45 80 46 79 47 35 49 67 50 47 51 66 52 48 53 51 54
REMARK SMILES IDX 65 55 84 56 49 57 50 58 64 60 85 61 52 62 36 63 37 64 45 65
REMARK SMILES IDX 38 66 40 67 46 68 39 69 41 70 42 71 43 72 44 73 68 74 69 75
REMARK SMILES IDX 77 76 70 77 72 78 78 79 71 80 73 81 74 82 75 83 76 84 53 85
REMARK SMILES IDX 54 86 62 87 55 88 57 89 63 90 56 91 58 92 59 93 60 94 61 95
REMARK H PARENT 10 14 83 48 51 59
REMARK Flexibility Score: inf
ROOT
ATOM      1  C   UNL A   1      46.213  28.653  26.565  1.00  0.00     0.202 C 
ENDROOT
BRANCH   1   2
ATOM      2  C   UNL A   1      47.385  28.080  25.828  1.00  0.00     0.261 C 
BRANCH   2   3
ATOM      3  O   UNL A   1      48.160  27.218  26.691  1.00  0.00    -0.460 OA
BRANCH   3   4
ATOM      4  C   UNL A   1      48.730  26.054  26.262  1.00  0.00     0.338 C 
ATOM      5  O   UNL A   1      49.874  25.673  26.281  1.00  0.00    -0.246 OA
BRANCH   4   6
ATOM      6  C   UNL A   1      47.629  25.148  25.923  1.00  0.00     0.060 A 
ATOM      7  C   UNL A   1      45.872  23.095  25.346  1.00  0.00    -0.029 A 
ATOM      8  C   UNL A   1      46.607  23.702  24.312  1.00  0.00     0.006 A 
ATOM      9  C   UNL A   1      46.050  23.516  26.669  1.00  0.00     0.006 A 
ATOM     10  C   UNL A   1      47.491  24.729  24.598  1.00  0.00     0.016 A 
ATOM     11  C   UNL A   1      46.878  24.577  26.947  1.00  0.00     0.016 A 
BRANCH   7  12
ATOM     12  C   UNL A   1      44.930  21.986  24.959  1.00  0.00     0.149 C 
BRANCH  12  13
ATOM     13  N   UNL A   1      44.186  21.482  26.088  1.00  0.00    -0.375 N 
ATOM     14  H   UNL A   1      44.642  21.566  26.957  1.00  0.00     0.161 HD
BRANCH  13  15
ATOM     15  C   UNL A   1      42.941  20.902  26.138  1.00  0.00     0.114 A 
ATOM     16  C   UNL A   1      39.503  22.601  26.489  1.00  0.00     0.044 C 
ATOM     17  C   UNL A   1      40.546  21.535  26.336  1.00  0.00    -0.049 A 
ATOM     18  C   UNL A   1      40.186  20.200  26.229  1.00  0.00     0.010 A 
ATOM     19  C   UNL A   1      41.903  21.861  26.300  1.00  0.00     0.036 A 
ATOM     20  C   UNL A   1      41.171  19.222  26.117  1.00  0.00     0.088 A 
ATOM     21  C   UNL A   1      42.545  19.554  26.088  1.00  0.00     0.292 A 
BRANCH  21  22
ATOM     22  N   UNL A   1      43.446  18.396  25.948  1.00  0.00     0.064 N 
ATOM     23  O   UNL A   1      44.089  18.305  24.888  1.00  0.00    -0.258 OA
ATOM     24  O   UNL A   1      43.472  17.527  26.824  1.00  0.00    -0.258 OA
ENDBRANCH  21  22
ENDBRANCH  13  15
ENDBRANCH  12  13
ENDBRANCH   7  12
ENDBRANCH   4   6
ENDBRANCH   3   4
ENDBRANCH   2   3
ENDBRANCH   1   2
BRANCH   1  25
ATOM     25  O   UNL A   1      45.174  27.711  26.419  1.00  0.00    -0.374 OA
BRANCH  25  26
ATOM     26  C   UNL A   1      44.793  27.354  25.116  1.00  0.00     0.202 C 
BRANCH  26  27
ATOM     27  C   UNL A   1      43.519  26.517  25.144  1.00  0.00     0.261 C 
BRANCH  27  28
ATOM     28  O   UNL A   1      42.365  27.388  25.102  1.00  0.00    -0.460 OA
BRANCH  28  29
ATOM     29  C   UNL A   1      41.396  27.125  26.031  1.00  0.00     0.338 C 
ATOM     30  O   UNL A   1      40.733  26.099  26.043  1.00  0.00    -0.246 OA
BRANCH  29  31
ATOM     31  C   UNL A   1      41.105  28.343  26.854  1.00  0.00     0.060 A 
ATOM     32  C   UNL A   1      42.160  29.067  27.437  1.00  0.00     0.016 A 
ATOM     33  C   UNL A   1      39.807  28.549  27.307  1.00  0.00     0.016 A 
ATOM     34  C   UNL A   1      41.946  29.815  28.609  1.00  0.00     0.010 A 
ATOM     35  C   UNL A   1      39.628  29.203  28.513  1.00  0.00     0.010 A 
ATOM     36  C   UNL A   1      40.706  29.772  29.224  1.00  0.00    -0.014 A 
BRANCH  36  37
ATOM     37  C   UNL A   1      40.360  30.330  30.546  1.00  0.00     0.031 A 
ATOM     38  C   UNL A   1      39.571  31.580  30.503  1.00  0.00     0.074 A 
ATOM     39  C   UNL A   1      40.394  29.629  31.714  1.00  0.00     0.049 A 
ATOM     40  N   UNL A   1      39.040  32.140  31.529  1.00  0.00    -0.248 NA
ATOM     41  C   UNL A   1      39.344  32.333  29.266  1.00  0.00     0.031 C 
ATOM     42  C   UNL A   1      39.353  29.633  32.757  1.00  0.00     0.029 A 
ATOM     43  N   UNL A   1      41.294  28.682  32.202  1.00  0.00    -0.354 N 
ATOM     44  C   UNL A   1      38.132  33.055  31.061  1.00  0.00     0.074 A 
ATOM     45  C   UNL A   1      38.464  33.248  29.677  1.00  0.00     0.031 C 
ATOM     46  C   UNL A   1      39.743  28.893  33.809  1.00  0.00     0.029 A 
ATOM     47  C   UNL A   1      41.129  28.537  33.588  1.00  0.00     0.049 A 
ATOM     48  H   UNL A   1      41.948  28.189  31.656  1.00  0.00     0.167 HD
ATOM     49  C   UNL A   1      37.113  33.408  31.886  1.00  0.00     0.034 A 
ATOM     50  C   UNL A   1      42.176  28.708  34.442  1.00  0.00     0.034 A 
ATOM     51  C   UNL A   1      37.380  32.935  33.261  1.00  0.00     0.049 A 
ATOM     52  C   UNL A   1      41.924  29.921  35.297  1.00  0.00     0.074 A 
ATOM     53  C   UNL A   1      36.858  31.922  34.045  1.00  0.00     0.029 A 
ATOM     54  N   UNL A   1      38.558  33.346  33.895  1.00  0.00    -0.354 N 
ATOM     55  N   UNL A   1      40.907  30.713  35.096  1.00  0.00    -0.248 NA
ATOM     56  C   UNL A   1      42.712  30.336  36.450  1.00  0.00     0.031 C 
ATOM     57  C   UNL A   1      37.788  31.663  35.100  1.00  0.00     0.029 A 
ATOM     58  C   UNL A   1      38.849  32.553  34.996  1.00  0.00     0.049 A 
ATOM     59  H   UNL A   1      39.111  34.103  33.597  1.00  0.00     0.167 HD
ATOM     60  C   UNL A   1      40.927  31.760  35.952  1.00  0.00     0.074 A 
ATOM     61  C   UNL A   1      42.051  31.449  36.826  1.00  0.00     0.031 C 
ATOM     62  C   UNL A   1      40.050  32.799  35.809  1.00  0.00     0.034 A 
BRANCH  49  63
ATOM     63  C   UNL A   1      35.804  34.039  31.443  1.00  0.00     0.023 A 
ATOM     64  C   UNL A   1      35.280  33.603  30.206  1.00  0.00     0.012 A 
ATOM     65  C   UNL A   1      35.085  35.086  32.085  1.00  0.00     0.148 A 
ATOM     66  C   UNL A   1      34.122  34.155  29.644  1.00  0.00     0.002 A 
ATOM     67  C   UNL A   1      33.889  35.588  31.557  1.00  0.00     0.091 A 
ATOM     68  F   UNL A   1      35.584  35.684  33.167  1.00  0.00    -0.205 F 
ATOM     69  C   UNL A   1      33.415  35.133  30.327  1.00  0.00     0.022 A 
BRANCH  67  70
ATOM     70  S   UNL A   1      32.884  36.823  32.408  1.00  0.00     0.127 S 
ATOM     71  O   UNL A   1      33.673  37.089  33.611  1.00  0.00    -0.237 OA
ATOM     72  O   UNL A   1      32.862  37.924  31.445  1.00  0.00    -0.237 OA
ATOM     73  O   UNL A   1      31.585  36.207  32.648  1.00  0.00    -0.744 OA
ENDBRANCH  67  70
ENDBRANCH  49  63
BRANCH  50  74
ATOM     74  C   UNL A   1      43.458  28.225  33.831  1.00  0.00     0.023 A 
ATOM     75  C   UNL A   1      43.477  26.858  33.439  1.00  0.00     0.012 A 
ATOM     76  C   UNL A   1      44.297  29.130  33.155  1.00  0.00     0.148 A 
ATOM     77  C   UNL A   1      44.174  26.446  32.299  1.00  0.00     0.002 A 
ATOM     78  C   UNL A   1      44.952  28.719  31.993  1.00  0.00     0.091 A 
ATOM     79  F   UNL A   1      44.353  30.395  33.590  1.00  0.00    -0.205 F 
ATOM     80  C   UNL A   1      44.861  27.390  31.544  1.00  0.00     0.022 A 
BRANCH  78  81
ATOM     81  S   UNL A   1      45.771  29.897  30.908  1.00  0.00     0.127 S 
ATOM     82  O   UNL A   1      46.786  30.458  31.794  1.00  0.00    -0.237 OA
ATOM     83  O   UNL A   1      46.300  29.033  29.849  1.00  0.00    -0.237 OA
ATOM     84  O   UNL A   1      44.728  30.810  30.470  1.00  0.00    -0.744 OA
ENDBRANCH  78  81
ENDBRANCH  50  74
BRANCH  62  85
ATOM     85  C   UNL A   1      40.267  34.149  36.452  1.00  0.00     0.023 A 
ATOM     86  C   UNL A   1      39.434  34.620  37.486  1.00  0.00     0.012 A 
ATOM     87  C   UNL A   1      41.408  34.930  36.148  1.00  0.00     0.148 A 
ATOM     88  C   UNL A   1      39.645  35.851  38.108  1.00  0.00     0.002 A 
ATOM     89  C   UNL A   1      41.691  36.084  36.867  1.00  0.00     0.091 A 
ATOM     90  F   UNL A   1      42.221  34.571  35.145  1.00  0.00    -0.205 F 
ATOM     91  C   UNL A   1      40.787  36.574  37.812  1.00  0.00     0.022 A 
BRANCH  89  92
ATOM     92  S   UNL A   1      43.283  36.903  36.736  1.00  0.00     0.127 S 
ATOM     93  O   UNL A   1      44.208  35.786  36.914  1.00  0.00    -0.237 OA
ATOM     94  O   UNL A   1      43.234  37.447  35.378  1.00  0.00    -0.237 OA
ATOM     95  O   UNL A   1      43.291  37.913  37.785  1.00  0.00    -0.744 OA
ENDBRANCH  89  92
ENDBRANCH  62  85
ENDBRANCH  36  37
ENDBRANCH  29  31
ENDBRANCH  28  29
ENDBRANCH  27  28
ENDBRANCH  26  27
ENDBRANCH  25  26
ENDBRANCH   1  25
TORSDOF 21
ENDMDL
