MODEL 1
REMARK VINA RESULT:     -11.9      0.000      0.000
REMARK SMILES Cc1cc(S(F)(F)(F)(F)F)cc2c1O[C@H](C(F)(F)F)C(C(=O)OCCOCCOC(=O)c1ccc(-c3c4nc(c(-c5cccc(S(=O)(=O)[O-])c5F)c5ccc([nH]5)c(-c5cccc(S(=O)(=O)[O-])c5F)c5nc(c(-c6cccc(S(=O)(=O)[O-])c6F)c6ccc3[nH]6)C=C5)C=C4)cc1)=C2
REMARK SMILES IDX 27 1 26 2 25 3 24 4 23 5 21 6 22 7 20 8 1 9 2 10 3 11 13 12
REMARK SMILES IDX 4 13 12 14 14 15 11 16 95 17 15 18 5 19 6 20 7 21 8 22 9 23
REMARK SMILES IDX 10 24 16 25 17 26 18 27 19 28 28 29 29 30 30 31 31 32 32 33
REMARK SMILES IDX 33 34 94 35 34 36 93 37 35 38 36 39 37 40 87 41 38 42 92 43
REMARK SMILES IDX 86 44 88 45 39 46 91 47 85 48 84 49 40 51 72 52 52 53 71 54
REMARK SMILES IDX 53 55 56 56 70 57 89 58 54 59 55 60 69 62 90 63 57 64 41 65
REMARK SMILES IDX 42 66 50 67 43 68 45 69 51 70 44 71 46 72 47 73 48 74 49 75
REMARK SMILES IDX 73 76 74 77 82 78 75 79 77 80 83 81 76 82 78 83 79 84 80 85
REMARK SMILES IDX 81 86 58 87 59 88 67 89 60 90 62 91 68 92 61 93 63 94 64 95
REMARK SMILES IDX 65 96 66 97
REMARK H PARENT 88 50 56 61
REMARK Flexibility Score: inf
ROOT
ATOM      1  C   UNL A   1      38.497  20.036  24.977  1.00  0.00     0.202 C 
ENDROOT
BRANCH   1   2
ATOM      2  O   UNL A   1      37.340  19.219  24.875  1.00  0.00    -0.374 OA
BRANCH   2   3
ATOM      3  C   UNL A   1      36.179  20.026  24.994  1.00  0.00     0.202 C 
BRANCH   3   4
ATOM      4  C   UNL A   1      36.529  21.469  24.673  1.00  0.00     0.261 C 
BRANCH   4   5
ATOM      5  O   UNL A   1      35.336  22.228  24.546  1.00  0.00    -0.460 OA
BRANCH   5   6
ATOM      6  C   UNL A   1      35.191  23.152  23.477  1.00  0.00     0.338 C 
ATOM      7  O   UNL A   1      35.900  23.027  22.430  1.00  0.00    -0.246 OA
BRANCH   6   8
ATOM      8  C   UNL A   1      34.188  24.288  23.585  1.00  0.00     0.087 C 
ATOM      9  C   UNL A   1      30.160  27.502  22.982  1.00  0.00     0.048 C 
ATOM     10  C   UNL A   1      31.405  27.402  23.848  1.00  0.00    -0.007 A 
ATOM     11  C   UNL A   1      31.589  28.372  24.809  1.00  0.00     0.031 A 
ATOM     12  C   UNL A   1      32.322  26.357  23.746  1.00  0.00     0.130 A 
ATOM     13  C   UNL A   1      32.679  28.319  25.669  1.00  0.00     0.108 A 
ATOM     14  C   UNL A   1      33.425  26.304  24.626  1.00  0.00     0.019 A 
ATOM     15  O   UNL A   1      32.181  25.294  22.742  1.00  0.00    -0.475 OA
ATOM     16  C   UNL A   1      33.586  27.300  25.591  1.00  0.00     0.036 A 
ATOM     17  C   UNL A   1      34.372  25.197  24.496  1.00  0.00     0.027 C 
ATOM     18  C   UNL A   1      33.108  24.315  22.701  1.00  0.00     0.316 C 
BRANCH  13  19
ATOM     19  S   UNL A   1      32.899  29.617  26.911  1.00  0.00     0.310 S 
ATOM     20  F   UNL A   1      33.884  28.670  27.716  1.00  0.00    -0.094 F 
ATOM     21  F   UNL A   1      31.712  28.918  27.676  1.00  0.00    -0.094 F 
ATOM     22  F   UNL A   1      33.062  30.657  28.057  1.00  0.00    -0.094 F 
ATOM     23  F   UNL A   1      34.175  30.217  26.198  1.00  0.00    -0.094 F 
ATOM     24  F   UNL A   1      32.818  28.501  25.796  1.00  0.00    -0.094 F 
ENDBRANCH  13  19
BRANCH  18  25
ATOM     25  C   UNL A   1      32.309  23.096  23.133  1.00  0.00     0.430 C 
ATOM     26  F   UNL A   1      32.595  22.072  22.333  1.00  0.00    -0.167 F 
ATOM     27  F   UNL A   1      32.623  22.780  24.386  1.00  0.00    -0.167 F 
ATOM     28  F   UNL A   1      31.009  23.368  23.056  1.00  0.00    -0.167 F 
ENDBRANCH  18  25
ENDBRANCH   6   8
ENDBRANCH   5   6
ENDBRANCH   4   5
ENDBRANCH   3   4
ENDBRANCH   2   3
ENDBRANCH   1   2
BRANCH   1  29
ATOM     29  C   UNL A   1      39.384  19.521  26.098  1.00  0.00     0.261 C 
BRANCH  29  30
ATOM     30  O   UNL A   1      40.555  18.938  25.546  1.00  0.00    -0.460 OA
BRANCH  30  31
ATOM     31  C   UNL A   1      41.825  19.223  26.112  1.00  0.00     0.338 C 
ATOM     32  O   UNL A   1      42.648  18.280  26.335  1.00  0.00    -0.246 OA
BRANCH  31  33
ATOM     33  C   UNL A   1      42.201  20.655  26.452  1.00  0.00     0.060 A 
ATOM     34  C   UNL A   1      42.568  21.507  25.415  1.00  0.00     0.016 A 
ATOM     35  C   UNL A   1      42.210  21.127  27.680  1.00  0.00     0.016 A 
ATOM     36  C   UNL A   1      42.433  22.892  25.658  1.00  0.00     0.010 A 
ATOM     37  C   UNL A   1      42.590  22.449  27.938  1.00  0.00     0.010 A 
ATOM     38  C   UNL A   1      42.700  23.320  26.958  1.00  0.00    -0.014 A 
BRANCH  38  39
ATOM     39  C   UNL A   1      43.108  24.758  27.236  1.00  0.00     0.031 A 
ATOM     40  C   UNL A   1      44.472  25.018  27.107  1.00  0.00     0.074 A 
ATOM     41  C   UNL A   1      42.175  25.699  27.637  1.00  0.00     0.049 A 
ATOM     42  N   UNL A   1      45.102  26.177  27.304  1.00  0.00    -0.248 NA
ATOM     43  C   UNL A   1      45.471  24.010  26.716  1.00  0.00     0.031 C 
ATOM     44  C   UNL A   1      40.794  25.447  27.761  1.00  0.00     0.029 A 
ATOM     45  N   UNL A   1      42.396  27.015  27.981  1.00  0.00    -0.354 N 
ATOM     46  C   UNL A   1      46.409  26.040  27.065  1.00  0.00     0.074 A 
ATOM     47  C   UNL A   1      46.665  24.643  26.689  1.00  0.00     0.031 C 
ATOM     48  C   UNL A   1      40.193  26.590  28.185  1.00  0.00     0.029 A 
ATOM     49  C   UNL A   1      41.187  27.576  28.332  1.00  0.00     0.049 A 
ATOM     50  H   UNL A   1      43.266  27.474  27.977  1.00  0.00     0.167 HD
ATOM     51  C   UNL A   1      47.394  27.024  27.143  1.00  0.00     0.034 A 
ATOM     52  C   UNL A   1      40.946  28.872  28.760  1.00  0.00     0.034 A 
ATOM     53  C   UNL A   1      47.146  28.332  27.530  1.00  0.00     0.049 A 
ATOM     54  C   UNL A   1      41.943  29.841  28.895  1.00  0.00     0.074 A 
ATOM     55  C   UNL A   1      48.127  29.338  27.607  1.00  0.00     0.029 A 
ATOM     56  N   UNL A   1      45.942  28.886  27.904  1.00  0.00    -0.354 N 
ATOM     57  N   UNL A   1      43.241  29.714  28.618  1.00  0.00    -0.248 NA
ATOM     58  C   UNL A   1      41.703  31.208  29.379  1.00  0.00     0.031 C 
ATOM     59  C   UNL A   1      47.526  30.482  28.030  1.00  0.00     0.029 A 
ATOM     60  C   UNL A   1      46.159  30.207  28.227  1.00  0.00     0.049 A 
ATOM     61  H   UNL A   1      45.076  28.419  27.936  1.00  0.00     0.167 HD
ATOM     62  C   UNL A   1      43.876  30.863  28.854  1.00  0.00     0.074 A 
ATOM     63  C   UNL A   1      42.899  31.839  29.354  1.00  0.00     0.031 C 
ATOM     64  C   UNL A   1      45.232  31.139  28.669  1.00  0.00     0.034 A 
BRANCH  51  65
ATOM     65  C   UNL A   1      48.821  26.641  26.784  1.00  0.00     0.023 A 
ATOM     66  C   UNL A   1      49.646  25.987  27.693  1.00  0.00     0.012 A 
ATOM     67  C   UNL A   1      49.299  26.911  25.588  1.00  0.00     0.148 A 
ATOM     68  C   UNL A   1      50.704  25.224  27.149  1.00  0.00     0.002 A 
ATOM     69  C   UNL A   1      50.607  26.556  25.243  1.00  0.00     0.091 A 
ATOM     70  F   UNL A   1      48.528  27.527  24.696  1.00  0.00    -0.205 F 
ATOM     71  C   UNL A   1      51.302  25.732  25.997  1.00  0.00     0.022 A 
BRANCH  69  72
ATOM     72  S   UNL A   1      51.353  27.239  23.742  1.00  0.00     0.127 S 
ATOM     73  O   UNL A   1      50.552  26.783  22.520  1.00  0.00    -0.237 OA
ATOM     74  O   UNL A   1      51.343  28.767  23.818  1.00  0.00    -0.237 OA
ATOM     75  O   UNL A   1      52.965  26.686  23.604  1.00  0.00    -0.744 OA
ENDBRANCH  69  72
ENDBRANCH  51  65
BRANCH  52  76
ATOM     76  C   UNL A   1      39.517  29.259  29.103  1.00  0.00     0.023 A 
ATOM     77  C   UNL A   1      38.630  29.685  28.121  1.00  0.00     0.012 A 
ATOM     78  C   UNL A   1      39.097  29.215  30.349  1.00  0.00     0.148 A 
ATOM     79  C   UNL A   1      37.254  29.555  28.414  1.00  0.00     0.002 A 
ATOM     80  C   UNL A   1      37.792  29.598  30.678  1.00  0.00     0.091 A 
ATOM     81  F   UNL A   1      39.922  28.803  31.307  1.00  0.00    -0.205 F 
ATOM     82  C   UNL A   1      36.882  29.764  29.741  1.00  0.00     0.022 A 
BRANCH  80  83
ATOM     83  S   UNL A   1      37.348  29.866  32.412  1.00  0.00     0.127 S 
ATOM     84  O   UNL A   1      38.383  30.783  33.069  1.00  0.00    -0.237 OA
ATOM     85  O   UNL A   1      35.966  30.518  32.491  1.00  0.00    -0.237 OA
ATOM     86  O   UNL A   1      37.316  28.365  33.231  1.00  0.00    -0.744 OA
ENDBRANCH  80  83
ENDBRANCH  52  76
BRANCH  64  87
ATOM     87  C   UNL A   1      45.722  32.545  28.971  1.00  0.00     0.023 A 
ATOM     88  C   UNL A   1      46.133  32.849  30.266  1.00  0.00     0.012 A 
ATOM     89  C   UNL A   1      45.767  33.496  28.063  1.00  0.00     0.148 A 
ATOM     90  C   UNL A   1      47.015  33.943  30.408  1.00  0.00     0.002 A 
ATOM     91  C   UNL A   1      46.207  34.782  28.393  1.00  0.00     0.091 A 
ATOM     92  F   UNL A   1      45.390  33.231  26.816  1.00  0.00    -0.205 F 
ATOM     93  C   UNL A   1      46.820  35.011  29.536  1.00  0.00     0.022 A 
BRANCH  91  94
ATOM     94  S   UNL A   1      45.932  36.146  27.237  1.00  0.00     0.127 S 
ATOM     95  O   UNL A   1      46.935  37.267  27.522  1.00  0.00    -0.237 OA
ATOM     96  O   UNL A   1      46.121  35.646  25.803  1.00  0.00    -0.237 OA
ATOM     97  O   UNL A   1      44.341  36.744  27.428  1.00  0.00    -0.744 OA
ENDBRANCH  91  94
ENDBRANCH  64  87
ENDBRANCH  38  39
ENDBRANCH  31  33
ENDBRANCH  30  31
ENDBRANCH  29  30
ENDBRANCH   1  29
TORSDOF 19
ENDMDL
MODEL 2
REMARK VINA RESULT:     -11.9      2.517      7.910
REMARK SMILES Cc1cc(S(F)(F)(F)(F)F)cc2c1O[C@H](C(F)(F)F)C(C(=O)OCCOCCOC(=O)c1ccc(-c3c4nc(c(-c5cccc(S(=O)(=O)[O-])c5F)c5ccc([nH]5)c(-c5cccc(S(=O)(=O)[O-])c5F)c5nc(c(-c6cccc(S(=O)(=O)[O-])c6F)c6ccc3[nH]6)C=C5)C=C4)cc1)=C2
REMARK SMILES IDX 27 1 26 2 25 3 24 4 23 5 21 6 22 7 20 8 1 9 2 10 3 11 13 12
REMARK SMILES IDX 4 13 12 14 14 15 11 16 95 17 15 18 5 19 6 20 7 21 8 22 9 23
REMARK SMILES IDX 10 24 16 25 17 26 18 27 19 28 28 29 29 30 30 31 31 32 32 33
REMARK SMILES IDX 33 34 94 35 34 36 93 37 35 38 36 39 37 40 87 41 38 42 92 43
REMARK SMILES IDX 86 44 88 45 39 46 91 47 85 48 84 49 40 51 72 52 52 53 71 54
REMARK SMILES IDX 53 55 56 56 70 57 89 58 54 59 55 60 69 62 90 63 57 64 41 65
REMARK SMILES IDX 42 66 50 67 43 68 45 69 51 70 44 71 46 72 47 73 48 74 49 75
REMARK SMILES IDX 73 76 74 77 82 78 75 79 77 80 83 81 76 82 78 83 79 84 80 85
REMARK SMILES IDX 81 86 58 87 59 88 67 89 60 90 62 91 68 92 61 93 63 94 64 95
REMARK SMILES IDX 65 96 66 97
REMARK H PARENT 88 50 56 61
REMARK Flexibility Score: inf
ROOT
ATOM      1  C   UNL A   1      35.439  20.012  25.023  1.00  0.00     0.202 C 
ENDROOT
BRANCH   1   2
ATOM      2  O   UNL A   1      34.177  20.259  24.420  1.00  0.00    -0.374 OA
BRANCH   2   3
ATOM      3  C   UNL A   1      33.467  21.221  25.186  1.00  0.00     0.202 C 
BRANCH   3   4
ATOM      4  C   UNL A   1      32.010  21.237  24.754  1.00  0.00     0.261 C 
BRANCH   4   5
ATOM      5  O   UNL A   1      31.602  22.577  24.519  1.00  0.00    -0.460 OA
BRANCH   5   6
ATOM      6  C   UNL A   1      31.213  23.402  25.608  1.00  0.00     0.338 C 
ATOM      7  O   UNL A   1      30.837  22.875  26.701  1.00  0.00    -0.246 OA
BRANCH   6   8
ATOM      8  C   UNL A   1      31.246  24.915  25.465  1.00  0.00     0.087 C 
ATOM      9  C   UNL A   1      32.306  29.975  25.895  1.00  0.00     0.048 C 
ATOM     10  C   UNL A   1      31.365  29.082  25.102  1.00  0.00    -0.007 A 
ATOM     11  C   UNL A   1      30.546  29.687  24.174  1.00  0.00     0.031 A 
ATOM     12  C   UNL A   1      31.339  27.695  25.237  1.00  0.00     0.130 A 
ATOM     13  C   UNL A   1      29.695  28.930  23.379  1.00  0.00     0.108 A 
ATOM     14  C   UNL A   1      30.476  26.928  24.422  1.00  0.00     0.019 A 
ATOM     15  O   UNL A   1      32.187  26.991  26.208  1.00  0.00    -0.475 OA
ATOM     16  C   UNL A   1      29.659  27.568  23.489  1.00  0.00     0.036 A 
ATOM     17  C   UNL A   1      30.469  25.475  24.585  1.00  0.00     0.027 C 
ATOM     18  C   UNL A   1      32.107  25.646  26.283  1.00  0.00     0.316 C 
BRANCH  13  19
ATOM     19  S   UNL A   1      28.622  29.758  22.179  1.00  0.00     0.310 S 
ATOM     20  F   UNL A   1      28.961  31.154  22.852  1.00  0.00    -0.094 F 
ATOM     21  F   UNL A   1      27.488  29.589  23.260  1.00  0.00    -0.094 F 
ATOM     22  F   UNL A   1      27.649  30.518  21.234  1.00  0.00    -0.094 F 
ATOM     23  F   UNL A   1      29.806  30.040  21.171  1.00  0.00    -0.094 F 
ATOM     24  F   UNL A   1      29.649  29.087  23.175  1.00  0.00    -0.094 F 
ENDBRANCH  13  19
BRANCH  18  25
ATOM     25  C   UNL A   1      33.475  25.213  25.779  1.00  0.00     0.430 C 
ATOM     26  F   UNL A   1      33.866  24.126  26.438  1.00  0.00    -0.167 F 
ATOM     27  F   UNL A   1      33.404  24.942  24.479  1.00  0.00    -0.167 F 
ATOM     28  F   UNL A   1      34.352  26.193  25.982  1.00  0.00    -0.167 F 
ENDBRANCH  18  25
ENDBRANCH   6   8
ENDBRANCH   5   6
ENDBRANCH   4   5
ENDBRANCH   3   4
ENDBRANCH   2   3
ENDBRANCH   1   2
BRANCH   1  29
ATOM     29  C   UNL A   1      36.390  21.150  24.694  1.00  0.00     0.261 C 
BRANCH  29  30
ATOM     30  O   UNL A   1      37.045  21.577  25.879  1.00  0.00    -0.460 OA
BRANCH  30  31
ATOM     31  C   UNL A   1      38.456  21.457  25.992  1.00  0.00     0.338 C 
ATOM     32  O   UNL A   1      39.020  20.342  25.757  1.00  0.00    -0.246 OA
BRANCH  31  33
ATOM     33  C   UNL A   1      39.291  22.661  26.393  1.00  0.00     0.060 A 
ATOM     34  C   UNL A   1      38.943  23.908  25.885  1.00  0.00     0.016 A 
ATOM     35  C   UNL A   1      40.337  22.580  27.188  1.00  0.00     0.016 A 
ATOM     36  C   UNL A   1      39.382  25.034  26.618  1.00  0.00     0.010 A 
ATOM     37  C   UNL A   1      41.086  23.720  27.505  1.00  0.00     0.010 A 
ATOM     38  C   UNL A   1      40.628  24.922  27.232  1.00  0.00    -0.014 A 
BRANCH  38  39
ATOM     39  C   UNL A   1      41.438  26.161  27.580  1.00  0.00     0.031 A 
ATOM     40  C   UNL A   1      40.750  27.125  28.318  1.00  0.00     0.074 A 
ATOM     41  C   UNL A   1      42.741  26.310  27.136  1.00  0.00     0.049 A 
ATOM     42  N   UNL A   1      41.208  28.303  28.744  1.00  0.00    -0.248 NA
ATOM     43  C   UNL A   1      39.355  26.985  28.761  1.00  0.00     0.031 C 
ATOM     44  C   UNL A   1      43.444  25.337  26.398  1.00  0.00     0.029 A 
ATOM     45  N   UNL A   1      43.577  27.390  27.315  1.00  0.00    -0.354 N 
ATOM     46  C   UNL A   1      40.263  28.944  29.436  1.00  0.00     0.074 A 
ATOM     47  C   UNL A   1      39.056  28.107  29.452  1.00  0.00     0.031 C 
ATOM     48  C   UNL A   1      44.682  25.829  26.127  1.00  0.00     0.029 A 
ATOM     49  C   UNL A   1      44.774  27.115  26.691  1.00  0.00     0.049 A 
ATOM     50  H   UNL A   1      43.357  28.215  27.805  1.00  0.00     0.167 HD
ATOM     51  C   UNL A   1      40.362  30.190  30.056  1.00  0.00     0.034 A 
ATOM     52  C   UNL A   1      45.893  27.929  26.606  1.00  0.00     0.034 A 
ATOM     53  C   UNL A   1      41.496  30.985  30.008  1.00  0.00     0.049 A 
ATOM     54  C   UNL A   1      45.970  29.201  27.176  1.00  0.00     0.074 A 
ATOM     55  C   UNL A   1      41.614  32.241  30.633  1.00  0.00     0.029 A 
ATOM     56  N   UNL A   1      42.683  30.721  29.362  1.00  0.00    -0.354 N 
ATOM     57  N   UNL A   1      45.040  29.824  27.901  1.00  0.00    -0.248 NA
ATOM     58  C   UNL A   1      47.139  30.085  27.065  1.00  0.00     0.031 C 
ATOM     59  C   UNL A   1      42.853  32.732  30.362  1.00  0.00     0.029 A 
ATOM     60  C   UNL A   1      43.528  31.791  29.561  1.00  0.00     0.049 A 
ATOM     61  H   UNL A   1      42.894  29.908  28.848  1.00  0.00     0.167 HD
ATOM     62  C   UNL A   1      45.484  31.019  28.292  1.00  0.00     0.074 A 
ATOM     63  C   UNL A   1      46.838  31.208  27.754  1.00  0.00     0.031 C 
ATOM     64  C   UNL A   1      44.817  31.959  29.080  1.00  0.00     0.034 A 
BRANCH  51  65
ATOM     65  C   UNL A   1      39.158  30.704  30.828  1.00  0.00     0.023 A 
ATOM     66  C   UNL A   1      38.955  30.367  32.162  1.00  0.00     0.012 A 
ATOM     67  C   UNL A   1      38.286  31.499  30.245  1.00  0.00     0.148 A 
ATOM     68  C   UNL A   1      38.166  31.258  32.925  1.00  0.00     0.002 A 
ATOM     69  C   UNL A   1      37.178  31.985  30.948  1.00  0.00     0.091 A 
ATOM     70  F   UNL A   1      38.460  31.844  28.972  1.00  0.00    -0.205 F 
ATOM     71  C   UNL A   1      37.110  31.874  32.257  1.00  0.00     0.022 A 
BRANCH  69  72
ATOM     72  S   UNL A   1      35.823  32.775  30.046  1.00  0.00     0.127 S 
ATOM     73  O   UNL A   1      34.873  33.451  31.038  1.00  0.00    -0.237 OA
ATOM     74  O   UNL A   1      36.391  33.825  29.088  1.00  0.00    -0.237 OA
ATOM     75  O   UNL A   1      34.967  31.594  29.153  1.00  0.00    -0.744 OA
ENDBRANCH  69  72
ENDBRANCH  51  65
BRANCH  52  76
ATOM     76  C   UNL A   1      47.103  27.407  25.848  1.00  0.00     0.023 A 
ATOM     77  C   UNL A   1      48.166  26.808  26.512  1.00  0.00     0.012 A 
ATOM     78  C   UNL A   1      47.172  27.531  24.540  1.00  0.00     0.148 A 
ATOM     79  C   UNL A   1      48.982  25.943  25.749  1.00  0.00     0.002 A 
ATOM     80  C   UNL A   1      48.295  27.081  23.837  1.00  0.00     0.091 A 
ATOM     81  F   UNL A   1      46.164  28.093  23.878  1.00  0.00    -0.205 F 
ATOM     82  C   UNL A   1      49.184  26.302  24.416  1.00  0.00     0.022 A 
BRANCH  80  83
ATOM     83  S   UNL A   1      48.527  27.572  22.110  1.00  0.00     0.127 S 
ATOM     84  O   UNL A   1      49.651  28.606  22.020  1.00  0.00    -0.237 OA
ATOM     85  O   UNL A   1      48.895  26.344  21.275  1.00  0.00    -0.237 OA
ATOM     86  O   UNL A   1      47.077  28.253  21.512  1.00  0.00    -0.744 OA
ENDBRANCH  80  83
ENDBRANCH  52  76
BRANCH  64  87
ATOM     87  C   UNL A   1      45.548  33.244  29.431  1.00  0.00     0.023 A 
ATOM     88  C   UNL A   1      46.263  33.304  30.623  1.00  0.00     0.012 A 
ATOM     89  C   UNL A   1      45.528  34.310  28.661  1.00  0.00     0.148 A 
ATOM     90  C   UNL A   1      47.297  34.264  30.692  1.00  0.00     0.002 A 
ATOM     91  C   UNL A   1      46.200  35.479  29.037  1.00  0.00     0.091 A 
ATOM     92  F   UNL A   1      44.861  34.277  27.511  1.00  0.00    -0.205 F 
ATOM     93  C   UNL A   1      47.068  35.467  30.026  1.00  0.00     0.022 A 
BRANCH  91  94
ATOM     94  S   UNL A   1      45.874  37.023  28.151  1.00  0.00     0.127 S 
ATOM     95  O   UNL A   1      46.589  38.177  28.858  1.00  0.00    -0.237 OA
ATOM     96  O   UNL A   1      46.391  36.907  26.715  1.00  0.00    -0.237 OA
ATOM     97  O   UNL A   1      44.191  37.323  28.130  1.00  0.00    -0.744 OA
ENDBRANCH  91  94
ENDBRANCH  64  87
ENDBRANCH  38  39
ENDBRANCH  31  33
ENDBRANCH  30  31
ENDBRANCH  29  30
ENDBRANCH   1  29
TORSDOF 19
ENDMDL
MODEL 3
REMARK VINA RESULT:     -11.7      4.218      8.412
REMARK SMILES Cc1cc(S(F)(F)(F)(F)F)cc2c1O[C@H](C(F)(F)F)C(C(=O)OCCOCCOC(=O)c1ccc(-c3c4nc(c(-c5cccc(S(=O)(=O)[O-])c5F)c5ccc([nH]5)c(-c5cccc(S(=O)(=O)[O-])c5F)c5nc(c(-c6cccc(S(=O)(=O)[O-])c6F)c6ccc3[nH]6)C=C5)C=C4)cc1)=C2
REMARK SMILES IDX 27 1 26 2 25 3 24 4 23 5 21 6 22 7 20 8 1 9 2 10 3 11 13 12
REMARK SMILES IDX 4 13 12 14 14 15 11 16 95 17 15 18 5 19 6 20 7 21 8 22 9 23
REMARK SMILES IDX 10 24 16 25 17 26 18 27 19 28 28 29 29 30 30 31 31 32 32 33
REMARK SMILES IDX 33 34 94 35 34 36 93 37 35 38 36 39 37 40 87 41 38 42 92 43
REMARK SMILES IDX 86 44 88 45 39 46 91 47 85 48 84 49 40 51 72 52 52 53 71 54
REMARK SMILES IDX 53 55 56 56 70 57 89 58 54 59 55 60 69 62 90 63 57 64 41 65
REMARK SMILES IDX 42 66 50 67 43 68 45 69 51 70 44 71 46 72 47 73 48 74 49 75
REMARK SMILES IDX 73 76 74 77 82 78 75 79 77 80 83 81 76 82 78 83 79 84 80 85
REMARK SMILES IDX 81 86 58 87 59 88 67 89 60 90 62 91 68 92 61 93 63 94 64 95
REMARK SMILES IDX 65 96 66 97
REMARK H PARENT 88 50 56 61
REMARK Flexibility Score: inf
ROOT
ATOM      1  C   UNL A   1      32.441  29.346  24.894  1.00  0.00     0.202 C 
ENDROOT
BRANCH   1   2
ATOM      2  O   UNL A   1      31.075  29.072  24.621  1.00  0.00    -0.374 OA
BRANCH   2   3
ATOM      3  C   UNL A   1      30.962  27.796  24.010  1.00  0.00     0.202 C 
BRANCH   3   4
ATOM      4  C   UNL A   1      32.235  27.003  24.253  1.00  0.00     0.261 C 
BRANCH   4   5
ATOM      5  O   UNL A   1      32.175  25.780  23.534  1.00  0.00    -0.460 OA
BRANCH   5   6
ATOM      6  C   UNL A   1      31.813  24.580  24.202  1.00  0.00     0.338 C 
ATOM      7  O   UNL A   1      30.643  24.447  24.679  1.00  0.00    -0.246 OA
BRANCH   6   8
ATOM      8  C   UNL A   1      32.824  23.455  24.345  1.00  0.00     0.087 C 
ATOM      9  C   UNL A   1      37.121  20.622  24.997  1.00  0.00     0.048 C 
ATOM     10  C   UNL A   1      35.641  20.386  24.741  1.00  0.00    -0.007 A 
ATOM     11  C   UNL A   1      35.206  19.081  24.691  1.00  0.00     0.031 A 
ATOM     12  C   UNL A   1      34.717  21.422  24.611  1.00  0.00     0.130 A 
ATOM     13  C   UNL A   1      33.860  18.788  24.509  1.00  0.00     0.108 A 
ATOM     14  C   UNL A   1      33.349  21.120  24.432  1.00  0.00     0.019 A 
ATOM     15  O   UNL A   1      35.120  22.833  24.655  1.00  0.00    -0.475 OA
ATOM     16  C   UNL A   1      32.936  19.787  24.387  1.00  0.00     0.036 A 
ATOM     17  C   UNL A   1      32.401  22.226  24.297  1.00  0.00     0.027 C 
ATOM     18  C   UNL A   1      34.169  23.782  24.521  1.00  0.00     0.316 C 
BRANCH  13  19
ATOM     19  S   UNL A   1      33.323  17.061  24.435  1.00  0.00     0.310 S 
ATOM     20  F   UNL A   1      34.839  16.602  24.346  1.00  0.00    -0.094 F 
ATOM     21  F   UNL A   1      33.358  17.245  22.870  1.00  0.00    -0.094 F 
ATOM     22  F   UNL A   1      32.925  15.566  24.279  1.00  0.00    -0.094 F 
ATOM     23  F   UNL A   1      33.430  16.861  25.998  1.00  0.00    -0.094 F 
ATOM     24  F   UNL A   1      33.836  18.546  24.605  1.00  0.00    -0.094 F 
ENDBRANCH  13  19
BRANCH  18  25
ATOM     25  C   UNL A   1      34.166  24.431  25.895  1.00  0.00     0.430 C 
ATOM     26  F   UNL A   1      32.958  24.313  26.439  1.00  0.00    -0.167 F 
ATOM     27  F   UNL A   1      35.063  23.831  26.672  1.00  0.00    -0.167 F 
ATOM     28  F   UNL A   1      34.473  25.720  25.776  1.00  0.00    -0.167 F 
ENDBRANCH  18  25
ENDBRANCH   6   8
ENDBRANCH   5   6
ENDBRANCH   4   5
ENDBRANCH   3   4
ENDBRANCH   2   3
ENDBRANCH   1   2
BRANCH   1  29
ATOM     29  C   UNL A   1      32.568  29.966  26.275  1.00  0.00     0.261 C 
BRANCH  29  30
ATOM     30  O   UNL A   1      33.761  29.508  26.893  1.00  0.00    -0.460 OA
BRANCH  30  31
ATOM     31  C   UNL A   1      34.518  30.386  27.713  1.00  0.00     0.338 C 
ATOM     32  O   UNL A   1      33.997  31.464  28.141  1.00  0.00    -0.246 OA
BRANCH  31  33
ATOM     33  C   UNL A   1      35.950  30.037  28.081  1.00  0.00     0.060 A 
ATOM     34  C   UNL A   1      36.235  29.723  29.406  1.00  0.00     0.016 A 
ATOM     35  C   UNL A   1      36.937  30.030  27.211  1.00  0.00     0.016 A 
ATOM     36  C   UNL A   1      37.396  28.950  29.635  1.00  0.00     0.010 A 
ATOM     37  C   UNL A   1      38.243  29.725  27.611  1.00  0.00     0.010 A 
ATOM     38  C   UNL A   1      38.478  29.195  28.792  1.00  0.00    -0.014 A 
BRANCH  38  39
ATOM     39  C   UNL A   1      39.896  28.858  29.226  1.00  0.00     0.031 A 
ATOM     40  C   UNL A   1      40.457  27.749  28.593  1.00  0.00     0.074 A 
ATOM     41  C   UNL A   1      40.531  29.588  30.217  1.00  0.00     0.049 A 
ATOM     42  N   UNL A   1      41.669  27.227  28.788  1.00  0.00    -0.248 NA
ATOM     43  C   UNL A   1      39.770  26.951  27.565  1.00  0.00     0.031 C 
ATOM     44  C   UNL A   1      39.974  30.714  30.855  1.00  0.00     0.029 A 
ATOM     45  N   UNL A   1      41.780  29.371  30.757  1.00  0.00    -0.354 N 
ATOM     46  C   UNL A   1      41.855  26.178  27.983  1.00  0.00     0.074 A 
ATOM     47  C   UNL A   1      40.635  25.983  27.189  1.00  0.00     0.031 C 
ATOM     48  C   UNL A   1      40.869  31.163  31.774  1.00  0.00     0.029 A 
ATOM     49  C   UNL A   1      42.001  30.326  31.726  1.00  0.00     0.049 A 
ATOM     50  H   UNL A   1      42.406  28.658  30.496  1.00  0.00     0.167 HD
ATOM     51  C   UNL A   1      42.995  25.381  27.878  1.00  0.00     0.034 A 
ATOM     52  C   UNL A   1      43.118  30.473  32.533  1.00  0.00     0.034 A 
ATOM     53  C   UNL A   1      44.130  25.555  28.655  1.00  0.00     0.049 A 
ATOM     54  C   UNL A   1      44.235  29.638  32.468  1.00  0.00     0.074 A 
ATOM     55  C   UNL A   1      45.290  24.764  28.557  1.00  0.00     0.029 A 
ATOM     56  N   UNL A   1      44.340  26.493  29.641  1.00  0.00    -0.354 N 
ATOM     57  N   UNL A   1      44.437  28.615  31.636  1.00  0.00    -0.248 NA
ATOM     58  C   UNL A   1      45.410  29.764  33.341  1.00  0.00     0.031 C 
ATOM     59  C   UNL A   1      46.185  25.213  29.476  1.00  0.00     0.029 A 
ATOM     60  C   UNL A   1      45.598  26.291  30.166  1.00  0.00     0.049 A 
ATOM     61  H   UNL A   1      43.703  27.189  29.922  1.00  0.00     0.167 HD
ATOM     62  C   UNL A   1      45.633  28.068  31.861  1.00  0.00     0.074 A 
ATOM     63  C   UNL A   1      46.274  28.794  32.966  1.00  0.00     0.031 C 
ATOM     64  C   UNL A   1      46.217  26.994  31.187  1.00  0.00     0.034 A 
BRANCH  51  65
ATOM     65  C   UNL A   1      42.993  24.258  26.854  1.00  0.00     0.023 A 
ATOM     66  C   UNL A   1      43.471  24.454  25.563  1.00  0.00     0.012 A 
ATOM     67  C   UNL A   1      42.548  23.063  27.180  1.00  0.00     0.148 A 
ATOM     68  C   UNL A   1      43.918  23.304  24.873  1.00  0.00     0.002 A 
ATOM     69  C   UNL A   1      42.549  22.019  26.249  1.00  0.00     0.091 A 
ATOM     70  F   UNL A   1      42.093  22.845  28.412  1.00  0.00    -0.205 F 
ATOM     71  C   UNL A   1      43.215  22.126  25.119  1.00  0.00     0.022 A 
BRANCH  69  72
ATOM     72  S   UNL A   1      41.621  20.506  26.600  1.00  0.00     0.127 S 
ATOM     73  O   UNL A   1      41.660  19.587  25.378  1.00  0.00    -0.237 OA
ATOM     74  O   UNL A   1      42.249  19.790  27.798  1.00  0.00    -0.237 OA
ATOM     75  O   UNL A   1      39.997  20.903  26.961  1.00  0.00    -0.744 OA
ENDBRANCH  69  72
ENDBRANCH  51  65
BRANCH  52  76
ATOM     76  C   UNL A   1      43.126  31.607  33.545  1.00  0.00     0.023 A 
ATOM     77  C   UNL A   1      43.808  32.792  33.295  1.00  0.00     0.012 A 
ATOM     78  C   UNL A   1      42.498  31.477  34.694  1.00  0.00     0.148 A 
ATOM     79  C   UNL A   1      43.382  33.930  34.016  1.00  0.00     0.002 A 
ATOM     80  C   UNL A   1      42.525  32.503  35.644  1.00  0.00     0.091 A 
ATOM     81  F   UNL A   1      41.831  30.357  34.955  1.00  0.00    -0.205 F 
ATOM     82  C   UNL A   1      42.952  33.707  35.324  1.00  0.00     0.022 A 
BRANCH  80  83
ATOM     83  S   UNL A   1      41.964  32.175  37.333  1.00  0.00     0.127 S 
ATOM     84  O   UNL A   1      42.332  33.357  38.233  1.00  0.00    -0.237 OA
ATOM     85  O   UNL A   1      40.447  31.982  37.340  1.00  0.00    -0.237 OA
ATOM     86  O   UNL A   1      42.720  30.757  37.919  1.00  0.00    -0.744 OA
ENDBRANCH  80  83
ENDBRANCH  52  76
BRANCH  64  87
ATOM     87  C   UNL A   1      47.618  26.571  31.598  1.00  0.00     0.023 A 
ATOM     88  C   UNL A   1      47.770  25.737  32.701  1.00  0.00     0.012 A 
ATOM     89  C   UNL A   1      48.699  26.967  30.961  1.00  0.00     0.148 A 
ATOM     90  C   UNL A   1      48.961  24.980  32.762  1.00  0.00     0.002 A 
ATOM     91  C   UNL A   1      49.969  26.567  31.389  1.00  0.00     0.091 A 
ATOM     92  F   UNL A   1      48.582  27.757  29.897  1.00  0.00    -0.205 F 
ATOM     93  C   UNL A   1      50.109  25.596  32.267  1.00  0.00     0.022 A 
BRANCH  91  94
ATOM     94  S   UNL A   1      51.437  27.393  30.728  1.00  0.00     0.127 S 
ATOM     95  O   UNL A   1      51.536  27.130  29.223  1.00  0.00    -0.237 OA
ATOM     96  O   UNL A   1      51.332  28.899  30.976  1.00  0.00    -0.237 OA
ATOM     97  O   UNL A   1      52.833  26.783  31.504  1.00  0.00    -0.744 OA
ENDBRANCH  91  94
ENDBRANCH  64  87
ENDBRANCH  38  39
ENDBRANCH  31  33
ENDBRANCH  30  31
ENDBRANCH  29  30
ENDBRANCH   1  29
TORSDOF 19
ENDMDL
