MODEL 1
REMARK VINA RESULT:     -11.9      0.000      0.000
REMARK SMILES Cc1cccc(-n2c(C)cc(/C=N\c3ccc(O)c(C(=O)OCCOCCOC(=O)c4ccc(-c5c6nc(c(-c7cccc(S(=O)(=O)[O-])c7F)c7ccc([nH]7)c(-c7cccc(S(=O)(=O)[O-])c7F)c7nc(c(-c8cccc(S(=O)(=O)[O-])c8F)c8ccc5[nH]8)C=C7)C=C6)cc4)c3)c2C)c1
REMARK SMILES IDX 25 1 24 2 23 3 22 4 20 5 21 6 19 7 14 8 15 9 94 10 16 11
REMARK SMILES IDX 17 12 13 13 12 14 11 15 7 16 8 17 95 18 9 19 10 20 96 21
REMARK SMILES IDX 6 22 1 23 2 24 3 25 97 26 4 27 5 28 18 29 26 31 27 32 28 33
REMARK SMILES IDX 29 34 30 35 31 36 32 37 93 38 33 39 92 40 34 41 35 42 36 43
REMARK SMILES IDX 86 44 37 45 91 46 85 47 87 48 38 49 90 50 84 51 83 52 39 54
REMARK SMILES IDX 71 55 51 56 70 57 52 58 55 59 69 60 88 61 53 62 54 63 68 65
REMARK SMILES IDX 89 66 56 67 40 68 41 69 49 70 42 71 44 72 50 73 43 74 45 75
REMARK SMILES IDX 46 76 47 77 48 78 72 79 73 80 81 81 74 82 76 83 82 84 75 85
REMARK SMILES IDX 77 86 78 87 79 88 80 89 57 90 58 91 66 92 59 93 61 94 67 95
REMARK SMILES IDX 60 96 62 97 63 98 64 99 65 100
REMARK H PARENT 18 30 87 53 55 64
REMARK Flexibility Score: inf
ROOT
ATOM      1  O   UNL A   1      38.801  19.550  25.826  1.00  0.00    -0.374 OA
ENDROOT
BRANCH   1   2
ATOM      2  C   UNL A   1      37.913  19.877  24.764  1.00  0.00     0.202 C 
BRANCH   2   3
ATOM      3  C   UNL A   1      37.303  21.213  25.063  1.00  0.00     0.261 C 
BRANCH   3   4
ATOM      4  O   UNL A   1      35.907  21.096  25.257  1.00  0.00    -0.460 OA
BRANCH   4   5
ATOM      5  C   UNL A   1      35.265  22.062  24.579  1.00  0.00     0.342 C 
ATOM      6  O   UNL A   1      35.632  22.662  23.574  1.00  0.00    -0.246 OA
BRANCH   5   7
ATOM      7  C   UNL A   1      33.958  22.207  25.216  1.00  0.00     0.103 A 
ATOM      8  C   UNL A   1      31.711  22.919  24.842  1.00  0.00     0.064 A 
ATOM      9  C   UNL A   1      31.480  22.917  26.221  1.00  0.00     0.032 A 
ATOM     10  C   UNL A   1      32.901  22.422  24.339  1.00  0.00     0.048 A 
ATOM     11  C   UNL A   1      32.504  22.581  27.108  1.00  0.00     0.049 A 
ATOM     12  C   UNL A   1      33.765  22.301  26.607  1.00  0.00     0.130 A 
BRANCH   8  13
ATOM     13  N   UNL A   1      30.802  23.431  23.934  1.00  0.00    -0.256 NA
ATOM     14  C   UNL A   1      30.877  24.647  23.475  1.00  0.00     0.121 C 
BRANCH  14  15
ATOM     15  C   UNL A   1      31.714  25.812  23.796  1.00  0.00     0.014 A 
ATOM     16  N   UNL A   1      32.799  27.645  24.597  1.00  0.00    -0.318 N 
ATOM     17  C   UNL A   1      33.157  27.514  23.271  1.00  0.00     0.021 A 
ATOM     18  C   UNL A   1      31.981  26.569  24.943  1.00  0.00     0.029 A 
ATOM     19  C   UNL A   1      34.110  28.420  22.583  1.00  0.00     0.065 C 
ATOM     20  C   UNL A   1      32.536  26.389  22.780  1.00  0.00     0.033 A 
ATOM     21  C   UNL A   1      31.492  26.442  26.335  1.00  0.00     0.065 C 
BRANCH  16  22
ATOM     22  C   UNL A   1      33.085  28.760  25.436  1.00  0.00     0.046 A 
ATOM     23  C   UNL A   1      31.313  31.929  26.575  1.00  0.00     0.044 C 
ATOM     24  C   UNL A   1      32.295  30.801  26.478  1.00  0.00    -0.049 A 
ATOM     25  C   UNL A   1      33.336  30.705  27.415  1.00  0.00     0.003 A 
ATOM     26  C   UNL A   1      32.172  29.821  25.482  1.00  0.00     0.030 A 
ATOM     27  C   UNL A   1      34.267  29.670  27.338  1.00  0.00     0.002 A 
ATOM     28  C   UNL A   1      34.158  28.711  26.333  1.00  0.00     0.026 A 
ENDBRANCH  16  22
ENDBRANCH  14  15
ENDBRANCH   8  13
BRANCH  12  29
ATOM     29  O   UNL A   1      34.770  22.252  27.538  1.00  0.00    -0.507 OA
ATOM     30  H   UNL A   1      35.010  23.025  28.010  1.00  0.00     0.293 HD
ENDBRANCH  12  29
ENDBRANCH   5   7
ENDBRANCH   4   5
ENDBRANCH   3   4
ENDBRANCH   2   3
ENDBRANCH   1   2
BRANCH   1  31
ATOM     31  C   UNL A   1      40.033  20.254  25.769  1.00  0.00     0.202 C 
BRANCH  31  32
ATOM     32  C   UNL A   1      40.424  20.961  27.083  1.00  0.00     0.261 C 
BRANCH  32  33
ATOM     33  O   UNL A   1      39.960  22.331  27.033  1.00  0.00    -0.460 OA
BRANCH  33  34
ATOM     34  C   UNL A   1      40.840  23.289  26.608  1.00  0.00     0.338 C 
ATOM     35  O   UNL A   1      41.928  23.045  26.117  1.00  0.00    -0.246 OA
BRANCH  34  36
ATOM     36  C   UNL A   1      40.302  24.648  26.960  1.00  0.00     0.060 A 
ATOM     37  C   UNL A   1      40.649  25.795  26.226  1.00  0.00     0.016 A 
ATOM     38  C   UNL A   1      39.663  24.805  28.186  1.00  0.00     0.016 A 
ATOM     39  C   UNL A   1      40.582  27.074  26.815  1.00  0.00     0.010 A 
ATOM     40  C   UNL A   1      39.630  26.055  28.773  1.00  0.00     0.010 A 
ATOM     41  C   UNL A   1      40.175  27.187  28.134  1.00  0.00    -0.014 A 
BRANCH  41  42
ATOM     42  C   UNL A   1      40.300  28.374  28.998  1.00  0.00     0.031 A 
ATOM     43  C   UNL A   1      39.358  29.477  28.769  1.00  0.00     0.074 A 
ATOM     44  C   UNL A   1      40.983  28.361  30.171  1.00  0.00     0.049 A 
ATOM     45  N   UNL A   1      39.480  30.645  29.292  1.00  0.00    -0.248 NA
ATOM     46  C   UNL A   1      38.238  29.369  27.848  1.00  0.00     0.031 C 
ATOM     47  C   UNL A   1      40.643  29.073  31.406  1.00  0.00     0.029 A 
ATOM     48  N   UNL A   1      42.135  27.675  30.511  1.00  0.00    -0.354 N 
ATOM     49  C   UNL A   1      38.301  31.312  29.058  1.00  0.00     0.074 A 
ATOM     50  C   UNL A   1      37.656  30.553  28.020  1.00  0.00     0.031 C 
ATOM     51  C   UNL A   1      41.608  28.889  32.322  1.00  0.00     0.029 A 
ATOM     52  C   UNL A   1      42.701  28.178  31.681  1.00  0.00     0.049 A 
ATOM     53  H   UNL A   1      42.508  26.926  29.993  1.00  0.00     0.167 HD
ATOM     54  C   UNL A   1      37.953  32.330  29.893  1.00  0.00     0.034 A 
ATOM     55  C   UNL A   1      44.029  28.448  31.810  1.00  0.00     0.034 A 
ATOM     56  C   UNL A   1      39.014  32.545  30.912  1.00  0.00     0.049 A 
ATOM     57  C   UNL A   1      44.205  29.949  31.785  1.00  0.00     0.074 A 
ATOM     58  C   UNL A   1      39.114  32.229  32.258  1.00  0.00     0.029 A 
ATOM     59  N   UNL A   1      40.313  32.872  30.505  1.00  0.00    -0.354 N 
ATOM     60  N   UNL A   1      43.181  30.754  31.697  1.00  0.00    -0.248 NA
ATOM     61  C   UNL A   1      45.455  30.693  31.887  1.00  0.00     0.031 C 
ATOM     62  C   UNL A   1      40.489  32.307  32.634  1.00  0.00     0.029 A 
ATOM     63  C   UNL A   1      41.234  32.709  31.535  1.00  0.00     0.049 A 
ATOM     64  H   UNL A   1      40.547  33.179  29.600  1.00  0.00     0.167 HD
ATOM     65  C   UNL A   1      43.568  32.048  31.613  1.00  0.00     0.074 A 
ATOM     66  C   UNL A   1      45.011  31.965  31.799  1.00  0.00     0.031 C 
ATOM     67  C   UNL A   1      42.658  33.037  31.346  1.00  0.00     0.034 A 
BRANCH  54  68
ATOM     68  C   UNL A   1      36.566  32.973  29.973  1.00  0.00     0.023 A 
ATOM     69  C   UNL A   1      35.903  33.221  28.751  1.00  0.00     0.012 A 
ATOM     70  C   UNL A   1      35.850  33.377  31.133  1.00  0.00     0.148 A 
ATOM     71  C   UNL A   1      34.654  33.855  28.679  1.00  0.00     0.002 A 
ATOM     72  C   UNL A   1      34.610  34.022  31.067  1.00  0.00     0.091 A 
ATOM     73  F   UNL A   1      36.319  33.115  32.347  1.00  0.00    -0.205 F 
ATOM     74  C   UNL A   1      34.009  34.266  29.837  1.00  0.00     0.022 A 
BRANCH  72  75
ATOM     75  S   UNL A   1      33.724  34.582  32.541  1.00  0.00     0.127 S 
ATOM     76  O   UNL A   1      32.556  35.252  31.963  1.00  0.00    -0.237 OA
ATOM     77  O   UNL A   1      33.424  33.323  33.222  1.00  0.00    -0.237 OA
ATOM     78  O   UNL A   1      34.626  35.473  33.262  1.00  0.00    -0.744 OA
ENDBRANCH  72  75
ENDBRANCH  54  68
BRANCH  55  79
ATOM     79  C   UNL A   1      44.874  27.338  31.262  1.00  0.00     0.023 A 
ATOM     80  C   UNL A   1      44.725  26.105  31.954  1.00  0.00     0.012 A 
ATOM     81  C   UNL A   1      45.232  27.299  29.901  1.00  0.00     0.148 A 
ATOM     82  C   UNL A   1      44.729  24.883  31.274  1.00  0.00     0.002 A 
ATOM     83  C   UNL A   1      45.192  26.076  29.222  1.00  0.00     0.091 A 
ATOM     84  F   UNL A   1      45.396  28.461  29.257  1.00  0.00    -0.205 F 
ATOM     85  C   UNL A   1      44.910  24.876  29.900  1.00  0.00     0.022 A 
BRANCH  83  86
ATOM     86  S   UNL A   1      45.184  25.970  27.425  1.00  0.00     0.127 S 
ATOM     87  O   UNL A   1      44.029  26.789  27.077  1.00  0.00    -0.237 OA
ATOM     88  O   UNL A   1      46.481  26.559  27.099  1.00  0.00    -0.237 OA
ATOM     89  O   UNL A   1      45.076  24.548  27.130  1.00  0.00    -0.744 OA
ENDBRANCH  83  86
ENDBRANCH  55  79
BRANCH  67  90
ATOM     90  C   UNL A   1      43.046  34.424  30.891  1.00  0.00     0.023 A 
ATOM     91  C   UNL A   1      43.403  35.436  31.804  1.00  0.00     0.012 A 
ATOM     92  C   UNL A   1      43.221  34.718  29.516  1.00  0.00     0.148 A 
ATOM     93  C   UNL A   1      43.823  36.699  31.385  1.00  0.00     0.002 A 
ATOM     94  C   UNL A   1      43.780  35.922  29.111  1.00  0.00     0.091 A 
ATOM     95  F   UNL A   1      42.828  33.840  28.583  1.00  0.00    -0.205 F 
ATOM     96  C   UNL A   1      44.037  36.934  30.037  1.00  0.00     0.022 A 
BRANCH  94  97
ATOM     97  S   UNL A   1      44.363  36.158  27.428  1.00  0.00     0.127 S 
ATOM     98  O   UNL A   1      45.368  35.106  27.311  1.00  0.00    -0.237 OA
ATOM     99  O   UNL A   1      43.143  35.928  26.649  1.00  0.00    -0.237 OA
ATOM    100  O   UNL A   1      44.854  37.527  27.377  1.00  0.00    -0.744 OA
ENDBRANCH  94  97
ENDBRANCH  67  90
ENDBRANCH  41  42
ENDBRANCH  34  36
ENDBRANCH  33  34
ENDBRANCH  32  33
ENDBRANCH  31  32
ENDBRANCH   1  31
TORSDOF 21
ENDMDL
MODEL 2
REMARK VINA RESULT:     -11.9      3.701      9.787
REMARK SMILES Cc1cccc(-n2c(C)cc(/C=N\c3ccc(O)c(C(=O)OCCOCCOC(=O)c4ccc(-c5c6nc(c(-c7cccc(S(=O)(=O)[O-])c7F)c7ccc([nH]7)c(-c7cccc(S(=O)(=O)[O-])c7F)c7nc(c(-c8cccc(S(=O)(=O)[O-])c8F)c8ccc5[nH]8)C=C7)C=C6)cc4)c3)c2C)c1
REMARK SMILES IDX 25 1 24 2 23 3 22 4 20 5 21 6 19 7 14 8 15 9 94 10 16 11
REMARK SMILES IDX 17 12 13 13 12 14 11 15 7 16 8 17 95 18 9 19 10 20 96 21
REMARK SMILES IDX 6 22 1 23 2 24 3 25 97 26 4 27 5 28 18 29 26 31 27 32 28 33
REMARK SMILES IDX 29 34 30 35 31 36 32 37 93 38 33 39 92 40 34 41 35 42 36 43
REMARK SMILES IDX 86 44 37 45 91 46 85 47 87 48 38 49 90 50 84 51 83 52 39 54
REMARK SMILES IDX 71 55 51 56 70 57 52 58 55 59 69 60 88 61 53 62 54 63 68 65
REMARK SMILES IDX 89 66 56 67 40 68 41 69 49 70 42 71 44 72 50 73 43 74 45 75
REMARK SMILES IDX 46 76 47 77 48 78 72 79 73 80 81 81 74 82 76 83 82 84 75 85
REMARK SMILES IDX 77 86 78 87 79 88 80 89 57 90 58 91 66 92 59 93 61 94 67 95
REMARK SMILES IDX 60 96 62 97 63 98 64 99 65 100
REMARK H PARENT 18 30 87 53 55 64
REMARK Flexibility Score: inf
ROOT
ATOM      1  O   UNL A   1      32.766  33.035  27.851  1.00  0.00    -0.374 OA
ENDROOT
BRANCH   1   2
ATOM      2  C   UNL A   1      33.550  31.850  27.790  1.00  0.00     0.202 C 
BRANCH   2   3
ATOM      3  C   UNL A   1      32.909  30.918  26.806  1.00  0.00     0.261 C 
BRANCH   3   4
ATOM      4  O   UNL A   1      32.660  29.657  27.395  1.00  0.00    -0.460 OA
BRANCH   4   5
ATOM      5  C   UNL A   1      33.151  28.680  26.615  1.00  0.00     0.342 C 
ATOM      6  O   UNL A   1      34.301  28.261  26.549  1.00  0.00    -0.246 OA
BRANCH   5   7
ATOM      7  C   UNL A   1      32.006  28.114  25.904  1.00  0.00     0.103 A 
ATOM      8  C   UNL A   1      30.469  26.288  25.889  1.00  0.00     0.064 A 
ATOM      9  C   UNL A   1      30.077  26.629  24.591  1.00  0.00     0.032 A 
ATOM     10  C   UNL A   1      31.322  27.119  26.594  1.00  0.00     0.048 A 
ATOM     11  C   UNL A   1      30.670  27.706  23.933  1.00  0.00     0.049 A 
ATOM     12  C   UNL A   1      31.690  28.401  24.563  1.00  0.00     0.130 A 
BRANCH   8  13
ATOM     13  N   UNL A   1      30.064  25.120  26.510  1.00  0.00    -0.256 NA
ATOM     14  C   UNL A   1      30.774  24.030  26.488  1.00  0.00     0.121 C 
BRANCH  14  15
ATOM     15  C   UNL A   1      32.001  23.622  25.788  1.00  0.00     0.014 A 
ATOM     16  N   UNL A   1      34.056  22.995  25.040  1.00  0.00    -0.318 N 
ATOM     17  C   UNL A   1      33.333  23.397  23.936  1.00  0.00     0.021 A 
ATOM     18  C   UNL A   1      33.226  23.057  26.160  1.00  0.00     0.029 A 
ATOM     19  C   UNL A   1      33.860  23.359  22.549  1.00  0.00     0.065 C 
ATOM     20  C   UNL A   1      32.074  23.748  24.367  1.00  0.00     0.033 A 
ATOM     21  C   UNL A   1      33.746  22.627  27.479  1.00  0.00     0.065 C 
BRANCH  16  22
ATOM     22  C   UNL A   1      35.451  22.707  25.070  1.00  0.00     0.046 A 
ATOM     23  C   UNL A   1      38.610  24.322  26.446  1.00  0.00     0.044 C 
ATOM     24  C   UNL A   1      37.658  23.323  25.862  1.00  0.00    -0.049 A 
ATOM     25  C   UNL A   1      38.093  22.012  25.616  1.00  0.00     0.003 A 
ATOM     26  C   UNL A   1      36.328  23.670  25.584  1.00  0.00     0.030 A 
ATOM     27  C   UNL A   1      37.228  21.069  25.063  1.00  0.00     0.002 A 
ATOM     28  C   UNL A   1      35.913  21.422  24.765  1.00  0.00     0.026 A 
ENDBRANCH  16  22
ENDBRANCH  14  15
ENDBRANCH   8  13
BRANCH  12  29
ATOM     29  O   UNL A   1      32.402  29.256  23.761  1.00  0.00    -0.507 OA
ATOM     30  H   UNL A   1      33.299  29.442  23.954  1.00  0.00     0.293 HD
ENDBRANCH  12  29
ENDBRANCH   5   7
ENDBRANCH   4   5
ENDBRANCH   3   4
ENDBRANCH   2   3
ENDBRANCH   1   2
BRANCH   1  31
ATOM     31  C   UNL A   1      33.543  34.225  27.873  1.00  0.00     0.202 C 
BRANCH  31  32
ATOM     32  C   UNL A   1      33.095  35.258  28.927  1.00  0.00     0.261 C 
BRANCH  32  33
ATOM     33  O   UNL A   1      33.044  34.614  30.221  1.00  0.00    -0.460 OA
BRANCH  33  34
ATOM     34  C   UNL A   1      34.158  34.677  31.013  1.00  0.00     0.338 C 
ATOM     35  O   UNL A   1      34.417  35.612  31.750  1.00  0.00    -0.246 OA
BRANCH  34  36
ATOM     36  C   UNL A   1      35.039  33.493  30.726  1.00  0.00     0.060 A 
ATOM     37  C   UNL A   1      34.869  32.266  31.388  1.00  0.00     0.016 A 
ATOM     38  C   UNL A   1      36.200  33.702  29.987  1.00  0.00     0.016 A 
ATOM     39  C   UNL A   1      35.943  31.360  31.512  1.00  0.00     0.010 A 
ATOM     40  C   UNL A   1      37.260  32.830  30.139  1.00  0.00     0.010 A 
ATOM     41  C   UNL A   1      37.176  31.701  30.979  1.00  0.00    -0.014 A 
BRANCH  41  42
ATOM     42  C   UNL A   1      38.464  31.034  31.238  1.00  0.00     0.031 A 
ATOM     43  C   UNL A   1      38.788  29.856  30.425  1.00  0.00     0.074 A 
ATOM     44  C   UNL A   1      39.476  31.631  31.917  1.00  0.00     0.049 A 
ATOM     45  N   UNL A   1      39.763  29.056  30.678  1.00  0.00    -0.248 NA
ATOM     46  C   UNL A   1      37.972  29.434  29.298  1.00  0.00     0.031 C 
ATOM     47  C   UNL A   1      40.914  31.506  31.662  1.00  0.00     0.029 A 
ATOM     48  N   UNL A   1      39.423  32.508  32.986  1.00  0.00    -0.354 N 
ATOM     49  C   UNL A   1      39.905  28.240  29.581  1.00  0.00     0.074 A 
ATOM     50  C   UNL A   1      38.674  28.396  28.852  1.00  0.00     0.031 C 
ATOM     51  C   UNL A   1      41.607  32.169  32.601  1.00  0.00     0.029 A 
ATOM     52  C   UNL A   1      40.664  32.630  33.607  1.00  0.00     0.049 A 
ATOM     53  H   UNL A   1      38.611  32.985  33.272  1.00  0.00     0.167 HD
ATOM     54  C   UNL A   1      41.117  27.665  29.351  1.00  0.00     0.034 A 
ATOM     55  C   UNL A   1      40.830  32.579  34.957  1.00  0.00     0.034 A 
ATOM     56  C   UNL A   1      42.072  28.027  30.431  1.00  0.00     0.049 A 
ATOM     57  C   UNL A   1      41.456  31.246  35.300  1.00  0.00     0.074 A 
ATOM     58  C   UNL A   1      43.138  28.912  30.497  1.00  0.00     0.029 A 
ATOM     59  N   UNL A   1      41.783  27.686  31.757  1.00  0.00    -0.354 N 
ATOM     60  N   UNL A   1      41.781  30.386  34.372  1.00  0.00    -0.248 NA
ATOM     61  C   UNL A   1      41.808  30.752  36.626  1.00  0.00     0.031 C 
ATOM     62  C   UNL A   1      43.439  29.145  31.873  1.00  0.00     0.029 A 
ATOM     63  C   UNL A   1      42.590  28.377  32.656  1.00  0.00     0.049 A 
ATOM     64  H   UNL A   1      41.093  27.037  32.023  1.00  0.00     0.167 HD
ATOM     65  C   UNL A   1      42.252  29.234  34.902  1.00  0.00     0.074 A 
ATOM     66  C   UNL A   1      42.308  29.534  36.327  1.00  0.00     0.031 C 
ATOM     67  C   UNL A   1      42.491  28.143  34.108  1.00  0.00     0.034 A 
BRANCH  54  68
ATOM     68  C   UNL A   1      41.542  26.987  28.044  1.00  0.00     0.023 A 
ATOM     69  C   UNL A   1      41.503  27.775  26.873  1.00  0.00     0.012 A 
ATOM     70  C   UNL A   1      41.960  25.643  27.847  1.00  0.00     0.148 A 
ATOM     71  C   UNL A   1      41.812  27.264  25.604  1.00  0.00     0.002 A 
ATOM     72  C   UNL A   1      42.257  25.124  26.582  1.00  0.00     0.091 A 
ATOM     73  F   UNL A   1      42.130  24.826  28.879  1.00  0.00    -0.205 F 
ATOM     74  C   UNL A   1      42.180  25.934  25.454  1.00  0.00     0.022 A 
BRANCH  72  75
ATOM     75  S   UNL A   1      42.739  23.400  26.325  1.00  0.00     0.127 S 
ATOM     76  O   UNL A   1      43.036  23.373  24.891  1.00  0.00    -0.237 OA
ATOM     77  O   UNL A   1      43.912  23.272  27.189  1.00  0.00    -0.237 OA
ATOM     78  O   UNL A   1      41.597  22.580  26.712  1.00  0.00    -0.744 OA
ENDBRANCH  72  75
ENDBRANCH  54  68
BRANCH  55  79
ATOM     79  C   UNL A   1      39.810  33.413  35.671  1.00  0.00     0.023 A 
ATOM     80  C   UNL A   1      38.671  32.681  36.107  1.00  0.00     0.012 A 
ATOM     81  C   UNL A   1      40.185  34.558  36.397  1.00  0.00     0.148 A 
ATOM     82  C   UNL A   1      38.055  32.956  37.333  1.00  0.00     0.002 A 
ATOM     83  C   UNL A   1      39.590  34.800  37.641  1.00  0.00     0.091 A 
ATOM     84  F   UNL A   1      41.242  35.260  35.969  1.00  0.00    -0.205 F 
ATOM     85  C   UNL A   1      38.551  33.982  38.121  1.00  0.00     0.022 A 
BRANCH  83  86
ATOM     86  S   UNL A   1      40.291  35.946  38.839  1.00  0.00     0.127 S 
ATOM     87  O   UNL A   1      39.808  37.231  38.350  1.00  0.00    -0.237 OA
ATOM     88  O   UNL A   1      39.668  35.481  40.077  1.00  0.00    -0.237 OA
ATOM     89  O   UNL A   1      41.730  35.732  38.771  1.00  0.00    -0.744 OA
ENDBRANCH  83  86
ENDBRANCH  55  79
BRANCH  67  90
ATOM     90  C   UNL A   1      42.669  26.744  34.649  1.00  0.00     0.023 A 
ATOM     91  C   UNL A   1      41.591  26.005  35.173  1.00  0.00     0.012 A 
ATOM     92  C   UNL A   1      43.900  26.058  34.504  1.00  0.00     0.148 A 
ATOM     93  C   UNL A   1      41.739  24.689  35.615  1.00  0.00     0.002 A 
ATOM     94  C   UNL A   1      44.002  24.706  34.806  1.00  0.00     0.091 A 
ATOM     95  F   UNL A   1      44.994  26.713  34.091  1.00  0.00    -0.205 F 
ATOM     96  C   UNL A   1      42.939  24.030  35.407  1.00  0.00     0.022 A 
BRANCH  94  97
ATOM     97  S   UNL A   1      45.418  23.738  34.273  1.00  0.00     0.127 S 
ATOM     98  O   UNL A   1      44.829  22.412  34.115  1.00  0.00    -0.237 OA
ATOM     99  O   UNL A   1      45.784  24.400  33.018  1.00  0.00    -0.237 OA
ATOM    100  O   UNL A   1      46.406  23.882  35.333  1.00  0.00    -0.744 OA
ENDBRANCH  94  97
ENDBRANCH  67  90
ENDBRANCH  41  42
ENDBRANCH  34  36
ENDBRANCH  33  34
ENDBRANCH  32  33
ENDBRANCH  31  32
ENDBRANCH   1  31
TORSDOF 21
ENDMDL
MODEL 3
REMARK VINA RESULT:     -11.5      3.432      9.710
REMARK SMILES Cc1cccc(-n2c(C)cc(/C=N\c3ccc(O)c(C(=O)OCCOCCOC(=O)c4ccc(-c5c6nc(c(-c7cccc(S(=O)(=O)[O-])c7F)c7ccc([nH]7)c(-c7cccc(S(=O)(=O)[O-])c7F)c7nc(c(-c8cccc(S(=O)(=O)[O-])c8F)c8ccc5[nH]8)C=C7)C=C6)cc4)c3)c2C)c1
REMARK SMILES IDX 25 1 24 2 23 3 22 4 20 5 21 6 19 7 14 8 15 9 94 10 16 11
REMARK SMILES IDX 17 12 13 13 12 14 11 15 7 16 8 17 95 18 9 19 10 20 96 21
REMARK SMILES IDX 6 22 1 23 2 24 3 25 97 26 4 27 5 28 18 29 26 31 27 32 28 33
REMARK SMILES IDX 29 34 30 35 31 36 32 37 93 38 33 39 92 40 34 41 35 42 36 43
REMARK SMILES IDX 86 44 37 45 91 46 85 47 87 48 38 49 90 50 84 51 83 52 39 54
REMARK SMILES IDX 71 55 51 56 70 57 52 58 55 59 69 60 88 61 53 62 54 63 68 65
REMARK SMILES IDX 89 66 56 67 40 68 41 69 49 70 42 71 44 72 50 73 43 74 45 75
REMARK SMILES IDX 46 76 47 77 48 78 72 79 73 80 81 81 74 82 76 83 82 84 75 85
REMARK SMILES IDX 77 86 78 87 79 88 80 89 57 90 58 91 66 92 59 93 61 94 67 95
REMARK SMILES IDX 60 96 62 97 63 98 64 99 65 100
REMARK H PARENT 18 30 87 53 55 64
REMARK Flexibility Score: inf
ROOT
ATOM      1  O   UNL A   1      33.988  30.851  27.009  1.00  0.00    -0.374 OA
ENDROOT
BRANCH   1   2
ATOM      2  C   UNL A   1      33.974  29.584  27.655  1.00  0.00     0.202 C 
BRANCH   2   3
ATOM      3  C   UNL A   1      34.453  28.556  26.674  1.00  0.00     0.261 C 
BRANCH   3   4
ATOM      4  O   UNL A   1      33.372  27.788  26.183  1.00  0.00    -0.460 OA
BRANCH   4   5
ATOM      5  C   UNL A   1      33.018  28.222  24.962  1.00  0.00     0.342 C 
ATOM      6  O   UNL A   1      33.673  28.888  24.168  1.00  0.00    -0.246 OA
BRANCH   5   7
ATOM      7  C   UNL A   1      31.699  27.652  24.695  1.00  0.00     0.103 A 
ATOM      8  C   UNL A   1      30.138  26.003  25.431  1.00  0.00     0.064 A 
ATOM      9  C   UNL A   1      29.421  26.150  24.240  1.00  0.00     0.032 A 
ATOM     10  C   UNL A   1      31.187  26.859  25.717  1.00  0.00     0.048 A 
ATOM     11  C   UNL A   1      29.858  27.038  23.256  1.00  0.00     0.049 A 
ATOM     12  C   UNL A   1      31.041  27.732  23.454  1.00  0.00     0.130 A 
BRANCH   8  13
ATOM     13  N   UNL A   1      29.867  25.002  26.346  1.00  0.00    -0.256 NA
ATOM     14  C   UNL A   1      30.711  24.048  26.616  1.00  0.00     0.121 C 
BRANCH  14  15
ATOM     15  C   UNL A   1      32.000  23.631  26.045  1.00  0.00     0.014 A 
ATOM     16  N   UNL A   1      34.115  22.985  25.510  1.00  0.00    -0.318 N 
ATOM     17  C   UNL A   1      33.517  23.406  24.340  1.00  0.00     0.021 A 
ATOM     18  C   UNL A   1      33.173  23.048  26.537  1.00  0.00     0.029 A 
ATOM     19  C   UNL A   1      34.186  23.373  23.016  1.00  0.00     0.065 C 
ATOM     20  C   UNL A   1      32.224  23.768  24.640  1.00  0.00     0.033 A 
ATOM     21  C   UNL A   1      33.547  22.601  27.899  1.00  0.00     0.065 C 
BRANCH  16  22
ATOM     22  C   UNL A   1      35.496  22.680  25.683  1.00  0.00     0.046 A 
ATOM     23  C   UNL A   1      37.837  19.781  24.911  1.00  0.00     0.044 C 
ATOM     24  C   UNL A   1      37.324  21.139  25.282  1.00  0.00    -0.049 A 
ATOM     25  C   UNL A   1      38.232  22.183  25.520  1.00  0.00     0.003 A 
ATOM     26  C   UNL A   1      35.947  21.393  25.367  1.00  0.00     0.030 A 
ATOM     27  C   UNL A   1      37.778  23.452  25.876  1.00  0.00     0.002 A 
ATOM     28  C   UNL A   1      36.411  23.695  25.984  1.00  0.00     0.026 A 
ENDBRANCH  16  22
ENDBRANCH  14  15
ENDBRANCH   8  13
BRANCH  12  29
ATOM     29  O   UNL A   1      31.542  28.366  22.347  1.00  0.00    -0.507 OA
ATOM     30  H   UNL A   1      31.958  29.201  22.432  1.00  0.00     0.293 HD
ENDBRANCH  12  29
ENDBRANCH   5   7
ENDBRANCH   4   5
ENDBRANCH   3   4
ENDBRANCH   2   3
ENDBRANCH   1   2
BRANCH   1  31
ATOM     31  C   UNL A   1      33.865  31.944  27.909  1.00  0.00     0.202 C 
BRANCH  31  32
ATOM     32  C   UNL A   1      35.170  32.736  28.130  1.00  0.00     0.261 C 
BRANCH  32  33
ATOM     33  O   UNL A   1      36.284  31.814  28.125  1.00  0.00    -0.460 OA
BRANCH  33  34
ATOM     34  C   UNL A   1      36.781  31.403  29.332  1.00  0.00     0.338 C 
ATOM     35  O   UNL A   1      36.630  32.017  30.373  1.00  0.00    -0.246 OA
BRANCH  34  36
ATOM     36  C   UNL A   1      37.624  30.175  29.131  1.00  0.00     0.060 A 
ATOM     37  C   UNL A   1      38.292  29.552  30.198  1.00  0.00     0.016 A 
ATOM     38  C   UNL A   1      37.954  29.811  27.829  1.00  0.00     0.016 A 
ATOM     39  C   UNL A   1      39.438  28.762  29.968  1.00  0.00     0.010 A 
ATOM     40  C   UNL A   1      39.096  29.065  27.608  1.00  0.00     0.010 A 
ATOM     41  C   UNL A   1      39.903  28.613  28.672  1.00  0.00    -0.014 A 
BRANCH  41  42
ATOM     42  C   UNL A   1      41.210  28.072  28.260  1.00  0.00     0.031 A 
ATOM     43  C   UNL A   1      41.370  26.613  28.274  1.00  0.00     0.074 A 
ATOM     44  C   UNL A   1      42.121  28.800  27.566  1.00  0.00     0.049 A 
ATOM     45  N   UNL A   1      42.501  26.014  28.148  1.00  0.00    -0.248 NA
ATOM     46  C   UNL A   1      40.259  25.707  28.523  1.00  0.00     0.031 C 
ATOM     47  C   UNL A   1      43.023  28.326  26.513  1.00  0.00     0.029 A 
ATOM     48  N   UNL A   1      42.418  30.149  27.648  1.00  0.00    -0.354 N 
ATOM     49  C   UNL A   1      42.227  24.680  27.957  1.00  0.00     0.074 A 
ATOM     50  C   UNL A   1      40.859  24.528  28.376  1.00  0.00     0.031 C 
ATOM     51  C   UNL A   1      43.844  29.317  26.130  1.00  0.00     0.029 A 
ATOM     52  C   UNL A   1      43.627  30.444  27.022  1.00  0.00     0.049 A 
ATOM     53  H   UNL A   1      41.847  30.816  28.094  1.00  0.00     0.167 HD
ATOM     54  C   UNL A   1      43.149  23.912  27.313  1.00  0.00     0.034 A 
ATOM     55  C   UNL A   1      44.586  31.228  27.585  1.00  0.00     0.034 A 
ATOM     56  C   UNL A   1      44.349  24.723  26.978  1.00  0.00     0.049 A 
ATOM     57  C   UNL A   1      45.719  30.332  28.030  1.00  0.00     0.074 A 
ATOM     58  C   UNL A   1      44.819  25.278  25.797  1.00  0.00     0.029 A 
ATOM     59  N   UNL A   1      45.079  25.340  28.001  1.00  0.00    -0.354 N 
ATOM     60  N   UNL A   1      45.694  29.044  27.817  1.00  0.00    -0.248 NA
ATOM     61  C   UNL A   1      46.956  30.735  28.689  1.00  0.00     0.031 C 
ATOM     62  C   UNL A   1      45.786  26.274  26.126  1.00  0.00     0.029 A 
ATOM     63  C   UNL A   1      45.945  26.310  27.505  1.00  0.00     0.049 A 
ATOM     64  H   UNL A   1      44.991  25.116  28.954  1.00  0.00     0.167 HD
ATOM     65  C   UNL A   1      46.767  28.426  28.363  1.00  0.00     0.074 A 
ATOM     66  C   UNL A   1      47.568  29.542  28.850  1.00  0.00     0.031 C 
ATOM     67  C   UNL A   1      46.846  27.059  28.398  1.00  0.00     0.034 A 
BRANCH  54  68
ATOM     68  C   UNL A   1      42.896  22.510  26.752  1.00  0.00     0.023 A 
ATOM     69  C   UNL A   1      41.655  21.911  27.061  1.00  0.00     0.012 A 
ATOM     70  C   UNL A   1      43.765  21.711  25.961  1.00  0.00     0.148 A 
ATOM     71  C   UNL A   1      41.318  20.611  26.658  1.00  0.00     0.002 A 
ATOM     72  C   UNL A   1      43.440  20.408  25.567  1.00  0.00     0.091 A 
ATOM     73  F   UNL A   1      44.921  22.193  25.521  1.00  0.00    -0.205 F 
ATOM     74  C   UNL A   1      42.214  19.852  25.918  1.00  0.00     0.022 A 
BRANCH  72  75
ATOM     75  S   UNL A   1      44.567  19.372  24.604  1.00  0.00     0.127 S 
ATOM     76  O   UNL A   1      45.801  19.444  25.391  1.00  0.00    -0.237 OA
ATOM     77  O   UNL A   1      43.902  18.071  24.638  1.00  0.00    -0.237 OA
ATOM     78  O   UNL A   1      44.669  19.977  23.280  1.00  0.00    -0.744 OA
ENDBRANCH  72  75
ENDBRANCH  54  68
BRANCH  55  79
ATOM     79  C   UNL A   1      44.001  32.468  28.191  1.00  0.00     0.023 A 
ATOM     80  C   UNL A   1      44.014  32.476  29.613  1.00  0.00     0.012 A 
ATOM     81  C   UNL A   1      44.053  33.702  27.516  1.00  0.00     0.148 A 
ATOM     82  C   UNL A   1      44.278  33.647  30.331  1.00  0.00     0.002 A 
ATOM     83  C   UNL A   1      44.357  34.861  28.240  1.00  0.00     0.091 A 
ATOM     84  F   UNL A   1      44.014  33.694  26.178  1.00  0.00    -0.205 F 
ATOM     85  C   UNL A   1      44.501  34.827  29.639  1.00  0.00     0.022 A 
BRANCH  83  86
ATOM     86  S   UNL A   1      44.889  36.384  27.443  1.00  0.00     0.127 S 
ATOM     87  O   UNL A   1      43.690  36.782  26.715  1.00  0.00    -0.237 OA
ATOM     88  O   UNL A   1      45.212  37.215  28.602  1.00  0.00    -0.237 OA
ATOM     89  O   UNL A   1      46.037  36.007  26.632  1.00  0.00    -0.744 OA
ENDBRANCH  83  86
ENDBRANCH  55  79
BRANCH  67  90
ATOM     90  C   UNL A   1      47.809  26.304  29.284  1.00  0.00     0.023 A 
ATOM     91  C   UNL A   1      49.058  25.853  28.814  1.00  0.00     0.012 A 
ATOM     92  C   UNL A   1      47.561  26.157  30.671  1.00  0.00     0.148 A 
ATOM     93  C   UNL A   1      49.976  25.211  29.646  1.00  0.00     0.002 A 
ATOM     94  C   UNL A   1      48.538  25.654  31.520  1.00  0.00     0.091 A 
ATOM     95  F   UNL A   1      46.367  26.485  31.182  1.00  0.00    -0.205 F 
ATOM     96  C   UNL A   1      49.727  25.135  31.006  1.00  0.00     0.022 A 
BRANCH  94  97
ATOM     97  S   UNL A   1      48.395  25.818  33.303  1.00  0.00     0.127 S 
ATOM     98  O   UNL A   1      49.751  25.499  33.741  1.00  0.00    -0.237 OA
ATOM     99  O   UNL A   1      48.021  27.227  33.450  1.00  0.00    -0.237 OA
ATOM    100  O   UNL A   1      47.354  24.880  33.696  1.00  0.00    -0.744 OA
ENDBRANCH  94  97
ENDBRANCH  67  90
ENDBRANCH  41  42
ENDBRANCH  34  36
ENDBRANCH  33  34
ENDBRANCH  32  33
ENDBRANCH  31  32
ENDBRANCH   1  31
TORSDOF 21
ENDMDL
