MODEL 1
REMARK VINA RESULT:     -11.4      0.000      0.000
REMARK SMILES CC(C)c1ccc([C@]2(C(=O)OCCOCCOC(=O)c3ccc(-c4c5nc(c(-c6cccc(S(=O)(=O)[O-])c6F)c6ccc([nH]6)c(-c6cccc(S(=O)(=O)[O-])c6F)c6nc(c(-c7cccc(S(=O)(=O)[O-])c7F)c7ccc4[nH]7)C=C6)C=C5)cc3)CCC[C@@H]2C)cc1
REMARK SMILES IDX 15 1 14 2 13 3 12 4 11 5 9 6 10 7 8 8 83 9 86 10 84 11 85 12
REMARK SMILES IDX 87 13 7 14 4 15 5 16 89 17 6 18 88 19 2 20 1 21 3 22 16 23
REMARK SMILES IDX 17 24 18 25 19 26 20 27 21 28 82 29 22 30 81 31 23 32 24 33
REMARK SMILES IDX 25 34 75 35 26 36 80 37 74 38 76 39 27 40 79 41 73 42 72 43
REMARK SMILES IDX 28 45 60 46 40 47 59 48 41 49 44 50 58 51 77 52 42 53 43 54
REMARK SMILES IDX 57 56 78 57 45 58 29 59 30 60 38 61 31 62 33 63 39 64 32 65
REMARK SMILES IDX 34 66 35 67 36 68 37 69 61 70 62 71 70 72 63 73 65 74 71 75
REMARK SMILES IDX 64 76 66 77 67 78 68 79 69 80 46 81 47 82 55 83 48 84 50 85
REMARK SMILES IDX 56 86 49 87 51 88 52 89 53 90 54 91
REMARK H PARENT 76 44 44 55
REMARK Flexibility Score: inf
ROOT
ATOM      1  C   UNL A   1      38.187  19.939  24.765  1.00  0.00     0.202 C 
ENDROOT
BRANCH   1   2
ATOM      2  O   UNL A   1      37.178  20.874  25.141  1.00  0.00    -0.374 OA
BRANCH   2   3
ATOM      3  C   UNL A   1      37.438  22.258  24.890  1.00  0.00     0.202 C 
BRANCH   3   4
ATOM      4  C   UNL A   1      36.699  22.882  23.706  1.00  0.00     0.261 C 
BRANCH   4   5
ATOM      5  O   UNL A   1      35.784  23.890  24.165  1.00  0.00    -0.463 OA
BRANCH   5   6
ATOM      6  C   UNL A   1      34.561  23.899  23.570  1.00  0.00     0.316 C 
ATOM      7  O   UNL A   1      34.385  24.115  22.373  1.00  0.00    -0.251 OA
BRANCH   6   8
ATOM      8  C   UNL A   1      33.398  23.620  24.571  1.00  0.00     0.095 C 
ATOM      9  C   UNL A   1      33.659  24.134  26.012  1.00  0.00     0.024 C 
ATOM     10  C   UNL A   1      32.228  24.558  24.133  1.00  0.00     0.008 C 
ATOM     11  C   UNL A   1      33.352  25.630  26.016  1.00  0.00     0.002 C 
ATOM     12  C   UNL A   1      32.660  25.927  24.690  1.00  0.00     0.005 C 
ATOM     13  C   UNL A   1      30.841  24.204  24.682  1.00  0.00     0.009 C 
BRANCH   8  14
ATOM     14  C   UNL A   1      33.132  22.104  24.526  1.00  0.00    -0.030 A 
ATOM     15  C   UNL A   1      32.785  19.264  24.357  1.00  0.00    -0.045 A 
ATOM     16  C   UNL A   1      32.437  20.109  23.293  1.00  0.00     0.004 A 
ATOM     17  C   UNL A   1      33.339  19.861  25.495  1.00  0.00     0.004 A 
ATOM     18  C   UNL A   1      32.610  21.497  23.374  1.00  0.00     0.005 A 
ATOM     19  C   UNL A   1      33.509  21.252  25.577  1.00  0.00     0.005 A 
BRANCH  15  20
ATOM     20  C   UNL A   1      32.588  17.759  24.213  1.00  0.00     0.013 C 
ATOM     21  C   UNL A   1      33.647  17.035  23.369  1.00  0.00     0.012 C 
ATOM     22  C   UNL A   1      32.504  17.073  25.583  1.00  0.00     0.012 C 
ENDBRANCH  15  20
ENDBRANCH   8  14
ENDBRANCH   6   8
ENDBRANCH   5   6
ENDBRANCH   4   5
ENDBRANCH   3   4
ENDBRANCH   2   3
ENDBRANCH   1   2
BRANCH   1  23
ATOM     23  C   UNL A   1      39.219  19.566  25.838  1.00  0.00     0.261 C 
BRANCH  23  24
ATOM     24  O   UNL A   1      40.572  19.594  25.351  1.00  0.00    -0.460 OA
BRANCH  24  25
ATOM     25  C   UNL A   1      41.510  19.777  26.312  1.00  0.00     0.338 C 
ATOM     26  O   UNL A   1      42.347  18.964  26.687  1.00  0.00    -0.246 OA
BRANCH  25  27
ATOM     27  C   UNL A   1      41.530  21.181  26.756  1.00  0.00     0.060 A 
ATOM     28  C   UNL A   1      41.402  22.167  25.769  1.00  0.00     0.016 A 
ATOM     29  C   UNL A   1      41.755  21.535  28.088  1.00  0.00     0.016 A 
ATOM     30  C   UNL A   1      41.554  23.512  26.099  1.00  0.00     0.010 A 
ATOM     31  C   UNL A   1      41.917  22.887  28.417  1.00  0.00     0.010 A 
ATOM     32  C   UNL A   1      41.858  23.876  27.416  1.00  0.00    -0.014 A 
BRANCH  32  33
ATOM     33  C   UNL A   1      42.263  25.274  27.704  1.00  0.00     0.031 A 
ATOM     34  C   UNL A   1      43.627  25.742  27.276  1.00  0.00     0.074 A 
ATOM     35  C   UNL A   1      41.418  26.124  28.314  1.00  0.00     0.049 A 
ATOM     36  N   UNL A   1      44.179  26.919  27.412  1.00  0.00    -0.248 NA
ATOM     37  C   UNL A   1      44.483  24.751  26.601  1.00  0.00     0.031 C 
ATOM     38  C   UNL A   1      40.069  25.792  28.769  1.00  0.00     0.029 A 
ATOM     39  N   UNL A   1      41.579  27.440  28.670  1.00  0.00    -0.354 N 
ATOM     40  C   UNL A   1      45.452  26.807  26.866  1.00  0.00     0.074 A 
ATOM     41  C   UNL A   1      45.597  25.442  26.408  1.00  0.00     0.031 C 
ATOM     42  C   UNL A   1      39.534  26.869  29.368  1.00  0.00     0.029 A 
ATOM     43  C   UNL A   1      40.507  27.960  29.355  1.00  0.00     0.049 A 
ATOM     44  H   UNL A   1      42.386  27.961  28.455  1.00  0.00     0.167 HD
ATOM     45  C   UNL A   1      46.409  27.757  26.741  1.00  0.00     0.034 A 
ATOM     46  C   UNL A   1      40.339  29.172  29.920  1.00  0.00     0.034 A 
ATOM     47  C   UNL A   1      46.256  29.118  27.177  1.00  0.00     0.049 A 
ATOM     48  C   UNL A   1      41.428  30.205  29.786  1.00  0.00     0.074 A 
ATOM     49  C   UNL A   1      47.150  30.167  27.049  1.00  0.00     0.029 A 
ATOM     50  N   UNL A   1      45.143  29.618  27.833  1.00  0.00    -0.354 N 
ATOM     51  N   UNL A   1      42.575  30.120  29.157  1.00  0.00    -0.248 NA
ATOM     52  C   UNL A   1      41.184  31.516  30.410  1.00  0.00     0.031 C 
ATOM     53  C   UNL A   1      46.585  31.297  27.651  1.00  0.00     0.029 A 
ATOM     54  C   UNL A   1      45.331  30.957  28.131  1.00  0.00     0.049 A 
ATOM     55  H   UNL A   1      44.337  29.098  28.056  1.00  0.00     0.167 HD
ATOM     56  C   UNL A   1      43.173  31.370  29.279  1.00  0.00     0.074 A 
ATOM     57  C   UNL A   1      42.252  32.202  30.025  1.00  0.00     0.031 C 
ATOM     58  C   UNL A   1      44.381  31.789  28.827  1.00  0.00     0.034 A 
BRANCH  45  59
ATOM     59  C   UNL A   1      47.703  27.362  26.079  1.00  0.00     0.023 A 
ATOM     60  C   UNL A   1      48.723  26.764  26.845  1.00  0.00     0.012 A 
ATOM     61  C   UNL A   1      47.886  27.530  24.692  1.00  0.00     0.148 A 
ATOM     62  C   UNL A   1      49.918  26.365  26.248  1.00  0.00     0.002 A 
ATOM     63  C   UNL A   1      49.063  27.093  24.097  1.00  0.00     0.091 A 
ATOM     64  F   UNL A   1      46.913  28.123  23.986  1.00  0.00    -0.205 F 
ATOM     65  C   UNL A   1      50.083  26.520  24.874  1.00  0.00     0.022 A 
BRANCH  63  66
ATOM     66  S   UNL A   1      49.340  27.181  22.325  1.00  0.00     0.127 S 
ATOM     67  O   UNL A   1      50.791  27.019  22.245  1.00  0.00    -0.237 OA
ATOM     68  O   UNL A   1      48.572  26.036  21.834  1.00  0.00    -0.237 OA
ATOM     69  O   UNL A   1      48.830  28.478  21.903  1.00  0.00    -0.744 OA
ENDBRANCH  63  66
ENDBRANCH  45  59
BRANCH  46  70
ATOM     70  C   UNL A   1      39.071  29.489  30.637  1.00  0.00     0.023 A 
ATOM     71  C   UNL A   1      38.824  28.918  31.900  1.00  0.00     0.012 A 
ATOM     72  C   UNL A   1      38.120  30.367  30.082  1.00  0.00     0.148 A 
ATOM     73  C   UNL A   1      37.640  29.194  32.586  1.00  0.00     0.002 A 
ATOM     74  C   UNL A   1      36.968  30.681  30.793  1.00  0.00     0.091 A 
ATOM     75  F   UNL A   1      38.364  30.883  28.869  1.00  0.00    -0.205 F 
ATOM     76  C   UNL A   1      36.718  30.083  32.038  1.00  0.00     0.022 A 
BRANCH  74  77
ATOM     77  S   UNL A   1      35.792  31.913  30.222  1.00  0.00     0.127 S 
ATOM     78  O   UNL A   1      35.252  31.278  29.024  1.00  0.00    -0.237 OA
ATOM     79  O   UNL A   1      34.864  31.991  31.351  1.00  0.00    -0.237 OA
ATOM     80  O   UNL A   1      36.571  33.124  30.004  1.00  0.00    -0.744 OA
ENDBRANCH  74  77
ENDBRANCH  46  70
BRANCH  58  81
ATOM     81  C   UNL A   1      44.774  33.219  29.093  1.00  0.00     0.023 A 
ATOM     82  C   UNL A   1      45.356  33.566  30.328  1.00  0.00     0.012 A 
ATOM     83  C   UNL A   1      44.643  34.200  28.090  1.00  0.00     0.148 A 
ATOM     84  C   UNL A   1      45.772  34.875  30.572  1.00  0.00     0.002 A 
ATOM     85  C   UNL A   1      45.103  35.492  28.324  1.00  0.00     0.091 A 
ATOM     86  F   UNL A   1      44.070  33.855  26.928  1.00  0.00    -0.205 F 
ATOM     87  C   UNL A   1      45.658  35.833  29.567  1.00  0.00     0.022 A 
BRANCH  85  88
ATOM     88  S   UNL A   1      45.083  36.764  27.055  1.00  0.00     0.127 S 
ATOM     89  O   UNL A   1      45.974  36.191  26.047  1.00  0.00    -0.237 OA
ATOM     90  O   UNL A   1      43.671  36.800  26.672  1.00  0.00    -0.237 OA
ATOM     91  O   UNL A   1      45.563  37.978  27.699  1.00  0.00    -0.744 OA
ENDBRANCH  85  88
ENDBRANCH  58  81
ENDBRANCH  32  33
ENDBRANCH  25  27
ENDBRANCH  24  25
ENDBRANCH  23  24
ENDBRANCH   1  23
TORSDOF 19
ENDMDL
MODEL 2
REMARK VINA RESULT:     -11.1      2.003      3.806
REMARK SMILES CC(C)c1ccc([C@]2(C(=O)OCCOCCOC(=O)c3ccc(-c4c5nc(c(-c6cccc(S(=O)(=O)[O-])c6F)c6ccc([nH]6)c(-c6cccc(S(=O)(=O)[O-])c6F)c6nc(c(-c7cccc(S(=O)(=O)[O-])c7F)c7ccc4[nH]7)C=C6)C=C5)cc3)CCC[C@@H]2C)cc1
REMARK SMILES IDX 15 1 14 2 13 3 12 4 11 5 9 6 10 7 8 8 83 9 86 10 84 11 85 12
REMARK SMILES IDX 87 13 7 14 4 15 5 16 89 17 6 18 88 19 2 20 1 21 3 22 16 23
REMARK SMILES IDX 17 24 18 25 19 26 20 27 21 28 82 29 22 30 81 31 23 32 24 33
REMARK SMILES IDX 25 34 75 35 26 36 80 37 74 38 76 39 27 40 79 41 73 42 72 43
REMARK SMILES IDX 28 45 60 46 40 47 59 48 41 49 44 50 58 51 77 52 42 53 43 54
REMARK SMILES IDX 57 56 78 57 45 58 29 59 30 60 38 61 31 62 33 63 39 64 32 65
REMARK SMILES IDX 34 66 35 67 36 68 37 69 61 70 62 71 70 72 63 73 65 74 71 75
REMARK SMILES IDX 64 76 66 77 67 78 68 79 69 80 46 81 47 82 55 83 48 84 50 85
REMARK SMILES IDX 56 86 49 87 51 88 52 89 53 90 54 91
REMARK H PARENT 76 44 44 55
REMARK Flexibility Score: inf
ROOT
ATOM      1  C   UNL A   1      36.826  22.204  23.841  1.00  0.00     0.202 C 
ENDROOT
BRANCH   1   2
ATOM      2  O   UNL A   1      35.402  22.197  23.749  1.00  0.00    -0.374 OA
BRANCH   2   3
ATOM      3  C   UNL A   1      34.777  23.339  23.157  1.00  0.00     0.202 C 
BRANCH   3   4
ATOM      4  C   UNL A   1      33.440  23.093  22.457  1.00  0.00     0.261 C 
BRANCH   4   5
ATOM      5  O   UNL A   1      32.471  24.068  22.875  1.00  0.00    -0.463 OA
BRANCH   5   6
ATOM      6  C   UNL A   1      32.875  25.365  22.830  1.00  0.00     0.316 C 
ATOM      7  O   UNL A   1      33.550  25.840  21.919  1.00  0.00    -0.251 OA
BRANCH   6   8
ATOM      8  C   UNL A   1      32.403  26.190  24.066  1.00  0.00     0.095 C 
ATOM      9  C   UNL A   1      31.983  25.328  25.286  1.00  0.00     0.024 C 
ATOM     10  C   UNL A   1      33.686  26.885  24.627  1.00  0.00     0.008 C 
ATOM     11  C   UNL A   1      33.265  24.915  26.005  1.00  0.00     0.002 C 
ATOM     12  C   UNL A   1      34.386  25.746  25.389  1.00  0.00     0.005 C 
ATOM     13  C   UNL A   1      33.451  28.062  25.580  1.00  0.00     0.009 C 
BRANCH   8  14
ATOM     14  C   UNL A   1      31.269  27.110  23.576  1.00  0.00    -0.030 A 
ATOM     15  C   UNL A   1      29.158  28.894  22.820  1.00  0.00    -0.045 A 
ATOM     16  C   UNL A   1      28.899  27.712  23.529  1.00  0.00     0.004 A 
ATOM     17  C   UNL A   1      30.494  29.184  22.522  1.00  0.00     0.004 A 
ATOM     18  C   UNL A   1      29.932  26.841  23.902  1.00  0.00     0.005 A 
ATOM     19  C   UNL A   1      31.528  28.310  22.894  1.00  0.00     0.005 A 
BRANCH  15  20
ATOM     20  C   UNL A   1      27.999  29.813  22.449  1.00  0.00     0.013 C 
ATOM     21  C   UNL A   1      27.647  30.881  23.494  1.00  0.00     0.012 C 
ATOM     22  C   UNL A   1      28.247  30.509  21.104  1.00  0.00     0.012 C 
ENDBRANCH  15  20
ENDBRANCH   8  14
ENDBRANCH   6   8
ENDBRANCH   5   6
ENDBRANCH   4   5
ENDBRANCH   3   4
ENDBRANCH   2   3
ENDBRANCH   1   2
BRANCH   1  23
ATOM     23  C   UNL A   1      37.474  21.052  24.621  1.00  0.00     0.261 C 
BRANCH  23  24
ATOM     24  O   UNL A   1      37.864  21.425  25.954  1.00  0.00    -0.460 OA
BRANCH  24  25
ATOM     25  C   UNL A   1      39.200  21.390  26.177  1.00  0.00     0.338 C 
ATOM     26  O   UNL A   1      39.992  20.548  25.773  1.00  0.00    -0.246 OA
BRANCH  25  27
ATOM     27  C   UNL A   1      39.646  22.626  26.844  1.00  0.00     0.060 A 
ATOM     28  C   UNL A   1      38.945  23.802  26.548  1.00  0.00     0.016 A 
ATOM     29  C   UNL A   1      40.771  22.659  27.670  1.00  0.00     0.016 A 
ATOM     30  C   UNL A   1      39.399  25.027  27.031  1.00  0.00     0.010 A 
ATOM     31  C   UNL A   1      41.232  23.893  28.147  1.00  0.00     0.010 A 
ATOM     32  C   UNL A   1      40.571  25.085  27.795  1.00  0.00    -0.014 A 
BRANCH  32  33
ATOM     33  C   UNL A   1      41.178  26.406  28.089  1.00  0.00     0.031 A 
ATOM     34  C   UNL A   1      42.618  26.644  27.727  1.00  0.00     0.074 A 
ATOM     35  C   UNL A   1      40.449  27.391  28.645  1.00  0.00     0.049 A 
ATOM     36  N   UNL A   1      43.343  27.722  27.878  1.00  0.00    -0.248 NA
ATOM     37  C   UNL A   1      43.338  25.518  27.107  1.00  0.00     0.031 C 
ATOM     38  C   UNL A   1      39.044  27.285  29.033  1.00  0.00     0.029 A 
ATOM     39  N   UNL A   1      40.800  28.671  28.994  1.00  0.00    -0.354 N 
ATOM     40  C   UNL A   1      44.607  27.399  27.401  1.00  0.00     0.074 A 
ATOM     41  C   UNL A   1      44.556  26.021  26.965  1.00  0.00     0.031 C 
ATOM     42  C   UNL A   1      38.657  28.444  29.592  1.00  0.00     0.029 A 
ATOM     43  C   UNL A   1      39.791  29.367  29.617  1.00  0.00     0.049 A 
ATOM     44  H   UNL A   1      41.689  29.054  28.816  1.00  0.00     0.167 HD
ATOM     45  C   UNL A   1      45.709  28.184  27.315  1.00  0.00     0.034 A 
ATOM     46  C   UNL A   1      39.790  30.600  30.160  1.00  0.00     0.034 A 
ATOM     47  C   UNL A   1      45.752  29.560  27.728  1.00  0.00     0.049 A 
ATOM     48  C   UNL A   1      41.035  31.446  30.071  1.00  0.00     0.074 A 
ATOM     49  C   UNL A   1      46.806  30.452  27.636  1.00  0.00     0.029 A 
ATOM     50  N   UNL A   1      44.702  30.242  28.321  1.00  0.00    -0.354 N 
ATOM     51  N   UNL A   1      42.183  31.169  29.504  1.00  0.00    -0.248 NA
ATOM     52  C   UNL A   1      40.972  32.789  30.668  1.00  0.00     0.031 C 
ATOM     53  C   UNL A   1      46.400  31.668  28.196  1.00  0.00     0.029 A 
ATOM     54  C   UNL A   1      45.084  31.540  28.614  1.00  0.00     0.049 A 
ATOM     55  H   UNL A   1      43.813  29.860  28.506  1.00  0.00     0.167 HD
ATOM     56  C   UNL A   1      42.966  32.310  29.643  1.00  0.00     0.074 A 
ATOM     57  C   UNL A   1      42.153  33.291  30.332  1.00  0.00     0.031 C 
ATOM     58  C   UNL A   1      44.246  32.524  29.250  1.00  0.00     0.034 A 
BRANCH  45  59
ATOM     59  C   UNL A   1      46.954  27.577  26.725  1.00  0.00     0.023 A 
ATOM     60  C   UNL A   1      47.820  26.828  27.547  1.00  0.00     0.012 A 
ATOM     61  C   UNL A   1      47.236  27.699  25.351  1.00  0.00     0.148 A 
ATOM     62  C   UNL A   1      48.965  26.234  27.016  1.00  0.00     0.002 A 
ATOM     63  C   UNL A   1      48.357  27.071  24.821  1.00  0.00     0.091 A 
ATOM     64  F   UNL A   1      46.414  28.436  24.592  1.00  0.00    -0.205 F 
ATOM     65  C   UNL A   1      49.227  26.347  25.654  1.00  0.00     0.022 A 
BRANCH  63  66
ATOM     66  S   UNL A   1      48.740  27.095  23.067  1.00  0.00     0.127 S 
ATOM     67  O   UNL A   1      50.191  27.277  23.085  1.00  0.00    -0.237 OA
ATOM     68  O   UNL A   1      48.298  25.769  22.635  1.00  0.00    -0.237 OA
ATOM     69  O   UNL A   1      47.977  28.201  22.506  1.00  0.00    -0.744 OA
ENDBRANCH  63  66
ENDBRANCH  45  59
BRANCH  46  70
ATOM     70  C   UNL A   1      38.555  31.127  30.807  1.00  0.00     0.023 A 
ATOM     71  C   UNL A   1      38.450  31.129  32.211  1.00  0.00     0.012 A 
ATOM     72  C   UNL A   1      37.493  31.643  30.038  1.00  0.00     0.148 A 
ATOM     73  C   UNL A   1      37.299  31.610  32.837  1.00  0.00     0.002 A 
ATOM     74  C   UNL A   1      36.373  32.171  30.669  1.00  0.00     0.091 A 
ATOM     75  F   UNL A   1      37.604  31.613  28.702  1.00  0.00    -0.205 F 
ATOM     76  C   UNL A   1      36.266  32.140  32.068  1.00  0.00     0.022 A 
BRANCH  74  77
ATOM     77  S   UNL A   1      35.056  32.989  29.762  1.00  0.00     0.127 S 
ATOM     78  O   UNL A   1      34.706  31.981  28.767  1.00  0.00    -0.237 OA
ATOM     79  O   UNL A   1      34.054  33.199  30.808  1.00  0.00    -0.237 OA
ATOM     80  O   UNL A   1      35.644  34.217  29.243  1.00  0.00    -0.744 OA
ENDBRANCH  74  77
ENDBRANCH  46  70
BRANCH  58  81
ATOM     81  C   UNL A   1      44.847  33.879  29.521  1.00  0.00     0.023 A 
ATOM     82  C   UNL A   1      45.555  34.103  30.719  1.00  0.00     0.012 A 
ATOM     83  C   UNL A   1      44.783  34.902  28.554  1.00  0.00     0.148 A 
ATOM     84  C   UNL A   1      46.161  35.335  30.963  1.00  0.00     0.002 A 
ATOM     85  C   UNL A   1      45.430  36.111  28.785  1.00  0.00     0.091 A 
ATOM     86  F   UNL A   1      44.091  34.675  27.428  1.00  0.00    -0.205 F 
ATOM     87  C   UNL A   1      46.110  36.333  29.993  1.00  0.00     0.022 A 
BRANCH  85  88
ATOM     88  S   UNL A   1      45.497  37.416  27.551  1.00  0.00     0.127 S 
ATOM     89  O   UNL A   1      46.067  36.711  26.405  1.00  0.00    -0.237 OA
ATOM     90  O   UNL A   1      44.087  37.779  27.405  1.00  0.00    -0.237 OA
ATOM     91  O   UNL A   1      46.332  38.463  28.122  1.00  0.00    -0.744 OA
ENDBRANCH  85  88
ENDBRANCH  58  81
ENDBRANCH  32  33
ENDBRANCH  25  27
ENDBRANCH  24  25
ENDBRANCH  23  24
ENDBRANCH   1  23
TORSDOF 19
ENDMDL
MODEL 3
REMARK VINA RESULT:     -11.1      1.760      8.355
REMARK SMILES CC(C)c1ccc([C@]2(C(=O)OCCOCCOC(=O)c3ccc(-c4c5nc(c(-c6cccc(S(=O)(=O)[O-])c6F)c6ccc([nH]6)c(-c6cccc(S(=O)(=O)[O-])c6F)c6nc(c(-c7cccc(S(=O)(=O)[O-])c7F)c7ccc4[nH]7)C=C6)C=C5)cc3)CCC[C@@H]2C)cc1
REMARK SMILES IDX 15 1 14 2 13 3 12 4 11 5 9 6 10 7 8 8 83 9 86 10 84 11 85 12
REMARK SMILES IDX 87 13 7 14 4 15 5 16 89 17 6 18 88 19 2 20 1 21 3 22 16 23
REMARK SMILES IDX 17 24 18 25 19 26 20 27 21 28 82 29 22 30 81 31 23 32 24 33
REMARK SMILES IDX 25 34 75 35 26 36 80 37 74 38 76 39 27 40 79 41 73 42 72 43
REMARK SMILES IDX 28 45 60 46 40 47 59 48 41 49 44 50 58 51 77 52 42 53 43 54
REMARK SMILES IDX 57 56 78 57 45 58 29 59 30 60 38 61 31 62 33 63 39 64 32 65
REMARK SMILES IDX 34 66 35 67 36 68 37 69 61 70 62 71 70 72 63 73 65 74 71 75
REMARK SMILES IDX 64 76 66 77 67 78 68 79 69 80 46 81 47 82 55 83 48 84 50 85
REMARK SMILES IDX 56 86 49 87 51 88 52 89 53 90 54 91
REMARK H PARENT 76 44 44 55
REMARK Flexibility Score: inf
ROOT
ATOM      1  C   UNL A   1      35.861  20.679  24.835  1.00  0.00     0.202 C 
ENDROOT
BRANCH   1   2
ATOM      2  O   UNL A   1      34.803  19.740  25.019  1.00  0.00    -0.374 OA
BRANCH   2   3
ATOM      3  C   UNL A   1      33.569  20.234  25.545  1.00  0.00     0.202 C 
BRANCH   3   4
ATOM      4  C   UNL A   1      33.674  21.366  26.567  1.00  0.00     0.261 C 
BRANCH   4   5
ATOM      5  O   UNL A   1      32.978  22.531  26.094  1.00  0.00    -0.463 OA
BRANCH   5   6
ATOM      6  C   UNL A   1      33.751  23.495  25.527  1.00  0.00     0.316 C 
ATOM      7  O   UNL A   1      34.915  23.716  25.849  1.00  0.00    -0.251 OA
BRANCH   6   8
ATOM      8  C   UNL A   1      32.998  24.306  24.428  1.00  0.00     0.095 C 
ATOM      9  C   UNL A   1      33.736  24.372  23.065  1.00  0.00     0.024 C 
ATOM     10  C   UNL A   1      31.751  23.445  24.045  1.00  0.00     0.008 C 
ATOM     11  C   UNL A   1      33.455  23.058  22.339  1.00  0.00     0.002 C 
ATOM     12  C   UNL A   1      32.353  22.362  23.131  1.00  0.00     0.005 C 
ATOM     13  C   UNL A   1      30.634  24.176  23.293  1.00  0.00     0.009 C 
BRANCH   8  14
ATOM     14  C   UNL A   1      32.726  25.703  25.019  1.00  0.00    -0.030 A 
ATOM     15  C   UNL A   1      32.082  28.310  26.018  1.00  0.00    -0.045 A 
ATOM     16  C   UNL A   1      32.770  28.138  24.807  1.00  0.00     0.004 A 
ATOM     17  C   UNL A   1      31.695  27.154  26.705  1.00  0.00     0.004 A 
ATOM     18  C   UNL A   1      33.081  26.864  24.317  1.00  0.00     0.005 A 
ATOM     19  C   UNL A   1      32.010  25.877  26.214  1.00  0.00     0.005 A 
BRANCH  15  20
ATOM     20  C   UNL A   1      31.757  29.720  26.500  1.00  0.00     0.013 C 
ATOM     21  C   UNL A   1      32.926  30.482  27.140  1.00  0.00     0.012 C 
ATOM     22  C   UNL A   1      31.177  30.577  25.367  1.00  0.00     0.012 C 
ENDBRANCH  15  20
ENDBRANCH   8  14
ENDBRANCH   6   8
ENDBRANCH   5   6
ENDBRANCH   4   5
ENDBRANCH   3   4
ENDBRANCH   2   3
ENDBRANCH   1   2
BRANCH   1  23
ATOM     23  C   UNL A   1      37.289  20.166  25.060  1.00  0.00     0.261 C 
BRANCH  23  24
ATOM     24  O   UNL A   1      38.259  21.224  25.149  1.00  0.00    -0.460 OA
BRANCH  24  25
ATOM     25  C   UNL A   1      39.257  20.996  26.039  1.00  0.00     0.338 C 
ATOM     26  O   UNL A   1      39.819  19.930  26.257  1.00  0.00    -0.246 OA
BRANCH  25  27
ATOM     27  C   UNL A   1      39.733  22.264  26.618  1.00  0.00     0.060 A 
ATOM     28  C   UNL A   1      39.161  23.446  26.130  1.00  0.00     0.016 A 
ATOM     29  C   UNL A   1      40.771  22.311  27.550  1.00  0.00     0.016 A 
ATOM     30  C   UNL A   1      39.662  24.683  26.529  1.00  0.00     0.010 A 
ATOM     31  C   UNL A   1      41.280  23.555  27.944  1.00  0.00     0.010 A 
ATOM     32  C   UNL A   1      40.754  24.743  27.402  1.00  0.00    -0.014 A 
BRANCH  32  33
ATOM     33  C   UNL A   1      41.434  26.044  27.621  1.00  0.00     0.031 A 
ATOM     34  C   UNL A   1      40.740  27.102  28.434  1.00  0.00     0.074 A 
ATOM     35  C   UNL A   1      42.664  26.271  27.125  1.00  0.00     0.049 A 
ATOM     36  N   UNL A   1      41.152  28.299  28.760  1.00  0.00    -0.248 NA
ATOM     37  C   UNL A   1      39.402  26.766  28.952  1.00  0.00     0.031 C 
ATOM     38  C   UNL A   1      43.441  25.322  26.329  1.00  0.00     0.029 A 
ATOM     39  N   UNL A   1      43.467  27.380  27.208  1.00  0.00    -0.354 N 
ATOM     40  C   UNL A   1      40.121  28.869  29.497  1.00  0.00     0.074 A 
ATOM     41  C   UNL A   1      39.056  27.892  29.559  1.00  0.00     0.031 C 
ATOM     42  C   UNL A   1      44.601  25.901  25.973  1.00  0.00     0.029 A 
ATOM     43  C   UNL A   1      44.640  27.264  26.500  1.00  0.00     0.049 A 
ATOM     44  H   UNL A   1      43.226  28.183  27.724  1.00  0.00     0.167 HD
ATOM     45  C   UNL A   1      40.070  30.089  30.084  1.00  0.00     0.034 A 
ATOM     46  C   UNL A   1      45.623  28.162  26.289  1.00  0.00     0.034 A 
ATOM     47  C   UNL A   1      41.137  31.050  30.040  1.00  0.00     0.049 A 
ATOM     48  C   UNL A   1      45.532  29.520  26.936  1.00  0.00     0.074 A 
ATOM     49  C   UNL A   1      41.200  32.293  30.645  1.00  0.00     0.029 A 
ATOM     50  N   UNL A   1      42.324  30.884  29.345  1.00  0.00    -0.354 N 
ATOM     51  N   UNL A   1      44.607  29.996  27.732  1.00  0.00    -0.248 NA
ATOM     52  C   UNL A   1      46.641  30.454  26.682  1.00  0.00     0.031 C 
ATOM     53  C   UNL A   1      42.417  32.889  30.295  1.00  0.00     0.029 A 
ATOM     54  C   UNL A   1      43.122  32.005  29.493  1.00  0.00     0.049 A 
ATOM     55  H   UNL A   1      42.566  30.084  28.823  1.00  0.00     0.167 HD
ATOM     56  C   UNL A   1      45.034  31.267  28.102  1.00  0.00     0.074 A 
ATOM     57  C   UNL A   1      46.314  31.479  27.458  1.00  0.00     0.031 C 
ATOM     58  C   UNL A   1      44.419  32.181  28.891  1.00  0.00     0.034 A 
BRANCH  45  59
ATOM     59  C   UNL A   1      38.823  30.442  30.851  1.00  0.00     0.023 A 
ATOM     60  C   UNL A   1      38.688  30.024  32.191  1.00  0.00     0.012 A 
ATOM     61  C   UNL A   1      37.815  31.233  30.268  1.00  0.00     0.148 A 
ATOM     62  C   UNL A   1      37.555  30.363  32.930  1.00  0.00     0.002 A 
ATOM     63  C   UNL A   1      36.707  31.601  31.022  1.00  0.00     0.091 A 
ATOM     64  F   UNL A   1      37.951  31.599  28.986  1.00  0.00    -0.205 F 
ATOM     65  C   UNL A   1      36.571  31.159  32.349  1.00  0.00     0.022 A 
BRANCH  63  66
ATOM     66  S   UNL A   1      35.423  32.684  30.388  1.00  0.00     0.127 S 
ATOM     67  O   UNL A   1      36.157  33.935  30.203  1.00  0.00    -0.237 OA
ATOM     68  O   UNL A   1      35.039  32.014  29.145  1.00  0.00    -0.237 OA
ATOM     69  O   UNL A   1      34.383  32.712  31.407  1.00  0.00    -0.744 OA
ENDBRANCH  63  66
ENDBRANCH  45  59
BRANCH  46  70
ATOM     70  C   UNL A   1      46.801  27.791  25.453  1.00  0.00     0.023 A 
ATOM     71  C   UNL A   1      46.757  27.993  24.060  1.00  0.00     0.012 A 
ATOM     72  C   UNL A   1      47.968  27.260  26.033  1.00  0.00     0.148 A 
ATOM     73  C   UNL A   1      47.844  27.646  23.257  1.00  0.00     0.002 A 
ATOM     74  C   UNL A   1      49.068  26.968  25.236  1.00  0.00     0.091 A 
ATOM     75  F   UNL A   1      47.982  27.056  27.359  1.00  0.00    -0.205 F 
ATOM     76  C   UNL A   1      49.003  27.144  23.845  1.00  0.00     0.022 A 
BRANCH  74  77
ATOM     77  S   UNL A   1      50.641  26.441  25.924  1.00  0.00     0.127 S 
ATOM     78  O   UNL A   1      50.951  27.536  26.837  1.00  0.00    -0.237 OA
ATOM     79  O   UNL A   1      50.279  25.179  26.573  1.00  0.00    -0.237 OA
ATOM     80  O   UNL A   1      51.536  26.291  24.784  1.00  0.00    -0.744 OA
ENDBRANCH  74  77
ENDBRANCH  46  70
BRANCH  58  81
ATOM     81  C   UNL A   1      45.128  33.488  29.137  1.00  0.00     0.023 A 
ATOM     82  C   UNL A   1      45.946  33.637  30.275  1.00  0.00     0.012 A 
ATOM     83  C   UNL A   1      45.050  34.537  28.200  1.00  0.00     0.148 A 
ATOM     84  C   UNL A   1      46.650  34.821  30.491  1.00  0.00     0.002 A 
ATOM     85  C   UNL A   1      45.791  35.697  28.399  1.00  0.00     0.091 A 
ATOM     86  F   UNL A   1      44.252  34.384  27.133  1.00  0.00    -0.205 F 
ATOM     87  C   UNL A   1      46.583  35.844  29.549  1.00  0.00     0.022 A 
BRANCH  85  88
ATOM     88  S   UNL A   1      45.840  37.026  27.191  1.00  0.00     0.127 S 
ATOM     89  O   UNL A   1      44.430  37.399  27.102  1.00  0.00    -0.237 OA
ATOM     90  O   UNL A   1      46.693  38.015  27.850  1.00  0.00    -0.237 OA
ATOM     91  O   UNL A   1      46.413  36.448  25.983  1.00  0.00    -0.744 OA
ENDBRANCH  85  88
ENDBRANCH  58  81
ENDBRANCH  32  33
ENDBRANCH  25  27
ENDBRANCH  24  25
ENDBRANCH  23  24
ENDBRANCH   1  23
TORSDOF 19
ENDMDL
