MODEL 1
REMARK VINA RESULT:     -12.0      0.000      0.000
REMARK SMILES Cc1ccccc1C(=O)Nc1ccc(N2CCCCC2)cc1C(=O)OCCOCCOC(=O)c1ccc(-c2c3nc(c(-c4cccc(S(=O)(=O)[O-])c4F)c4ccc([nH]4)c(-c4cccc(S(=O)(=O)[O-])c4F)c4nc(c(-c5cccc(S(=O)(=O)[O-])c5F)c5ccc2[nH]5)C=C4)C=C3)cc1
REMARK SMILES IDX 29 1 28 2 27 3 26 4 25 5 23 6 24 7 22 8 11 9 12 10 13 11
REMARK SMILES IDX 21 12 14 13 10 14 8 15 9 16 7 18 1 19 2 20 3 21 4 22 6 23
REMARK SMILES IDX 5 24 15 25 16 26 20 27 17 28 19 29 18 30 30 31 31 32 32 33
REMARK SMILES IDX 33 34 34 35 35 36 96 37 36 38 95 39 37 40 38 41 39 42 89 43
REMARK SMILES IDX 40 44 94 45 88 46 90 47 41 48 93 49 87 50 86 51 42 53 74 54
REMARK SMILES IDX 54 55 73 56 55 57 58 58 72 59 91 60 56 61 57 62 71 64 92 65
REMARK SMILES IDX 59 66 43 67 44 68 52 69 45 70 47 71 53 72 46 73 48 74 49 75
REMARK SMILES IDX 50 76 51 77 75 78 76 79 84 80 77 81 79 82 85 83 78 84 80 85
REMARK SMILES IDX 81 86 82 87 83 88 60 89 61 90 69 91 62 92 64 93 70 94 63 95
REMARK SMILES IDX 65 96 66 97 67 98 68 99
REMARK H PARENT 10 17 90 52 58 63
REMARK Flexibility Score: inf
ROOT
ATOM      1  C   UNL A   1      33.892  31.817  27.826  1.00  0.00     0.202 C 
ENDROOT
BRANCH   1   2
ATOM      2  O   UNL A   1      34.208  30.787  26.901  1.00  0.00    -0.374 OA
BRANCH   2   3
ATOM      3  C   UNL A   1      33.623  29.514  27.060  1.00  0.00     0.202 C 
BRANCH   3   4
ATOM      4  C   UNL A   1      32.394  29.204  26.224  1.00  0.00     0.261 C 
BRANCH   4   5
ATOM      5  O   UNL A   1      32.359  27.864  25.745  1.00  0.00    -0.460 OA
BRANCH   5   6
ATOM      6  C   UNL A   1      31.790  27.014  26.632  1.00  0.00     0.340 C 
ATOM      7  O   UNL A   1      31.044  27.279  27.538  1.00  0.00    -0.246 OA
BRANCH   6   8
ATOM      8  C   UNL A   1      31.943  25.657  26.095  1.00  0.00     0.085 A 
ATOM      9  C   UNL A   1      30.778  25.071  25.591  1.00  0.00     0.056 A 
ATOM     10  C   UNL A   1      30.814  23.745  25.197  1.00  0.00     0.029 A 
ATOM     11  C   UNL A   1      32.045  23.099  25.099  1.00  0.00     0.028 A 
ATOM     12  C   UNL A   1      33.192  25.034  25.936  1.00  0.00     0.043 A 
ATOM     13  C   UNL A   1      33.260  23.764  25.353  1.00  0.00     0.038 A 
BRANCH   9  14
ATOM     14  N   UNL A   1      29.614  25.838  25.414  1.00  0.00    -0.321 N 
ATOM     15  C   UNL A   1      29.098  26.274  24.211  1.00  0.00     0.255 C 
ATOM     16  O   UNL A   1      27.943  25.994  23.887  1.00  0.00    -0.269 OA
ATOM     17  H   UNL A   1      29.119  26.088  26.227  1.00  0.00     0.170 HD
BRANCH  15  18
ATOM     18  C   UNL A   1      29.781  27.407  23.477  1.00  0.00     0.043 A 
ATOM     19  C   UNL A   1      31.805  26.171  22.452  1.00  0.00     0.045 C 
ATOM     20  C   UNL A   1      30.926  27.361  22.650  1.00  0.00    -0.038 A 
ATOM     21  C   UNL A   1      31.340  28.533  21.975  1.00  0.00     0.004 A 
ATOM     22  C   UNL A   1      30.666  29.741  22.127  1.00  0.00     0.000 A 
ATOM     23  C   UNL A   1      29.116  28.645  23.615  1.00  0.00     0.014 A 
ATOM     24  C   UNL A   1      29.563  29.800  22.964  1.00  0.00     0.001 A 
ENDBRANCH  15  18
ENDBRANCH   9  14
BRANCH  13  25
ATOM     25  N   UNL A   1      34.436  23.157  24.952  1.00  0.00    -0.372 N 
ATOM     26  C   UNL A   1      35.162  22.360  25.947  1.00  0.00     0.116 C 
ATOM     27  C   UNL A   1      34.748  22.865  23.559  1.00  0.00     0.116 C 
ATOM     28  C   UNL A   1      36.656  22.615  25.793  1.00  0.00     0.021 C 
ATOM     29  C   UNL A   1      36.244  23.133  23.349  1.00  0.00     0.021 C 
ATOM     30  C   UNL A   1      37.113  22.371  24.355  1.00  0.00     0.004 C 
ENDBRANCH  13  25
ENDBRANCH   6   8
ENDBRANCH   5   6
ENDBRANCH   4   5
ENDBRANCH   3   4
ENDBRANCH   2   3
ENDBRANCH   1   2
BRANCH   1  31
ATOM     31  C   UNL A   1      34.929  32.895  28.199  1.00  0.00     0.261 C 
BRANCH  31  32
ATOM     32  O   UNL A   1      36.279  32.403  28.127  1.00  0.00    -0.460 OA
BRANCH  32  33
ATOM     33  C   UNL A   1      36.775  31.903  29.305  1.00  0.00     0.338 C 
ATOM     34  O   UNL A   1      36.912  32.560  30.319  1.00  0.00    -0.246 OA
BRANCH  33  35
ATOM     35  C   UNL A   1      37.051  30.442  29.147  1.00  0.00     0.060 A 
ATOM     36  C   UNL A   1      37.109  29.603  30.254  1.00  0.00     0.016 A 
ATOM     37  C   UNL A   1      37.532  29.977  27.933  1.00  0.00     0.016 A 
ATOM     38  C   UNL A   1      37.967  28.491  30.246  1.00  0.00     0.010 A 
ATOM     39  C   UNL A   1      38.423  28.905  27.932  1.00  0.00     0.010 A 
ATOM     40  C   UNL A   1      38.766  28.248  29.128  1.00  0.00    -0.014 A 
BRANCH  40  41
ATOM     41  C   UNL A   1      40.118  27.640  29.226  1.00  0.00     0.031 A 
ATOM     42  C   UNL A   1      40.432  26.246  28.789  1.00  0.00     0.074 A 
ATOM     43  C   UNL A   1      41.206  28.447  29.412  1.00  0.00     0.049 A 
ATOM     44  N   UNL A   1      41.553  25.668  29.088  1.00  0.00    -0.248 NA
ATOM     45  C   UNL A   1      39.550  25.372  28.022  1.00  0.00     0.031 C 
ATOM     46  C   UNL A   1      42.574  28.159  28.956  1.00  0.00     0.029 A 
ATOM     47  N   UNL A   1      41.339  29.711  29.997  1.00  0.00    -0.354 N 
ATOM     48  C   UNL A   1      41.688  24.572  28.271  1.00  0.00     0.074 A 
ATOM     49  C   UNL A   1      40.352  24.325  27.790  1.00  0.00     0.031 C 
ATOM     50  C   UNL A   1      43.423  29.067  29.441  1.00  0.00     0.029 A 
ATOM     51  C   UNL A   1      42.686  29.952  30.309  1.00  0.00     0.049 A 
ATOM     52  H   UNL A   1      40.599  30.337  30.165  1.00  0.00     0.167 HD
ATOM     53  C   UNL A   1      42.929  24.071  27.996  1.00  0.00     0.034 A 
ATOM     54  C   UNL A   1      43.163  30.424  31.490  1.00  0.00     0.034 A 
ATOM     55  C   UNL A   1      44.001  24.724  28.778  1.00  0.00     0.049 A 
ATOM     56  C   UNL A   1      43.755  29.260  32.259  1.00  0.00     0.074 A 
ATOM     57  C   UNL A   1      45.163  25.430  28.517  1.00  0.00     0.029 A 
ATOM     58  N   UNL A   1      43.831  24.812  30.149  1.00  0.00    -0.354 N 
ATOM     59  N   UNL A   1      44.457  28.293  31.723  1.00  0.00    -0.248 NA
ATOM     60  C   UNL A   1      43.449  29.019  33.669  1.00  0.00     0.031 C 
ATOM     61  C   UNL A   1      45.616  26.016  29.751  1.00  0.00     0.029 A 
ATOM     62  C   UNL A   1      44.760  25.625  30.769  1.00  0.00     0.049 A 
ATOM     63  H   UNL A   1      43.117  24.340  30.635  1.00  0.00     0.167 HD
ATOM     64  C   UNL A   1      44.375  27.207  32.568  1.00  0.00     0.074 A 
ATOM     65  C   UNL A   1      43.844  27.744  33.811  1.00  0.00     0.031 C 
ATOM     66  C   UNL A   1      44.576  25.904  32.195  1.00  0.00     0.034 A 
BRANCH  53  67
ATOM     67  C   UNL A   1      43.202  22.969  26.986  1.00  0.00     0.023 A 
ATOM     68  C   UNL A   1      44.156  23.221  25.975  1.00  0.00     0.012 A 
ATOM     69  C   UNL A   1      42.580  21.695  26.948  1.00  0.00     0.148 A 
ATOM     70  C   UNL A   1      44.511  22.255  25.023  1.00  0.00     0.002 A 
ATOM     71  C   UNL A   1      43.014  20.697  26.070  1.00  0.00     0.091 A 
ATOM     72  F   UNL A   1      41.485  21.466  27.680  1.00  0.00    -0.205 F 
ATOM     73  C   UNL A   1      43.972  20.978  25.095  1.00  0.00     0.022 A 
BRANCH  71  74
ATOM     74  S   UNL A   1      42.433  18.994  26.192  1.00  0.00     0.127 S 
ATOM     75  O   UNL A   1      42.559  18.725  27.623  1.00  0.00    -0.237 OA
ATOM     76  O   UNL A   1      41.054  19.095  25.713  1.00  0.00    -0.237 OA
ATOM     77  O   UNL A   1      43.309  18.210  25.329  1.00  0.00    -0.744 OA
ENDBRANCH  71  74
ENDBRANCH  53  67
BRANCH  54  78
ATOM     78  C   UNL A   1      42.410  31.594  32.000  1.00  0.00     0.023 A 
ATOM     79  C   UNL A   1      42.481  32.752  31.188  1.00  0.00     0.012 A 
ATOM     80  C   UNL A   1      41.351  31.465  32.907  1.00  0.00     0.148 A 
ATOM     81  C   UNL A   1      41.465  33.706  31.198  1.00  0.00     0.002 A 
ATOM     82  C   UNL A   1      40.310  32.388  32.866  1.00  0.00     0.091 A 
ATOM     83  F   UNL A   1      41.292  30.360  33.661  1.00  0.00    -0.205 F 
ATOM     84  C   UNL A   1      40.360  33.502  32.011  1.00  0.00     0.022 A 
BRANCH  82  85
ATOM     85  S   UNL A   1      38.717  32.050  33.616  1.00  0.00     0.127 S 
ATOM     86  O   UNL A   1      38.338  30.791  32.987  1.00  0.00    -0.237 OA
ATOM     87  O   UNL A   1      39.095  31.953  35.024  1.00  0.00    -0.237 OA
ATOM     88  O   UNL A   1      37.891  33.203  33.288  1.00  0.00    -0.744 OA
ENDBRANCH  82  85
ENDBRANCH  54  78
BRANCH  66  89
ATOM     89  C   UNL A   1      44.544  24.775  33.216  1.00  0.00     0.023 A 
ATOM     90  C   UNL A   1      43.301  24.333  33.722  1.00  0.00     0.012 A 
ATOM     91  C   UNL A   1      45.703  24.229  33.819  1.00  0.00     0.148 A 
ATOM     92  C   UNL A   1      43.214  23.380  34.742  1.00  0.00     0.002 A 
ATOM     93  C   UNL A   1      45.611  23.382  34.919  1.00  0.00     0.091 A 
ATOM     94  F   UNL A   1      46.907  24.465  33.286  1.00  0.00    -0.205 F 
ATOM     95  C   UNL A   1      44.369  22.929  35.365  1.00  0.00     0.022 A 
BRANCH  93  96
ATOM     96  S   UNL A   1      47.052  22.965  35.915  1.00  0.00     0.127 S 
ATOM     97  O   UNL A   1      47.746  22.007  35.050  1.00  0.00    -0.237 OA
ATOM     98  O   UNL A   1      47.713  24.260  36.045  1.00  0.00    -0.237 OA
ATOM     99  O   UNL A   1      46.524  22.388  37.142  1.00  0.00    -0.744 OA
ENDBRANCH  93  96
ENDBRANCH  66  89
ENDBRANCH  40  41
ENDBRANCH  33  35
ENDBRANCH  32  33
ENDBRANCH  31  32
ENDBRANCH   1  31
TORSDOF 20
ENDMDL
MODEL 2
REMARK VINA RESULT:     -12.0      1.461      3.833
REMARK SMILES Cc1ccccc1C(=O)Nc1ccc(N2CCCCC2)cc1C(=O)OCCOCCOC(=O)c1ccc(-c2c3nc(c(-c4cccc(S(=O)(=O)[O-])c4F)c4ccc([nH]4)c(-c4cccc(S(=O)(=O)[O-])c4F)c4nc(c(-c5cccc(S(=O)(=O)[O-])c5F)c5ccc2[nH]5)C=C4)C=C3)cc1
REMARK SMILES IDX 29 1 28 2 27 3 26 4 25 5 23 6 24 7 22 8 11 9 12 10 13 11
REMARK SMILES IDX 21 12 14 13 10 14 8 15 9 16 7 18 1 19 2 20 3 21 4 22 6 23
REMARK SMILES IDX 5 24 15 25 16 26 20 27 17 28 19 29 18 30 30 31 31 32 32 33
REMARK SMILES IDX 33 34 34 35 35 36 96 37 36 38 95 39 37 40 38 41 39 42 89 43
REMARK SMILES IDX 40 44 94 45 88 46 90 47 41 48 93 49 87 50 86 51 42 53 74 54
REMARK SMILES IDX 54 55 73 56 55 57 58 58 72 59 91 60 56 61 57 62 71 64 92 65
REMARK SMILES IDX 59 66 43 67 44 68 52 69 45 70 47 71 53 72 46 73 48 74 49 75
REMARK SMILES IDX 50 76 51 77 75 78 76 79 84 80 77 81 79 82 85 83 78 84 80 85
REMARK SMILES IDX 81 86 82 87 83 88 60 89 61 90 69 91 62 92 64 93 70 94 63 95
REMARK SMILES IDX 65 96 66 97 67 98 68 99
REMARK H PARENT 10 17 90 52 58 63
REMARK Flexibility Score: inf
ROOT
ATOM      1  C   UNL A   1      34.655  32.951  28.216  1.00  0.00     0.202 C 
ENDROOT
BRANCH   1   2
ATOM      2  O   UNL A   1      34.420  31.891  27.302  1.00  0.00    -0.374 OA
BRANCH   2   3
ATOM      3  C   UNL A   1      33.821  30.701  27.764  1.00  0.00     0.202 C 
BRANCH   3   4
ATOM      4  C   UNL A   1      32.580  30.218  27.034  1.00  0.00     0.261 C 
BRANCH   4   5
ATOM      5  O   UNL A   1      32.631  28.839  26.682  1.00  0.00    -0.460 OA
BRANCH   5   6
ATOM      6  C   UNL A   1      33.004  28.649  25.395  1.00  0.00     0.340 C 
ATOM      7  O   UNL A   1      34.092  28.358  24.974  1.00  0.00    -0.246 OA
BRANCH   6   8
ATOM      8  C   UNL A   1      31.777  28.502  24.604  1.00  0.00     0.085 A 
ATOM      9  C   UNL A   1      31.174  27.242  24.652  1.00  0.00     0.056 A 
ATOM     10  C   UNL A   1      30.094  26.985  23.825  1.00  0.00     0.029 A 
ATOM     11  C   UNL A   1      29.499  28.042  23.138  1.00  0.00     0.028 A 
ATOM     12  C   UNL A   1      31.143  29.582  23.968  1.00  0.00     0.043 A 
ATOM     13  C   UNL A   1      29.938  29.371  23.288  1.00  0.00     0.038 A 
BRANCH   9  14
ATOM     14  N   UNL A   1      31.606  26.280  25.581  1.00  0.00    -0.321 N 
ATOM     15  C   UNL A   1      32.691  25.439  25.442  1.00  0.00     0.255 C 
ATOM     16  O   UNL A   1      33.584  25.425  26.290  1.00  0.00    -0.269 OA
ATOM     17  H   UNL A   1      31.084  26.198  26.411  1.00  0.00     0.170 HD
BRANCH  15  18
ATOM     18  C   UNL A   1      32.604  24.268  24.488  1.00  0.00     0.043 A 
ATOM     19  C   UNL A   1      33.265  25.403  22.263  1.00  0.00     0.045 C 
ATOM     20  C   UNL A   1      32.918  24.224  23.111  1.00  0.00    -0.038 A 
ATOM     21  C   UNL A   1      32.860  22.988  22.426  1.00  0.00     0.004 A 
ATOM     22  C   UNL A   1      32.473  21.815  23.067  1.00  0.00     0.000 A 
ATOM     23  C   UNL A   1      32.214  23.064  25.114  1.00  0.00     0.014 A 
ATOM     24  C   UNL A   1      32.131  21.858  24.409  1.00  0.00     0.001 A 
ENDBRANCH  15  18
ENDBRANCH   9  14
BRANCH  13  25
ATOM     25  N   UNL A   1      29.125  30.386  22.819  1.00  0.00    -0.372 N 
ATOM     26  C   UNL A   1      28.173  30.056  21.752  1.00  0.00     0.116 C 
ATOM     27  C   UNL A   1      28.817  31.583  23.591  1.00  0.00     0.116 C 
ATOM     28  C   UNL A   1      28.136  31.202  20.748  1.00  0.00     0.021 C 
ATOM     29  C   UNL A   1      28.794  32.772  22.622  1.00  0.00     0.021 C 
ATOM     30  C   UNL A   1      27.848  32.534  21.439  1.00  0.00     0.004 C 
ENDBRANCH  13  25
ENDBRANCH   6   8
ENDBRANCH   5   6
ENDBRANCH   4   5
ENDBRANCH   3   4
ENDBRANCH   2   3
ENDBRANCH   1   2
BRANCH   1  31
ATOM     31  C   UNL A   1      36.087  33.326  28.647  1.00  0.00     0.261 C 
BRANCH  31  32
ATOM     32  O   UNL A   1      36.984  32.202  28.596  1.00  0.00    -0.460 OA
BRANCH  32  33
ATOM     33  C   UNL A   1      37.033  31.450  29.743  1.00  0.00     0.338 C 
ATOM     34  O   UNL A   1      36.786  31.883  30.852  1.00  0.00    -0.246 OA
BRANCH  33  35
ATOM     35  C   UNL A   1      37.372  30.036  29.395  1.00  0.00     0.060 A 
ATOM     36  C   UNL A   1      37.431  29.053  30.376  1.00  0.00     0.016 A 
ATOM     37  C   UNL A   1      37.909  29.763  28.146  1.00  0.00     0.016 A 
ATOM     38  C   UNL A   1      38.332  27.985  30.245  1.00  0.00     0.010 A 
ATOM     39  C   UNL A   1      38.841  28.734  28.028  1.00  0.00     0.010 A 
ATOM     40  C   UNL A   1      39.174  27.929  29.133  1.00  0.00    -0.014 A 
BRANCH  40  41
ATOM     41  C   UNL A   1      40.546  27.362  29.194  1.00  0.00     0.031 A 
ATOM     42  C   UNL A   1      40.910  26.017  28.654  1.00  0.00     0.074 A 
ATOM     43  C   UNL A   1      41.605  28.189  29.450  1.00  0.00     0.049 A 
ATOM     44  N   UNL A   1      42.049  25.457  28.916  1.00  0.00    -0.248 NA
ATOM     45  C   UNL A   1      40.063  25.175  27.816  1.00  0.00     0.031 C 
ATOM     46  C   UNL A   1      42.984  27.983  28.983  1.00  0.00     0.029 A 
ATOM     47  N   UNL A   1      41.691  29.408  30.130  1.00  0.00    -0.354 N 
ATOM     48  C   UNL A   1      42.226  24.431  28.020  1.00  0.00     0.074 A 
ATOM     49  C   UNL A   1      40.902  24.176  27.511  1.00  0.00     0.031 C 
ATOM     50  C   UNL A   1      43.798  28.879  29.542  1.00  0.00     0.029 A 
ATOM     51  C   UNL A   1      43.027  29.670  30.470  1.00  0.00     0.049 A 
ATOM     52  H   UNL A   1      40.929  29.993  30.341  1.00  0.00     0.167 HD
ATOM     53  C   UNL A   1      43.485  23.995  27.715  1.00  0.00     0.034 A 
ATOM     54  C   UNL A   1      43.482  30.066  31.687  1.00  0.00     0.034 A 
ATOM     55  C   UNL A   1      44.530  24.623  28.553  1.00  0.00     0.049 A 
ATOM     56  C   UNL A   1      44.111  28.867  32.370  1.00  0.00     0.074 A 
ATOM     57  C   UNL A   1      45.668  25.386  28.355  1.00  0.00     0.029 A 
ATOM     58  N   UNL A   1      44.350  24.599  29.925  1.00  0.00    -0.354 N 
ATOM     59  N   UNL A   1      44.848  27.969  31.766  1.00  0.00    -0.248 NA
ATOM     60  C   UNL A   1      43.807  28.508  33.754  1.00  0.00     0.031 C 
ATOM     61  C   UNL A   1      46.094  25.891  29.634  1.00  0.00     0.029 A 
ATOM     62  C   UNL A   1      45.248  25.394  30.613  1.00  0.00     0.049 A 
ATOM     63  H   UNL A   1      43.651  24.068  30.369  1.00  0.00     0.167 HD
ATOM     64  C   UNL A   1      44.800  26.819  32.524  1.00  0.00     0.074 A 
ATOM     65  C   UNL A   1      44.245  27.240  33.801  1.00  0.00     0.031 C 
ATOM     66  C   UNL A   1      45.047  25.556  32.054  1.00  0.00     0.034 A 
BRANCH  53  67
ATOM     67  C   UNL A   1      43.800  22.984  26.626  1.00  0.00     0.023 A 
ATOM     68  C   UNL A   1      44.682  23.378  25.596  1.00  0.00     0.012 A 
ATOM     69  C   UNL A   1      43.285  21.667  26.532  1.00  0.00     0.148 A 
ATOM     70  C   UNL A   1      45.071  22.505  24.569  1.00  0.00     0.002 A 
ATOM     71  C   UNL A   1      43.758  20.764  25.575  1.00  0.00     0.091 A 
ATOM     72  F   UNL A   1      42.247  21.301  27.293  1.00  0.00    -0.205 F 
ATOM     73  C   UNL A   1      44.643  21.185  24.581  1.00  0.00     0.022 A 
BRANCH  71  74
ATOM     74  S   UNL A   1      43.326  19.014  25.610  1.00  0.00     0.127 S 
ATOM     75  O   UNL A   1      41.913  19.036  25.234  1.00  0.00    -0.237 OA
ATOM     76  O   UNL A   1      44.215  18.448  24.594  1.00  0.00    -0.237 OA
ATOM     77  O   UNL A   1      43.605  18.560  26.967  1.00  0.00    -0.744 OA
ENDBRANCH  71  74
ENDBRANCH  53  67
BRANCH  54  78
ATOM     78  C   UNL A   1      42.686  31.167  32.280  1.00  0.00     0.023 A 
ATOM     79  C   UNL A   1      42.718  32.384  31.557  1.00  0.00     0.012 A 
ATOM     80  C   UNL A   1      41.630  30.933  33.169  1.00  0.00     0.148 A 
ATOM     81  C   UNL A   1      41.668  33.298  31.633  1.00  0.00     0.002 A 
ATOM     82  C   UNL A   1      40.558  31.819  33.192  1.00  0.00     0.091 A 
ATOM     83  F   UNL A   1      41.610  29.773  33.838  1.00  0.00    -0.205 F 
ATOM     84  C   UNL A   1      40.569  32.995  32.424  1.00  0.00     0.022 A 
BRANCH  82  85
ATOM     85  S   UNL A   1      38.976  31.369  33.907  1.00  0.00     0.127 S 
ATOM     86  O   UNL A   1      39.291  31.282  35.328  1.00  0.00    -0.237 OA
ATOM     87  O   UNL A   1      38.166  32.521  33.519  1.00  0.00    -0.237 OA
ATOM     88  O   UNL A   1      38.607  30.120  33.257  1.00  0.00    -0.744 OA
ENDBRANCH  82  85
ENDBRANCH  54  78
BRANCH  66  89
ATOM     89  C   UNL A   1      45.050  24.352  32.986  1.00  0.00     0.023 A 
ATOM     90  C   UNL A   1      43.851  23.632  33.191  1.00  0.00     0.012 A 
ATOM     91  C   UNL A   1      46.154  23.986  33.793  1.00  0.00     0.148 A 
ATOM     92  C   UNL A   1      43.765  22.589  34.119  1.00  0.00     0.002 A 
ATOM     93  C   UNL A   1      46.025  23.038  34.803  1.00  0.00     0.091 A 
ATOM     94  F   UNL A   1      47.364  24.500  33.543  1.00  0.00    -0.205 F 
ATOM     95  C   UNL A   1      44.842  22.314  34.950  1.00  0.00     0.022 A 
BRANCH  93  96
ATOM     96  S   UNL A   1      47.294  22.816  36.061  1.00  0.00     0.127 S 
ATOM     97  O   UNL A   1      47.142  24.037  36.856  1.00  0.00    -0.237 OA
ATOM     98  O   UNL A   1      46.848  21.596  36.727  1.00  0.00    -0.237 OA
ATOM     99  O   UNL A   1      48.553  22.729  35.335  1.00  0.00    -0.744 OA
ENDBRANCH  93  96
ENDBRANCH  66  89
ENDBRANCH  40  41
ENDBRANCH  33  35
ENDBRANCH  32  33
ENDBRANCH  31  32
ENDBRANCH   1  31
TORSDOF 20
ENDMDL
MODEL 3
REMARK VINA RESULT:     -11.4      2.898      3.586
REMARK SMILES Cc1ccccc1C(=O)Nc1ccc(N2CCCCC2)cc1C(=O)OCCOCCOC(=O)c1ccc(-c2c3nc(c(-c4cccc(S(=O)(=O)[O-])c4F)c4ccc([nH]4)c(-c4cccc(S(=O)(=O)[O-])c4F)c4nc(c(-c5cccc(S(=O)(=O)[O-])c5F)c5ccc2[nH]5)C=C4)C=C3)cc1
REMARK SMILES IDX 29 1 28 2 27 3 26 4 25 5 23 6 24 7 22 8 11 9 12 10 13 11
REMARK SMILES IDX 21 12 14 13 10 14 8 15 9 16 7 18 1 19 2 20 3 21 4 22 6 23
REMARK SMILES IDX 5 24 15 25 16 26 20 27 17 28 19 29 18 30 30 31 31 32 32 33
REMARK SMILES IDX 33 34 34 35 35 36 96 37 36 38 95 39 37 40 38 41 39 42 89 43
REMARK SMILES IDX 40 44 94 45 88 46 90 47 41 48 93 49 87 50 86 51 42 53 74 54
REMARK SMILES IDX 54 55 73 56 55 57 58 58 72 59 91 60 56 61 57 62 71 64 92 65
REMARK SMILES IDX 59 66 43 67 44 68 52 69 45 70 47 71 53 72 46 73 48 74 49 75
REMARK SMILES IDX 50 76 51 77 75 78 76 79 84 80 77 81 79 82 85 83 78 84 80 85
REMARK SMILES IDX 81 86 82 87 83 88 60 89 61 90 69 91 62 92 64 93 70 94 63 95
REMARK SMILES IDX 65 96 66 97 67 98 68 99
REMARK H PARENT 10 17 90 52 58 63
REMARK Flexibility Score: inf
ROOT
ATOM      1  C   UNL A   1      33.391  30.277  26.899  1.00  0.00     0.202 C 
ENDROOT
BRANCH   1   2
ATOM      2  O   UNL A   1      32.246  29.461  27.101  1.00  0.00    -0.374 OA
BRANCH   2   3
ATOM      3  C   UNL A   1      32.410  28.071  27.267  1.00  0.00     0.202 C 
BRANCH   3   4
ATOM      4  C   UNL A   1      31.550  27.162  26.406  1.00  0.00     0.261 C 
BRANCH   4   5
ATOM      5  O   UNL A   1      32.304  26.229  25.639  1.00  0.00    -0.460 OA
BRANCH   5   6
ATOM      6  C   UNL A   1      31.546  25.207  25.179  1.00  0.00     0.340 C 
ATOM      7  O   UNL A   1      30.357  25.190  24.996  1.00  0.00    -0.246 OA
BRANCH   6   8
ATOM      8  C   UNL A   1      32.457  24.218  24.593  1.00  0.00     0.085 A 
ATOM      9  C   UNL A   1      32.266  23.949  23.234  1.00  0.00     0.056 A 
ATOM     10  C   UNL A   1      32.993  22.929  22.646  1.00  0.00     0.029 A 
ATOM     11  C   UNL A   1      34.047  22.352  23.351  1.00  0.00     0.028 A 
ATOM     12  C   UNL A   1      33.558  23.688  25.285  1.00  0.00     0.043 A 
ATOM     13  C   UNL A   1      34.421  22.799  24.633  1.00  0.00     0.038 A 
BRANCH   9  14
ATOM     14  N   UNL A   1      31.409  24.753  22.463  1.00  0.00    -0.321 N 
ATOM     15  C   UNL A   1      31.786  25.801  21.648  1.00  0.00     0.255 C 
ATOM     16  O   UNL A   1      31.479  25.807  20.455  1.00  0.00    -0.269 OA
ATOM     17  H   UNL A   1      30.448  24.549  22.509  1.00  0.00     0.170 HD
BRANCH  15  18
ATOM     18  C   UNL A   1      32.215  27.110  22.273  1.00  0.00     0.043 A 
ATOM     19  C   UNL A   1      29.919  28.186  22.771  1.00  0.00     0.045 C 
ATOM     20  C   UNL A   1      31.410  28.130  22.829  1.00  0.00    -0.038 A 
ATOM     21  C   UNL A   1      32.029  29.236  23.457  1.00  0.00     0.004 A 
ATOM     22  C   UNL A   1      33.414  29.362  23.516  1.00  0.00     0.000 A 
ATOM     23  C   UNL A   1      33.616  27.263  22.346  1.00  0.00     0.014 A 
ATOM     24  C   UNL A   1      34.208  28.382  22.942  1.00  0.00     0.001 A 
ENDBRANCH  15  18
ENDBRANCH   9  14
BRANCH  13  25
ATOM     25  N   UNL A   1      35.641  22.391  25.139  1.00  0.00    -0.372 N 
ATOM     26  C   UNL A   1      36.308  23.278  26.098  1.00  0.00     0.116 C 
ATOM     27  C   UNL A   1      36.071  20.999  25.161  1.00  0.00     0.116 C 
ATOM     28  C   UNL A   1      37.803  23.299  25.800  1.00  0.00     0.021 C 
ATOM     29  C   UNL A   1      37.571  20.968  24.839  1.00  0.00     0.021 C 
ATOM     30  C   UNL A   1      38.379  21.884  25.765  1.00  0.00     0.004 C 
ENDBRANCH  13  25
ENDBRANCH   6   8
ENDBRANCH   5   6
ENDBRANCH   4   5
ENDBRANCH   3   4
ENDBRANCH   2   3
ENDBRANCH   1   2
BRANCH   1  31
ATOM     31  C   UNL A   1      33.864  31.265  27.983  1.00  0.00     0.261 C 
BRANCH  31  32
ATOM     32  O   UNL A   1      35.224  31.686  27.783  1.00  0.00    -0.460 OA
BRANCH  32  33
ATOM     33  C   UNL A   1      36.036  31.562  28.882  1.00  0.00     0.338 C 
ATOM     34  O   UNL A   1      36.121  32.395  29.763  1.00  0.00    -0.246 OA
BRANCH  33  35
ATOM     35  C   UNL A   1      36.728  30.237  28.841  1.00  0.00     0.060 A 
ATOM     36  C   UNL A   1      36.754  29.409  29.957  1.00  0.00     0.016 A 
ATOM     37  C   UNL A   1      37.587  29.962  27.788  1.00  0.00     0.016 A 
ATOM     38  C   UNL A   1      37.860  28.575  30.185  1.00  0.00     0.010 A 
ATOM     39  C   UNL A   1      38.711  29.174  28.028  1.00  0.00     0.010 A 
ATOM     40  C   UNL A   1      38.932  28.596  29.292  1.00  0.00    -0.014 A 
BRANCH  40  41
ATOM     41  C   UNL A   1      40.338  28.376  29.722  1.00  0.00     0.031 A 
ATOM     42  C   UNL A   1      41.260  27.401  29.066  1.00  0.00     0.074 A 
ATOM     43  C   UNL A   1      40.948  29.301  30.524  1.00  0.00     0.049 A 
ATOM     44  N   UNL A   1      42.397  27.069  29.593  1.00  0.00    -0.248 NA
ATOM     45  C   UNL A   1      41.011  26.700  27.811  1.00  0.00     0.031 C 
ATOM     46  C   UNL A   1      42.390  29.585  30.560  1.00  0.00     0.029 A 
ATOM     47  N   UNL A   1      40.432  30.221  31.443  1.00  0.00    -0.354 N 
ATOM     48  C   UNL A   1      43.147  26.457  28.619  1.00  0.00     0.074 A 
ATOM     49  C   UNL A   1      42.182  26.077  27.618  1.00  0.00     0.031 C 
ATOM     50  C   UNL A   1      42.671  30.418  31.563  1.00  0.00     0.029 A 
ATOM     51  C   UNL A   1      41.454  30.664  32.296  1.00  0.00     0.049 A 
ATOM     52  H   UNL A   1      39.493  30.512  31.485  1.00  0.00     0.167 HD
ATOM     53  C   UNL A   1      44.511  26.450  28.706  1.00  0.00     0.034 A 
ATOM     54  C   UNL A   1      41.389  30.743  33.651  1.00  0.00     0.034 A 
ATOM     55  C   UNL A   1      45.009  27.001  29.985  1.00  0.00     0.049 A 
ATOM     56  C   UNL A   1      42.156  29.571  34.229  1.00  0.00     0.074 A 
ATOM     57  C   UNL A   1      45.840  28.031  30.393  1.00  0.00     0.029 A 
ATOM     58  N   UNL A   1      44.467  26.496  31.154  1.00  0.00    -0.354 N 
ATOM     59  N   UNL A   1      43.287  29.113  33.753  1.00  0.00    -0.248 NA
ATOM     60  C   UNL A   1      41.609  28.725  35.290  1.00  0.00     0.031 C 
ATOM     61  C   UNL A   1      45.696  28.183  31.817  1.00  0.00     0.029 A 
ATOM     62  C   UNL A   1      44.820  27.214  32.281  1.00  0.00     0.049 A 
ATOM     63  H   UNL A   1      43.886  25.702  31.181  1.00  0.00     0.167 HD
ATOM     64  C   UNL A   1      43.407  27.803  34.163  1.00  0.00     0.074 A 
ATOM     65  C   UNL A   1      42.407  27.649  35.208  1.00  0.00     0.031 C 
ATOM     66  C   UNL A   1      44.178  26.853  33.547  1.00  0.00     0.034 A 
BRANCH  53  67
ATOM     67  C   UNL A   1      45.436  25.946  27.611  1.00  0.00     0.023 A 
ATOM     68  C   UNL A   1      45.625  24.551  27.498  1.00  0.00     0.012 A 
ATOM     69  C   UNL A   1      46.146  26.746  26.681  1.00  0.00     0.148 A 
ATOM     70  C   UNL A   1      46.423  23.983  26.495  1.00  0.00     0.002 A 
ATOM     71  C   UNL A   1      46.850  26.177  25.616  1.00  0.00     0.091 A 
ATOM     72  F   UNL A   1      46.248  28.065  26.878  1.00  0.00    -0.205 F 
ATOM     73  C   UNL A   1      47.003  24.792  25.527  1.00  0.00     0.022 A 
BRANCH  71  74
ATOM     74  S   UNL A   1      47.524  27.171  24.271  1.00  0.00     0.127 S 
ATOM     75  O   UNL A   1      46.342  27.883  23.789  1.00  0.00    -0.237 OA
ATOM     76  O   UNL A   1      48.501  28.015  24.961  1.00  0.00    -0.237 OA
ATOM     77  O   UNL A   1      48.111  26.225  23.329  1.00  0.00    -0.744 OA
ENDBRANCH  71  74
ENDBRANCH  53  67
BRANCH  54  78
ATOM     78  C   UNL A   1      40.142  31.377  34.141  1.00  0.00     0.023 A 
ATOM     79  C   UNL A   1      39.145  30.473  34.582  1.00  0.00     0.012 A 
ATOM     80  C   UNL A   1      40.103  32.703  34.589  1.00  0.00     0.148 A 
ATOM     81  C   UNL A   1      38.197  30.850  35.532  1.00  0.00     0.002 A 
ATOM     82  C   UNL A   1      39.193  33.054  35.581  1.00  0.00     0.091 A 
ATOM     83  F   UNL A   1      41.058  33.543  34.170  1.00  0.00    -0.205 F 
ATOM     84  C   UNL A   1      38.247  32.132  36.060  1.00  0.00     0.022 A 
BRANCH  82  85
ATOM     85  S   UNL A   1      39.383  34.551  36.550  1.00  0.00     0.127 S 
ATOM     86  O   UNL A   1      39.116  35.593  35.566  1.00  0.00    -0.237 OA
ATOM     87  O   UNL A   1      38.337  34.360  37.552  1.00  0.00    -0.237 OA
ATOM     88  O   UNL A   1      40.741  34.497  37.071  1.00  0.00    -0.744 OA
ENDBRANCH  82  85
ENDBRANCH  54  78
BRANCH  66  89
ATOM     89  C   UNL A   1      44.312  25.449  34.121  1.00  0.00     0.023 A 
ATOM     90  C   UNL A   1      43.201  24.578  34.087  1.00  0.00     0.012 A 
ATOM     91  C   UNL A   1      45.449  24.998  34.835  1.00  0.00     0.148 A 
ATOM     92  C   UNL A   1      43.228  23.319  34.698  1.00  0.00     0.002 A 
ATOM     93  C   UNL A   1      45.424  23.804  35.548  1.00  0.00     0.091 A 
ATOM     94  F   UNL A   1      46.594  25.686  34.770  1.00  0.00    -0.205 F 
ATOM     95  C   UNL A   1      44.328  22.946  35.458  1.00  0.00     0.022 A 
BRANCH  93  96
ATOM     96  S   UNL A   1      46.707  23.387  36.741  1.00  0.00     0.127 S 
ATOM     97  O   UNL A   1      46.078  22.293  37.485  1.00  0.00    -0.237 OA
ATOM     98  O   UNL A   1      47.806  22.979  35.870  1.00  0.00    -0.237 OA
ATOM     99  O   UNL A   1      46.922  24.596  37.522  1.00  0.00    -0.744 OA
ENDBRANCH  93  96
ENDBRANCH  66  89
ENDBRANCH  40  41
ENDBRANCH  33  35
ENDBRANCH  32  33
ENDBRANCH  31  32
ENDBRANCH   1  31
TORSDOF 20
ENDMDL
