MODEL 1
REMARK VINA RESULT:     -10.9      0.000      0.000
REMARK SMILES NS(=O)(=O)c1ccc(/N=N/c2ccc(O)c(C(=O)OCCOCCOC(=O)c3ccc(-c4c5nc(c(-c6cccc(S(=O)(=O)[O-])c6F)c6ccc([nH]6)c(-c6cccc(S(=O)(=O)[O-])c6F)c6nc(c(-c7cccc(S(=O)(=O)[O-])c7F)c7ccc4[nH]7)C=C6)C=C5)cc3)c2)cc1
REMARK SMILES IDX 21 1 20 2 19 3 17 4 18 5 16 6 11 7 12 8 91 9 13 10 14 11
REMARK SMILES IDX 10 12 9 13 8 14 5 15 6 16 93 17 7 18 92 19 2 20 3 21 4 22
REMARK SMILES IDX 1 23 15 26 22 28 23 29 24 30 25 31 26 32 27 33 28 34 29 35
REMARK SMILES IDX 90 36 30 37 89 38 31 39 32 40 33 41 83 42 34 43 88 44 82 45
REMARK SMILES IDX 84 46 35 47 87 48 81 49 80 50 36 52 68 53 48 54 67 55 49 56
REMARK SMILES IDX 52 57 66 58 85 59 50 60 51 61 65 63 86 64 53 65 37 66 38 67
REMARK SMILES IDX 46 68 39 69 41 70 47 71 40 72 42 73 43 74 44 75 45 76 69 77
REMARK SMILES IDX 70 78 78 79 71 80 73 81 79 82 72 83 74 84 75 85 76 86 77 87
REMARK SMILES IDX 54 88 55 89 63 90 56 91 58 92 64 93 57 94 59 95 60 96 61 97
REMARK SMILES IDX 62 98
REMARK H PARENT 1 24 1 25 15 27 84 51 52 62
REMARK Flexibility Score: inf
ROOT
ATOM      1  C   UNL A   1      33.487  28.899  26.162  1.00  0.00     0.202 C 
ENDROOT
BRANCH   1   2
ATOM      2  C   UNL A   1      33.132  28.172  24.862  1.00  0.00     0.261 C 
BRANCH   2   3
ATOM      3  O   UNL A   1      31.909  27.432  25.006  1.00  0.00    -0.460 OA
BRANCH   3   4
ATOM      4  C   UNL A   1      32.021  26.250  25.652  1.00  0.00     0.342 C 
ATOM      5  O   UNL A   1      31.422  25.903  26.662  1.00  0.00    -0.246 OA
BRANCH   4   6
ATOM      6  C   UNL A   1      32.809  25.284  24.855  1.00  0.00     0.104 A 
ATOM      7  C   UNL A   1      34.764  23.877  24.511  1.00  0.00     0.087 A 
ATOM      8  C   UNL A   1      34.304  23.588  23.219  1.00  0.00     0.034 A 
ATOM      9  C   UNL A   1      34.011  24.737  25.327  1.00  0.00     0.049 A 
ATOM     10  C   UNL A   1      33.112  24.136  22.742  1.00  0.00     0.049 A 
ATOM     11  C   UNL A   1      32.369  24.979  23.558  1.00  0.00     0.130 A 
BRANCH   7  12
ATOM     12  N   UNL A   1      36.013  23.360  24.902  1.00  0.00    -0.151 NA
ATOM     13  N   UNL A   1      36.060  22.117  24.788  1.00  0.00    -0.151 NA
BRANCH  13  14
ATOM     14  C   UNL A   1      37.318  21.583  25.151  1.00  0.00     0.086 A 
ATOM     15  C   UNL A   1      39.816  20.612  26.018  1.00  0.00     0.082 A 
ATOM     16  C   UNL A   1      39.443  21.925  26.308  1.00  0.00     0.024 A 
ATOM     17  C   UNL A   1      38.964  19.781  25.287  1.00  0.00     0.024 A 
ATOM     18  C   UNL A   1      38.198  22.400  25.875  1.00  0.00     0.031 A 
ATOM     19  C   UNL A   1      37.721  20.265  24.867  1.00  0.00     0.031 A 
BRANCH  15  20
ATOM     20  S   UNL A   1      41.381  19.975  26.540  1.00  0.00     0.238 S 
ATOM     21  O   UNL A   1      42.309  21.079  26.642  1.00  0.00    -0.207 OA
ATOM     22  O   UNL A   1      41.675  18.800  25.751  1.00  0.00    -0.207 OA
BRANCH  20  23
ATOM     23  N   UNL A   1      41.111  19.463  28.105  1.00  0.00    -0.225 NA
ATOM     24  H   UNL A   1      41.460  18.511  28.216  1.00  0.00     0.137 HD
ATOM     25  H   UNL A   1      40.110  19.484  28.301  1.00  0.00     0.137 HD
ENDBRANCH  20  23
ENDBRANCH  15  20
ENDBRANCH  13  14
ENDBRANCH   7  12
BRANCH  11  26
ATOM     26  O   UNL A   1      31.231  25.506  23.004  1.00  0.00    -0.507 OA
ATOM     27  H   UNL A   1      31.172  25.620  22.076  1.00  0.00     0.293 HD
ENDBRANCH  11  26
ENDBRANCH   4   6
ENDBRANCH   3   4
ENDBRANCH   2   3
ENDBRANCH   1   2
BRANCH   1  28
ATOM     28  O   UNL A   1      33.211  30.302  26.173  1.00  0.00    -0.374 OA
BRANCH  28  29
ATOM     29  C   UNL A   1      32.048  30.713  26.899  1.00  0.00     0.202 C 
BRANCH  29  30
ATOM     30  C   UNL A   1      31.871  32.227  27.066  1.00  0.00     0.261 C 
BRANCH  30  31
ATOM     31  O   UNL A   1      33.144  32.895  27.142  1.00  0.00    -0.460 OA
BRANCH  31  32
ATOM     32  C   UNL A   1      33.270  33.794  28.147  1.00  0.00     0.338 C 
ATOM     33  O   UNL A   1      32.492  34.686  28.441  1.00  0.00    -0.246 OA
BRANCH  32  34
ATOM     34  C   UNL A   1      34.417  33.416  28.996  1.00  0.00     0.060 A 
ATOM     35  C   UNL A   1      35.672  33.944  28.664  1.00  0.00     0.016 A 
ATOM     36  C   UNL A   1      34.278  32.547  30.080  1.00  0.00     0.016 A 
ATOM     37  C   UNL A   1      36.799  33.587  29.403  1.00  0.00     0.010 A 
ATOM     38  C   UNL A   1      35.413  32.180  30.811  1.00  0.00     0.010 A 
ATOM     39  C   UNL A   1      36.680  32.681  30.463  1.00  0.00    -0.014 A 
BRANCH  39  40
ATOM     40  C   UNL A   1      37.890  32.185  31.161  1.00  0.00     0.031 A 
ATOM     41  C   UNL A   1      38.644  31.018  30.590  1.00  0.00     0.074 A 
ATOM     42  C   UNL A   1      38.287  32.747  32.318  1.00  0.00     0.049 A 
ATOM     43  N   UNL A   1      39.674  30.380  31.080  1.00  0.00    -0.248 NA
ATOM     44  C   UNL A   1      38.172  30.499  29.296  1.00  0.00     0.031 C 
ATOM     45  C   UNL A   1      37.636  33.882  32.970  1.00  0.00     0.029 A 
ATOM     46  N   UNL A   1      39.313  32.412  33.165  1.00  0.00    -0.354 N 
ATOM     47  C   UNL A   1      39.957  29.366  30.174  1.00  0.00     0.074 A 
ATOM     48  C   UNL A   1      38.989  29.473  29.103  1.00  0.00     0.031 C 
ATOM     49  C   UNL A   1      38.251  34.121  34.141  1.00  0.00     0.029 A 
ATOM     50  C   UNL A   1      39.318  33.140  34.331  1.00  0.00     0.049 A 
ATOM     51  H   UNL A   1      39.980  31.717  32.959  1.00  0.00     0.167 HD
ATOM     52  C   UNL A   1      40.942  28.439  30.222  1.00  0.00     0.034 A 
ATOM     53  C   UNL A   1      40.073  33.007  35.440  1.00  0.00     0.034 A 
ATOM     54  C   UNL A   1      41.915  28.345  31.277  1.00  0.00     0.049 A 
ATOM     55  C   UNL A   1      41.143  31.948  35.483  1.00  0.00     0.074 A 
ATOM     56  C   UNL A   1      42.988  27.478  31.384  1.00  0.00     0.029 A 
ATOM     57  N   UNL A   1      41.921  29.131  32.420  1.00  0.00    -0.354 N 
ATOM     58  N   UNL A   1      41.486  31.084  34.559  1.00  0.00    -0.248 NA
ATOM     59  C   UNL A   1      41.948  31.862  36.712  1.00  0.00     0.031 C 
ATOM     60  C   UNL A   1      43.628  27.722  32.603  1.00  0.00     0.029 A 
ATOM     61  C   UNL A   1      42.967  28.756  33.247  1.00  0.00     0.049 A 
ATOM     62  H   UNL A   1      41.277  29.850  32.614  1.00  0.00     0.167 HD
ATOM     63  C   UNL A   1      42.560  30.370  35.081  1.00  0.00     0.074 A 
ATOM     64  C   UNL A   1      42.827  30.920  36.394  1.00  0.00     0.031 C 
ATOM     65  C   UNL A   1      43.251  29.340  34.532  1.00  0.00     0.034 A 
BRANCH  52  66
ATOM     66  C   UNL A   1      41.036  27.459  29.085  1.00  0.00     0.023 A 
ATOM     67  C   UNL A   1      40.232  26.302  29.094  1.00  0.00     0.012 A 
ATOM     68  C   UNL A   1      41.870  27.714  27.979  1.00  0.00     0.148 A 
ATOM     69  C   UNL A   1      40.274  25.400  28.031  1.00  0.00     0.002 A 
ATOM     70  C   UNL A   1      41.877  26.831  26.906  1.00  0.00     0.091 A 
ATOM     71  F   UNL A   1      42.645  28.807  28.001  1.00  0.00    -0.205 F 
ATOM     72  C   UNL A   1      41.087  25.670  26.933  1.00  0.00     0.022 A 
BRANCH  70  73
ATOM     73  S   UNL A   1      42.837  27.127  25.416  1.00  0.00     0.127 S 
ATOM     74  O   UNL A   1      44.171  27.365  25.969  1.00  0.00    -0.237 OA
ATOM     75  O   UNL A   1      42.692  25.860  24.699  1.00  0.00    -0.237 OA
ATOM     76  O   UNL A   1      42.219  28.271  24.761  1.00  0.00    -0.744 OA
ENDBRANCH  70  73
ENDBRANCH  52  66
BRANCH  53  77
ATOM     77  C   UNL A   1      39.849  33.913  36.601  1.00  0.00     0.023 A 
ATOM     78  C   UNL A   1      40.182  35.277  36.495  1.00  0.00     0.012 A 
ATOM     79  C   UNL A   1      39.286  33.434  37.801  1.00  0.00     0.148 A 
ATOM     80  C   UNL A   1      39.983  36.142  37.573  1.00  0.00     0.002 A 
ATOM     81  C   UNL A   1      39.039  34.310  38.850  1.00  0.00     0.091 A 
ATOM     82  F   UNL A   1      38.996  32.128  37.890  1.00  0.00    -0.205 F 
ATOM     83  C   UNL A   1      39.401  35.662  38.744  1.00  0.00     0.022 A 
BRANCH  81  84
ATOM     84  S   UNL A   1      38.174  33.800  40.340  1.00  0.00     0.127 S 
ATOM     85  O   UNL A   1      36.969  33.184  39.793  1.00  0.00    -0.237 OA
ATOM     86  O   UNL A   1      39.129  32.867  40.941  1.00  0.00    -0.237 OA
ATOM     87  O   UNL A   1      37.965  35.018  41.113  1.00  0.00    -0.744 OA
ENDBRANCH  81  84
ENDBRANCH  53  77
BRANCH  65  88
ATOM     88  C   UNL A   1      44.376  28.742  35.336  1.00  0.00     0.023 A 
ATOM     89  C   UNL A   1      45.681  29.254  35.195  1.00  0.00     0.012 A 
ATOM     90  C   UNL A   1      44.128  27.731  36.286  1.00  0.00     0.148 A 
ATOM     91  C   UNL A   1      46.727  28.751  35.968  1.00  0.00     0.002 A 
ATOM     92  C   UNL A   1      45.167  27.268  37.086  1.00  0.00     0.091 A 
ATOM     93  F   UNL A   1      42.883  27.245  36.393  1.00  0.00    -0.205 F 
ATOM     94  C   UNL A   1      46.469  27.768  36.921  1.00  0.00     0.022 A 
BRANCH  92  95
ATOM     95  S   UNL A   1      44.911  26.070  38.401  1.00  0.00     0.127 S 
ATOM     96  O   UNL A   1      46.227  26.038  39.036  1.00  0.00    -0.237 OA
ATOM     97  O   UNL A   1      43.863  26.705  39.200  1.00  0.00    -0.237 OA
ATOM     98  O   UNL A   1      44.504  24.836  37.744  1.00  0.00    -0.744 OA
ENDBRANCH  92  95
ENDBRANCH  65  88
ENDBRANCH  39  40
ENDBRANCH  32  34
ENDBRANCH  31  32
ENDBRANCH  30  31
ENDBRANCH  29  30
ENDBRANCH  28  29
ENDBRANCH   1  28
TORSDOF 22
ENDMDL
MODEL 2
REMARK VINA RESULT:     -10.9      2.731      8.003
REMARK SMILES NS(=O)(=O)c1ccc(/N=N/c2ccc(O)c(C(=O)OCCOCCOC(=O)c3ccc(-c4c5nc(c(-c6cccc(S(=O)(=O)[O-])c6F)c6ccc([nH]6)c(-c6cccc(S(=O)(=O)[O-])c6F)c6nc(c(-c7cccc(S(=O)(=O)[O-])c7F)c7ccc4[nH]7)C=C6)C=C5)cc3)c2)cc1
REMARK SMILES IDX 21 1 20 2 19 3 17 4 18 5 16 6 11 7 12 8 91 9 13 10 14 11
REMARK SMILES IDX 10 12 9 13 8 14 5 15 6 16 93 17 7 18 92 19 2 20 3 21 4 22
REMARK SMILES IDX 1 23 15 26 22 28 23 29 24 30 25 31 26 32 27 33 28 34 29 35
REMARK SMILES IDX 90 36 30 37 89 38 31 39 32 40 33 41 83 42 34 43 88 44 82 45
REMARK SMILES IDX 84 46 35 47 87 48 81 49 80 50 36 52 68 53 48 54 67 55 49 56
REMARK SMILES IDX 52 57 66 58 85 59 50 60 51 61 65 63 86 64 53 65 37 66 38 67
REMARK SMILES IDX 46 68 39 69 41 70 47 71 40 72 42 73 43 74 44 75 45 76 69 77
REMARK SMILES IDX 70 78 78 79 71 80 73 81 79 82 72 83 74 84 75 85 76 86 77 87
REMARK SMILES IDX 54 88 55 89 63 90 56 91 58 92 64 93 57 94 59 95 60 96 61 97
REMARK SMILES IDX 62 98
REMARK H PARENT 1 24 1 25 15 27 84 51 52 62
REMARK Flexibility Score: inf
ROOT
ATOM      1  C   UNL A   1      31.486  28.161  26.965  1.00  0.00     0.202 C 
ENDROOT
BRANCH   1   2
ATOM      2  C   UNL A   1      32.004  27.743  25.585  1.00  0.00     0.261 C 
BRANCH   2   3
ATOM      3  O   UNL A   1      31.032  28.027  24.566  1.00  0.00    -0.460 OA
BRANCH   3   4
ATOM      4  C   UNL A   1      30.339  26.958  24.114  1.00  0.00     0.342 C 
ATOM      5  O   UNL A   1      29.136  26.758  24.228  1.00  0.00    -0.246 OA
BRANCH   4   6
ATOM      6  C   UNL A   1      31.178  26.119  23.229  1.00  0.00     0.104 A 
ATOM      7  C   UNL A   1      32.152  23.983  22.590  1.00  0.00     0.087 A 
ATOM      8  C   UNL A   1      32.903  24.642  21.608  1.00  0.00     0.034 A 
ATOM      9  C   UNL A   1      31.291  24.732  23.407  1.00  0.00     0.049 A 
ATOM     10  C   UNL A   1      32.801  26.023  21.431  1.00  0.00     0.049 A 
ATOM     11  C   UNL A   1      31.941  26.756  22.239  1.00  0.00     0.130 A 
BRANCH   7  12
ATOM     12  N   UNL A   1      32.362  22.604  22.772  1.00  0.00    -0.151 NA
ATOM     13  N   UNL A   1      33.084  22.369  23.764  1.00  0.00    -0.151 NA
BRANCH  13  14
ATOM     14  C   UNL A   1      33.284  20.985  23.978  1.00  0.00     0.086 A 
ATOM     15  C   UNL A   1      33.623  18.202  24.244  1.00  0.00     0.082 A 
ATOM     16  C   UNL A   1      32.554  18.703  23.501  1.00  0.00     0.024 A 
ATOM     17  C   UNL A   1      34.518  19.073  24.869  1.00  0.00     0.024 A 
ATOM     18  C   UNL A   1      32.393  20.088  23.372  1.00  0.00     0.031 A 
ATOM     19  C   UNL A   1      34.351  20.454  24.727  1.00  0.00     0.031 A 
BRANCH  15  20
ATOM     20  S   UNL A   1      33.860  16.459  24.438  1.00  0.00     0.238 S 
ATOM     21  O   UNL A   1      34.822  16.248  25.496  1.00  0.00    -0.207 OA
ATOM     22  O   UNL A   1      34.028  15.879  23.125  1.00  0.00    -0.207 OA
BRANCH  20  23
ATOM     23  N   UNL A   1      32.401  15.914  25.036  1.00  0.00    -0.225 NA
ATOM     24  H   UNL A   1      31.772  15.706  24.261  1.00  0.00     0.137 HD
ATOM     25  H   UNL A   1      31.985  16.635  25.627  1.00  0.00     0.137 HD
ENDBRANCH  20  23
ENDBRANCH  15  20
ENDBRANCH  13  14
ENDBRANCH   7  12
BRANCH  11  26
ATOM     26  O   UNL A   1      31.924  28.111  22.029  1.00  0.00    -0.507 OA
ATOM     27  H   UNL A   1      31.987  28.451  21.158  1.00  0.00     0.293 HD
ENDBRANCH  11  26
ENDBRANCH   4   6
ENDBRANCH   3   4
ENDBRANCH   2   3
ENDBRANCH   1   2
BRANCH   1  28
ATOM     28  O   UNL A   1      31.707  29.530  27.312  1.00  0.00    -0.374 OA
BRANCH  28  29
ATOM     29  C   UNL A   1      31.581  30.481  26.250  1.00  0.00     0.202 C 
BRANCH  29  30
ATOM     30  C   UNL A   1      31.521  31.952  26.681  1.00  0.00     0.261 C 
BRANCH  30  31
ATOM     31  O   UNL A   1      32.799  32.595  26.515  1.00  0.00    -0.460 OA
BRANCH  31  32
ATOM     32  C   UNL A   1      33.245  33.288  27.590  1.00  0.00     0.338 C 
ATOM     33  O   UNL A   1      32.691  34.220  28.149  1.00  0.00    -0.246 OA
BRANCH  32  34
ATOM     34  C   UNL A   1      34.438  32.615  28.141  1.00  0.00     0.060 A 
ATOM     35  C   UNL A   1      34.322  31.258  28.472  1.00  0.00     0.016 A 
ATOM     36  C   UNL A   1      35.638  33.297  28.353  1.00  0.00     0.016 A 
ATOM     37  C   UNL A   1      35.402  30.582  29.039  1.00  0.00     0.010 A 
ATOM     38  C   UNL A   1      36.715  32.619  28.933  1.00  0.00     0.010 A 
ATOM     39  C   UNL A   1      36.595  31.266  29.298  1.00  0.00    -0.014 A 
BRANCH  39  40
ATOM     40  C   UNL A   1      37.697  30.595  30.028  1.00  0.00     0.031 A 
ATOM     41  C   UNL A   1      37.989  30.993  31.447  1.00  0.00     0.074 A 
ATOM     42  C   UNL A   1      38.456  29.668  29.415  1.00  0.00     0.049 A 
ATOM     43  N   UNL A   1      38.951  30.592  32.236  1.00  0.00    -0.248 NA
ATOM     44  C   UNL A   1      37.077  31.975  32.057  1.00  0.00     0.031 C 
ATOM     45  C   UNL A   1      38.270  29.202  28.042  1.00  0.00     0.029 A 
ATOM     46  N   UNL A   1      39.558  28.982  29.860  1.00  0.00    -0.354 N 
ATOM     47  C   UNL A   1      38.782  31.292  33.424  1.00  0.00     0.074 A 
ATOM     48  C   UNL A   1      37.625  32.145  33.252  1.00  0.00     0.031 C 
ATOM     49  C   UNL A   1      39.255  28.339  27.740  1.00  0.00     0.029 A 
ATOM     50  C   UNL A   1      40.152  28.214  28.887  1.00  0.00     0.049 A 
ATOM     51  H   UNL A   1      39.891  29.036  30.785  1.00  0.00     0.167 HD
ATOM     52  C   UNL A   1      39.516  31.222  34.559  1.00  0.00     0.034 A 
ATOM     53  C   UNL A   1      41.308  27.520  28.908  1.00  0.00     0.034 A 
ATOM     54  C   UNL A   1      40.655  30.362  34.735  1.00  0.00     0.049 A 
ATOM     55  C   UNL A   1      42.124  27.481  30.173  1.00  0.00     0.074 A 
ATOM     56  C   UNL A   1      41.426  30.176  35.869  1.00  0.00     0.029 A 
ATOM     57  N   UNL A   1      41.201  29.560  33.745  1.00  0.00    -0.354 N 
ATOM     58  N   UNL A   1      41.877  28.042  31.332  1.00  0.00    -0.248 NA
ATOM     59  C   UNL A   1      43.366  26.692  30.143  1.00  0.00     0.031 C 
ATOM     60  C   UNL A   1      42.454  29.280  35.557  1.00  0.00     0.029 A 
ATOM     61  C   UNL A   1      42.311  28.891  34.234  1.00  0.00     0.049 A 
ATOM     62  H   UNL A   1      40.850  29.476  32.829  1.00  0.00     0.167 HD
ATOM     63  C   UNL A   1      42.914  27.655  32.174  1.00  0.00     0.074 A 
ATOM     64  C   UNL A   1      43.780  26.791  31.399  1.00  0.00     0.031 C 
ATOM     65  C   UNL A   1      43.140  27.998  33.467  1.00  0.00     0.034 A 
BRANCH  52  66
ATOM     66  C   UNL A   1      39.096  32.085  35.718  1.00  0.00     0.023 A 
ATOM     67  C   UNL A   1      38.221  31.566  36.691  1.00  0.00     0.012 A 
ATOM     68  C   UNL A   1      39.618  33.384  35.877  1.00  0.00     0.148 A 
ATOM     69  C   UNL A   1      37.849  32.335  37.793  1.00  0.00     0.002 A 
ATOM     70  C   UNL A   1      39.274  34.130  36.998  1.00  0.00     0.091 A 
ATOM     71  F   UNL A   1      40.430  33.868  34.927  1.00  0.00    -0.205 F 
ATOM     72  C   UNL A   1      38.384  33.611  37.953  1.00  0.00     0.022 A 
BRANCH  70  73
ATOM     73  S   UNL A   1      39.966  35.755  37.328  1.00  0.00     0.127 S 
ATOM     74  O   UNL A   1      41.382  35.439  37.511  1.00  0.00    -0.237 OA
ATOM     75  O   UNL A   1      39.656  36.478  36.095  1.00  0.00    -0.237 OA
ATOM     76  O   UNL A   1      39.278  36.250  38.513  1.00  0.00    -0.744 OA
ENDBRANCH  70  73
ENDBRANCH  52  66
BRANCH  53  77
ATOM     77  C   UNL A   1      41.756  26.792  27.688  1.00  0.00     0.023 A 
ATOM     78  C   UNL A   1      42.376  27.501  26.641  1.00  0.00     0.012 A 
ATOM     79  C   UNL A   1      41.591  25.398  27.570  1.00  0.00     0.148 A 
ATOM     80  C   UNL A   1      42.799  26.838  25.488  1.00  0.00     0.002 A 
ATOM     81  C   UNL A   1      42.064  24.736  26.445  1.00  0.00     0.091 A 
ATOM     82  F   UNL A   1      40.978  24.743  28.567  1.00  0.00    -0.205 F 
ATOM     83  C   UNL A   1      42.655  25.456  25.395  1.00  0.00     0.022 A 
BRANCH  81  84
ATOM     84  S   UNL A   1      42.035  22.944  26.304  1.00  0.00     0.127 S 
ATOM     85  O   UNL A   1      42.658  22.735  25.000  1.00  0.00    -0.237 OA
ATOM     86  O   UNL A   1      42.848  22.536  27.451  1.00  0.00    -0.237 OA
ATOM     87  O   UNL A   1      40.632  22.562  26.403  1.00  0.00    -0.744 OA
ENDBRANCH  81  84
ENDBRANCH  53  77
BRANCH  65  88
ATOM     88  C   UNL A   1      44.363  27.432  34.140  1.00  0.00     0.023 A 
ATOM     89  C   UNL A   1      45.581  28.137  34.078  1.00  0.00     0.012 A 
ATOM     90  C   UNL A   1      44.289  26.246  34.898  1.00  0.00     0.148 A 
ATOM     91  C   UNL A   1      46.713  27.658  34.737  1.00  0.00     0.002 A 
ATOM     92  C   UNL A   1      45.408  25.800  35.591  1.00  0.00     0.091 A 
ATOM     93  F   UNL A   1      43.125  25.580  34.931  1.00  0.00    -0.205 F 
ATOM     94  C   UNL A   1      46.624  26.498  35.503  1.00  0.00     0.022 A 
BRANCH  92  95
ATOM     95  S   UNL A   1      45.364  24.367  36.675  1.00  0.00     0.127 S 
ATOM     96  O   UNL A   1      44.453  24.817  37.726  1.00  0.00    -0.237 OA
ATOM     97  O   UNL A   1      44.819  23.331  35.798  1.00  0.00    -0.237 OA
ATOM     98  O   UNL A   1      46.740  24.140  37.095  1.00  0.00    -0.744 OA
ENDBRANCH  92  95
ENDBRANCH  65  88
ENDBRANCH  39  40
ENDBRANCH  32  34
ENDBRANCH  31  32
ENDBRANCH  30  31
ENDBRANCH  29  30
ENDBRANCH  28  29
ENDBRANCH   1  28
TORSDOF 22
ENDMDL
MODEL 3
REMARK VINA RESULT:     -10.8      3.954     10.816
REMARK SMILES NS(=O)(=O)c1ccc(/N=N/c2ccc(O)c(C(=O)OCCOCCOC(=O)c3ccc(-c4c5nc(c(-c6cccc(S(=O)(=O)[O-])c6F)c6ccc([nH]6)c(-c6cccc(S(=O)(=O)[O-])c6F)c6nc(c(-c7cccc(S(=O)(=O)[O-])c7F)c7ccc4[nH]7)C=C6)C=C5)cc3)c2)cc1
REMARK SMILES IDX 21 1 20 2 19 3 17 4 18 5 16 6 11 7 12 8 91 9 13 10 14 11
REMARK SMILES IDX 10 12 9 13 8 14 5 15 6 16 93 17 7 18 92 19 2 20 3 21 4 22
REMARK SMILES IDX 1 23 15 26 22 28 23 29 24 30 25 31 26 32 27 33 28 34 29 35
REMARK SMILES IDX 90 36 30 37 89 38 31 39 32 40 33 41 83 42 34 43 88 44 82 45
REMARK SMILES IDX 84 46 35 47 87 48 81 49 80 50 36 52 68 53 48 54 67 55 49 56
REMARK SMILES IDX 52 57 66 58 85 59 50 60 51 61 65 63 86 64 53 65 37 66 38 67
REMARK SMILES IDX 46 68 39 69 41 70 47 71 40 72 42 73 43 74 44 75 45 76 69 77
REMARK SMILES IDX 70 78 78 79 71 80 73 81 79 82 72 83 74 84 75 85 76 86 77 87
REMARK SMILES IDX 54 88 55 89 63 90 56 91 58 92 64 93 57 94 59 95 60 96 61 97
REMARK SMILES IDX 62 98
REMARK H PARENT 1 24 1 25 15 27 84 51 52 62
REMARK Flexibility Score: inf
ROOT
ATOM      1  C   UNL A   1      32.991  35.232  29.848  1.00  0.00     0.202 C 
ENDROOT
BRANCH   1   2
ATOM      2  C   UNL A   1      33.233  35.629  31.307  1.00  0.00     0.261 C 
BRANCH   2   3
ATOM      3  O   UNL A   1      34.589  35.352  31.696  1.00  0.00    -0.460 OA
BRANCH   3   4
ATOM      4  C   UNL A   1      34.747  34.310  32.541  1.00  0.00     0.342 C 
ATOM      5  O   UNL A   1      33.967  33.384  32.724  1.00  0.00    -0.246 OA
BRANCH   4   6
ATOM      6  C   UNL A   1      36.122  34.277  33.088  1.00  0.00     0.104 A 
ATOM      7  C   UNL A   1      38.537  34.420  32.830  1.00  0.00     0.087 A 
ATOM      8  C   UNL A   1      38.683  34.044  34.172  1.00  0.00     0.034 A 
ATOM      9  C   UNL A   1      37.246  34.529  32.288  1.00  0.00     0.049 A 
ATOM     10  C   UNL A   1      37.567  33.785  34.971  1.00  0.00     0.049 A 
ATOM     11  C   UNL A   1      36.294  33.903  34.430  1.00  0.00     0.130 A 
BRANCH   7  12
ATOM     12  N   UNL A   1      39.701  34.585  32.057  1.00  0.00    -0.151 NA
ATOM     13  N   UNL A   1      39.555  34.154  30.894  1.00  0.00    -0.151 NA
BRANCH  13  14
ATOM     14  C   UNL A   1      40.707  34.337  30.095  1.00  0.00     0.086 A 
ATOM     15  C   UNL A   1      43.028  34.531  28.511  1.00  0.00     0.082 A 
ATOM     16  C   UNL A   1      42.959  33.576  29.526  1.00  0.00     0.024 A 
ATOM     17  C   UNL A   1      41.959  35.401  28.285  1.00  0.00     0.024 A 
ATOM     18  C   UNL A   1      41.800  33.484  30.309  1.00  0.00     0.031 A 
ATOM     19  C   UNL A   1      40.805  35.294  29.069  1.00  0.00     0.031 A 
BRANCH  15  20
ATOM     20  S   UNL A   1      44.474  34.685  27.504  1.00  0.00     0.238 S 
ATOM     21  O   UNL A   1      45.623  34.315  28.300  1.00  0.00    -0.207 OA
ATOM     22  O   UNL A   1      44.404  35.948  26.805  1.00  0.00    -0.207 OA
BRANCH  20  23
ATOM     23  N   UNL A   1      44.306  33.479  26.363  1.00  0.00    -0.225 NA
ATOM     24  H   UNL A   1      44.010  33.888  25.477  1.00  0.00     0.137 HD
ATOM     25  H   UNL A   1      43.606  32.808  26.679  1.00  0.00     0.137 HD
ENDBRANCH  20  23
ENDBRANCH  15  20
ENDBRANCH  13  14
ENDBRANCH   7  12
BRANCH  11  26
ATOM     26  O   UNL A   1      35.252  33.596  35.266  1.00  0.00    -0.507 OA
ATOM     27  H   UNL A   1      35.395  33.538  36.191  1.00  0.00     0.293 HD
ENDBRANCH  11  26
ENDBRANCH   4   6
ENDBRANCH   3   4
ENDBRANCH   2   3
ENDBRANCH   1   2
BRANCH   1  28
ATOM     28  O   UNL A   1      33.966  35.705  28.916  1.00  0.00    -0.374 OA
BRANCH  28  29
ATOM     29  C   UNL A   1      34.602  34.711  28.106  1.00  0.00     0.202 C 
BRANCH  29  30
ATOM     30  C   UNL A   1      34.292  33.255  28.476  1.00  0.00     0.261 C 
BRANCH  30  31
ATOM     31  O   UNL A   1      34.823  32.345  27.494  1.00  0.00    -0.460 OA
BRANCH  31  32
ATOM     32  C   UNL A   1      34.569  31.033  27.720  1.00  0.00     0.338 C 
ATOM     33  O   UNL A   1      33.534  30.432  27.487  1.00  0.00    -0.246 OA
BRANCH  32  34
ATOM     34  C   UNL A   1      35.820  30.357  28.114  1.00  0.00     0.060 A 
ATOM     35  C   UNL A   1      35.844  29.711  29.358  1.00  0.00     0.016 A 
ATOM     36  C   UNL A   1      36.954  30.370  27.300  1.00  0.00     0.016 A 
ATOM     37  C   UNL A   1      37.013  29.094  29.803  1.00  0.00     0.010 A 
ATOM     38  C   UNL A   1      38.129  29.762  27.755  1.00  0.00     0.010 A 
ATOM     39  C   UNL A   1      38.169  29.140  29.016  1.00  0.00    -0.014 A 
BRANCH  39  40
ATOM     40  C   UNL A   1      39.452  28.614  29.541  1.00  0.00     0.031 A 
ATOM     41  C   UNL A   1      40.154  29.352  30.644  1.00  0.00     0.074 A 
ATOM     42  C   UNL A   1      40.003  27.507  29.009  1.00  0.00     0.049 A 
ATOM     43  N   UNL A   1      41.317  29.111  31.190  1.00  0.00    -0.248 NA
ATOM     44  C   UNL A   1      39.456  30.521  31.204  1.00  0.00     0.031 C 
ATOM     45  C   UNL A   1      39.416  26.707  27.935  1.00  0.00     0.029 A 
ATOM     46  N   UNL A   1      41.199  26.890  29.277  1.00  0.00    -0.354 N 
ATOM     47  C   UNL A   1      41.507  30.111  32.136  1.00  0.00     0.074 A 
ATOM     48  C   UNL A   1      40.338  30.965  32.088  1.00  0.00     0.031 C 
ATOM     49  C   UNL A   1      40.276  25.730  27.603  1.00  0.00     0.029 A 
ATOM     50  C   UNL A   1      41.481  25.853  28.421  1.00  0.00     0.049 A 
ATOM     51  H   UNL A   1      41.796  27.164  30.010  1.00  0.00     0.167 HD
ATOM     52  C   UNL A   1      42.552  30.294  32.976  1.00  0.00     0.034 A 
ATOM     53  C   UNL A   1      42.599  25.111  28.287  1.00  0.00     0.034 A 
ATOM     54  C   UNL A   1      43.704  29.435  33.034  1.00  0.00     0.049 A 
ATOM     55  C   UNL A   1      43.762  25.353  29.213  1.00  0.00     0.074 A 
ATOM     56  C   UNL A   1      44.785  29.505  33.894  1.00  0.00     0.029 A 
ATOM     57  N   UNL A   1      43.935  28.364  32.186  1.00  0.00    -0.354 N 
ATOM     58  N   UNL A   1      43.870  26.217  30.193  1.00  0.00    -0.248 NA
ATOM     59  C   UNL A   1      44.948  24.502  29.033  1.00  0.00     0.031 C 
ATOM     60  C   UNL A   1      45.685  28.489  33.549  1.00  0.00     0.029 A 
ATOM     61  C   UNL A   1      45.152  27.775  32.487  1.00  0.00     0.049 A 
ATOM     62  H   UNL A   1      43.324  28.064  31.475  1.00  0.00     0.167 HD
ATOM     63  C   UNL A   1      45.120  25.998  30.762  1.00  0.00     0.074 A 
ATOM     64  C   UNL A   1      45.723  24.902  30.033  1.00  0.00     0.031 C 
ATOM     65  C   UNL A   1      45.723  26.656  31.784  1.00  0.00     0.034 A 
BRANCH  52  66
ATOM     66  C   UNL A   1      42.490  31.461  33.924  1.00  0.00     0.023 A 
ATOM     67  C   UNL A   1      43.153  32.660  33.597  1.00  0.00     0.012 A 
ATOM     68  C   UNL A   1      41.726  31.392  35.105  1.00  0.00     0.148 A 
ATOM     69  C   UNL A   1      43.076  33.766  34.442  1.00  0.00     0.002 A 
ATOM     70  C   UNL A   1      41.622  32.511  35.923  1.00  0.00     0.091 A 
ATOM     71  F   UNL A   1      41.124  30.234  35.410  1.00  0.00    -0.205 F 
ATOM     72  C   UNL A   1      42.303  33.695  35.598  1.00  0.00     0.022 A 
BRANCH  70  73
ATOM     73  S   UNL A   1      40.593  32.540  37.395  1.00  0.00     0.127 S 
ATOM     74  O   UNL A   1      41.526  32.059  38.415  1.00  0.00    -0.237 OA
ATOM     75  O   UNL A   1      40.250  33.958  37.503  1.00  0.00    -0.237 OA
ATOM     76  O   UNL A   1      39.467  31.661  37.115  1.00  0.00    -0.744 OA
ENDBRANCH  70  73
ENDBRANCH  52  66
BRANCH  53  77
ATOM     77  C   UNL A   1      42.667  24.057  27.237  1.00  0.00     0.023 A 
ATOM     78  C   UNL A   1      43.369  24.307  26.042  1.00  0.00     0.012 A 
ATOM     79  C   UNL A   1      42.058  22.800  27.426  1.00  0.00     0.148 A 
ATOM     80  C   UNL A   1      43.440  23.333  25.045  1.00  0.00     0.002 A 
ATOM     81  C   UNL A   1      42.180  21.816  26.454  1.00  0.00     0.091 A 
ATOM     82  F   UNL A   1      41.375  22.589  28.561  1.00  0.00    -0.205 F 
ATOM     83  C   UNL A   1      42.857  22.085  25.255  1.00  0.00     0.022 A 
BRANCH  81  84
ATOM     84  S   UNL A   1      41.571  20.144  26.702  1.00  0.00     0.127 S 
ATOM     85  O   UNL A   1      41.898  19.513  25.427  1.00  0.00    -0.237 OA
ATOM     86  O   UNL A   1      42.375  19.693  27.840  1.00  0.00    -0.237 OA
ATOM     87  O   UNL A   1      40.150  20.279  26.995  1.00  0.00    -0.744 OA
ENDBRANCH  81  84
ENDBRANCH  53  77
BRANCH  65  88
ATOM     88  C   UNL A   1      47.102  26.205  32.192  1.00  0.00     0.023 A 
ATOM     89  C   UNL A   1      48.232  26.813  31.611  1.00  0.00     0.012 A 
ATOM     90  C   UNL A   1      47.279  25.241  33.204  1.00  0.00     0.148 A 
ATOM     91  C   UNL A   1      49.517  26.449  32.012  1.00  0.00     0.002 A 
ATOM     92  C   UNL A   1      48.561  24.917  33.631  1.00  0.00     0.091 A 
ATOM     93  F   UNL A   1      46.190  24.662  33.732  1.00  0.00    -0.205 F 
ATOM     94  C   UNL A   1      49.682  25.512  33.028  1.00  0.00     0.022 A 
BRANCH  92  95
ATOM     95  S   UNL A   1      48.867  23.789  34.996  1.00  0.00     0.127 S 
ATOM     96  O   UNL A   1      50.328  23.782  35.055  1.00  0.00    -0.237 OA
ATOM     97  O   UNL A   1      48.215  24.470  36.114  1.00  0.00    -0.237 OA
ATOM     98  O   UNL A   1      48.250  22.525  34.617  1.00  0.00    -0.744 OA
ENDBRANCH  92  95
ENDBRANCH  65  88
ENDBRANCH  39  40
ENDBRANCH  32  34
ENDBRANCH  31  32
ENDBRANCH  30  31
ENDBRANCH  29  30
ENDBRANCH  28  29
ENDBRANCH   1  28
TORSDOF 22
ENDMDL
