MODEL 1
REMARK VINA RESULT:     -11.8      0.000      0.000
REMARK SMILES C[C@H](NC(=O)N1CC[C@@H](C(=O)OCCOCCOC(=O)c2ccc(-c3c4nc(c(-c5cccc(S(=O)(=O)[O-])c5F)c5ccc([nH]5)c(-c5cccc(S(=O)(=O)[O-])c5F)c5nc(c(-c6cccc(S(=O)(=O)[O-])c6F)c6ccc3[nH]6)C=C5)C=C4)cc2)[C@H]1C)c1ccc(Cl)cc1
REMARK SMILES IDX 15 1 14 2 13 3 12 4 10 5 11 6 9 7 6 8 7 9 84 10 8 11 85 12
REMARK SMILES IDX 4 13 3 14 5 16 2 17 1 18 86 19 87 20 92 21 88 22 91 23 89 24
REMARK SMILES IDX 90 25 16 26 17 27 18 28 19 29 20 30 21 31 22 32 83 33 23 34
REMARK SMILES IDX 82 35 24 36 25 37 26 38 76 39 27 40 81 41 75 42 77 43 28 44
REMARK SMILES IDX 80 45 74 46 73 47 29 49 61 50 41 51 60 52 42 53 45 54 59 55
REMARK SMILES IDX 78 56 43 57 44 58 58 60 79 61 46 62 30 63 31 64 39 65 32 66
REMARK SMILES IDX 34 67 40 68 33 69 35 70 36 71 37 72 38 73 62 74 63 75 71 76
REMARK SMILES IDX 64 77 66 78 72 79 65 80 67 81 68 82 69 83 70 84 47 85 48 86
REMARK SMILES IDX 56 87 49 88 51 89 57 90 50 91 52 92 53 93 54 94 55 95
REMARK H PARENT 3 15 77 48 45 59
REMARK Flexibility Score: inf
ROOT
ATOM      1  O   UNL A   1      34.749  19.869  24.881  1.00  0.00    -0.374 OA
ENDROOT
BRANCH   1   2
ATOM      2  C   UNL A   1      33.483  20.245  25.434  1.00  0.00     0.202 C 
BRANCH   2   3
ATOM      3  C   UNL A   1      33.580  21.289  26.559  1.00  0.00     0.261 C 
BRANCH   3   4
ATOM      4  O   UNL A   1      32.824  22.473  26.224  1.00  0.00    -0.463 OA
BRANCH   4   5
ATOM      5  C   UNL A   1      33.516  23.564  25.826  1.00  0.00     0.311 C 
ATOM      6  O   UNL A   1      34.553  23.958  26.347  1.00  0.00    -0.252 OA
BRANCH   5   7
ATOM      7  C   UNL A   1      32.912  24.235  24.608  1.00  0.00     0.123 C 
ATOM      8  N   UNL A   1      32.642  24.727  22.316  1.00  0.00    -0.321 N 
ATOM      9  C   UNL A   1      31.323  24.440  22.901  1.00  0.00     0.122 C 
ATOM     10  C   UNL A   1      33.690  24.281  23.261  1.00  0.00     0.098 C 
ATOM     11  C   UNL A   1      31.572  23.661  24.185  1.00  0.00     0.039 C 
ATOM     12  C   UNL A   1      34.239  22.919  22.842  1.00  0.00     0.032 C 
BRANCH   8  13
ATOM     13  C   UNL A   1      32.695  25.774  21.451  1.00  0.00     0.318 C 
ATOM     14  N   UNL A   1      32.474  27.055  21.750  1.00  0.00    -0.331 N 
ATOM     15  H   UNL A   1      32.254  27.531  20.917  1.00  0.00     0.165 HD
ATOM     16  O   UNL A   1      32.997  25.594  20.263  1.00  0.00    -0.249 OA
BRANCH  14  17
ATOM     17  C   UNL A   1      32.435  28.021  22.850  1.00  0.00     0.111 C 
ATOM     18  C   UNL A   1      33.599  28.980  23.032  1.00  0.00     0.036 C 
BRANCH  17  19
ATOM     19  C   UNL A   1      31.115  28.747  23.061  1.00  0.00    -0.026 A 
ATOM     20  C   UNL A   1      30.085  28.745  22.110  1.00  0.00     0.007 A 
ATOM     21  C   UNL A   1      30.981  29.586  24.189  1.00  0.00     0.007 A 
ATOM     22  C   UNL A   1      28.979  29.592  22.261  1.00  0.00     0.021 A 
ATOM     23  C   UNL A   1      29.883  30.435  24.334  1.00  0.00     0.021 A 
ATOM     24  C   UNL A   1      28.891  30.444  23.360  1.00  0.00     0.041 A 
ATOM     25  Cl  UNL A   1      27.567  31.532  23.508  1.00  0.00    -0.084 Cl
ENDBRANCH  17  19
ENDBRANCH  14  17
ENDBRANCH   8  13
ENDBRANCH   5   7
ENDBRANCH   4   5
ENDBRANCH   3   4
ENDBRANCH   2   3
ENDBRANCH   1   2
BRANCH   1  26
ATOM     26  C   UNL A   1      35.819  20.795  25.065  1.00  0.00     0.202 C 
BRANCH  26  27
ATOM     27  C   UNL A   1      37.209  20.161  25.118  1.00  0.00     0.261 C 
BRANCH  27  28
ATOM     28  O   UNL A   1      38.234  21.171  25.124  1.00  0.00    -0.460 OA
BRANCH  28  29
ATOM     29  C   UNL A   1      39.242  20.943  25.995  1.00  0.00     0.338 C 
ATOM     30  O   UNL A   1      39.811  19.874  26.197  1.00  0.00    -0.246 OA
BRANCH  29  31
ATOM     31  C   UNL A   1      39.691  22.205  26.611  1.00  0.00     0.060 A 
ATOM     32  C   UNL A   1      39.106  23.388  26.145  1.00  0.00     0.016 A 
ATOM     33  C   UNL A   1      40.706  22.251  27.573  1.00  0.00     0.016 A 
ATOM     34  C   UNL A   1      39.567  24.621  26.597  1.00  0.00     0.010 A 
ATOM     35  C   UNL A   1      41.165  23.492  28.027  1.00  0.00     0.010 A 
ATOM     36  C   UNL A   1      40.624  24.684  27.515  1.00  0.00    -0.014 A 
BRANCH  36  37
ATOM     37  C   UNL A   1      41.222  26.000  27.849  1.00  0.00     0.031 A 
ATOM     38  C   UNL A   1      42.630  26.306  27.413  1.00  0.00     0.074 A 
ATOM     39  C   UNL A   1      40.509  26.926  28.515  1.00  0.00     0.049 A 
ATOM     40  N   UNL A   1      43.326  27.401  27.578  1.00  0.00    -0.248 NA
ATOM     41  C   UNL A   1      43.348  25.239  26.695  1.00  0.00     0.031 C 
ATOM     42  C   UNL A   1      39.140  26.751  28.996  1.00  0.00     0.029 A 
ATOM     43  N   UNL A   1      40.849  28.193  28.918  1.00  0.00    -0.354 N 
ATOM     44  C   UNL A   1      44.568  27.151  27.007  1.00  0.00     0.074 A 
ATOM     45  C   UNL A   1      44.536  25.795  26.504  1.00  0.00     0.031 C 
ATOM     46  C   UNL A   1      38.762  27.863  29.650  1.00  0.00     0.029 A 
ATOM     47  C   UNL A   1      39.867  28.819  29.648  1.00  0.00     0.049 A 
ATOM     48  H   UNL A   1      41.713  28.613  28.705  1.00  0.00     0.167 HD
ATOM     49  C   UNL A   1      45.632  27.981  26.891  1.00  0.00     0.034 A 
ATOM     50  C   UNL A   1      39.864  30.022  30.258  1.00  0.00     0.034 A 
ATOM     51  C   UNL A   1      45.657  29.338  27.367  1.00  0.00     0.049 A 
ATOM     52  C   UNL A   1      41.069  30.919  30.131  1.00  0.00     0.074 A 
ATOM     53  C   UNL A   1      46.670  30.273  27.243  1.00  0.00     0.029 A 
ATOM     54  N   UNL A   1      44.631  29.951  28.068  1.00  0.00    -0.354 N 
ATOM     55  N   UNL A   1      42.181  30.720  29.465  1.00  0.00    -0.248 NA
ATOM     56  C   UNL A   1      41.004  32.222  30.810  1.00  0.00     0.031 C 
ATOM     57  C   UNL A   1      46.264  31.446  27.888  1.00  0.00     0.029 A 
ATOM     58  C   UNL A   1      44.990  31.247  28.396  1.00  0.00     0.049 A 
ATOM     59  H   UNL A   1      43.773  29.528  28.298  1.00  0.00     0.167 HD
ATOM     60  C   UNL A   1      42.932  31.881  29.617  1.00  0.00     0.074 A 
ATOM     61  C   UNL A   1      42.139  32.789  30.420  1.00  0.00     0.031 C 
ATOM     62  C   UNL A   1      44.171  32.164  29.146  1.00  0.00     0.034 A 
BRANCH  49  63
ATOM     63  C   UNL A   1      46.852  27.457  26.184  1.00  0.00     0.023 A 
ATOM     64  C   UNL A   1      47.013  27.700  24.804  1.00  0.00     0.012 A 
ATOM     65  C   UNL A   1      47.866  26.781  26.891  1.00  0.00     0.148 A 
ATOM     66  C   UNL A   1      48.151  27.257  24.134  1.00  0.00     0.002 A 
ATOM     67  C   UNL A   1      49.015  26.376  26.223  1.00  0.00     0.091 A 
ATOM     68  F   UNL A   1      47.682  26.538  28.196  1.00  0.00    -0.205 F 
ATOM     69  C   UNL A   1      49.155  26.604  24.844  1.00  0.00     0.022 A 
BRANCH  67  70
ATOM     70  S   UNL A   1      50.395  25.590  27.064  1.00  0.00     0.127 S 
ATOM     71  O   UNL A   1      49.768  24.376  27.587  1.00  0.00    -0.237 OA
ATOM     72  O   UNL A   1      51.340  25.366  25.970  1.00  0.00    -0.237 OA
ATOM     73  O   UNL A   1      50.845  26.545  28.067  1.00  0.00    -0.744 OA
ENDBRANCH  67  70
ENDBRANCH  49  63
BRANCH  50  74
ATOM     74  C   UNL A   1      38.659  30.469  31.011  1.00  0.00     0.023 A 
ATOM     75  C   UNL A   1      38.576  30.228  32.396  1.00  0.00     0.012 A 
ATOM     76  C   UNL A   1      37.607  31.149  30.367  1.00  0.00     0.148 A 
ATOM     77  C   UNL A   1      37.453  30.631  33.120  1.00  0.00     0.002 A 
ATOM     78  C   UNL A   1      36.518  31.597  31.105  1.00  0.00     0.091 A 
ATOM     79  F   UNL A   1      37.695  31.351  29.045  1.00  0.00    -0.205 F 
ATOM     80  C   UNL A   1      36.431  31.324  32.478  1.00  0.00     0.022 A 
BRANCH  78  81
ATOM     81  S   UNL A   1      35.224  32.614  30.385  1.00  0.00     0.127 S 
ATOM     82  O   UNL A   1      34.780  31.787  29.266  1.00  0.00    -0.237 OA
ATOM     83  O   UNL A   1      34.270  32.720  31.490  1.00  0.00    -0.237 OA
ATOM     84  O   UNL A   1      35.868  33.872  30.032  1.00  0.00    -0.744 OA
ENDBRANCH  78  81
ENDBRANCH  50  74
BRANCH  62  85
ATOM     85  C   UNL A   1      44.749  33.522  29.456  1.00  0.00     0.023 A 
ATOM     86  C   UNL A   1      45.551  33.693  30.601  1.00  0.00     0.012 A 
ATOM     87  C   UNL A   1      44.568  34.603  28.570  1.00  0.00     0.148 A 
ATOM     88  C   UNL A   1      46.142  34.926  30.875  1.00  0.00     0.002 A 
ATOM     89  C   UNL A   1      45.198  35.816  28.826  1.00  0.00     0.091 A 
ATOM     90  F   UNL A   1      43.787  34.427  27.495  1.00  0.00    -0.205 F 
ATOM     91  C   UNL A   1      45.975  35.983  29.983  1.00  0.00     0.022 A 
BRANCH  89  92
ATOM     92  S   UNL A   1      45.114  37.202  27.685  1.00  0.00     0.127 S 
ATOM     93  O   UNL A   1      45.698  36.627  26.474  1.00  0.00    -0.237 OA
ATOM     94  O   UNL A   1      43.675  37.456  27.606  1.00  0.00    -0.237 OA
ATOM     95  O   UNL A   1      45.882  38.276  28.303  1.00  0.00    -0.744 OA
ENDBRANCH  89  92
ENDBRANCH  62  85
ENDBRANCH  36  37
ENDBRANCH  29  31
ENDBRANCH  28  29
ENDBRANCH  27  28
ENDBRANCH  26  27
ENDBRANCH   1  26
TORSDOF 20
ENDMDL
MODEL 2
REMARK VINA RESULT:     -11.1      5.126     10.593
REMARK SMILES C[C@H](NC(=O)N1CC[C@@H](C(=O)OCCOCCOC(=O)c2ccc(-c3c4nc(c(-c5cccc(S(=O)(=O)[O-])c5F)c5ccc([nH]5)c(-c5cccc(S(=O)(=O)[O-])c5F)c5nc(c(-c6cccc(S(=O)(=O)[O-])c6F)c6ccc3[nH]6)C=C5)C=C4)cc2)[C@H]1C)c1ccc(Cl)cc1
REMARK SMILES IDX 15 1 14 2 13 3 12 4 10 5 11 6 9 7 6 8 7 9 84 10 8 11 85 12
REMARK SMILES IDX 4 13 3 14 5 16 2 17 1 18 86 19 87 20 92 21 88 22 91 23 89 24
REMARK SMILES IDX 90 25 16 26 17 27 18 28 19 29 20 30 21 31 22 32 83 33 23 34
REMARK SMILES IDX 82 35 24 36 25 37 26 38 76 39 27 40 81 41 75 42 77 43 28 44
REMARK SMILES IDX 80 45 74 46 73 47 29 49 61 50 41 51 60 52 42 53 45 54 59 55
REMARK SMILES IDX 78 56 43 57 44 58 58 60 79 61 46 62 30 63 31 64 39 65 32 66
REMARK SMILES IDX 34 67 40 68 33 69 35 70 36 71 37 72 38 73 62 74 63 75 71 76
REMARK SMILES IDX 64 77 66 78 72 79 65 80 67 81 68 82 69 83 70 84 47 85 48 86
REMARK SMILES IDX 56 87 49 88 51 89 57 90 50 91 52 92 53 93 54 94 55 95
REMARK H PARENT 3 15 77 48 45 59
REMARK Flexibility Score: inf
ROOT
ATOM      1  O   UNL A   1      31.423  29.481  24.255  1.00  0.00    -0.374 OA
ENDROOT
BRANCH   1   2
ATOM      2  C   UNL A   1      30.189  29.230  23.574  1.00  0.00     0.202 C 
BRANCH   2   3
ATOM      3  C   UNL A   1      30.305  28.207  22.432  1.00  0.00     0.261 C 
BRANCH   3   4
ATOM      4  O   UNL A   1      30.976  27.010  22.882  1.00  0.00    -0.463 OA
BRANCH   4   5
ATOM      5  C   UNL A   1      30.351  26.258  23.815  1.00  0.00     0.311 C 
ATOM      6  O   UNL A   1      29.135  26.155  23.925  1.00  0.00    -0.252 OA
BRANCH   5   7
ATOM      7  C   UNL A   1      31.314  25.486  24.694  1.00  0.00     0.123 C 
ATOM      8  N   UNL A   1      32.827  23.766  25.263  1.00  0.00    -0.321 N 
ATOM      9  C   UNL A   1      33.421  25.062  25.625  1.00  0.00     0.122 C 
ATOM     10  C   UNL A   1      31.667  24.005  24.374  1.00  0.00     0.098 C 
ATOM     11  C   UNL A   1      32.687  26.123  24.817  1.00  0.00     0.039 C 
ATOM     12  C   UNL A   1      32.061  23.786  22.915  1.00  0.00     0.032 C 
BRANCH   8  13
ATOM     13  C   UNL A   1      32.989  22.763  26.166  1.00  0.00     0.318 C 
ATOM     14  N   UNL A   1      33.420  21.529  25.904  1.00  0.00    -0.331 N 
ATOM     15  H   UNL A   1      33.132  20.941  26.640  1.00  0.00     0.165 HD
ATOM     16  O   UNL A   1      32.757  22.956  27.367  1.00  0.00    -0.249 OA
BRANCH  14  17
ATOM     17  C   UNL A   1      34.159  20.717  24.935  1.00  0.00     0.111 C 
ATOM     18  C   UNL A   1      35.665  20.884  24.829  1.00  0.00     0.036 C 
BRANCH  17  19
ATOM     19  C   UNL A   1      33.785  19.244  24.867  1.00  0.00    -0.026 A 
ATOM     20  C   UNL A   1      32.535  18.757  25.273  1.00  0.00     0.007 A 
ATOM     21  C   UNL A   1      34.789  18.310  24.531  1.00  0.00     0.007 A 
ATOM     22  C   UNL A   1      32.313  17.378  25.385  1.00  0.00     0.021 A 
ATOM     23  C   UNL A   1      34.569  16.937  24.650  1.00  0.00     0.021 A 
ATOM     24  C   UNL A   1      33.334  16.476  25.090  1.00  0.00     0.041 A 
ATOM     25  Cl  UNL A   1      33.082  14.787  25.293  1.00  0.00    -0.084 Cl
ENDBRANCH  17  19
ENDBRANCH  14  17
ENDBRANCH   8  13
ENDBRANCH   5   7
ENDBRANCH   4   5
ENDBRANCH   3   4
ENDBRANCH   2   3
ENDBRANCH   1   2
BRANCH   1  26
ATOM     26  C   UNL A   1      31.345  29.620  25.673  1.00  0.00     0.202 C 
BRANCH  26  27
ATOM     27  C   UNL A   1      31.765  30.991  26.204  1.00  0.00     0.261 C 
BRANCH  27  28
ATOM     28  O   UNL A   1      32.686  30.857  27.301  1.00  0.00    -0.460 OA
BRANCH  28  29
ATOM     29  C   UNL A   1      33.501  31.920  27.483  1.00  0.00     0.338 C 
ATOM     30  O   UNL A   1      33.196  33.105  27.382  1.00  0.00    -0.246 OA
BRANCH  29  31
ATOM     31  C   UNL A   1      34.824  31.484  27.967  1.00  0.00     0.060 A 
ATOM     32  C   UNL A   1      34.973  30.129  28.286  1.00  0.00     0.016 A 
ATOM     33  C   UNL A   1      35.880  32.378  28.171  1.00  0.00     0.016 A 
ATOM     34  C   UNL A   1      36.157  29.673  28.860  1.00  0.00     0.010 A 
ATOM     35  C   UNL A   1      37.070  31.915  28.745  1.00  0.00     0.010 A 
ATOM     36  C   UNL A   1      37.201  30.568  29.126  1.00  0.00    -0.014 A 
BRANCH  36  37
ATOM     37  C   UNL A   1      38.380  30.105  29.898  1.00  0.00     0.031 A 
ATOM     38  C   UNL A   1      38.600  30.619  31.296  1.00  0.00     0.074 A 
ATOM     39  C   UNL A   1      39.237  29.214  29.367  1.00  0.00     0.049 A 
ATOM     40  N   UNL A   1      39.547  30.320  32.146  1.00  0.00    -0.248 NA
ATOM     41  C   UNL A   1      37.622  31.597  31.802  1.00  0.00     0.031 C 
ATOM     42  C   UNL A   1      39.138  28.644  28.025  1.00  0.00     0.029 A 
ATOM     43  N   UNL A   1      40.372  28.647  29.892  1.00  0.00    -0.354 N 
ATOM     44  C   UNL A   1      39.296  31.086  33.278  1.00  0.00     0.074 A 
ATOM     45  C   UNL A   1      38.116  31.875  33.001  1.00  0.00     0.031 C 
ATOM     46  C   UNL A   1      40.183  27.824  27.822  1.00  0.00     0.029 A 
ATOM     47  C   UNL A   1      41.032  27.824  29.011  1.00  0.00     0.049 A 
ATOM     48  H   UNL A   1      40.682  28.814  30.811  1.00  0.00     0.167 HD
ATOM     49  C   UNL A   1      39.973  31.114  34.451  1.00  0.00     0.034 A 
ATOM     50  C   UNL A   1      42.196  27.157  29.144  1.00  0.00     0.034 A 
ATOM     51  C   UNL A   1      41.131  30.311  34.738  1.00  0.00     0.049 A 
ATOM     52  C   UNL A   1      42.941  27.221  30.453  1.00  0.00     0.074 A 
ATOM     53  C   UNL A   1      41.849  30.230  35.919  1.00  0.00     0.029 A 
ATOM     54  N   UNL A   1      41.750  29.461  33.836  1.00  0.00    -0.354 N 
ATOM     55  N   UNL A   1      42.612  27.840  31.561  1.00  0.00    -0.248 NA
ATOM     56  C   UNL A   1      44.200  26.467  30.541  1.00  0.00     0.031 C 
ATOM     57  C   UNL A   1      42.915  29.346  35.724  1.00  0.00     0.029 A 
ATOM     58  C   UNL A   1      42.848  28.861  34.427  1.00  0.00     0.049 A 
ATOM     59  H   UNL A   1      41.452  29.306  32.911  1.00  0.00     0.167 HD
ATOM     60  C   UNL A   1      43.602  27.523  32.485  1.00  0.00     0.074 A 
ATOM     61  C   UNL A   1      44.532  26.639  31.814  1.00  0.00     0.031 C 
ATOM     62  C   UNL A   1      43.737  27.937  33.769  1.00  0.00     0.034 A 
BRANCH  49  63
ATOM     63  C   UNL A   1      39.453  32.019  35.534  1.00  0.00     0.023 A 
ATOM     64  C   UNL A   1      38.539  31.513  36.482  1.00  0.00     0.012 A 
ATOM     65  C   UNL A   1      39.913  33.345  35.655  1.00  0.00     0.148 A 
ATOM     66  C   UNL A   1      38.071  32.321  37.517  1.00  0.00     0.002 A 
ATOM     67  C   UNL A   1      39.470  34.132  36.712  1.00  0.00     0.091 A 
ATOM     68  F   UNL A   1      40.762  33.814  34.730  1.00  0.00    -0.205 F 
ATOM     69  C   UNL A   1      38.543  33.625  37.637  1.00  0.00     0.022 A 
BRANCH  67  70
ATOM     70  S   UNL A   1      40.075  35.801  36.992  1.00  0.00     0.127 S 
ATOM     71  O   UNL A   1      39.627  36.483  35.778  1.00  0.00    -0.237 OA
ATOM     72  O   UNL A   1      39.361  36.189  38.209  1.00  0.00    -0.237 OA
ATOM     73  O   UNL A   1      41.517  35.681  37.149  1.00  0.00    -0.744 OA
ENDBRANCH  67  70
ENDBRANCH  49  63
BRANCH  50  74
ATOM     74  C   UNL A   1      42.711  26.331  28.016  1.00  0.00     0.023 A 
ATOM     75  C   UNL A   1      43.597  26.904  27.083  1.00  0.00     0.012 A 
ATOM     76  C   UNL A   1      42.345  24.979  27.875  1.00  0.00     0.148 A 
ATOM     77  C   UNL A   1      44.086  26.152  26.014  1.00  0.00     0.002 A 
ATOM     78  C   UNL A   1      42.879  24.220  26.840  1.00  0.00     0.091 A 
ATOM     79  F   UNL A   1      41.485  24.457  28.761  1.00  0.00    -0.205 F 
ATOM     80  C   UNL A   1      43.737  24.809  25.899  1.00  0.00     0.022 A 
BRANCH  78  81
ATOM     81  S   UNL A   1      42.590  22.453  26.697  1.00  0.00     0.127 S 
ATOM     82  O   UNL A   1      41.245  22.414  26.128  1.00  0.00    -0.237 OA
ATOM     83  O   UNL A   1      43.658  22.043  25.785  1.00  0.00    -0.237 OA
ATOM     84  O   UNL A   1      42.726  21.926  28.048  1.00  0.00    -0.744 OA
ENDBRANCH  78  81
ENDBRANCH  50  74
BRANCH  62  85
ATOM     85  C   UNL A   1      44.916  27.423  34.555  1.00  0.00     0.023 A 
ATOM     86  C   UNL A   1      46.128  28.142  34.544  1.00  0.00     0.012 A 
ATOM     87  C   UNL A   1      44.797  26.280  35.371  1.00  0.00     0.148 A 
ATOM     88  C   UNL A   1      47.212  27.715  35.310  1.00  0.00     0.002 A 
ATOM     89  C   UNL A   1      45.868  25.887  36.166  1.00  0.00     0.091 A 
ATOM     90  F   UNL A   1      43.643  25.599  35.355  1.00  0.00    -0.205 F 
ATOM     91  C   UNL A   1      47.079  26.595  36.129  1.00  0.00     0.022 A 
BRANCH  89  92
ATOM     92  S   UNL A   1      45.754  24.514  37.320  1.00  0.00     0.127 S 
ATOM     93  O   UNL A   1      44.695  24.967  38.221  1.00  0.00    -0.237 OA
ATOM     94  O   UNL A   1      45.376  23.402  36.447  1.00  0.00    -0.237 OA
ATOM     95  O   UNL A   1      47.076  24.385  37.920  1.00  0.00    -0.744 OA
ENDBRANCH  89  92
ENDBRANCH  62  85
ENDBRANCH  36  37
ENDBRANCH  29  31
ENDBRANCH  28  29
ENDBRANCH  27  28
ENDBRANCH  26  27
ENDBRANCH   1  26
TORSDOF 20
ENDMDL
MODEL 3
REMARK VINA RESULT:     -10.9      5.155     10.347
REMARK SMILES C[C@H](NC(=O)N1CC[C@@H](C(=O)OCCOCCOC(=O)c2ccc(-c3c4nc(c(-c5cccc(S(=O)(=O)[O-])c5F)c5ccc([nH]5)c(-c5cccc(S(=O)(=O)[O-])c5F)c5nc(c(-c6cccc(S(=O)(=O)[O-])c6F)c6ccc3[nH]6)C=C5)C=C4)cc2)[C@H]1C)c1ccc(Cl)cc1
REMARK SMILES IDX 15 1 14 2 13 3 12 4 10 5 11 6 9 7 6 8 7 9 84 10 8 11 85 12
REMARK SMILES IDX 4 13 3 14 5 16 2 17 1 18 86 19 87 20 92 21 88 22 91 23 89 24
REMARK SMILES IDX 90 25 16 26 17 27 18 28 19 29 20 30 21 31 22 32 83 33 23 34
REMARK SMILES IDX 82 35 24 36 25 37 26 38 76 39 27 40 81 41 75 42 77 43 28 44
REMARK SMILES IDX 80 45 74 46 73 47 29 49 61 50 41 51 60 52 42 53 45 54 59 55
REMARK SMILES IDX 78 56 43 57 44 58 58 60 79 61 46 62 30 63 31 64 39 65 32 66
REMARK SMILES IDX 34 67 40 68 33 69 35 70 36 71 37 72 38 73 62 74 63 75 71 76
REMARK SMILES IDX 64 77 66 78 72 79 65 80 67 81 68 82 69 83 70 84 47 85 48 86
REMARK SMILES IDX 56 87 49 88 51 89 57 90 50 91 52 92 53 93 54 94 55 95
REMARK H PARENT 3 15 77 48 45 59
REMARK Flexibility Score: inf
ROOT
ATOM      1  O   UNL A   1      31.602  30.054  24.341  1.00  0.00    -0.374 OA
ENDROOT
BRANCH   1   2
ATOM      2  C   UNL A   1      30.322  29.696  23.810  1.00  0.00     0.202 C 
BRANCH   2   3
ATOM      3  C   UNL A   1      30.378  28.592  22.740  1.00  0.00     0.261 C 
BRANCH   3   4
ATOM      4  O   UNL A   1      31.446  27.661  23.020  1.00  0.00    -0.463 OA
BRANCH   4   5
ATOM      5  C   UNL A   1      31.242  26.364  22.700  1.00  0.00     0.311 C 
ATOM      6  O   UNL A   1      31.431  25.884  21.588  1.00  0.00    -0.252 OA
BRANCH   5   7
ATOM      7  C   UNL A   1      30.808  25.523  23.884  1.00  0.00     0.123 C 
ATOM      8  N   UNL A   1      31.080  24.219  25.832  1.00  0.00    -0.321 N 
ATOM      9  C   UNL A   1      30.042  25.232  26.078  1.00  0.00     0.122 C 
ATOM     10  C   UNL A   1      31.818  24.582  24.601  1.00  0.00     0.098 C 
ATOM     11  C   UNL A   1      30.244  26.329  25.041  1.00  0.00     0.039 C 
ATOM     12  C   UNL A   1      33.133  25.274  24.953  1.00  0.00     0.032 C 
BRANCH   8  13
ATOM     13  C   UNL A   1      30.822  22.973  26.309  1.00  0.00     0.318 C 
ATOM     14  N   UNL A   1      31.322  21.830  25.838  1.00  0.00    -0.331 N 
ATOM     15  H   UNL A   1      30.736  21.096  26.132  1.00  0.00     0.165 HD
ATOM     16  O   UNL A   1      30.080  22.816  27.289  1.00  0.00    -0.249 OA
BRANCH  14  17
ATOM     17  C   UNL A   1      32.413  21.255  25.049  1.00  0.00     0.111 C 
ATOM     18  C   UNL A   1      32.227  21.074  23.553  1.00  0.00     0.036 C 
BRANCH  17  19
ATOM     19  C   UNL A   1      33.809  21.782  25.348  1.00  0.00    -0.026 A 
ATOM     20  C   UNL A   1      34.204  22.209  26.623  1.00  0.00     0.007 A 
ATOM     21  C   UNL A   1      34.691  21.999  24.267  1.00  0.00     0.007 A 
ATOM     22  C   UNL A   1      35.425  22.874  26.802  1.00  0.00     0.021 A 
ATOM     23  C   UNL A   1      35.903  22.668  24.445  1.00  0.00     0.021 A 
ATOM     24  C   UNL A   1      36.259  23.115  25.712  1.00  0.00     0.041 A 
ATOM     25  Cl  UNL A   1      37.724  23.992  25.921  1.00  0.00    -0.084 Cl
ENDBRANCH  17  19
ENDBRANCH  14  17
ENDBRANCH   8  13
ENDBRANCH   5   7
ENDBRANCH   4   5
ENDBRANCH   3   4
ENDBRANCH   2   3
ENDBRANCH   1   2
BRANCH   1  26
ATOM     26  C   UNL A   1      31.788  29.841  25.739  1.00  0.00     0.202 C 
BRANCH  26  27
ATOM     27  C   UNL A   1      32.979  30.585  26.345  1.00  0.00     0.261 C 
BRANCH  27  28
ATOM     28  O   UNL A   1      32.546  31.510  27.358  1.00  0.00    -0.460 OA
BRANCH  28  29
ATOM     29  C   UNL A   1      33.432  32.492  27.639  1.00  0.00     0.338 C 
ATOM     30  O   UNL A   1      33.200  33.697  27.688  1.00  0.00    -0.246 OA
BRANCH  29  31
ATOM     31  C   UNL A   1      34.735  31.921  28.024  1.00  0.00     0.060 A 
ATOM     32  C   UNL A   1      34.741  30.607  28.505  1.00  0.00     0.016 A 
ATOM     33  C   UNL A   1      35.920  32.664  27.985  1.00  0.00     0.016 A 
ATOM     34  C   UNL A   1      35.917  30.048  28.998  1.00  0.00     0.010 A 
ATOM     35  C   UNL A   1      37.101  32.099  28.478  1.00  0.00     0.010 A 
ATOM     36  C   UNL A   1      37.098  30.801  29.021  1.00  0.00    -0.014 A 
BRANCH  36  37
ATOM     37  C   UNL A   1      38.294  30.260  29.710  1.00  0.00     0.031 A 
ATOM     38  C   UNL A   1      38.615  30.717  31.108  1.00  0.00     0.074 A 
ATOM     39  C   UNL A   1      39.078  29.349  29.105  1.00  0.00     0.049 A 
ATOM     40  N   UNL A   1      39.593  30.348  31.894  1.00  0.00    -0.248 NA
ATOM     41  C   UNL A   1      37.715  31.722  31.699  1.00  0.00     0.031 C 
ATOM     42  C   UNL A   1      38.879  28.829  27.754  1.00  0.00     0.029 A 
ATOM     43  N   UNL A   1      40.212  28.714  29.548  1.00  0.00    -0.354 N 
ATOM     44  C   UNL A   1      39.441  31.087  33.061  1.00  0.00     0.074 A 
ATOM     45  C   UNL A   1      38.286  31.938  32.875  1.00  0.00     0.031 C 
ATOM     46  C   UNL A   1      39.871  27.969  27.467  1.00  0.00     0.029 A 
ATOM     47  C   UNL A   1      40.784  27.892  28.606  1.00  0.00     0.049 A 
ATOM     48  H   UNL A   1      40.581  28.837  30.452  1.00  0.00     0.167 HD
ATOM     49  C   UNL A   1      40.183  31.046  34.194  1.00  0.00     0.034 A 
ATOM     50  C   UNL A   1      41.921  27.168  28.652  1.00  0.00     0.034 A 
ATOM     51  C   UNL A   1      41.316  30.183  34.391  1.00  0.00     0.049 A 
ATOM     52  C   UNL A   1      42.739  27.156  29.919  1.00  0.00     0.074 A 
ATOM     53  C   UNL A   1      42.093  30.031  35.526  1.00  0.00     0.029 A 
ATOM     54  N   UNL A   1      41.843  29.335  33.430  1.00  0.00    -0.354 N 
ATOM     55  N   UNL A   1      42.501  27.752  31.062  1.00  0.00    -0.248 NA
ATOM     56  C   UNL A   1      43.964  26.343  29.912  1.00  0.00     0.031 C 
ATOM     57  C   UNL A   1      43.103  29.106  35.244  1.00  0.00     0.029 A 
ATOM     58  C   UNL A   1      42.943  28.667  33.939  1.00  0.00     0.049 A 
ATOM     59  H   UNL A   1      41.487  29.224  32.519  1.00  0.00     0.167 HD
ATOM     60  C   UNL A   1      43.524  27.361  31.919  1.00  0.00     0.074 A 
ATOM     61  C   UNL A   1      44.374  26.458  31.169  1.00  0.00     0.031 C 
ATOM     62  C   UNL A   1      43.749  27.727  33.205  1.00  0.00     0.034 A 
BRANCH  49  63
ATOM     63  C   UNL A   1      39.766  31.938  35.332  1.00  0.00     0.023 A 
ATOM     64  C   UNL A   1      40.196  33.280  35.354  1.00  0.00     0.012 A 
ATOM     65  C   UNL A   1      38.903  31.470  36.342  1.00  0.00     0.148 A 
ATOM     66  C   UNL A   1      39.794  34.137  36.378  1.00  0.00     0.002 A 
ATOM     67  C   UNL A   1      38.476  32.340  37.338  1.00  0.00     0.091 A 
ATOM     68  F   UNL A   1      38.526  30.184  36.316  1.00  0.00    -0.205 F 
ATOM     69  C   UNL A   1      38.927  33.671  37.363  1.00  0.00     0.022 A 
BRANCH  67  70
ATOM     70  S   UNL A   1      37.305  31.852  38.610  1.00  0.00     0.127 S 
ATOM     71  O   UNL A   1      38.065  32.124  39.830  1.00  0.00    -0.237 OA
ATOM     72  O   UNL A   1      36.187  32.766  38.371  1.00  0.00    -0.237 OA
ATOM     73  O   UNL A   1      37.004  30.450  38.357  1.00  0.00    -0.744 OA
ENDBRANCH  67  70
ENDBRANCH  49  63
BRANCH  50  74
ATOM     74  C   UNL A   1      42.333  26.358  27.473  1.00  0.00     0.023 A 
ATOM     75  C   UNL A   1      43.072  26.963  26.438  1.00  0.00     0.012 A 
ATOM     76  C   UNL A   1      42.016  24.989  27.381  1.00  0.00     0.148 A 
ATOM     77  C   UNL A   1      43.462  26.225  25.319  1.00  0.00     0.002 A 
ATOM     78  C   UNL A   1      42.456  24.247  26.291  1.00  0.00     0.091 A 
ATOM     79  F   UNL A   1      41.295  24.436  28.366  1.00  0.00    -0.205 F 
ATOM     80  C   UNL A   1      43.165  24.867  25.251  1.00  0.00     0.022 A 
BRANCH  78  81
ATOM     81  S   UNL A   1      42.234  22.468  26.189  1.00  0.00     0.127 S 
ATOM     82  O   UNL A   1      40.780  22.348  26.140  1.00  0.00    -0.237 OA
ATOM     83  O   UNL A   1      42.923  22.147  24.938  1.00  0.00    -0.237 OA
ATOM     84  O   UNL A   1      42.879  21.926  27.378  1.00  0.00    -0.744 OA
ENDBRANCH  78  81
ENDBRANCH  50  74
BRANCH  62  85
ATOM     85  C   UNL A   1      44.945  27.134  33.907  1.00  0.00     0.023 A 
ATOM     86  C   UNL A   1      46.180  27.809  33.869  1.00  0.00     0.012 A 
ATOM     87  C   UNL A   1      44.822  25.958  34.674  1.00  0.00     0.148 A 
ATOM     88  C   UNL A   1      47.283  27.308  34.559  1.00  0.00     0.002 A 
ATOM     89  C   UNL A   1      45.914  25.489  35.396  1.00  0.00     0.091 A 
ATOM     90  F   UNL A   1      43.643  25.319  34.683  1.00  0.00    -0.205 F 
ATOM     91  C   UNL A   1      47.148  26.156  35.332  1.00  0.00     0.022 A 
BRANCH  89  92
ATOM     92  S   UNL A   1      45.804  24.067  36.489  1.00  0.00     0.127 S 
ATOM     93  O   UNL A   1      47.100  24.110  37.166  1.00  0.00    -0.237 OA
ATOM     94  O   UNL A   1      44.662  24.413  37.337  1.00  0.00    -0.237 OA
ATOM     95  O   UNL A   1      45.585  22.914  35.625  1.00  0.00    -0.744 OA
ENDBRANCH  89  92
ENDBRANCH  62  85
ENDBRANCH  36  37
ENDBRANCH  29  31
ENDBRANCH  28  29
ENDBRANCH  27  28
ENDBRANCH  26  27
ENDBRANCH   1  26
TORSDOF 20
ENDMDL
