MODEL 1
REMARK VINA RESULT:     -11.4      0.000      0.000
REMARK SMILES O=C(CCc1ccccc1)Nc1ccccc1Oc1ccsc1C(=O)OCCOCCOC(=O)c1ccc(-c2c3nc(c(-c4cccc(S(=O)(=O)[O-])c4F)c4ccc([nH]4)c(-c4cccc(S(=O)(=O)[O-])c4F)c4nc(c(-c5cccc(S(=O)(=O)[O-])c5F)c5ccc2[nH]5)C=C4)C=C3)cc1
REMARK SMILES IDX 27 1 26 2 24 3 25 4 23 5 19 6 20 7 21 8 22 9 18 10 17 11
REMARK SMILES IDX 12 12 13 13 14 14 16 15 15 16 11 17 1 18 2 19 3 21 4 22 5 23
REMARK SMILES IDX 6 24 10 25 7 26 9 27 8 28 28 29 29 30 30 31 31 32 32 33
REMARK SMILES IDX 33 34 34 35 35 36 36 37 97 38 37 39 96 40 38 41 39 42 40 43
REMARK SMILES IDX 90 44 41 45 95 46 89 47 91 48 42 49 94 50 88 51 87 52 43 54
REMARK SMILES IDX 75 55 55 56 74 57 56 58 59 59 73 60 92 61 57 62 58 63 72 65
REMARK SMILES IDX 93 66 60 67 44 68 45 69 53 70 46 71 48 72 54 73 47 74 49 75
REMARK SMILES IDX 50 76 51 77 52 78 76 79 77 80 85 81 78 82 80 83 86 84 79 85
REMARK SMILES IDX 81 86 82 87 83 88 84 89 61 90 62 91 70 92 63 93 65 94 71 95
REMARK SMILES IDX 64 96 66 97 67 98 68 99 69 100
REMARK H PARENT 11 20 91 53 59 64
REMARK Flexibility Score: inf
ROOT
ATOM      1  C   UNL A   1      35.229  23.056  23.764  1.00  0.00     0.261 C 
ENDROOT
BRANCH   1   2
ATOM      2  O   UNL A   1      34.754  24.376  24.083  1.00  0.00    -0.459 OA
BRANCH   2   3
ATOM      3  C   UNL A   1      33.536  24.736  23.597  1.00  0.00     0.352 C 
ATOM      4  O   UNL A   1      33.310  24.928  22.400  1.00  0.00    -0.245 OA
BRANCH   3   5
ATOM      5  C   UNL A   1      32.561  24.885  24.664  1.00  0.00     0.155 A 
ATOM      6  C   UNL A   1      32.406  25.855  25.643  1.00  0.00     0.152 A 
ATOM      7  C   UNL A   1      31.235  25.642  26.439  1.00  0.00     0.060 A 
ATOM      8  C   UNL A   1      30.612  24.452  26.136  1.00  0.00     0.070 A 
ATOM      9  S   UNL A   1      31.372  23.647  24.840  1.00  0.00    -0.133 S 
BRANCH   6  10
ATOM     10  O   UNL A   1      33.300  26.869  25.758  1.00  0.00    -0.453 OA
BRANCH  10  11
ATOM     11  C   UNL A   1      32.979  28.161  26.108  1.00  0.00     0.151 A 
ATOM     12  C   UNL A   1      31.960  28.956  25.550  1.00  0.00     0.084 A 
ATOM     13  C   UNL A   1      31.783  30.271  26.004  1.00  0.00     0.030 A 
ATOM     14  C   UNL A   1      32.545  30.765  27.064  1.00  0.00     0.002 A 
ATOM     15  C   UNL A   1      33.754  28.679  27.156  1.00  0.00     0.049 A 
ATOM     16  C   UNL A   1      33.531  29.970  27.640  1.00  0.00     0.004 A 
BRANCH  12  17
ATOM     17  N   UNL A   1      31.075  28.523  24.540  1.00  0.00    -0.323 N 
ATOM     18  O   UNL A   1      32.569  28.570  22.797  1.00  0.00    -0.275 OA
ATOM     19  C   UNL A   1      31.417  28.497  23.208  1.00  0.00     0.224 C 
ATOM     20  H   UNL A   1      30.174  28.225  24.800  1.00  0.00     0.170 HD
BRANCH  19  21
ATOM     21  C   UNL A   1      30.277  28.327  22.229  1.00  0.00     0.105 C 
BRANCH  21  22
ATOM     22  C   UNL A   1      28.925  28.697  22.830  1.00  0.00     0.045 C 
BRANCH  22  23
ATOM     23  C   UNL A   1      28.561  30.128  22.525  1.00  0.00    -0.048 A 
ATOM     24  C   UNL A   1      28.851  31.140  23.449  1.00  0.00     0.004 A 
ATOM     25  C   UNL A   1      28.062  30.476  21.260  1.00  0.00     0.004 A 
ATOM     26  C   UNL A   1      28.692  32.479  23.093  1.00  0.00     0.000 A 
ATOM     27  C   UNL A   1      27.917  31.815  20.904  1.00  0.00     0.000 A 
ATOM     28  C   UNL A   1      28.240  32.815  21.818  1.00  0.00     0.000 A 
ENDBRANCH  22  23
ENDBRANCH  21  22
ENDBRANCH  19  21
ENDBRANCH  12  17
ENDBRANCH  10  11
ENDBRANCH   6  10
ENDBRANCH   3   5
ENDBRANCH   2   3
ENDBRANCH   1   2
BRANCH   1  29
ATOM     29  C   UNL A   1      34.677  22.016  24.738  1.00  0.00     0.202 C 
BRANCH  29  30
ATOM     30  O   UNL A   1      35.582  20.954  25.051  1.00  0.00    -0.374 OA
BRANCH  30  31
ATOM     31  C   UNL A   1      36.932  21.188  24.635  1.00  0.00     0.202 C 
BRANCH  31  32
ATOM     32  C   UNL A   1      37.948  20.176  25.190  1.00  0.00     0.261 C 
BRANCH  32  33
ATOM     33  O   UNL A   1      39.272  20.738  25.251  1.00  0.00    -0.460 OA
BRANCH  33  34
ATOM     34  C   UNL A   1      39.905  20.608  26.437  1.00  0.00     0.338 C 
ATOM     35  O   UNL A   1      40.315  19.578  26.948  1.00  0.00    -0.246 OA
BRANCH  34  36
ATOM     36  C   UNL A   1      40.229  21.944  26.978  1.00  0.00     0.060 A 
ATOM     37  C   UNL A   1      39.603  23.042  26.372  1.00  0.00     0.016 A 
ATOM     38  C   UNL A   1      41.156  22.135  28.004  1.00  0.00     0.016 A 
ATOM     39  C   UNL A   1      39.945  24.338  26.747  1.00  0.00     0.010 A 
ATOM     40  C   UNL A   1      41.507  23.440  28.373  1.00  0.00     0.010 A 
ATOM     41  C   UNL A   1      40.933  24.547  27.719  1.00  0.00    -0.014 A 
BRANCH  41  42
ATOM     42  C   UNL A   1      41.461  25.916  27.939  1.00  0.00     0.031 A 
ATOM     43  C   UNL A   1      42.836  26.257  27.435  1.00  0.00     0.074 A 
ATOM     44  C   UNL A   1      40.723  26.851  28.565  1.00  0.00     0.049 A 
ATOM     45  N   UNL A   1      43.509  27.373  27.553  1.00  0.00    -0.248 NA
ATOM     46  C   UNL A   1      43.551  25.199  26.702  1.00  0.00     0.031 C 
ATOM     47  C   UNL A   1      39.372  26.650  29.085  1.00  0.00     0.029 A 
ATOM     48  N   UNL A   1      41.023  28.151  28.891  1.00  0.00    -0.354 N 
ATOM     49  C   UNL A   1      44.733  27.145  26.934  1.00  0.00     0.074 A 
ATOM     50  C   UNL A   1      44.716  25.779  26.455  1.00  0.00     0.031 C 
ATOM     51  C   UNL A   1      38.972  27.776  29.700  1.00  0.00     0.029 A 
ATOM     52  C   UNL A   1      40.048  28.765  29.640  1.00  0.00     0.049 A 
ATOM     53  H   UNL A   1      41.855  28.599  28.616  1.00  0.00     0.167 HD
ATOM     54  C   UNL A   1      45.771  27.997  26.765  1.00  0.00     0.034 A 
ATOM     55  C   UNL A   1      40.037  29.976  30.235  1.00  0.00     0.034 A 
ATOM     56  C   UNL A   1      45.781  29.359  27.225  1.00  0.00     0.049 A 
ATOM     57  C   UNL A   1      41.218  30.896  30.065  1.00  0.00     0.074 A 
ATOM     58  C   UNL A   1      46.772  30.313  27.068  1.00  0.00     0.029 A 
ATOM     59  N   UNL A   1      44.759  29.961  27.943  1.00  0.00    -0.354 N 
ATOM     60  N   UNL A   1      42.323  30.704  29.387  1.00  0.00    -0.248 NA
ATOM     61  C   UNL A   1      41.136  32.214  30.714  1.00  0.00     0.031 C 
ATOM     62  C   UNL A   1      46.360  31.482  27.714  1.00  0.00     0.029 A 
ATOM     63  C   UNL A   1      45.100  31.267  28.248  1.00  0.00     0.049 A 
ATOM     64  H   UNL A   1      43.915  29.522  28.198  1.00  0.00     0.167 HD
ATOM     65  C   UNL A   1      43.052  31.884  29.499  1.00  0.00     0.074 A 
ATOM     66  C   UNL A   1      42.255  32.792  30.297  1.00  0.00     0.031 C 
ATOM     67  C   UNL A   1      44.275  32.183  28.995  1.00  0.00     0.034 A 
BRANCH  54  68
ATOM     68  C   UNL A   1      46.981  27.484  26.028  1.00  0.00     0.023 A 
ATOM     69  C   UNL A   1      47.102  27.710  24.643  1.00  0.00     0.012 A 
ATOM     70  C   UNL A   1      48.018  26.822  26.714  1.00  0.00     0.148 A 
ATOM     71  C   UNL A   1      48.218  27.253  23.943  1.00  0.00     0.002 A 
ATOM     72  C   UNL A   1      49.148  26.408  26.018  1.00  0.00     0.091 A 
ATOM     73  F   UNL A   1      47.876  26.596  28.028  1.00  0.00    -0.205 F 
ATOM     74  C   UNL A   1      49.245  26.613  24.632  1.00  0.00     0.022 A 
BRANCH  72  75
ATOM     75  S   UNL A   1      50.556  25.644  26.830  1.00  0.00     0.127 S 
ATOM     76  O   UNL A   1      49.941  24.467  27.442  1.00  0.00    -0.237 OA
ATOM     77  O   UNL A   1      51.443  25.352  25.703  1.00  0.00    -0.237 OA
ATOM     78  O   UNL A   1      51.069  26.639  27.762  1.00  0.00    -0.744 OA
ENDBRANCH  72  75
ENDBRANCH  54  68
BRANCH  55  79
ATOM     79  C   UNL A   1      38.855  30.390  31.043  1.00  0.00     0.023 A 
ATOM     80  C   UNL A   1      38.779  30.039  32.404  1.00  0.00     0.012 A 
ATOM     81  C   UNL A   1      37.818  31.153  30.470  1.00  0.00     0.148 A 
ATOM     82  C   UNL A   1      37.679  30.419  33.174  1.00  0.00     0.002 A 
ATOM     83  C   UNL A   1      36.754  31.576  31.256  1.00  0.00     0.091 A 
ATOM     84  F   UNL A   1      37.901  31.460  29.168  1.00  0.00    -0.205 F 
ATOM     85  C   UNL A   1      36.673  31.196  32.605  1.00  0.00     0.022 A 
BRANCH  83  86
ATOM     86  S   UNL A   1      35.482  32.684  30.638  1.00  0.00     0.127 S 
ATOM     87  O   UNL A   1      34.385  32.431  31.567  1.00  0.00    -0.237 OA
ATOM     88  O   UNL A   1      36.126  33.991  30.784  1.00  0.00    -0.237 OA
ATOM     89  O   UNL A   1      35.247  32.283  29.258  1.00  0.00    -0.744 OA
ENDBRANCH  83  86
ENDBRANCH  55  79
BRANCH  67  90
ATOM     90  C   UNL A   1      44.828  33.562  29.246  1.00  0.00     0.023 A 
ATOM     91  C   UNL A   1      45.566  33.819  30.419  1.00  0.00     0.012 A 
ATOM     92  C   UNL A   1      44.702  34.574  28.273  1.00  0.00     0.148 A 
ATOM     93  C   UNL A   1      46.150  35.068  30.629  1.00  0.00     0.002 A 
ATOM     94  C   UNL A   1      45.326  35.801  28.468  1.00  0.00     0.091 A 
ATOM     95  F   UNL A   1      43.981  34.314  27.173  1.00  0.00    -0.205 F 
ATOM     96  C   UNL A   1      46.041  36.052  29.649  1.00  0.00     0.022 A 
BRANCH  94  97
ATOM     97  S   UNL A   1      45.323  37.096  27.221  1.00  0.00     0.127 S 
ATOM     98  O   UNL A   1      46.016  38.178  27.917  1.00  0.00    -0.237 OA
ATOM     99  O   UNL A   1      46.086  36.480  26.136  1.00  0.00    -0.237 OA
ATOM    100  O   UNL A   1      43.923  37.351  26.910  1.00  0.00    -0.744 OA
ENDBRANCH  94  97
ENDBRANCH  67  90
ENDBRANCH  41  42
ENDBRANCH  34  36
ENDBRANCH  33  34
ENDBRANCH  32  33
ENDBRANCH  31  32
ENDBRANCH  30  31
ENDBRANCH  29  30
ENDBRANCH   1  29
TORSDOF 23
ENDMDL
MODEL 2
REMARK VINA RESULT:     -11.2      1.776      3.527
REMARK SMILES O=C(CCc1ccccc1)Nc1ccccc1Oc1ccsc1C(=O)OCCOCCOC(=O)c1ccc(-c2c3nc(c(-c4cccc(S(=O)(=O)[O-])c4F)c4ccc([nH]4)c(-c4cccc(S(=O)(=O)[O-])c4F)c4nc(c(-c5cccc(S(=O)(=O)[O-])c5F)c5ccc2[nH]5)C=C4)C=C3)cc1
REMARK SMILES IDX 27 1 26 2 24 3 25 4 23 5 19 6 20 7 21 8 22 9 18 10 17 11
REMARK SMILES IDX 12 12 13 13 14 14 16 15 15 16 11 17 1 18 2 19 3 21 4 22 5 23
REMARK SMILES IDX 6 24 10 25 7 26 9 27 8 28 28 29 29 30 30 31 31 32 32 33
REMARK SMILES IDX 33 34 34 35 35 36 36 37 97 38 37 39 96 40 38 41 39 42 40 43
REMARK SMILES IDX 90 44 41 45 95 46 89 47 91 48 42 49 94 50 88 51 87 52 43 54
REMARK SMILES IDX 75 55 55 56 74 57 56 58 59 59 73 60 92 61 57 62 58 63 72 65
REMARK SMILES IDX 93 66 60 67 44 68 45 69 53 70 46 71 48 72 54 73 47 74 49 75
REMARK SMILES IDX 50 76 51 77 52 78 76 79 77 80 85 81 78 82 80 83 86 84 79 85
REMARK SMILES IDX 81 86 82 87 83 88 84 89 61 90 62 91 70 92 63 93 65 94 71 95
REMARK SMILES IDX 64 96 66 97 67 98 68 99 69 100
REMARK H PARENT 11 20 91 53 59 64
REMARK Flexibility Score: inf
ROOT
ATOM      1  C   UNL A   1      36.509  22.996  23.321  1.00  0.00     0.261 C 
ENDROOT
BRANCH   1   2
ATOM      2  O   UNL A   1      35.166  23.462  23.094  1.00  0.00    -0.459 OA
BRANCH   2   3
ATOM      3  C   UNL A   1      34.734  24.510  23.844  1.00  0.00     0.352 C 
ATOM      4  O   UNL A   1      35.135  24.740  24.988  1.00  0.00    -0.245 OA
BRANCH   3   5
ATOM      5  C   UNL A   1      33.736  25.294  23.138  1.00  0.00     0.155 A 
ATOM      6  C   UNL A   1      33.324  26.611  23.284  1.00  0.00     0.152 A 
ATOM      7  C   UNL A   1      32.360  26.991  22.296  1.00  0.00     0.060 A 
ATOM      8  C   UNL A   1      31.966  25.926  21.519  1.00  0.00     0.070 A 
ATOM      9  S   UNL A   1      32.820  24.503  21.908  1.00  0.00    -0.133 S 
BRANCH   6  10
ATOM     10  O   UNL A   1      33.837  27.389  24.269  1.00  0.00    -0.453 OA
BRANCH  10  11
ATOM     11  C   UNL A   1      33.110  27.911  25.315  1.00  0.00     0.151 A 
ATOM     12  C   UNL A   1      32.423  27.186  26.307  1.00  0.00     0.084 A 
ATOM     13  C   UNL A   1      31.702  27.876  27.292  1.00  0.00     0.030 A 
ATOM     14  C   UNL A   1      31.734  29.271  27.350  1.00  0.00     0.002 A 
ATOM     15  C   UNL A   1      33.114  29.313  25.372  1.00  0.00     0.049 A 
ATOM     16  C   UNL A   1      32.439  29.989  26.389  1.00  0.00     0.004 A 
BRANCH  12  17
ATOM     17  N   UNL A   1      32.401  25.778  26.392  1.00  0.00    -0.323 N 
ATOM     18  O   UNL A   1      30.137  25.499  26.144  1.00  0.00    -0.275 OA
ATOM     19  C   UNL A   1      31.237  25.050  26.444  1.00  0.00     0.224 C 
ATOM     20  H   UNL A   1      33.259  25.295  26.415  1.00  0.00     0.170 HD
BRANCH  19  21
ATOM     21  C   UNL A   1      31.371  23.602  26.861  1.00  0.00     0.105 C 
BRANCH  21  22
ATOM     22  C   UNL A   1      32.803  23.090  26.756  1.00  0.00     0.045 C 
BRANCH  22  23
ATOM     23  C   UNL A   1      32.910  21.950  25.775  1.00  0.00    -0.048 A 
ATOM     24  C   UNL A   1      33.500  20.741  26.163  1.00  0.00     0.004 A 
ATOM     25  C   UNL A   1      32.294  22.041  24.517  1.00  0.00     0.004 A 
ATOM     26  C   UNL A   1      33.429  19.627  25.327  1.00  0.00     0.000 A 
ATOM     27  C   UNL A   1      32.213  20.923  23.690  1.00  0.00     0.000 A 
ATOM     28  C   UNL A   1      32.774  19.716  24.100  1.00  0.00     0.000 A 
ENDBRANCH  22  23
ENDBRANCH  21  22
ENDBRANCH  19  21
ENDBRANCH  12  17
ENDBRANCH  10  11
ENDBRANCH   6  10
ENDBRANCH   3   5
ENDBRANCH   2   3
ENDBRANCH   1   2
BRANCH   1  29
ATOM     29  C   UNL A   1      36.540  21.875  24.359  1.00  0.00     0.202 C 
BRANCH  29  30
ATOM     30  O   UNL A   1      37.310  20.732  23.978  1.00  0.00    -0.374 OA
BRANCH  30  31
ATOM     31  C   UNL A   1      37.298  19.667  24.934  1.00  0.00     0.202 C 
BRANCH  31  32
ATOM     32  C   UNL A   1      38.682  19.319  25.507  1.00  0.00     0.261 C 
BRANCH  32  33
ATOM     33  O   UNL A   1      39.489  20.497  25.689  1.00  0.00    -0.460 OA
BRANCH  33  34
ATOM     34  C   UNL A   1      40.390  20.435  26.694  1.00  0.00     0.338 C 
ATOM     35  O   UNL A   1      41.037  19.462  27.048  1.00  0.00    -0.246 OA
BRANCH  34  36
ATOM     36  C   UNL A   1      40.656  21.793  27.210  1.00  0.00     0.060 A 
ATOM     37  C   UNL A   1      40.003  22.854  26.568  1.00  0.00     0.016 A 
ATOM     38  C   UNL A   1      41.556  22.041  28.249  1.00  0.00     0.016 A 
ATOM     39  C   UNL A   1      40.291  24.170  26.920  1.00  0.00     0.010 A 
ATOM     40  C   UNL A   1      41.852  23.365  28.594  1.00  0.00     0.010 A 
ATOM     41  C   UNL A   1      41.251  24.436  27.905  1.00  0.00    -0.014 A 
BRANCH  41  42
ATOM     42  C   UNL A   1      41.726  25.828  28.104  1.00  0.00     0.031 A 
ATOM     43  C   UNL A   1      43.113  26.197  27.655  1.00  0.00     0.074 A 
ATOM     44  C   UNL A   1      40.930  26.758  28.662  1.00  0.00     0.049 A 
ATOM     45  N   UNL A   1      43.745  27.336  27.767  1.00  0.00    -0.248 NA
ATOM     46  C   UNL A   1      43.895  25.139  26.993  1.00  0.00     0.031 C 
ATOM     47  C   UNL A   1      39.562  26.531  29.123  1.00  0.00     0.029 A 
ATOM     48  N   UNL A   1      41.173  28.077  28.957  1.00  0.00    -0.354 N 
ATOM     49  C   UNL A   1      45.004  27.129  27.216  1.00  0.00     0.074 A 
ATOM     50  C   UNL A   1      45.052  25.748  26.783  1.00  0.00     0.031 C 
ATOM     51  C   UNL A   1      39.098  27.663  29.679  1.00  0.00     0.029 A 
ATOM     52  C   UNL A   1      40.145  28.683  29.638  1.00  0.00     0.049 A 
ATOM     53  H   UNL A   1      42.004  28.542  28.707  1.00  0.00     0.167 HD
ATOM     54  C   UNL A   1      46.022  28.008  27.068  1.00  0.00     0.034 A 
ATOM     55  C   UNL A   1      40.067  29.912  30.190  1.00  0.00     0.034 A 
ATOM     56  C   UNL A   1      45.968  29.384  27.481  1.00  0.00     0.049 A 
ATOM     57  C   UNL A   1      41.226  30.864  30.045  1.00  0.00     0.074 A 
ATOM     58  C   UNL A   1      46.936  30.363  27.340  1.00  0.00     0.029 A 
ATOM     59  N   UNL A   1      44.894  29.975  28.128  1.00  0.00    -0.354 N 
ATOM     60  N   UNL A   1      42.369  30.685  29.429  1.00  0.00    -0.248 NA
ATOM     61  C   UNL A   1      41.073  32.199  30.646  1.00  0.00     0.031 C 
ATOM     62  C   UNL A   1      46.457  31.539  27.926  1.00  0.00     0.029 A 
ATOM     63  C   UNL A   1      45.179  31.301  28.405  1.00  0.00     0.049 A 
ATOM     64  H   UNL A   1      44.053  29.518  28.357  1.00  0.00     0.167 HD
ATOM     65  C   UNL A   1      43.055  31.891  29.535  1.00  0.00     0.074 A 
ATOM     66  C   UNL A   1      42.193  32.799  30.263  1.00  0.00     0.031 C 
ATOM     67  C   UNL A   1      44.291  32.213  29.080  1.00  0.00     0.034 A 
BRANCH  54  68
ATOM     68  C   UNL A   1      47.282  27.511  26.407  1.00  0.00     0.023 A 
ATOM     69  C   UNL A   1      47.543  27.842  25.063  1.00  0.00     0.012 A 
ATOM     70  C   UNL A   1      48.228  26.757  27.129  1.00  0.00     0.148 A 
ATOM     71  C   UNL A   1      48.707  27.402  24.435  1.00  0.00     0.002 A 
ATOM     72  C   UNL A   1      49.407  26.359  26.511  1.00  0.00     0.091 A 
ATOM     73  F   UNL A   1      47.953  26.433  28.401  1.00  0.00    -0.205 F 
ATOM     74  C   UNL A   1      49.643  26.671  25.162  1.00  0.00     0.022 A 
BRANCH  72  75
ATOM     75  S   UNL A   1      50.707  25.480  27.384  1.00  0.00     0.127 S 
ATOM     76  O   UNL A   1      50.006  24.275  27.823  1.00  0.00    -0.237 OA
ATOM     77  O   UNL A   1      51.696  25.260  26.329  1.00  0.00    -0.237 OA
ATOM     78  O   UNL A   1      51.147  26.371  28.449  1.00  0.00    -0.744 OA
ENDBRANCH  72  75
ENDBRANCH  54  68
BRANCH  55  79
ATOM     79  C   UNL A   1      38.835  30.313  30.926  1.00  0.00     0.023 A 
ATOM     80  C   UNL A   1      38.709  30.016  32.296  1.00  0.00     0.012 A 
ATOM     81  C   UNL A   1      37.798  31.011  30.275  1.00  0.00     0.148 A 
ATOM     82  C   UNL A   1      37.562  30.386  33.000  1.00  0.00     0.002 A 
ATOM     83  C   UNL A   1      36.684  31.425  30.994  1.00  0.00     0.091 A 
ATOM     84  F   UNL A   1      37.930  31.266  28.966  1.00  0.00    -0.205 F 
ATOM     85  C   UNL A   1      36.555  31.099  32.353  1.00  0.00     0.022 A 
BRANCH  83  86
ATOM     86  S   UNL A   1      35.403  32.457  30.273  1.00  0.00     0.127 S 
ATOM     87  O   UNL A   1      36.134  33.689  29.988  1.00  0.00    -0.237 OA
ATOM     88  O   UNL A   1      35.020  31.680  29.092  1.00  0.00    -0.237 OA
ATOM     89  O   UNL A   1      34.363  32.559  31.287  1.00  0.00    -0.744 OA
ENDBRANCH  83  86
ENDBRANCH  55  79
BRANCH  67  90
ATOM     90  C   UNL A   1      44.789  33.617  29.311  1.00  0.00     0.023 A 
ATOM     91  C   UNL A   1      45.536  33.915  30.468  1.00  0.00     0.012 A 
ATOM     92  C   UNL A   1      44.601  34.614  28.333  1.00  0.00     0.148 A 
ATOM     93  C   UNL A   1      46.069  35.190  30.658  1.00  0.00     0.002 A 
ATOM     94  C   UNL A   1      45.176  35.868  28.507  1.00  0.00     0.091 A 
ATOM     95  F   UNL A   1      43.874  34.314  27.248  1.00  0.00    -0.205 F 
ATOM     96  C   UNL A   1      45.901  36.160  29.673  1.00  0.00     0.022 A 
BRANCH  94  97
ATOM     97  S   UNL A   1      45.095  37.151  27.251  1.00  0.00     0.127 S 
ATOM     98  O   UNL A   1      43.692  37.084  26.848  1.00  0.00    -0.237 OA
ATOM     99  O   UNL A   1      45.455  38.349  28.010  1.00  0.00    -0.237 OA
ATOM    100  O   UNL A   1      46.056  36.772  26.225  1.00  0.00    -0.744 OA
ENDBRANCH  94  97
ENDBRANCH  67  90
ENDBRANCH  41  42
ENDBRANCH  34  36
ENDBRANCH  33  34
ENDBRANCH  32  33
ENDBRANCH  31  32
ENDBRANCH  30  31
ENDBRANCH  29  30
ENDBRANCH   1  29
TORSDOF 23
ENDMDL
MODEL 3
REMARK VINA RESULT:     -11.0      5.043      7.856
REMARK SMILES O=C(CCc1ccccc1)Nc1ccccc1Oc1ccsc1C(=O)OCCOCCOC(=O)c1ccc(-c2c3nc(c(-c4cccc(S(=O)(=O)[O-])c4F)c4ccc([nH]4)c(-c4cccc(S(=O)(=O)[O-])c4F)c4nc(c(-c5cccc(S(=O)(=O)[O-])c5F)c5ccc2[nH]5)C=C4)C=C3)cc1
REMARK SMILES IDX 27 1 26 2 24 3 25 4 23 5 19 6 20 7 21 8 22 9 18 10 17 11
REMARK SMILES IDX 12 12 13 13 14 14 16 15 15 16 11 17 1 18 2 19 3 21 4 22 5 23
REMARK SMILES IDX 6 24 10 25 7 26 9 27 8 28 28 29 29 30 30 31 31 32 32 33
REMARK SMILES IDX 33 34 34 35 35 36 36 37 97 38 37 39 96 40 38 41 39 42 40 43
REMARK SMILES IDX 90 44 41 45 95 46 89 47 91 48 42 49 94 50 88 51 87 52 43 54
REMARK SMILES IDX 75 55 55 56 74 57 56 58 59 59 73 60 92 61 57 62 58 63 72 65
REMARK SMILES IDX 93 66 60 67 44 68 45 69 53 70 46 71 48 72 54 73 47 74 49 75
REMARK SMILES IDX 50 76 51 77 52 78 76 79 77 80 85 81 78 82 80 83 86 84 79 85
REMARK SMILES IDX 81 86 82 87 83 88 84 89 61 90 62 91 70 92 63 93 65 94 71 95
REMARK SMILES IDX 64 96 66 97 67 98 68 99 69 100
REMARK H PARENT 11 20 91 53 59 64
REMARK Flexibility Score: inf
ROOT
ATOM      1  C   UNL A   1      31.157  24.940  26.334  1.00  0.00     0.261 C 
ENDROOT
BRANCH   1   2
ATOM      2  O   UNL A   1      32.541  24.603  26.134  1.00  0.00    -0.459 OA
BRANCH   2   3
ATOM      3  C   UNL A   1      32.988  23.446  26.690  1.00  0.00     0.352 C 
ATOM      4  O   UNL A   1      32.449  22.901  27.655  1.00  0.00    -0.245 OA
BRANCH   3   5
ATOM      5  C   UNL A   1      34.183  22.961  26.019  1.00  0.00     0.155 A 
ATOM      6  C   UNL A   1      34.491  21.729  25.461  1.00  0.00     0.152 A 
ATOM      7  C   UNL A   1      35.770  21.729  24.819  1.00  0.00     0.060 A 
ATOM      8  C   UNL A   1      36.453  22.907  25.021  1.00  0.00     0.070 A 
ATOM      9  S   UNL A   1      35.524  24.039  25.893  1.00  0.00    -0.133 S 
BRANCH   6  10
ATOM     10  O   UNL A   1      33.617  20.695  25.545  1.00  0.00    -0.453 OA
BRANCH  10  11
ATOM     11  C   UNL A   1      33.193  19.938  24.476  1.00  0.00     0.151 A 
ATOM     12  C   UNL A   1      32.385  20.370  23.407  1.00  0.00     0.084 A 
ATOM     13  C   UNL A   1      32.018  19.458  22.407  1.00  0.00     0.030 A 
ATOM     14  C   UNL A   1      32.520  18.156  22.414  1.00  0.00     0.002 A 
ATOM     15  C   UNL A   1      33.671  18.619  24.483  1.00  0.00     0.049 A 
ATOM     16  C   UNL A   1      33.346  17.736  23.452  1.00  0.00     0.004 A 
BRANCH  12  17
ATOM     17  N   UNL A   1      31.900  21.686  23.257  1.00  0.00    -0.323 N 
ATOM     18  O   UNL A   1      33.669  22.520  22.057  1.00  0.00    -0.275 OA
ATOM     19  C   UNL A   1      32.649  22.701  22.710  1.00  0.00     0.224 C 
ATOM     20  H   UNL A   1      30.984  21.887  23.557  1.00  0.00     0.170 HD
BRANCH  19  21
ATOM     21  C   UNL A   1      32.125  24.105  22.916  1.00  0.00     0.105 C 
BRANCH  21  22
ATOM     22  C   UNL A   1      32.776  25.118  21.981  1.00  0.00     0.045 C 
BRANCH  22  23
ATOM     23  C   UNL A   1      32.379  26.529  22.337  1.00  0.00    -0.048 A 
ATOM     24  C   UNL A   1      31.032  26.911  22.302  1.00  0.00     0.004 A 
ATOM     25  C   UNL A   1      33.335  27.425  22.841  1.00  0.00     0.004 A 
ATOM     26  C   UNL A   1      30.643  28.150  22.811  1.00  0.00     0.000 A 
ATOM     27  C   UNL A   1      32.940  28.656  23.360  1.00  0.00     0.000 A 
ATOM     28  C   UNL A   1      31.594  29.013  23.352  1.00  0.00     0.000 A 
ENDBRANCH  22  23
ENDBRANCH  21  22
ENDBRANCH  19  21
ENDBRANCH  12  17
ENDBRANCH  10  11
ENDBRANCH   6  10
ENDBRANCH   3   5
ENDBRANCH   2   3
ENDBRANCH   1   2
BRANCH   1  29
ATOM     29  C   UNL A   1      30.914  26.436  26.138  1.00  0.00     0.202 C 
BRANCH  29  30
ATOM     30  O   UNL A   1      32.009  27.272  26.523  1.00  0.00    -0.374 OA
BRANCH  30  31
ATOM     31  C   UNL A   1      31.679  28.261  27.504  1.00  0.00     0.202 C 
BRANCH  31  32
ATOM     32  C   UNL A   1      31.650  29.700  26.963  1.00  0.00     0.261 C 
BRANCH  32  33
ATOM     33  O   UNL A   1      32.960  30.139  26.558  1.00  0.00    -0.460 OA
BRANCH  33  34
ATOM     34  C   UNL A   1      33.414  31.255  27.168  1.00  0.00     0.338 C 
ATOM     35  O   UNL A   1      32.775  32.257  27.447  1.00  0.00    -0.246 OA
BRANCH  34  36
ATOM     36  C   UNL A   1      34.791  31.033  27.654  1.00  0.00     0.060 A 
ATOM     37  C   UNL A   1      35.190  29.703  27.841  1.00  0.00     0.016 A 
ATOM     38  C   UNL A   1      35.653  32.084  27.975  1.00  0.00     0.016 A 
ATOM     39  C   UNL A   1      36.430  29.417  28.406  1.00  0.00     0.010 A 
ATOM     40  C   UNL A   1      36.896  31.793  28.554  1.00  0.00     0.010 A 
ATOM     41  C   UNL A   1      37.273  30.461  28.808  1.00  0.00    -0.014 A 
BRANCH  41  42
ATOM     42  C   UNL A   1      38.475  30.156  29.623  1.00  0.00     0.031 A 
ATOM     43  C   UNL A   1      39.485  29.175  29.094  1.00  0.00     0.074 A 
ATOM     44  C   UNL A   1      38.678  30.755  30.810  1.00  0.00     0.049 A 
ATOM     45  N   UNL A   1      40.581  28.732  29.653  1.00  0.00    -0.248 NA
ATOM     46  C   UNL A   1      39.223  28.615  27.758  1.00  0.00     0.031 C 
ATOM     47  C   UNL A   1      37.784  31.735  31.424  1.00  0.00     0.029 A 
ATOM     48  N   UNL A   1      39.692  30.603  31.724  1.00  0.00    -0.354 N 
ATOM     49  C   UNL A   1      41.126  27.824  28.752  1.00  0.00     0.074 A 
ATOM     50  C   UNL A   1      40.232  27.769  27.616  1.00  0.00     0.031 C 
ATOM     51  C   UNL A   1      38.270  32.070  32.632  1.00  0.00     0.029 A 
ATOM     52  C   UNL A   1      39.492  31.307  32.886  1.00  0.00     0.049 A 
ATOM     53  H   UNL A   1      40.485  30.043  31.561  1.00  0.00     0.167 HD
ATOM     54  C   UNL A   1      42.274  27.113  28.852  1.00  0.00     0.034 A 
ATOM     55  C   UNL A   1      40.198  31.314  34.036  1.00  0.00     0.034 A 
ATOM     56  C   UNL A   1      43.172  27.181  29.973  1.00  0.00     0.049 A 
ATOM     57  C   UNL A   1      41.453  30.488  34.140  1.00  0.00     0.074 A 
ATOM     58  C   UNL A   1      44.379  26.527  30.149  1.00  0.00     0.029 A 
ATOM     59  N   UNL A   1      42.958  27.939  31.114  1.00  0.00    -0.354 N 
ATOM     60  N   UNL A   1      42.010  29.717  33.239  1.00  0.00    -0.248 NA
ATOM     61  C   UNL A   1      42.195  30.557  35.409  1.00  0.00     0.031 C 
ATOM     62  C   UNL A   1      44.881  26.868  31.409  1.00  0.00     0.029 A 
ATOM     63  C   UNL A   1      44.002  27.758  32.005  1.00  0.00     0.049 A 
ATOM     64  H   UNL A   1      42.178  28.519  31.268  1.00  0.00     0.167 HD
ATOM     65  C   UNL A   1      43.183  29.237  33.815  1.00  0.00     0.074 A 
ATOM     66  C   UNL A   1      43.263  29.817  35.140  1.00  0.00     0.031 C 
ATOM     67  C   UNL A   1      44.102  28.385  33.299  1.00  0.00     0.034 A 
BRANCH  54  68
ATOM     68  C   UNL A   1      42.637  26.210  27.702  1.00  0.00     0.023 A 
ATOM     69  C   UNL A   1      43.499  26.680  26.691  1.00  0.00     0.012 A 
ATOM     70  C   UNL A   1      42.164  24.885  27.646  1.00  0.00     0.148 A 
ATOM     71  C   UNL A   1      43.856  25.858  25.623  1.00  0.00     0.002 A 
ATOM     72  C   UNL A   1      42.560  24.057  26.602  1.00  0.00     0.091 A 
ATOM     73  F   UNL A   1      41.327  24.462  28.604  1.00  0.00    -0.205 F 
ATOM     74  C   UNL A   1      43.396  24.545  25.585  1.00  0.00     0.022 A 
BRANCH  72  75
ATOM     75  S   UNL A   1      42.081  22.328  26.505  1.00  0.00     0.127 S 
ATOM     76  O   UNL A   1      42.580  21.812  27.778  1.00  0.00    -0.237 OA
ATOM     77  O   UNL A   1      40.623  22.415  26.411  1.00  0.00    -0.237 OA
ATOM     78  O   UNL A   1      42.734  21.798  25.316  1.00  0.00    -0.744 OA
ENDBRANCH  72  75
ENDBRANCH  54  68
BRANCH  55  79
ATOM     79  C   UNL A   1      39.732  32.146  35.182  1.00  0.00     0.023 A 
ATOM     80  C   UNL A   1      40.034  33.520  35.218  1.00  0.00     0.012 A 
ATOM     81  C   UNL A   1      38.969  31.581  36.223  1.00  0.00     0.148 A 
ATOM     82  C   UNL A   1      39.605  34.313  36.284  1.00  0.00     0.002 A 
ATOM     83  C   UNL A   1      38.498  32.387  37.252  1.00  0.00     0.091 A 
ATOM     84  F   UNL A   1      38.710  30.267  36.179  1.00  0.00    -0.205 F 
ATOM     85  C   UNL A   1      38.828  33.750  37.294  1.00  0.00     0.022 A 
BRANCH  83  86
ATOM     86  S   UNL A   1      37.386  31.773  38.522  1.00  0.00     0.127 S 
ATOM     87  O   UNL A   1      38.197  31.919  39.728  1.00  0.00    -0.237 OA
ATOM     88  O   UNL A   1      36.264  32.706  38.417  1.00  0.00    -0.237 OA
ATOM     89  O   UNL A   1      37.066  30.405  38.138  1.00  0.00    -0.744 OA
ENDBRANCH  83  86
ENDBRANCH  55  79
BRANCH  67  90
ATOM     90  C   UNL A   1      45.307  28.048  34.138  1.00  0.00     0.023 A 
ATOM     91  C   UNL A   1      46.517  28.743  33.941  1.00  0.00     0.012 A 
ATOM     92  C   UNL A   1      45.211  27.113  35.188  1.00  0.00     0.148 A 
ATOM     93  C   UNL A   1      47.617  28.497  34.762  1.00  0.00     0.002 A 
ATOM     94  C   UNL A   1      46.296  26.906  36.032  1.00  0.00     0.091 A 
ATOM     95  F   UNL A   1      44.056  26.450  35.347  1.00  0.00    -0.205 F 
ATOM     96  C   UNL A   1      47.503  27.590  35.814  1.00  0.00     0.022 A 
BRANCH  94  97
ATOM     97  S   UNL A   1      46.214  25.831  37.469  1.00  0.00     0.127 S 
ATOM     98  O   UNL A   1      45.522  26.681  38.436  1.00  0.00    -0.237 OA
ATOM     99  O   UNL A   1      45.422  24.707  36.969  1.00  0.00    -0.237 OA
ATOM    100  O   UNL A   1      47.592  25.501  37.805  1.00  0.00    -0.744 OA
ENDBRANCH  94  97
ENDBRANCH  67  90
ENDBRANCH  41  42
ENDBRANCH  34  36
ENDBRANCH  33  34
ENDBRANCH  32  33
ENDBRANCH  31  32
ENDBRANCH  30  31
ENDBRANCH  29  30
ENDBRANCH   1  29
TORSDOF 23
ENDMDL
