MODEL 1
REMARK VINA RESULT:     -12.1      0.000      0.000
REMARK SMILES Cc1c(Cl)cc2c(c1C)O[C@H](C(F)(F)F)C(C(=O)OCCOCCOC(=O)c1ccc(-c3c4nc(c(-c5cccc(S(=O)(=O)[O-])c5F)c5ccc([nH]5)c(-c5cccc(S(=O)(=O)[O-])c5F)c5nc(c(-c6cccc(S(=O)(=O)[O-])c6F)c6ccc3[nH]6)C=C5)C=C4)cc1)=C2
REMARK SMILES IDX 23 1 22 2 21 3 20 4 19 5 17 6 18 7 16 8 1 9 2 10 3 11 8 12
REMARK SMILES IDX 4 13 5 14 7 15 9 16 6 17 10 18 91 19 11 20 12 21 13 22 14 23
REMARK SMILES IDX 15 24 24 25 25 26 26 27 27 28 28 29 29 30 90 31 30 32 89 33
REMARK SMILES IDX 31 34 32 35 33 36 83 37 34 38 88 39 82 40 84 41 35 42 87 43
REMARK SMILES IDX 81 44 80 45 36 47 68 48 48 49 67 50 49 51 52 52 66 53 85 54
REMARK SMILES IDX 50 55 51 56 65 58 86 59 53 60 37 61 38 62 46 63 39 64 41 65
REMARK SMILES IDX 47 66 40 67 42 68 43 69 44 70 45 71 69 72 70 73 78 74 71 75
REMARK SMILES IDX 73 76 79 77 72 78 74 79 75 80 76 81 77 82 54 83 55 84 63 85
REMARK SMILES IDX 56 86 58 87 64 88 57 89 59 90 60 91 61 92 62 93
REMARK H PARENT 84 46 52 57
REMARK Flexibility Score: inf
ROOT
ATOM      1  C   UNL A   1      35.628  21.388  24.738  1.00  0.00     0.202 C 
ENDROOT
BRANCH   1   2
ATOM      2  O   UNL A   1      34.392  21.299  25.444  1.00  0.00    -0.374 OA
BRANCH   2   3
ATOM      3  C   UNL A   1      33.212  21.001  24.698  1.00  0.00     0.202 C 
BRANCH   3   4
ATOM      4  C   UNL A   1      31.870  21.101  25.428  1.00  0.00     0.261 C 
BRANCH   4   5
ATOM      5  O   UNL A   1      31.302  22.416  25.326  1.00  0.00    -0.460 OA
BRANCH   5   6
ATOM      6  C   UNL A   1      31.523  23.206  26.402  1.00  0.00     0.338 C 
ATOM      7  O   UNL A   1      31.854  22.846  27.523  1.00  0.00    -0.246 OA
BRANCH   6   8
ATOM      8  C   UNL A   1      31.448  24.623  26.007  1.00  0.00     0.087 C 
ATOM      9  C   UNL A   1      30.073  30.059  22.709  1.00  0.00     0.046 C 
ATOM     10  C   UNL A   1      30.125  28.817  23.564  1.00  0.00    -0.026 A 
ATOM     11  C   UNL A   1      29.009  27.953  23.575  1.00  0.00     0.045 A 
ATOM     12  C   UNL A   1      31.285  28.434  24.285  1.00  0.00    -0.004 A 
ATOM     13  Cl  UNL A   1      27.552  28.315  22.707  1.00  0.00    -0.084 Cl
ATOM     14  C   UNL A   1      29.040  26.737  24.255  1.00  0.00     0.032 A 
ATOM     15  C   UNL A   1      31.294  27.198  24.977  1.00  0.00     0.131 A 
ATOM     16  C   UNL A   1      32.549  29.259  24.337  1.00  0.00     0.049 C 
ATOM     17  C   UNL A   1      30.192  26.345  24.930  1.00  0.00     0.019 A 
ATOM     18  O   UNL A   1      32.425  26.891  25.688  1.00  0.00    -0.475 OA
ATOM     19  C   UNL A   1      30.275  25.013  25.494  1.00  0.00     0.027 C 
ATOM     20  C   UNL A   1      32.642  25.524  26.142  1.00  0.00     0.316 C 
BRANCH  20  21
ATOM     21  C   UNL A   1      33.886  24.971  25.434  1.00  0.00     0.430 C 
ATOM     22  F   UNL A   1      34.693  25.972  25.009  1.00  0.00    -0.167 F 
ATOM     23  F   UNL A   1      34.624  24.188  26.253  1.00  0.00    -0.167 F 
ATOM     24  F   UNL A   1      33.556  24.228  24.352  1.00  0.00    -0.167 F 
ENDBRANCH  20  21
ENDBRANCH   6   8
ENDBRANCH   5   6
ENDBRANCH   4   5
ENDBRANCH   3   4
ENDBRANCH   2   3
ENDBRANCH   1   2
BRANCH   1  25
ATOM     25  C   UNL A   1      36.851  20.666  25.316  1.00  0.00     0.261 C 
BRANCH  25  26
ATOM     26  O   UNL A   1      38.089  21.320  24.997  1.00  0.00    -0.460 OA
BRANCH  26  27
ATOM     27  C   UNL A   1      39.107  21.028  25.843  1.00  0.00     0.338 C 
ATOM     28  O   UNL A   1      39.715  19.969  25.926  1.00  0.00    -0.246 OA
BRANCH  27  29
ATOM     29  C   UNL A   1      39.540  22.236  26.562  1.00  0.00     0.060 A 
ATOM     30  C   UNL A   1      38.980  23.459  26.166  1.00  0.00     0.016 A 
ATOM     31  C   UNL A   1      40.557  22.193  27.518  1.00  0.00     0.016 A 
ATOM     32  C   UNL A   1      39.482  24.653  26.674  1.00  0.00     0.010 A 
ATOM     33  C   UNL A   1      41.069  23.394  28.015  1.00  0.00     0.010 A 
ATOM     34  C   UNL A   1      40.567  24.626  27.558  1.00  0.00    -0.014 A 
BRANCH  34  35
ATOM     35  C   UNL A   1      41.304  25.879  27.839  1.00  0.00     0.031 A 
ATOM     36  C   UNL A   1      40.598  26.971  28.596  1.00  0.00     0.074 A 
ATOM     37  C   UNL A   1      42.580  26.037  27.448  1.00  0.00     0.049 A 
ATOM     38  N   UNL A   1      41.016  28.172  28.900  1.00  0.00    -0.248 NA
ATOM     39  C   UNL A   1      39.240  26.667  29.078  1.00  0.00     0.031 C 
ATOM     40  C   UNL A   1      43.378  25.034  26.747  1.00  0.00     0.029 A 
ATOM     41  N   UNL A   1      43.421  27.114  27.573  1.00  0.00    -0.354 N 
ATOM     42  C   UNL A   1      39.966  28.774  29.584  1.00  0.00     0.074 A 
ATOM     43  C   UNL A   1      38.887  27.813  29.641  1.00  0.00     0.031 C 
ATOM     44  C   UNL A   1      44.589  25.553  26.480  1.00  0.00     0.029 A 
ATOM     45  C   UNL A   1      44.637  26.932  26.962  1.00  0.00     0.049 A 
ATOM     46  H   UNL A   1      43.176  27.938  28.053  1.00  0.00     0.167 HD
ATOM     47  C   UNL A   1      39.913  30.011  30.130  1.00  0.00     0.034 A 
ATOM     48  C   UNL A   1      45.663  27.792  26.790  1.00  0.00     0.034 A 
ATOM     49  C   UNL A   1      40.994  30.957  30.086  1.00  0.00     0.049 A 
ATOM     50  C   UNL A   1      45.556  29.183  27.359  1.00  0.00     0.074 A 
ATOM     51  C   UNL A   1      41.043  32.231  30.625  1.00  0.00     0.029 A 
ATOM     52  N   UNL A   1      42.213  30.738  29.465  1.00  0.00    -0.354 N 
ATOM     53  N   UNL A   1      44.589  29.716  28.069  1.00  0.00    -0.248 NA
ATOM     54  C   UNL A   1      46.692  30.086  27.124  1.00  0.00     0.031 C 
ATOM     55  C   UNL A   1      42.286  32.790  30.309  1.00  0.00     0.029 A 
ATOM     56  C   UNL A   1      43.020  31.855  29.596  1.00  0.00     0.049 A 
ATOM     57  H   UNL A   1      42.469  29.908  29.000  1.00  0.00     0.167 HD
ATOM     58  C   UNL A   1      45.008  31.005  28.381  1.00  0.00     0.074 A 
ATOM     59  C   UNL A   1      46.332  31.160  27.813  1.00  0.00     0.031 C 
ATOM     60  C   UNL A   1      44.351  31.982  29.057  1.00  0.00     0.034 A 
BRANCH  47  61
ATOM     61  C   UNL A   1      38.651  30.405  30.852  1.00  0.00     0.023 A 
ATOM     62  C   UNL A   1      38.525  30.136  32.230  1.00  0.00     0.012 A 
ATOM     63  C   UNL A   1      37.624  31.104  30.187  1.00  0.00     0.148 A 
ATOM     64  C   UNL A   1      37.388  30.535  32.931  1.00  0.00     0.002 A 
ATOM     65  C   UNL A   1      36.514  31.539  30.902  1.00  0.00     0.091 A 
ATOM     66  F   UNL A   1      37.752  31.328  28.871  1.00  0.00    -0.205 F 
ATOM     67  C   UNL A   1      36.390  31.247  32.271  1.00  0.00     0.022 A 
BRANCH  65  68
ATOM     68  S   UNL A   1      35.210  32.530  30.164  1.00  0.00     0.127 S 
ATOM     69  O   UNL A   1      34.300  32.711  31.295  1.00  0.00    -0.237 OA
ATOM     70  O   UNL A   1      35.933  33.737  29.764  1.00  0.00    -0.237 OA
ATOM     71  O   UNL A   1      34.679  31.742  29.061  1.00  0.00    -0.744 OA
ENDBRANCH  65  68
ENDBRANCH  47  61
BRANCH  48  72
ATOM     72  C   UNL A   1      46.891  27.347  26.074  1.00  0.00     0.023 A 
ATOM     73  C   UNL A   1      47.821  26.525  26.741  1.00  0.00     0.012 A 
ATOM     74  C   UNL A   1      47.129  27.702  24.732  1.00  0.00     0.148 A 
ATOM     75  C   UNL A   1      48.973  26.082  26.089  1.00  0.00     0.002 A 
ATOM     76  C   UNL A   1      48.248  27.209  24.072  1.00  0.00     0.091 A 
ATOM     77  F   UNL A   1      46.243  28.503  24.121  1.00  0.00    -0.205 F 
ATOM     78  C   UNL A   1      49.180  26.412  24.753  1.00  0.00     0.022 A 
BRANCH  76  79
ATOM     79  S   UNL A   1      48.525  27.467  22.316  1.00  0.00     0.127 S 
ATOM     80  O   UNL A   1      49.766  28.239  22.319  1.00  0.00    -0.237 OA
ATOM     81  O   UNL A   1      48.656  26.094  21.829  1.00  0.00    -0.237 OA
ATOM     82  O   UNL A   1      47.346  28.169  21.828  1.00  0.00    -0.744 OA
ENDBRANCH  76  79
ENDBRANCH  48  72
BRANCH  60  83
ATOM     83  C   UNL A   1      45.046  33.311  29.221  1.00  0.00     0.023 A 
ATOM     84  C   UNL A   1      45.859  33.533  30.351  1.00  0.00     0.012 A 
ATOM     85  C   UNL A   1      44.960  34.305  28.227  1.00  0.00     0.148 A 
ATOM     86  C   UNL A   1      46.547  34.737  30.505  1.00  0.00     0.002 A 
ATOM     87  C   UNL A   1      45.690  35.481  28.363  1.00  0.00     0.091 A 
ATOM     88  F   UNL A   1      44.169  34.086  27.166  1.00  0.00    -0.205 F 
ATOM     89  C   UNL A   1      46.472  35.704  29.507  1.00  0.00     0.022 A 
BRANCH  87  90
ATOM     90  S   UNL A   1      45.737  36.737  27.079  1.00  0.00     0.127 S 
ATOM     91  O   UNL A   1      44.333  37.137  26.999  1.00  0.00    -0.237 OA
ATOM     92  O   UNL A   1      46.626  37.745  27.659  1.00  0.00    -0.237 OA
ATOM     93  O   UNL A   1      46.270  36.077  25.894  1.00  0.00    -0.744 OA
ENDBRANCH  87  90
ENDBRANCH  60  83
ENDBRANCH  34  35
ENDBRANCH  27  29
ENDBRANCH  26  27
ENDBRANCH  25  26
ENDBRANCH   1  25
TORSDOF 18
ENDMDL
MODEL 2
REMARK VINA RESULT:     -12.0      4.874     10.663
REMARK SMILES Cc1c(Cl)cc2c(c1C)O[C@H](C(F)(F)F)C(C(=O)OCCOCCOC(=O)c1ccc(-c3c4nc(c(-c5cccc(S(=O)(=O)[O-])c5F)c5ccc([nH]5)c(-c5cccc(S(=O)(=O)[O-])c5F)c5nc(c(-c6cccc(S(=O)(=O)[O-])c6F)c6ccc3[nH]6)C=C5)C=C4)cc1)=C2
REMARK SMILES IDX 23 1 22 2 21 3 20 4 19 5 17 6 18 7 16 8 1 9 2 10 3 11 8 12
REMARK SMILES IDX 4 13 5 14 7 15 9 16 6 17 10 18 91 19 11 20 12 21 13 22 14 23
REMARK SMILES IDX 15 24 24 25 25 26 26 27 27 28 28 29 29 30 90 31 30 32 89 33
REMARK SMILES IDX 31 34 32 35 33 36 83 37 34 38 88 39 82 40 84 41 35 42 87 43
REMARK SMILES IDX 81 44 80 45 36 47 68 48 48 49 67 50 49 51 52 52 66 53 85 54
REMARK SMILES IDX 50 55 51 56 65 58 86 59 53 60 37 61 38 62 46 63 39 64 41 65
REMARK SMILES IDX 47 66 40 67 42 68 43 69 44 70 45 71 69 72 70 73 78 74 71 75
REMARK SMILES IDX 73 76 79 77 72 78 74 79 75 80 76 81 77 82 54 83 55 84 63 85
REMARK SMILES IDX 56 86 58 87 64 88 57 89 59 90 60 91 61 92 62 93
REMARK H PARENT 84 46 52 57
REMARK Flexibility Score: inf
ROOT
ATOM      1  C   UNL A   1      42.304  19.052  26.269  1.00  0.00     0.202 C 
ENDROOT
BRANCH   1   2
ATOM      2  O   UNL A   1      43.129  18.714  25.155  1.00  0.00    -0.374 OA
BRANCH   2   3
ATOM      3  C   UNL A   1      44.543  18.699  25.345  1.00  0.00     0.202 C 
BRANCH   3   4
ATOM      4  C   UNL A   1      45.253  20.048  25.487  1.00  0.00     0.261 C 
BRANCH   4   5
ATOM      5  O   UNL A   1      44.708  21.036  24.598  1.00  0.00    -0.460 OA
BRANCH   5   6
ATOM      6  C   UNL A   1      44.033  22.032  25.213  1.00  0.00     0.338 C 
ATOM      7  O   UNL A   1      42.850  22.310  25.081  1.00  0.00    -0.246 OA
BRANCH   6   8
ATOM      8  C   UNL A   1      44.900  22.682  26.212  1.00  0.00     0.087 C 
ATOM      9  C   UNL A   1      46.999  26.586  30.974  1.00  0.00     0.046 C 
ATOM     10  C   UNL A   1      46.394  25.532  30.079  1.00  0.00    -0.026 A 
ATOM     11  C   UNL A   1      45.095  25.060  30.366  1.00  0.00     0.045 A 
ATOM     12  C   UNL A   1      47.041  25.062  28.907  1.00  0.00    -0.004 A 
ATOM     13  Cl  UNL A   1      44.208  25.588  31.759  1.00  0.00    -0.084 Cl
ATOM     14  C   UNL A   1      44.442  24.171  29.514  1.00  0.00     0.032 A 
ATOM     15  C   UNL A   1      46.364  24.153  28.058  1.00  0.00     0.131 A 
ATOM     16  C   UNL A   1      48.421  25.505  28.478  1.00  0.00     0.049 C 
ATOM     17  C   UNL A   1      45.063  23.743  28.345  1.00  0.00     0.019 A 
ATOM     18  O   UNL A   1      47.045  23.702  26.957  1.00  0.00    -0.475 OA
ATOM     19  C   UNL A   1      44.318  22.952  27.386  1.00  0.00     0.027 C 
ATOM     20  C   UNL A   1      46.320  23.043  25.880  1.00  0.00     0.316 C 
BRANCH  20  21
ATOM     21  C   UNL A   1      46.433  23.910  24.619  1.00  0.00     0.430 C 
ATOM     22  F   UNL A   1      45.265  24.540  24.353  1.00  0.00    -0.167 F 
ATOM     23  F   UNL A   1      47.380  24.866  24.750  1.00  0.00    -0.167 F 
ATOM     24  F   UNL A   1      46.752  23.170  23.531  1.00  0.00    -0.167 F 
ENDBRANCH  20  21
ENDBRANCH   6   8
ENDBRANCH   5   6
ENDBRANCH   4   5
ENDBRANCH   3   4
ENDBRANCH   2   3
ENDBRANCH   1   2
BRANCH   1  25
ATOM     25  C   UNL A   1      40.878  19.547  25.998  1.00  0.00     0.261 C 
BRANCH  25  26
ATOM     26  O   UNL A   1      40.461  20.577  26.908  1.00  0.00    -0.460 OA
BRANCH  26  27
ATOM     27  C   UNL A   1      39.673  21.527  26.349  1.00  0.00     0.338 C 
ATOM     28  O   UNL A   1      38.787  21.357  25.522  1.00  0.00    -0.246 OA
BRANCH  27  29
ATOM     29  C   UNL A   1      39.888  22.825  27.008  1.00  0.00     0.060 A 
ATOM     30  C   UNL A   1      39.160  23.922  26.526  1.00  0.00     0.016 A 
ATOM     31  C   UNL A   1      40.863  22.992  27.993  1.00  0.00     0.016 A 
ATOM     32  C   UNL A   1      39.452  25.205  26.978  1.00  0.00     0.010 A 
ATOM     33  C   UNL A   1      41.164  24.284  28.434  1.00  0.00     0.010 A 
ATOM     34  C   UNL A   1      40.495  25.395  27.891  1.00  0.00    -0.014 A 
BRANCH  34  35
ATOM     35  C   UNL A   1      41.018  26.762  28.119  1.00  0.00     0.031 A 
ATOM     36  C   UNL A   1      42.349  27.129  27.521  1.00  0.00     0.074 A 
ATOM     37  C   UNL A   1      40.317  27.665  28.825  1.00  0.00     0.049 A 
ATOM     38  N   UNL A   1      43.034  28.236  27.639  1.00  0.00    -0.248 NA
ATOM     39  C   UNL A   1      42.994  26.111  26.673  1.00  0.00     0.031 C 
ATOM     40  C   UNL A   1      39.000  27.437  29.414  1.00  0.00     0.029 A 
ATOM     41  N   UNL A   1      40.629  28.953  29.179  1.00  0.00    -0.354 N 
ATOM     42  C   UNL A   1      44.197  28.040  26.905  1.00  0.00     0.074 A 
ATOM     43  C   UNL A   1      44.134  26.705  26.354  1.00  0.00     0.031 C 
ATOM     44  C   UNL A   1      38.626  28.542  30.080  1.00  0.00     0.029 A 
ATOM     45  C   UNL A   1      39.690  29.541  29.990  1.00  0.00     0.049 A 
ATOM     46  H   UNL A   1      41.448  29.412  28.880  1.00  0.00     0.167 HD
ATOM     47  C   UNL A   1      45.219  28.903  26.694  1.00  0.00     0.034 A 
ATOM     48  C   UNL A   1      39.702  30.739  30.610  1.00  0.00     0.034 A 
ATOM     49  C   UNL A   1      45.270  30.236  27.230  1.00  0.00     0.049 A 
ATOM     50  C   UNL A   1      40.878  31.658  30.406  1.00  0.00     0.074 A 
ATOM     51  C   UNL A   1      46.255  31.192  27.060  1.00  0.00     0.029 A 
ATOM     52  N   UNL A   1      44.299  30.800  28.042  1.00  0.00    -0.354 N 
ATOM     53  N   UNL A   1      41.937  31.493  29.648  1.00  0.00    -0.248 NA
ATOM     54  C   UNL A   1      40.851  32.943  31.122  1.00  0.00     0.031 C 
ATOM     55  C   UNL A   1      45.889  32.328  27.789  1.00  0.00     0.029 A 
ATOM     56  C   UNL A   1      44.665  32.088  28.393  1.00  0.00     0.049 A 
ATOM     57  H   UNL A   1      43.470  30.351  28.327  1.00  0.00     0.167 HD
ATOM     58  C   UNL A   1      42.690  32.655  29.781  1.00  0.00     0.074 A 
ATOM     59  C   UNL A   1      41.947  33.532  30.664  1.00  0.00     0.031 C 
ATOM     60  C   UNL A   1      43.896  32.964  29.242  1.00  0.00     0.034 A 
BRANCH  47  61
ATOM     61  C   UNL A   1      46.357  28.441  25.822  1.00  0.00     0.023 A 
ATOM     62  C   UNL A   1      46.141  28.248  24.443  1.00  0.00     0.012 A 
ATOM     63  C   UNL A   1      47.652  28.272  26.350  1.00  0.00     0.148 A 
ATOM     64  C   UNL A   1      47.189  27.870  23.606  1.00  0.00     0.002 A 
ATOM     65  C   UNL A   1      48.702  27.939  25.501  1.00  0.00     0.091 A 
ATOM     66  F   UNL A   1      47.831  28.437  27.668  1.00  0.00    -0.205 F 
ATOM     67  C   UNL A   1      48.471  27.728  24.132  1.00  0.00     0.022 A 
BRANCH  65  68
ATOM     68  S   UNL A   1      50.402  27.810  26.065  1.00  0.00     0.127 S 
ATOM     69  O   UNL A   1      50.280  28.209  27.467  1.00  0.00    -0.237 OA
ATOM     70  O   UNL A   1      50.686  26.390  25.858  1.00  0.00    -0.237 OA
ATOM     71  O   UNL A   1      51.175  28.716  25.228  1.00  0.00    -0.744 OA
ENDBRANCH  65  68
ENDBRANCH  47  61
BRANCH  48  72
ATOM     72  C   UNL A   1      38.546  31.147  31.456  1.00  0.00     0.023 A 
ATOM     73  C   UNL A   1      38.625  30.998  32.855  1.00  0.00     0.012 A 
ATOM     74  C   UNL A   1      37.385  31.713  30.892  1.00  0.00     0.148 A 
ATOM     75  C   UNL A   1      37.563  31.386  33.673  1.00  0.00     0.002 A 
ATOM     76  C   UNL A   1      36.356  32.152  31.717  1.00  0.00     0.091 A 
ATOM     77  F   UNL A   1      37.320  31.827  29.557  1.00  0.00    -0.205 F 
ATOM     78  C   UNL A   1      36.436  31.974  33.107  1.00  0.00     0.022 A 
BRANCH  76  79
ATOM     79  S   UNL A   1      34.929  33.044  31.090  1.00  0.00     0.127 S 
ATOM     80  O   UNL A   1      34.024  33.005  32.236  1.00  0.00    -0.237 OA
ATOM     81  O   UNL A   1      35.502  34.359  30.802  1.00  0.00    -0.237 OA
ATOM     82  O   UNL A   1      34.489  32.308  29.913  1.00  0.00    -0.744 OA
ENDBRANCH  76  79
ENDBRANCH  48  72
BRANCH  60  83
ATOM     83  C   UNL A   1      44.498  34.303  29.588  1.00  0.00     0.023 A 
ATOM     84  C   UNL A   1      45.422  34.394  30.648  1.00  0.00     0.012 A 
ATOM     85  C   UNL A   1      44.214  35.450  28.820  1.00  0.00     0.148 A 
ATOM     86  C   UNL A   1      46.026  35.612  30.962  1.00  0.00     0.002 A 
ATOM     87  C   UNL A   1      44.859  36.649  29.106  1.00  0.00     0.091 A 
ATOM     88  F   UNL A   1      43.320  35.351  27.826  1.00  0.00    -0.205 F 
ATOM     89  C   UNL A   1      45.754  36.734  30.184  1.00  0.00     0.022 A 
BRANCH  87  90
ATOM     90  S   UNL A   1      44.650  38.118  28.093  1.00  0.00     0.127 S 
ATOM     91  O   UNL A   1      43.195  38.251  28.057  1.00  0.00    -0.237 OA
ATOM     92  O   UNL A   1      45.337  39.142  28.882  1.00  0.00    -0.237 OA
ATOM     93  O   UNL A   1      45.285  37.816  26.817  1.00  0.00    -0.744 OA
ENDBRANCH  87  90
ENDBRANCH  60  83
ENDBRANCH  34  35
ENDBRANCH  27  29
ENDBRANCH  26  27
ENDBRANCH  25  26
ENDBRANCH   1  25
TORSDOF 18
ENDMDL
MODEL 3
REMARK VINA RESULT:     -11.8      1.990      2.371
REMARK SMILES Cc1c(Cl)cc2c(c1C)O[C@H](C(F)(F)F)C(C(=O)OCCOCCOC(=O)c1ccc(-c3c4nc(c(-c5cccc(S(=O)(=O)[O-])c5F)c5ccc([nH]5)c(-c5cccc(S(=O)(=O)[O-])c5F)c5nc(c(-c6cccc(S(=O)(=O)[O-])c6F)c6ccc3[nH]6)C=C5)C=C4)cc1)=C2
REMARK SMILES IDX 23 1 22 2 21 3 20 4 19 5 17 6 18 7 16 8 1 9 2 10 3 11 8 12
REMARK SMILES IDX 4 13 5 14 7 15 9 16 6 17 10 18 91 19 11 20 12 21 13 22 14 23
REMARK SMILES IDX 15 24 24 25 25 26 26 27 27 28 28 29 29 30 90 31 30 32 89 33
REMARK SMILES IDX 31 34 32 35 33 36 83 37 34 38 88 39 82 40 84 41 35 42 87 43
REMARK SMILES IDX 81 44 80 45 36 47 68 48 48 49 67 50 49 51 52 52 66 53 85 54
REMARK SMILES IDX 50 55 51 56 65 58 86 59 53 60 37 61 38 62 46 63 39 64 41 65
REMARK SMILES IDX 47 66 40 67 42 68 43 69 44 70 45 71 69 72 70 73 78 74 71 75
REMARK SMILES IDX 73 76 79 77 72 78 74 79 75 80 76 81 77 82 54 83 55 84 63 85
REMARK SMILES IDX 56 86 58 87 64 88 57 89 59 90 60 91 61 92 62 93
REMARK H PARENT 84 46 52 57
REMARK Flexibility Score: inf
ROOT
ATOM      1  C   UNL A   1      35.619  20.251  24.986  1.00  0.00     0.202 C 
ENDROOT
BRANCH   1   2
ATOM      2  O   UNL A   1      34.218  20.326  25.244  1.00  0.00    -0.374 OA
BRANCH   2   3
ATOM      3  C   UNL A   1      33.347  20.607  24.149  1.00  0.00     0.202 C 
BRANCH   3   4
ATOM      4  C   UNL A   1      32.886  22.055  23.966  1.00  0.00     0.261 C 
BRANCH   4   5
ATOM      5  O   UNL A   1      33.806  22.989  24.551  1.00  0.00    -0.460 OA
BRANCH   5   6
ATOM      6  C   UNL A   1      34.529  23.698  23.657  1.00  0.00     0.338 C 
ATOM      7  O   UNL A   1      35.391  23.270  22.901  1.00  0.00    -0.246 OA
BRANCH   6   8
ATOM      8  C   UNL A   1      34.035  25.085  23.600  1.00  0.00     0.087 C 
ATOM      9  C   UNL A   1      30.868  30.585  25.028  1.00  0.00     0.046 C 
ATOM     10  C   UNL A   1      31.778  29.388  24.904  1.00  0.00    -0.026 A 
ATOM     11  C   UNL A   1      32.276  28.787  26.080  1.00  0.00     0.045 A 
ATOM     12  C   UNL A   1      32.081  28.785  23.655  1.00  0.00    -0.004 A 
ATOM     13  Cl  UNL A   1      31.945  29.430  27.655  1.00  0.00    -0.084 Cl
ATOM     14  C   UNL A   1      33.029  27.616  26.033  1.00  0.00     0.032 A 
ATOM     15  C   UNL A   1      32.854  27.599  23.628  1.00  0.00     0.131 A 
ATOM     16  C   UNL A   1      31.593  29.318  22.328  1.00  0.00     0.049 C 
ATOM     17  C   UNL A   1      33.291  27.004  24.810  1.00  0.00     0.019 A 
ATOM     18  O   UNL A   1      33.148  27.076  22.395  1.00  0.00    -0.475 OA
ATOM     19  C   UNL A   1      33.931  25.705  24.782  1.00  0.00     0.027 C 
ATOM     20  C   UNL A   1      33.642  25.709  22.291  1.00  0.00     0.316 C 
BRANCH  20  21
ATOM     21  C   UNL A   1      32.605  24.878  21.525  1.00  0.00     0.430 C 
ATOM     22  F   UNL A   1      31.605  24.470  22.342  1.00  0.00    -0.167 F 
ATOM     23  F   UNL A   1      32.036  25.584  20.523  1.00  0.00    -0.167 F 
ATOM     24  F   UNL A   1      33.158  23.770  20.978  1.00  0.00    -0.167 F 
ENDBRANCH  20  21
ENDBRANCH   6   8
ENDBRANCH   5   6
ENDBRANCH   4   5
ENDBRANCH   3   4
ENDBRANCH   2   3
ENDBRANCH   1   2
BRANCH   1  25
ATOM     25  C   UNL A   1      36.551  21.210  25.737  1.00  0.00     0.261 C 
BRANCH  25  26
ATOM     26  O   UNL A   1      37.796  21.428  25.055  1.00  0.00    -0.460 OA
BRANCH  26  27
ATOM     27  C   UNL A   1      38.894  21.139  25.796  1.00  0.00     0.338 C 
ATOM     28  O   UNL A   1      39.540  20.100  25.781  1.00  0.00    -0.246 OA
BRANCH  27  29
ATOM     29  C   UNL A   1      39.352  22.333  26.524  1.00  0.00     0.060 A 
ATOM     30  C   UNL A   1      38.827  23.571  26.127  1.00  0.00     0.016 A 
ATOM     31  C   UNL A   1      40.357  22.260  27.489  1.00  0.00     0.016 A 
ATOM     32  C   UNL A   1      39.354  24.750  26.644  1.00  0.00     0.010 A 
ATOM     33  C   UNL A   1      40.896  23.446  27.995  1.00  0.00     0.010 A 
ATOM     34  C   UNL A   1      40.430  24.692  27.538  1.00  0.00    -0.014 A 
BRANCH  34  35
ATOM     35  C   UNL A   1      41.196  25.925  27.830  1.00  0.00     0.031 A 
ATOM     36  C   UNL A   1      40.515  27.028  28.594  1.00  0.00     0.074 A 
ATOM     37  C   UNL A   1      42.476  26.056  27.444  1.00  0.00     0.049 A 
ATOM     38  N   UNL A   1      40.960  28.216  28.908  1.00  0.00    -0.248 NA
ATOM     39  C   UNL A   1      39.147  26.753  29.070  1.00  0.00     0.031 C 
ATOM     40  C   UNL A   1      43.252  25.039  26.738  1.00  0.00     0.029 A 
ATOM     41  N   UNL A   1      43.342  27.111  27.579  1.00  0.00    -0.354 N 
ATOM     42  C   UNL A   1      39.923  28.838  29.593  1.00  0.00     0.074 A 
ATOM     43  C   UNL A   1      38.821  27.903  29.641  1.00  0.00     0.031 C 
ATOM     44  C   UNL A   1      44.475  25.530  26.478  1.00  0.00     0.029 A 
ATOM     45  C   UNL A   1      44.556  26.904  26.970  1.00  0.00     0.049 A 
ATOM     46  H   UNL A   1      43.116  27.936  28.065  1.00  0.00     0.167 HD
ATOM     47  C   UNL A   1      39.898  30.072  30.149  1.00  0.00     0.034 A 
ATOM     48  C   UNL A   1      45.602  27.740  26.808  1.00  0.00     0.034 A 
ATOM     49  C   UNL A   1      41.002  30.992  30.115  1.00  0.00     0.049 A 
ATOM     50  C   UNL A   1      45.527  29.129  27.387  1.00  0.00     0.074 A 
ATOM     51  C   UNL A   1      41.080  32.260  30.664  1.00  0.00     0.029 A 
ATOM     52  N   UNL A   1      42.217  30.748  29.496  1.00  0.00    -0.354 N 
ATOM     53  N   UNL A   1      44.572  29.679  28.099  1.00  0.00    -0.248 NA
ATOM     54  C   UNL A   1      46.686  30.006  27.162  1.00  0.00     0.031 C 
ATOM     55  C   UNL A   1      42.337  32.791  30.355  1.00  0.00     0.029 A 
ATOM     56  C   UNL A   1      43.050  31.845  29.637  1.00  0.00     0.049 A 
ATOM     57  H   UNL A   1      42.454  29.916  29.026  1.00  0.00     0.167 HD
ATOM     58  C   UNL A   1      45.021  30.956  28.422  1.00  0.00     0.074 A 
ATOM     59  C   UNL A   1      46.349  31.083  27.859  1.00  0.00     0.031 C 
ATOM     60  C   UNL A   1      44.385  31.943  29.103  1.00  0.00     0.034 A 
BRANCH  47  61
ATOM     61  C   UNL A   1      38.643  30.491  30.870  1.00  0.00     0.023 A 
ATOM     62  C   UNL A   1      38.529  30.261  32.256  1.00  0.00     0.012 A 
ATOM     63  C   UNL A   1      37.614  31.175  30.195  1.00  0.00     0.148 A 
ATOM     64  C   UNL A   1      37.400  30.684  32.955  1.00  0.00     0.002 A 
ATOM     65  C   UNL A   1      36.511  31.634  30.907  1.00  0.00     0.091 A 
ATOM     66  F   UNL A   1      37.730  31.361  28.872  1.00  0.00    -0.205 F 
ATOM     67  C   UNL A   1      36.398  31.381  32.284  1.00  0.00     0.022 A 
BRANCH  65  68
ATOM     68  S   UNL A   1      35.205  32.608  30.152  1.00  0.00     0.127 S 
ATOM     69  O   UNL A   1      34.275  32.773  31.270  1.00  0.00    -0.237 OA
ATOM     70  O   UNL A   1      35.916  33.827  29.767  1.00  0.00    -0.237 OA
ATOM     71  O   UNL A   1      34.702  31.817  29.039  1.00  0.00    -0.744 OA
ENDBRANCH  65  68
ENDBRANCH  47  61
BRANCH  48  72
ATOM     72  C   UNL A   1      46.822  27.271  26.092  1.00  0.00     0.023 A 
ATOM     73  C   UNL A   1      46.955  27.524  24.713  1.00  0.00     0.012 A 
ATOM     74  C   UNL A   1      47.864  26.608  26.771  1.00  0.00     0.148 A 
ATOM     75  C   UNL A   1      48.093  27.109  24.021  1.00  0.00     0.002 A 
ATOM     76  C   UNL A   1      49.019  26.251  26.087  1.00  0.00     0.091 A 
ATOM     77  F   UNL A   1      47.709  26.357  28.080  1.00  0.00    -0.205 F 
ATOM     78  C   UNL A   1      49.129  26.485  24.708  1.00  0.00     0.022 A 
BRANCH  76  79
ATOM     79  S   UNL A   1      50.460  25.569  26.915  1.00  0.00     0.127 S 
ATOM     80  O   UNL A   1      50.805  26.640  27.848  1.00  0.00    -0.237 OA
ATOM     81  O   UNL A   1      49.907  24.366  27.536  1.00  0.00    -0.237 OA
ATOM     82  O   UNL A   1      51.434  25.310  25.864  1.00  0.00    -0.744 OA
ENDBRANCH  76  79
ENDBRANCH  48  72
BRANCH  60  83
ATOM     83  C   UNL A   1      45.112  33.254  29.280  1.00  0.00     0.023 A 
ATOM     84  C   UNL A   1      45.898  33.461  30.430  1.00  0.00     0.012 A 
ATOM     85  C   UNL A   1      45.082  34.243  28.277  1.00  0.00     0.148 A 
ATOM     86  C   UNL A   1      46.614  34.647  30.597  1.00  0.00     0.002 A 
ATOM     87  C   UNL A   1      45.840  35.400  28.427  1.00  0.00     0.091 A 
ATOM     88  F   UNL A   1      44.316  34.039  27.196  1.00  0.00    -0.205 F 
ATOM     89  C   UNL A   1      46.594  35.608  29.592  1.00  0.00     0.022 A 
BRANCH  87  90
ATOM     90  S   UNL A   1      45.958  36.646  27.137  1.00  0.00     0.127 S 
ATOM     91  O   UNL A   1      44.670  37.327  27.261  1.00  0.00    -0.237 OA
ATOM     92  O   UNL A   1      47.110  37.437  27.571  1.00  0.00    -0.237 OA
ATOM     93  O   UNL A   1      46.164  35.915  25.895  1.00  0.00    -0.744 OA
ENDBRANCH  87  90
ENDBRANCH  60  83
ENDBRANCH  34  35
ENDBRANCH  27  29
ENDBRANCH  26  27
ENDBRANCH  25  26
ENDBRANCH   1  25
TORSDOF 18
ENDMDL
