MODEL 1
REMARK VINA RESULT:     -10.6      0.000      0.000
REMARK SMILES CCCCCNC(=O)Oc1cccc(-c2ccc([C@@H](C)C(=O)OCCOCCOC(=O)c3ccc(-c4c5nc(c(-c6cccc(S(=O)(=O)[O-])c6F)c6ccc([nH]6)c(-c6cccc(S(=O)(=O)[O-])c6F)c6nc(c(-c7cccc(S(=O)(=O)[O-])c7F)c7ccc4[nH]7)C=C6)C=C5)cc3)cc2F)c1
REMARK SMILES IDX 24 1 23 2 21 3 22 4 19 5 20 6 18 7 15 8 16 9 96 10 17 11
REMARK SMILES IDX 95 12 97 13 14 14 10 15 11 16 98 17 12 18 13 19 9 20 7 21
REMARK SMILES IDX 6 22 8 24 5 25 4 26 3 27 2 28 1 29 25 30 26 31 27 32 28 33
REMARK SMILES IDX 29 34 30 35 31 36 32 37 33 38 94 39 34 40 93 41 35 42 36 43
REMARK SMILES IDX 37 44 87 45 38 46 92 47 86 48 88 49 39 50 91 51 85 52 84 53
REMARK SMILES IDX 40 55 72 56 52 57 71 58 53 59 56 60 70 61 89 62 54 63 55 64
REMARK SMILES IDX 69 66 90 67 57 68 41 69 42 70 50 71 43 72 45 73 51 74 44 75
REMARK SMILES IDX 46 76 47 77 48 78 49 79 73 80 74 81 82 82 75 83 77 84 83 85
REMARK SMILES IDX 76 86 78 87 79 88 80 89 81 90 58 91 59 92 67 93 60 94 62 95
REMARK SMILES IDX 68 96 61 97 63 98 64 99 65 100 66 101
REMARK H PARENT 6 23 88 54 56 65
REMARK Flexibility Score: inf
ROOT
ATOM      1  C   UNL A   1      34.828  33.994  29.992  1.00  0.00     0.261 C 
ENDROOT
BRANCH   1   2
ATOM      2  O   UNL A   1      36.063  33.474  29.472  1.00  0.00    -0.463 OA
BRANCH   2   3
ATOM      3  C   UNL A   1      35.973  32.770  28.314  1.00  0.00     0.313 C 
ATOM      4  O   UNL A   1      35.957  33.272  27.193  1.00  0.00    -0.252 OA
BRANCH   3   5
ATOM      5  C   UNL A   1      35.864  31.266  28.516  1.00  0.00     0.126 C 
ATOM      6  C   UNL A   1      37.232  30.626  28.306  1.00  0.00     0.025 C 
BRANCH   5   7
ATOM      7  C   UNL A   1      34.757  30.528  27.772  1.00  0.00    -0.031 A 
ATOM      8  C   UNL A   1      32.789  29.139  26.234  1.00  0.00     0.018 A 
ATOM      9  C   UNL A   1      32.503  30.372  26.842  1.00  0.00     0.012 A 
ATOM     10  C   UNL A   1      34.072  28.614  26.431  1.00  0.00     0.131 A 
ATOM     11  C   UNL A   1      33.470  31.056  27.598  1.00  0.00     0.005 A 
ATOM     12  C   UNL A   1      35.037  29.286  27.182  1.00  0.00     0.044 A 
ATOM     13  F   UNL A   1      34.417  27.442  25.873  1.00  0.00    -0.206 F 
BRANCH   8  14
ATOM     14  C   UNL A   1      31.790  28.434  25.411  1.00  0.00    -0.012 A 
ATOM     15  C   UNL A   1      30.593  26.406  24.810  1.00  0.00     0.133 A 
ATOM     16  C   UNL A   1      29.924  27.070  23.786  1.00  0.00     0.047 A 
ATOM     17  C   UNL A   1      31.531  27.068  25.605  1.00  0.00     0.056 A 
ATOM     18  C   UNL A   1      30.169  28.425  23.580  1.00  0.00     0.004 A 
ATOM     19  C   UNL A   1      31.090  29.102  24.388  1.00  0.00     0.009 A 
BRANCH  15  20
ATOM     20  O   UNL A   1      30.365  25.025  24.931  1.00  0.00    -0.410 OA
BRANCH  20  21
ATOM     21  C   UNL A   1      30.167  24.507  26.201  1.00  0.00     0.412 C 
ATOM     22  N   UNL A   1      31.133  23.623  26.588  1.00  0.00    -0.321 N 
ATOM     23  H   UNL A   1      31.033  23.229  27.485  1.00  0.00     0.167 HD
ATOM     24  O   UNL A   1      29.232  24.778  26.957  1.00  0.00    -0.224 OA
BRANCH  22  25
ATOM     25  C   UNL A   1      32.288  23.201  25.823  1.00  0.00     0.119 C 
BRANCH  25  26
ATOM     26  C   UNL A   1      31.992  21.963  24.975  1.00  0.00     0.021 C 
BRANCH  26  27
ATOM     27  C   UNL A   1      33.214  21.325  24.303  1.00  0.00     0.002 C 
BRANCH  27  28
ATOM     28  C   UNL A   1      34.129  20.512  25.223  1.00  0.00    -0.003 C 
ATOM     29  C   UNL A   1      35.608  20.685  24.917  1.00  0.00     0.004 C 
ENDBRANCH  27  28
ENDBRANCH  26  27
ENDBRANCH  25  26
ENDBRANCH  22  25
ENDBRANCH  20  21
ENDBRANCH  15  20
ENDBRANCH   8  14
ENDBRANCH   5   7
ENDBRANCH   3   5
ENDBRANCH   2   3
ENDBRANCH   1   2
BRANCH   1  30
ATOM     30  C   UNL A   1      34.340  33.188  31.198  1.00  0.00     0.202 C 
BRANCH  30  31
ATOM     31  O   UNL A   1      33.628  33.909  32.206  1.00  0.00    -0.374 OA
BRANCH  31  32
ATOM     32  C   UNL A   1      33.918  33.592  33.567  1.00  0.00     0.202 C 
BRANCH  32  33
ATOM     33  C   UNL A   1      35.387  33.650  34.008  1.00  0.00     0.261 C 
BRANCH  33  34
ATOM     34  O   UNL A   1      35.982  32.348  34.134  1.00  0.00    -0.460 OA
BRANCH  34  35
ATOM     35  C   UNL A   1      37.303  32.359  34.438  1.00  0.00     0.338 C 
ATOM     36  O   UNL A   1      37.815  32.734  35.481  1.00  0.00    -0.246 OA
BRANCH  35  37
ATOM     37  C   UNL A   1      38.069  31.644  33.398  1.00  0.00     0.060 A 
ATOM     38  C   UNL A   1      38.899  30.598  33.822  1.00  0.00     0.016 A 
ATOM     39  C   UNL A   1      38.040  32.029  32.057  1.00  0.00     0.016 A 
ATOM     40  C   UNL A   1      39.751  29.971  32.916  1.00  0.00     0.010 A 
ATOM     41  C   UNL A   1      38.901  31.399  31.148  1.00  0.00     0.010 A 
ATOM     42  C   UNL A   1      39.789  30.396  31.582  1.00  0.00    -0.014 A 
BRANCH  42  43
ATOM     43  C   UNL A   1      40.858  29.888  30.688  1.00  0.00     0.031 A 
ATOM     44  C   UNL A   1      42.130  30.680  30.541  1.00  0.00     0.074 A 
ATOM     45  C   UNL A   1      40.711  28.722  30.032  1.00  0.00     0.049 A 
ATOM     46  N   UNL A   1      43.186  30.422  29.814  1.00  0.00    -0.248 NA
ATOM     47  C   UNL A   1      42.224  31.928  31.317  1.00  0.00     0.031 C 
ATOM     48  C   UNL A   1      39.533  27.859  30.099  1.00  0.00     0.029 A 
ATOM     49  N   UNL A   1      41.554  28.076  29.163  1.00  0.00    -0.354 N 
ATOM     50  C   UNL A   1      44.056  31.486  30.019  1.00  0.00     0.074 A 
ATOM     51  C   UNL A   1      43.401  32.399  30.930  1.00  0.00     0.031 C 
ATOM     52  C   UNL A   1      39.718  26.807  29.284  1.00  0.00     0.029 A 
ATOM     53  C   UNL A   1      41.014  26.934  28.620  1.00  0.00     0.049 A 
ATOM     54  H   UNL A   1      42.460  28.397  28.949  1.00  0.00     0.167 HD
ATOM     55  C   UNL A   1      45.296  31.680  29.510  1.00  0.00     0.034 A 
ATOM     56  C   UNL A   1      41.502  26.098  27.681  1.00  0.00     0.034 A 
ATOM     57  C   UNL A   1      45.958  30.761  28.622  1.00  0.00     0.049 A 
ATOM     58  C   UNL A   1      42.873  26.349  27.110  1.00  0.00     0.074 A 
ATOM     59  C   UNL A   1      47.234  30.844  28.094  1.00  0.00     0.029 A 
ATOM     60  N   UNL A   1      45.393  29.599  28.122  1.00  0.00    -0.354 N 
ATOM     61  N   UNL A   1      43.730  27.295  27.406  1.00  0.00    -0.248 NA
ATOM     62  C   UNL A   1      43.359  25.395  26.102  1.00  0.00     0.031 C 
ATOM     63  C   UNL A   1      47.430  29.747  27.249  1.00  0.00     0.029 A 
ATOM     64  C   UNL A   1      46.288  28.963  27.278  1.00  0.00     0.049 A 
ATOM     65  H   UNL A   1      44.489  29.272  28.336  1.00  0.00     0.167 HD
ATOM     66  C   UNL A   1      44.867  27.032  26.648  1.00  0.00     0.074 A 
ATOM     67  C   UNL A   1      44.596  25.825  25.895  1.00  0.00     0.031 C 
ATOM     68  C   UNL A   1      46.027  27.733  26.573  1.00  0.00     0.034 A 
BRANCH  55  69
ATOM     69  C   UNL A   1      46.033  32.929  29.918  1.00  0.00     0.023 A 
ATOM     70  C   UNL A   1      46.973  32.875  30.967  1.00  0.00     0.012 A 
ATOM     71  C   UNL A   1      45.835  34.141  29.228  1.00  0.00     0.148 A 
ATOM     72  C   UNL A   1      47.682  34.015  31.345  1.00  0.00     0.002 A 
ATOM     73  C   UNL A   1      46.578  35.262  29.580  1.00  0.00     0.091 A 
ATOM     74  F   UNL A   1      44.922  34.178  28.248  1.00  0.00    -0.205 F 
ATOM     75  C   UNL A   1      47.493  35.204  30.645  1.00  0.00     0.022 A 
BRANCH  73  76
ATOM     76  S   UNL A   1      46.464  36.818  28.690  1.00  0.00     0.127 S 
ATOM     77  O   UNL A   1      46.756  36.398  27.321  1.00  0.00    -0.237 OA
ATOM     78  O   UNL A   1      45.072  37.206  28.923  1.00  0.00    -0.237 OA
ATOM     79  O   UNL A   1      47.449  37.702  29.297  1.00  0.00    -0.744 OA
ENDBRANCH  73  76
ENDBRANCH  55  69
BRANCH  56  80
ATOM     80  C   UNL A   1      40.695  24.925  27.241  1.00  0.00     0.023 A 
ATOM     81  C   UNL A   1      39.453  25.131  26.610  1.00  0.00     0.012 A 
ATOM     82  C   UNL A   1      41.159  23.609  27.431  1.00  0.00     0.148 A 
ATOM     83  C   UNL A   1      38.675  24.047  26.199  1.00  0.00     0.002 A 
ATOM     84  C   UNL A   1      40.406  22.536  26.970  1.00  0.00     0.091 A 
ATOM     85  F   UNL A   1      42.334  23.434  28.051  1.00  0.00    -0.205 F 
ATOM     86  C   UNL A   1      39.155  22.751  26.370  1.00  0.00     0.022 A 
BRANCH  84  87
ATOM     87  S   UNL A   1      41.005  20.843  27.029  1.00  0.00     0.127 S 
ATOM     88  O   UNL A   1      40.830  20.513  28.439  1.00  0.00    -0.237 OA
ATOM     89  O   UNL A   1      40.082  20.166  26.117  1.00  0.00    -0.237 OA
ATOM     90  O   UNL A   1      42.383  20.897  26.557  1.00  0.00    -0.744 OA
ENDBRANCH  84  87
ENDBRANCH  56  80
BRANCH  68  91
ATOM     91  C   UNL A   1      47.114  27.200  25.676  1.00  0.00     0.023 A 
ATOM     92  C   UNL A   1      47.914  26.121  26.105  1.00  0.00     0.012 A 
ATOM     93  C   UNL A   1      47.292  27.717  24.377  1.00  0.00     0.148 A 
ATOM     94  C   UNL A   1      48.894  25.588  25.269  1.00  0.00     0.002 A 
ATOM     95  C   UNL A   1      48.237  27.148  23.531  1.00  0.00     0.091 A 
ATOM     96  F   UNL A   1      46.534  28.753  23.992  1.00  0.00    -0.205 F 
ATOM     97  C   UNL A   1      49.048  26.092  23.979  1.00  0.00     0.022 A 
BRANCH  95  98
ATOM     98  S   UNL A   1      48.438  27.667  21.823  1.00  0.00     0.127 S 
ATOM     99  O   UNL A   1      48.742  26.399  21.159  1.00  0.00    -0.237 OA
ATOM    100  O   UNL A   1      47.119  28.219  21.508  1.00  0.00    -0.237 OA
ATOM    101  O   UNL A   1      49.517  28.645  21.824  1.00  0.00    -0.744 OA
ENDBRANCH  95  98
ENDBRANCH  68  91
ENDBRANCH  42  43
ENDBRANCH  35  37
ENDBRANCH  34  35
ENDBRANCH  33  34
ENDBRANCH  32  33
ENDBRANCH  31  32
ENDBRANCH  30  31
ENDBRANCH   1  30
TORSDOF 25
ENDMDL
MODEL 2
REMARK VINA RESULT:      -9.6      4.383      9.287
REMARK SMILES CCCCCNC(=O)Oc1cccc(-c2ccc([C@@H](C)C(=O)OCCOCCOC(=O)c3ccc(-c4c5nc(c(-c6cccc(S(=O)(=O)[O-])c6F)c6ccc([nH]6)c(-c6cccc(S(=O)(=O)[O-])c6F)c6nc(c(-c7cccc(S(=O)(=O)[O-])c7F)c7ccc4[nH]7)C=C6)C=C5)cc3)cc2F)c1
REMARK SMILES IDX 24 1 23 2 21 3 22 4 19 5 20 6 18 7 15 8 16 9 96 10 17 11
REMARK SMILES IDX 95 12 97 13 14 14 10 15 11 16 98 17 12 18 13 19 9 20 7 21
REMARK SMILES IDX 6 22 8 24 5 25 4 26 3 27 2 28 1 29 25 30 26 31 27 32 28 33
REMARK SMILES IDX 29 34 30 35 31 36 32 37 33 38 94 39 34 40 93 41 35 42 36 43
REMARK SMILES IDX 37 44 87 45 38 46 92 47 86 48 88 49 39 50 91 51 85 52 84 53
REMARK SMILES IDX 40 55 72 56 52 57 71 58 53 59 56 60 70 61 89 62 54 63 55 64
REMARK SMILES IDX 69 66 90 67 57 68 41 69 42 70 50 71 43 72 45 73 51 74 44 75
REMARK SMILES IDX 46 76 47 77 48 78 49 79 73 80 74 81 82 82 75 83 77 84 83 85
REMARK SMILES IDX 76 86 78 87 79 88 80 89 81 90 58 91 59 92 67 93 60 94 62 95
REMARK SMILES IDX 68 96 61 97 63 98 64 99 65 100 66 101
REMARK H PARENT 6 23 88 54 56 65
REMARK Flexibility Score: inf
ROOT
ATOM      1  C   UNL A   1      34.783  33.711  28.553  1.00  0.00     0.261 C 
ENDROOT
BRANCH   1   2
ATOM      2  O   UNL A   1      35.159  32.368  28.903  1.00  0.00    -0.463 OA
BRANCH   2   3
ATOM      3  C   UNL A   1      36.426  32.001  28.581  1.00  0.00     0.313 C 
ATOM      4  O   UNL A   1      37.408  32.734  28.672  1.00  0.00    -0.252 OA
BRANCH   3   5
ATOM      5  C   UNL A   1      36.540  30.577  28.058  1.00  0.00     0.126 C 
ATOM      6  C   UNL A   1      35.322  29.775  28.502  1.00  0.00     0.025 C 
BRANCH   5   7
ATOM      7  C   UNL A   1      37.848  29.833  28.304  1.00  0.00    -0.031 A 
ATOM      8  C   UNL A   1      40.255  28.328  28.627  1.00  0.00     0.018 A 
ATOM      9  C   UNL A   1      39.353  28.498  29.690  1.00  0.00     0.012 A 
ATOM     10  C   UNL A   1      39.933  28.944  27.412  1.00  0.00     0.131 A 
ATOM     11  C   UNL A   1      38.168  29.237  29.532  1.00  0.00     0.005 A 
ATOM     12  C   UNL A   1      38.759  29.681  27.247  1.00  0.00     0.044 A 
ATOM     13  F   UNL A   1      40.746  28.818  26.351  1.00  0.00    -0.206 F 
BRANCH   8  14
ATOM     14  C   UNL A   1      41.482  27.525  28.777  1.00  0.00    -0.012 A 
ATOM     15  C   UNL A   1      43.083  25.921  27.899  1.00  0.00     0.133 A 
ATOM     16  C   UNL A   1      43.796  25.935  29.095  1.00  0.00     0.047 A 
ATOM     17  C   UNL A   1      41.928  26.690  27.741  1.00  0.00     0.056 A 
ATOM     18  C   UNL A   1      43.368  26.758  30.133  1.00  0.00     0.004 A 
ATOM     19  C   UNL A   1      42.224  27.549  29.974  1.00  0.00     0.009 A 
BRANCH  15  20
ATOM     20  O   UNL A   1      43.514  25.021  26.909  1.00  0.00    -0.410 OA
BRANCH  20  21
ATOM     21  C   UNL A   1      43.342  23.666  27.143  1.00  0.00     0.412 C 
ATOM     22  N   UNL A   1      43.390  22.905  26.010  1.00  0.00    -0.321 N 
ATOM     23  H   UNL A   1      43.273  21.935  26.128  1.00  0.00     0.167 HD
ATOM     24  O   UNL A   1      43.162  23.136  28.241  1.00  0.00    -0.224 OA
BRANCH  22  25
ATOM     25  C   UNL A   1      43.594  23.371  24.653  1.00  0.00     0.119 C 
BRANCH  25  26
ATOM     26  C   UNL A   1      44.694  22.586  23.937  1.00  0.00     0.021 C 
BRANCH  26  27
ATOM     27  C   UNL A   1      46.059  22.590  24.637  1.00  0.00     0.002 C 
BRANCH  27  28
ATOM     28  C   UNL A   1      46.863  23.887  24.514  1.00  0.00    -0.003 C 
ATOM     29  C   UNL A   1      46.787  24.769  25.750  1.00  0.00     0.004 C 
ENDBRANCH  27  28
ENDBRANCH  26  27
ENDBRANCH  25  26
ENDBRANCH  22  25
ENDBRANCH  20  21
ENDBRANCH  15  20
ENDBRANCH   8  14
ENDBRANCH   5   7
ENDBRANCH   3   5
ENDBRANCH   2   3
ENDBRANCH   1   2
BRANCH   1  30
ATOM     30  C   UNL A   1      33.273  33.926  28.681  1.00  0.00     0.202 C 
BRANCH  30  31
ATOM     31  O   UNL A   1      32.838  34.842  29.687  1.00  0.00    -0.374 OA
BRANCH  31  32
ATOM     32  C   UNL A   1      33.789  35.227  30.679  1.00  0.00     0.202 C 
BRANCH  32  33
ATOM     33  C   UNL A   1      33.275  35.420  32.112  1.00  0.00     0.261 C 
BRANCH  33  34
ATOM     34  O   UNL A   1      34.185  34.913  33.102  1.00  0.00    -0.460 OA
BRANCH  34  35
ATOM     35  C   UNL A   1      34.165  33.564  33.247  1.00  0.00     0.338 C 
ATOM     36  O   UNL A   1      33.180  32.845  33.304  1.00  0.00    -0.246 OA
BRANCH  35  37
ATOM     37  C   UNL A   1      35.531  33.020  33.119  1.00  0.00     0.060 A 
ATOM     38  C   UNL A   1      36.563  33.732  33.743  1.00  0.00     0.016 A 
ATOM     39  C   UNL A   1      35.812  31.891  32.348  1.00  0.00     0.016 A 
ATOM     40  C   UNL A   1      37.889  33.354  33.551  1.00  0.00     0.010 A 
ATOM     41  C   UNL A   1      37.147  31.514  32.152  1.00  0.00     0.010 A 
ATOM     42  C   UNL A   1      38.193  32.268  32.720  1.00  0.00    -0.014 A 
BRANCH  42  43
ATOM     43  C   UNL A   1      39.604  32.021  32.335  1.00  0.00     0.031 A 
ATOM     44  C   UNL A   1      40.342  30.862  32.953  1.00  0.00     0.074 A 
ATOM     45  C   UNL A   1      40.217  32.801  31.427  1.00  0.00     0.049 A 
ATOM     46  N   UNL A   1      41.573  30.468  32.762  1.00  0.00    -0.248 NA
ATOM     47  C   UNL A   1      39.589  30.038  33.914  1.00  0.00     0.031 C 
ATOM     48  C   UNL A   1      39.610  33.945  30.750  1.00  0.00     0.029 A 
ATOM     49  N   UNL A   1      41.498  32.758  30.934  1.00  0.00    -0.354 N 
ATOM     50  C   UNL A   1      41.755  29.373  33.597  1.00  0.00     0.074 A 
ATOM     51  C   UNL A   1      40.511  29.171  34.306  1.00  0.00     0.031 C 
ATOM     52  C   UNL A   1      40.526  34.513  29.947  1.00  0.00     0.029 A 
ATOM     53  C   UNL A   1      41.790  33.789  30.071  1.00  0.00     0.049 A 
ATOM     54  H   UNL A   1      42.146  32.057  31.174  1.00  0.00     0.167 HD
ATOM     55  C   UNL A   1      42.853  28.594  33.750  1.00  0.00     0.034 A 
ATOM     56  C   UNL A   1      42.949  34.120  29.468  1.00  0.00     0.034 A 
ATOM     57  C   UNL A   1      44.083  28.781  33.029  1.00  0.00     0.049 A 
ATOM     58  C   UNL A   1      44.163  33.253  29.673  1.00  0.00     0.074 A 
ATOM     59  C   UNL A   1      45.233  28.013  33.077  1.00  0.00     0.029 A 
ATOM     60  N   UNL A   1      44.329  29.814  32.139  1.00  0.00    -0.354 N 
ATOM     61  N   UNL A   1      44.283  32.152  30.374  1.00  0.00    -0.248 NA
ATOM     62  C   UNL A   1      45.394  33.655  28.977  1.00  0.00     0.031 C 
ATOM     63  C   UNL A   1      46.187  28.600  32.239  1.00  0.00     0.029 A 
ATOM     64  C   UNL A   1      45.618  29.714  31.643  1.00  0.00     0.049 A 
ATOM     65  H   UNL A   1      43.683  30.516  31.895  1.00  0.00     0.167 HD
ATOM     66  C   UNL A   1      45.587  31.711  30.176  1.00  0.00     0.074 A 
ATOM     67  C   UNL A   1      46.213  32.654  29.272  1.00  0.00     0.031 C 
ATOM     68  C   UNL A   1      46.214  30.629  30.703  1.00  0.00     0.034 A 
BRANCH  55  69
ATOM     69  C   UNL A   1      42.767  27.449  34.725  1.00  0.00     0.023 A 
ATOM     70  C   UNL A   1      41.888  26.376  34.468  1.00  0.00     0.012 A 
ATOM     71  C   UNL A   1      43.595  27.406  35.864  1.00  0.00     0.148 A 
ATOM     72  C   UNL A   1      41.811  25.296  35.346  1.00  0.00     0.002 A 
ATOM     73  C   UNL A   1      43.545  26.305  36.711  1.00  0.00     0.091 A 
ATOM     74  F   UNL A   1      44.408  28.444  36.103  1.00  0.00    -0.205 F 
ATOM     75  C   UNL A   1      42.646  25.255  36.459  1.00  0.00     0.022 A 
BRANCH  73  76
ATOM     76  S   UNL A   1      44.634  26.122  38.127  1.00  0.00     0.127 S 
ATOM     77  O   UNL A   1      45.805  26.888  37.701  1.00  0.00    -0.237 OA
ATOM     78  O   UNL A   1      43.856  26.746  39.198  1.00  0.00    -0.237 OA
ATOM     79  O   UNL A   1      44.848  24.691  38.287  1.00  0.00    -0.744 OA
ENDBRANCH  73  76
ENDBRANCH  55  69
BRANCH  56  80
ATOM     80  C   UNL A   1      43.008  35.319  28.584  1.00  0.00     0.023 A 
ATOM     81  C   UNL A   1      42.732  35.186  27.209  1.00  0.00     0.012 A 
ATOM     82  C   UNL A   1      43.320  36.592  29.102  1.00  0.00     0.148 A 
ATOM     83  C   UNL A   1      42.792  36.293  26.362  1.00  0.00     0.002 A 
ATOM     84  C   UNL A   1      43.323  37.699  28.263  1.00  0.00     0.091 A 
ATOM     85  F   UNL A   1      43.598  36.693  30.409  1.00  0.00    -0.205 F 
ATOM     86  C   UNL A   1      43.077  37.550  26.889  1.00  0.00     0.022 A 
BRANCH  84  87
ATOM     87  S   UNL A   1      43.551  39.372  28.877  1.00  0.00     0.127 S 
ATOM     88  O   UNL A   1      44.116  40.045  27.712  1.00  0.00    -0.237 OA
ATOM     89  O   UNL A   1      42.179  39.759  29.209  1.00  0.00    -0.237 OA
ATOM     90  O   UNL A   1      44.435  39.251  30.029  1.00  0.00    -0.744 OA
ENDBRANCH  84  87
ENDBRANCH  56  80
BRANCH  68  91
ATOM     91  C   UNL A   1      47.642  30.375  30.292  1.00  0.00     0.023 A 
ATOM     92  C   UNL A   1      48.699  30.808  31.119  1.00  0.00     0.012 A 
ATOM     93  C   UNL A   1      47.935  29.640  29.126  1.00  0.00     0.148 A 
ATOM     94  C   UNL A   1      50.024  30.541  30.774  1.00  0.00     0.002 A 
ATOM     95  C   UNL A   1      49.255  29.335  28.815  1.00  0.00     0.091 A 
ATOM     96  F   UNL A   1      46.918  29.251  28.343  1.00  0.00    -0.205 F 
ATOM     97  C   UNL A   1      50.301  29.796  29.631  1.00  0.00     0.022 A 
BRANCH  95  98
ATOM     98  S   UNL A   1      49.701  28.299  27.417  1.00  0.00     0.127 S 
ATOM     99  O   UNL A   1      51.116  28.034  27.681  1.00  0.00    -0.237 OA
ATOM    100  O   UNL A   1      48.822  27.142  27.594  1.00  0.00    -0.237 OA
ATOM    101  O   UNL A   1      49.426  29.090  26.226  1.00  0.00    -0.744 OA
ENDBRANCH  95  98
ENDBRANCH  68  91
ENDBRANCH  42  43
ENDBRANCH  35  37
ENDBRANCH  34  35
ENDBRANCH  33  34
ENDBRANCH  32  33
ENDBRANCH  31  32
ENDBRANCH  30  31
ENDBRANCH   1  30
TORSDOF 25
ENDMDL
MODEL 3
REMARK VINA RESULT:      -9.0      5.774      8.610
REMARK SMILES CCCCCNC(=O)Oc1cccc(-c2ccc([C@@H](C)C(=O)OCCOCCOC(=O)c3ccc(-c4c5nc(c(-c6cccc(S(=O)(=O)[O-])c6F)c6ccc([nH]6)c(-c6cccc(S(=O)(=O)[O-])c6F)c6nc(c(-c7cccc(S(=O)(=O)[O-])c7F)c7ccc4[nH]7)C=C6)C=C5)cc3)cc2F)c1
REMARK SMILES IDX 24 1 23 2 21 3 22 4 19 5 20 6 18 7 15 8 16 9 96 10 17 11
REMARK SMILES IDX 95 12 97 13 14 14 10 15 11 16 98 17 12 18 13 19 9 20 7 21
REMARK SMILES IDX 6 22 8 24 5 25 4 26 3 27 2 28 1 29 25 30 26 31 27 32 28 33
REMARK SMILES IDX 29 34 30 35 31 36 32 37 33 38 94 39 34 40 93 41 35 42 36 43
REMARK SMILES IDX 37 44 87 45 38 46 92 47 86 48 88 49 39 50 91 51 85 52 84 53
REMARK SMILES IDX 40 55 72 56 52 57 71 58 53 59 56 60 70 61 89 62 54 63 55 64
REMARK SMILES IDX 69 66 90 67 57 68 41 69 42 70 50 71 43 72 45 73 51 74 44 75
REMARK SMILES IDX 46 76 47 77 48 78 49 79 73 80 74 81 82 82 75 83 77 84 83 85
REMARK SMILES IDX 76 86 78 87 79 88 80 89 81 90 58 91 59 92 67 93 60 94 62 95
REMARK SMILES IDX 68 96 61 97 63 98 64 99 65 100 66 101
REMARK H PARENT 6 23 88 54 56 65
REMARK Flexibility Score: inf
ROOT
ATOM      1  C   UNL A   1      34.464  33.516  30.340  1.00  0.00     0.261 C 
ENDROOT
BRANCH   1   2
ATOM      2  O   UNL A   1      35.741  33.577  29.683  1.00  0.00    -0.463 OA
BRANCH   2   3
ATOM      3  C   UNL A   1      35.834  32.916  28.501  1.00  0.00     0.313 C 
ATOM      4  O   UNL A   1      35.904  33.462  27.402  1.00  0.00    -0.252 OA
BRANCH   3   5
ATOM      5  C   UNL A   1      35.821  31.402  28.639  1.00  0.00     0.126 C 
ATOM      6  C   UNL A   1      37.214  30.853  28.348  1.00  0.00     0.025 C 
BRANCH   5   7
ATOM      7  C   UNL A   1      34.728  30.631  27.908  1.00  0.00    -0.031 A 
ATOM      8  C   UNL A   1      32.795  29.159  26.403  1.00  0.00     0.018 A 
ATOM      9  C   UNL A   1      32.534  30.466  26.845  1.00  0.00     0.012 A 
ATOM     10  C   UNL A   1      34.033  28.604  26.749  1.00  0.00     0.131 A 
ATOM     11  C   UNL A   1      33.484  31.191  27.585  1.00  0.00     0.005 A 
ATOM     12  C   UNL A   1      34.982  29.317  27.484  1.00  0.00     0.044 A 
ATOM     13  F   UNL A   1      34.353  27.362  26.354  1.00  0.00    -0.206 F 
BRANCH   8  14
ATOM     14  C   UNL A   1      31.817  28.407  25.598  1.00  0.00    -0.012 A 
ATOM     15  C   UNL A   1      30.702  26.325  25.022  1.00  0.00     0.133 A 
ATOM     16  C   UNL A   1      29.990  26.955  24.004  1.00  0.00     0.047 A 
ATOM     17  C   UNL A   1      31.620  27.032  25.801  1.00  0.00     0.056 A 
ATOM     18  C   UNL A   1      30.173  28.318  23.789  1.00  0.00     0.004 A 
ATOM     19  C   UNL A   1      31.075  29.038  24.581  1.00  0.00     0.009 A 
BRANCH  15  20
ATOM     20  O   UNL A   1      30.535  24.936  25.152  1.00  0.00    -0.410 OA
BRANCH  20  21
ATOM     21  C   UNL A   1      31.383  24.257  26.012  1.00  0.00     0.412 C 
ATOM     22  N   UNL A   1      32.428  23.646  25.381  1.00  0.00    -0.321 N 
ATOM     23  H   UNL A   1      33.058  23.151  25.954  1.00  0.00     0.167 HD
ATOM     24  O   UNL A   1      31.262  24.176  27.236  1.00  0.00    -0.224 OA
BRANCH  22  25
ATOM     25  C   UNL A   1      32.711  23.646  23.960  1.00  0.00     0.119 C 
BRANCH  25  26
ATOM     26  C   UNL A   1      33.867  24.583  23.607  1.00  0.00     0.021 C 
BRANCH  26  27
ATOM     27  C   UNL A   1      33.499  25.756  22.689  1.00  0.00     0.002 C 
BRANCH  27  28
ATOM     28  C   UNL A   1      34.020  27.128  23.126  1.00  0.00    -0.003 C 
ATOM     29  C   UNL A   1      33.757  28.229  22.110  1.00  0.00     0.004 C 
ENDBRANCH  27  28
ENDBRANCH  26  27
ENDBRANCH  25  26
ENDBRANCH  22  25
ENDBRANCH  20  21
ENDBRANCH  15  20
ENDBRANCH   8  14
ENDBRANCH   5   7
ENDBRANCH   3   5
ENDBRANCH   2   3
ENDBRANCH   1   2
BRANCH   1  30
ATOM     30  C   UNL A   1      34.547  32.753  31.665  1.00  0.00     0.202 C 
BRANCH  30  31
ATOM     31  O   UNL A   1      33.984  33.394  32.811  1.00  0.00    -0.374 OA
BRANCH  31  32
ATOM     32  C   UNL A   1      34.770  33.417  34.002  1.00  0.00     0.202 C 
BRANCH  32  33
ATOM     33  C   UNL A   1      35.688  34.627  34.219  1.00  0.00     0.261 C 
BRANCH  33  34
ATOM     34  O   UNL A   1      37.060  34.349  33.894  1.00  0.00    -0.460 OA
BRANCH  34  35
ATOM     35  C   UNL A   1      37.844  34.054  34.962  1.00  0.00     0.338 C 
ATOM     36  O   UNL A   1      37.662  34.389  36.122  1.00  0.00    -0.246 OA
BRANCH  35  37
ATOM     37  C   UNL A   1      38.874  33.070  34.578  1.00  0.00     0.060 A 
ATOM     38  C   UNL A   1      38.590  31.720  34.821  1.00  0.00     0.016 A 
ATOM     39  C   UNL A   1      40.116  33.453  34.069  1.00  0.00     0.016 A 
ATOM     40  C   UNL A   1      39.567  30.751  34.611  1.00  0.00     0.010 A 
ATOM     41  C   UNL A   1      41.099  32.477  33.862  1.00  0.00     0.010 A 
ATOM     42  C   UNL A   1      40.842  31.127  34.171  1.00  0.00    -0.014 A 
BRANCH  42  43
ATOM     43  C   UNL A   1      41.937  30.127  34.177  1.00  0.00     0.031 A 
ATOM     44  C   UNL A   1      42.176  29.292  32.947  1.00  0.00     0.074 A 
ATOM     45  C   UNL A   1      42.728  29.978  35.255  1.00  0.00     0.049 A 
ATOM     46  N   UNL A   1      43.072  28.363  32.738  1.00  0.00    -0.248 NA
ATOM     47  C   UNL A   1      41.287  29.539  31.799  1.00  0.00     0.031 C 
ATOM     48  C   UNL A   1      42.606  30.731  36.502  1.00  0.00     0.029 A 
ATOM     49  N   UNL A   1      43.780  29.124  35.478  1.00  0.00    -0.354 N 
ATOM     50  C   UNL A   1      42.838  27.893  31.451  1.00  0.00     0.074 A 
ATOM     51  C   UNL A   1      41.708  28.631  30.931  1.00  0.00     0.031 C 
ATOM     52  C   UNL A   1      43.531  30.289  37.371  1.00  0.00     0.029 A 
ATOM     53  C   UNL A   1      44.294  29.206  36.752  1.00  0.00     0.049 A 
ATOM     54  H   UNL A   1      44.134  28.512  34.793  1.00  0.00     0.167 HD
ATOM     55  C   UNL A   1      43.511  26.944  30.758  1.00  0.00     0.034 A 
ATOM     56  C   UNL A   1      45.255  28.477  37.353  1.00  0.00     0.034 A 
ATOM     57  C   UNL A   1      44.649  26.226  31.267  1.00  0.00     0.049 A 
ATOM     58  C   UNL A   1      45.973  27.410  36.569  1.00  0.00     0.074 A 
ATOM     59  C   UNL A   1      45.430  25.284  30.621  1.00  0.00     0.029 A 
ATOM     60  N   UNL A   1      45.162  26.361  32.547  1.00  0.00    -0.354 N 
ATOM     61  N   UNL A   1      45.817  27.061  35.315  1.00  0.00    -0.248 NA
ATOM     62  C   UNL A   1      47.023  26.659  37.273  1.00  0.00     0.031 C 
ATOM     63  C   UNL A   1      46.397  24.825  31.523  1.00  0.00     0.029 A 
ATOM     64  C   UNL A   1      46.238  25.508  32.718  1.00  0.00     0.049 A 
ATOM     65  H   UNL A   1      44.812  26.974  33.234  1.00  0.00     0.167 HD
ATOM     66  C   UNL A   1      46.771  26.078  35.070  1.00  0.00     0.074 A 
ATOM     67  C   UNL A   1      47.513  25.901  36.302  1.00  0.00     0.031 C 
ATOM     68  C   UNL A   1      47.004  25.376  33.932  1.00  0.00     0.034 A 
BRANCH  55  69
ATOM     69  C   UNL A   1      43.047  26.640  29.358  1.00  0.00     0.023 A 
ATOM     70  C   UNL A   1      42.180  25.552  29.129  1.00  0.00     0.012 A 
ATOM     71  C   UNL A   1      43.424  27.462  28.277  1.00  0.00     0.148 A 
ATOM     72  C   UNL A   1      41.721  25.267  27.844  1.00  0.00     0.002 A 
ATOM     73  C   UNL A   1      42.927  27.199  27.006  1.00  0.00     0.091 A 
ATOM     74  F   UNL A   1      44.266  28.478  28.510  1.00  0.00    -0.205 F 
ATOM     75  C   UNL A   1      42.084  26.096  26.786  1.00  0.00     0.022 A 
BRANCH  73  76
ATOM     76  S   UNL A   1      43.274  28.253  25.594  1.00  0.00     0.127 S 
ATOM     77  O   UNL A   1      42.281  27.788  24.626  1.00  0.00    -0.237 OA
ATOM     78  O   UNL A   1      43.017  29.588  26.134  1.00  0.00    -0.237 OA
ATOM     79  O   UNL A   1      44.662  28.000  25.235  1.00  0.00    -0.744 OA
ENDBRANCH  73  76
ENDBRANCH  55  69
BRANCH  56  80
ATOM     80  C   UNL A   1      45.616  28.754  38.773  1.00  0.00     0.023 A 
ATOM     81  C   UNL A   1      45.095  27.939  39.796  1.00  0.00     0.012 A 
ATOM     82  C   UNL A   1      46.485  29.811  39.111  1.00  0.00     0.148 A 
ATOM     83  C   UNL A   1      45.411  28.186  41.133  1.00  0.00     0.002 A 
ATOM     84  C   UNL A   1      46.839  30.017  40.439  1.00  0.00     0.091 A 
ATOM     85  F   UNL A   1      46.954  30.586  38.124  1.00  0.00    -0.205 F 
ATOM     86  C   UNL A   1      46.290  29.218  41.453  1.00  0.00     0.022 A 
BRANCH  84  87
ATOM     87  S   UNL A   1      48.064  31.236  40.929  1.00  0.00     0.127 S 
ATOM     88  O   UNL A   1      48.958  31.243  39.776  1.00  0.00    -0.237 OA
ATOM     89  O   UNL A   1      47.245  32.440  41.083  1.00  0.00    -0.237 OA
ATOM     90  O   UNL A   1      48.638  30.739  42.173  1.00  0.00    -0.744 OA
ENDBRANCH  84  87
ENDBRANCH  56  80
BRANCH  68  91
ATOM     91  C   UNL A   1      48.130  24.375  33.942  1.00  0.00     0.023 A 
ATOM     92  C   UNL A   1      49.437  24.784  33.606  1.00  0.00     0.012 A 
ATOM     93  C   UNL A   1      47.908  23.047  34.358  1.00  0.00     0.148 A 
ATOM     94  C   UNL A   1      50.497  23.879  33.653  1.00  0.00     0.002 A 
ATOM     95  C   UNL A   1      48.978  22.164  34.451  1.00  0.00     0.091 A 
ATOM     96  F   UNL A   1      46.656  22.672  34.658  1.00  0.00    -0.205 F 
ATOM     97  C   UNL A   1      50.270  22.574  34.087  1.00  0.00     0.022 A 
BRANCH  95  98
ATOM     98  S   UNL A   1      48.798  20.495  35.091  1.00  0.00     0.127 S 
ATOM     99  O   UNL A   1      47.956  19.873  34.069  1.00  0.00    -0.237 OA
ATOM    100  O   UNL A   1      50.181  20.019  35.113  1.00  0.00    -0.237 OA
ATOM    101  O   UNL A   1      48.185  20.633  36.405  1.00  0.00    -0.744 OA
ENDBRANCH  95  98
ENDBRANCH  68  91
ENDBRANCH  42  43
ENDBRANCH  35  37
ENDBRANCH  34  35
ENDBRANCH  33  34
ENDBRANCH  32  33
ENDBRANCH  31  32
ENDBRANCH  30  31
ENDBRANCH   1  30
TORSDOF 25
ENDMDL
