MODEL 1
REMARK VINA RESULT:     -10.6      0.000      0.000
REMARK SMILES CSc1nc(C2CC2)nc(C)c1C(=O)OCCOCCOC(=O)c1ccc(-c2c3nc(c(-c4cccc(S(=O)(=O)[O-])c4F)c4ccc([nH]4)c(-c4cccc(S(=O)(=O)[O-])c4F)c4nc(c(-c5cccc(S(=O)(=O)[O-])c5F)c5ccc2[nH]5)C=C4)C=C3)cc1
REMARK SMILES IDX 19 1 18 2 17 3 16 4 15 5 13 6 14 7 12 8 3 9 4 10 5 11 10 12
REMARK SMILES IDX 9 13 11 14 2 15 1 16 6 17 7 18 8 19 20 20 21 21 22 22 23 23
REMARK SMILES IDX 24 24 25 25 86 26 26 27 85 28 27 29 28 30 29 31 79 32 30 33
REMARK SMILES IDX 84 34 78 35 80 36 31 37 83 38 77 39 76 40 32 42 64 43 44 44
REMARK SMILES IDX 63 45 45 46 48 47 62 48 81 49 46 50 47 51 61 53 82 54 49 55
REMARK SMILES IDX 33 56 34 57 42 58 35 59 37 60 43 61 36 62 38 63 39 64 40 65
REMARK SMILES IDX 41 66 65 67 66 68 74 69 67 70 69 71 75 72 68 73 70 74 71 75
REMARK SMILES IDX 72 76 73 77 50 78 51 79 59 80 52 81 54 82 60 83 53 84 55 85
REMARK SMILES IDX 56 86 57 87 58 88
REMARK H PARENT 80 41 48 52
REMARK Flexibility Score: inf
ROOT
ATOM      1  C   UNL A   1      35.565  21.448  24.725  1.00  0.00     0.202 C 
ENDROOT
BRANCH   1   2
ATOM      2  O   UNL A   1      35.749  22.500  23.780  1.00  0.00    -0.374 OA
BRANCH   2   3
ATOM      3  C   UNL A   1      35.330  23.814  24.164  1.00  0.00     0.202 C 
BRANCH   3   4
ATOM      4  C   UNL A   1      34.265  23.863  25.261  1.00  0.00     0.261 C 
BRANCH   4   5
ATOM      5  O   UNL A   1      33.759  25.204  25.351  1.00  0.00    -0.460 OA
BRANCH   5   6
ATOM      6  C   UNL A   1      32.477  25.331  25.753  1.00  0.00     0.342 C 
ATOM      7  O   UNL A   1      31.916  24.681  26.618  1.00  0.00    -0.246 OA
BRANCH   6   8
ATOM      8  C   UNL A   1      31.877  26.476  25.052  1.00  0.00     0.113 A 
ATOM      9  C   UNL A   1      31.878  27.746  25.608  1.00  0.00     0.114 A 
ATOM     10  N   UNL A   1      31.234  28.795  25.043  1.00  0.00    -0.225 NA
ATOM     11  C   UNL A   1      30.572  28.581  23.893  1.00  0.00     0.133 A 
ATOM     12  C   UNL A   1      31.281  26.365  23.808  1.00  0.00     0.057 A 
ATOM     13  N   UNL A   1      30.627  27.408  23.240  1.00  0.00    -0.237 NA
ATOM     14  C   UNL A   1      31.262  25.099  23.002  1.00  0.00     0.068 C 
BRANCH   9  15
ATOM     15  S   UNL A   1      32.767  28.156  27.110  1.00  0.00    -0.109 SA
ATOM     16  C   UNL A   1      34.288  28.829  26.390  1.00  0.00     0.092 C 
ENDBRANCH   9  15
BRANCH  11  17
ATOM     17  C   UNL A   1      29.662  29.646  23.325  1.00  0.00     0.058 C 
ATOM     18  C   UNL A   1      29.796  30.010  21.860  1.00  0.00     0.012 C 
ATOM     19  C   UNL A   1      28.545  29.344  22.356  1.00  0.00     0.012 C 
ENDBRANCH  11  17
ENDBRANCH   6   8
ENDBRANCH   5   6
ENDBRANCH   4   5
ENDBRANCH   3   4
ENDBRANCH   2   3
ENDBRANCH   1   2
BRANCH   1  20
ATOM     20  C   UNL A   1      36.828  20.720  25.200  1.00  0.00     0.261 C 
BRANCH  20  21
ATOM     21  O   UNL A   1      38.031  21.471  24.972  1.00  0.00    -0.460 OA
BRANCH  21  22
ATOM     22  C   UNL A   1      39.027  21.203  25.854  1.00  0.00     0.338 C 
ATOM     23  O   UNL A   1      39.616  20.144  25.995  1.00  0.00    -0.246 OA
BRANCH  22  24
ATOM     24  C   UNL A   1      39.441  22.431  26.558  1.00  0.00     0.060 A 
ATOM     25  C   UNL A   1      38.836  23.630  26.160  1.00  0.00     0.016 A 
ATOM     26  C   UNL A   1      40.464  22.434  27.508  1.00  0.00     0.016 A 
ATOM     27  C   UNL A   1      39.297  24.844  26.665  1.00  0.00     0.010 A 
ATOM     28  C   UNL A   1      40.928  23.655  28.011  1.00  0.00     0.010 A 
ATOM     29  C   UNL A   1      40.377  24.867  27.557  1.00  0.00    -0.014 A 
BRANCH  29  30
ATOM     30  C   UNL A   1      41.011  26.167  27.892  1.00  0.00     0.031 A 
ATOM     31  C   UNL A   1      42.418  26.437  27.432  1.00  0.00     0.074 A 
ATOM     32  C   UNL A   1      40.332  27.107  28.573  1.00  0.00     0.049 A 
ATOM     33  N   UNL A   1      43.147  27.511  27.584  1.00  0.00    -0.248 NA
ATOM     34  C   UNL A   1      43.095  25.351  26.701  1.00  0.00     0.031 C 
ATOM     35  C   UNL A   1      38.967  26.964  29.078  1.00  0.00     0.029 A 
ATOM     36  N   UNL A   1      40.708  28.366  28.970  1.00  0.00    -0.354 N 
ATOM     37  C   UNL A   1      44.372  27.227  26.994  1.00  0.00     0.074 A 
ATOM     38  C   UNL A   1      44.296  25.872  26.494  1.00  0.00     0.031 C 
ATOM     39  C   UNL A   1      38.627  28.085  29.737  1.00  0.00     0.029 A 
ATOM     40  C   UNL A   1      39.752  29.018  29.711  1.00  0.00     0.049 A 
ATOM     41  H   UNL A   1      41.580  28.763  28.744  1.00  0.00     0.167 HD
ATOM     42  C   UNL A   1      45.457  28.027  26.859  1.00  0.00     0.034 A 
ATOM     43  C   UNL A   1      39.786  30.226  30.309  1.00  0.00     0.034 A 
ATOM     44  C   UNL A   1      45.524  29.384  27.333  1.00  0.00     0.049 A 
ATOM     45  C   UNL A   1      41.004  31.097  30.143  1.00  0.00     0.074 A 
ATOM     46  C   UNL A   1      46.563  30.289  27.205  1.00  0.00     0.029 A 
ATOM     47  N   UNL A   1      44.517  30.027  28.033  1.00  0.00    -0.354 N 
ATOM     48  N   UNL A   1      42.105  30.859  29.471  1.00  0.00    -0.248 NA
ATOM     49  C   UNL A   1      40.966  32.420  30.783  1.00  0.00     0.031 C 
ATOM     50  C   UNL A   1      46.190  31.476  27.844  1.00  0.00     0.029 A 
ATOM     51  C   UNL A   1      44.910  31.317  28.349  1.00  0.00     0.049 A 
ATOM     52  H   UNL A   1      43.650  29.628  28.271  1.00  0.00     0.167 HD
ATOM     53  C   UNL A   1      42.873  32.015  29.573  1.00  0.00     0.074 A 
ATOM     54  C   UNL A   1      42.101  32.959  30.355  1.00  0.00     0.031 C 
ATOM     55  C   UNL A   1      44.108  32.268  29.076  1.00  0.00     0.034 A 
BRANCH  42  56
ATOM     56  C   UNL A   1      46.653  27.465  26.135  1.00  0.00     0.023 A 
ATOM     57  C   UNL A   1      46.779  27.660  24.744  1.00  0.00     0.012 A 
ATOM     58  C   UNL A   1      47.673  26.794  26.835  1.00  0.00     0.148 A 
ATOM     59  C   UNL A   1      47.887  27.168  24.057  1.00  0.00     0.002 A 
ATOM     60  C   UNL A   1      48.796  26.343  26.149  1.00  0.00     0.091 A 
ATOM     61  F   UNL A   1      47.523  26.596  28.153  1.00  0.00    -0.205 F 
ATOM     62  C   UNL A   1      48.900  26.521  24.760  1.00  0.00     0.022 A 
BRANCH  60  63
ATOM     63  S   UNL A   1      50.187  25.563  26.977  1.00  0.00     0.127 S 
ATOM     64  O   UNL A   1      51.134  25.404  25.876  1.00  0.00    -0.237 OA
ATOM     65  O   UNL A   1      50.563  26.573  27.966  1.00  0.00    -0.237 OA
ATOM     66  O   UNL A   1      49.671  24.324  27.543  1.00  0.00    -0.744 OA
ENDBRANCH  60  63
ENDBRANCH  42  56
BRANCH  43  67
ATOM     67  C   UNL A   1      38.603  30.707  31.077  1.00  0.00     0.023 A 
ATOM     68  C   UNL A   1      38.535  30.480  32.465  1.00  0.00     0.012 A 
ATOM     69  C   UNL A   1      37.555  31.400  30.442  1.00  0.00     0.148 A 
ATOM     70  C   UNL A   1      37.430  30.908  33.202  1.00  0.00     0.002 A 
ATOM     71  C   UNL A   1      36.483  31.873  31.190  1.00  0.00     0.091 A 
ATOM     72  F   UNL A   1      37.629  31.589  29.116  1.00  0.00    -0.205 F 
ATOM     73  C   UNL A   1      36.410  31.613  32.567  1.00  0.00     0.022 A 
BRANCH  71  74
ATOM     74  S   UNL A   1      35.194  32.902  30.478  1.00  0.00     0.127 S 
ATOM     75  O   UNL A   1      35.966  34.018  29.941  1.00  0.00    -0.237 OA
ATOM     76  O   UNL A   1      34.616  32.010  29.473  1.00  0.00    -0.237 OA
ATOM     77  O   UNL A   1      34.297  33.221  31.581  1.00  0.00    -0.744 OA
ENDBRANCH  71  74
ENDBRANCH  43  67
BRANCH  55  78
ATOM     78  C   UNL A   1      44.696  33.635  29.321  1.00  0.00     0.023 A 
ATOM     79  C   UNL A   1      45.392  33.896  30.518  1.00  0.00     0.012 A 
ATOM     80  C   UNL A   1      44.613  34.641  28.337  1.00  0.00     0.148 A 
ATOM     81  C   UNL A   1      45.965  35.146  30.746  1.00  0.00     0.002 A 
ATOM     82  C   UNL A   1      45.228  35.868  28.552  1.00  0.00     0.091 A 
ATOM     83  F   UNL A   1      43.929  34.382  27.213  1.00  0.00    -0.205 F 
ATOM     84  C   UNL A   1      45.893  36.127  29.761  1.00  0.00     0.022 A 
BRANCH  82  85
ATOM     85  S   UNL A   1      45.264  37.151  27.295  1.00  0.00     0.127 S 
ATOM     86  O   UNL A   1      45.941  36.471  26.193  1.00  0.00    -0.237 OA
ATOM     87  O   UNL A   1      43.841  37.410  27.069  1.00  0.00    -0.237 OA
ATOM     88  O   UNL A   1      45.989  38.267  27.888  1.00  0.00    -0.744 OA
ENDBRANCH  82  85
ENDBRANCH  55  78
ENDBRANCH  29  30
ENDBRANCH  22  24
ENDBRANCH  21  22
ENDBRANCH  20  21
ENDBRANCH   1  20
TORSDOF 19
ENDMDL
MODEL 2
REMARK VINA RESULT:     -10.3      1.649      7.823
REMARK SMILES CSc1nc(C2CC2)nc(C)c1C(=O)OCCOCCOC(=O)c1ccc(-c2c3nc(c(-c4cccc(S(=O)(=O)[O-])c4F)c4ccc([nH]4)c(-c4cccc(S(=O)(=O)[O-])c4F)c4nc(c(-c5cccc(S(=O)(=O)[O-])c5F)c5ccc2[nH]5)C=C4)C=C3)cc1
REMARK SMILES IDX 19 1 18 2 17 3 16 4 15 5 13 6 14 7 12 8 3 9 4 10 5 11 10 12
REMARK SMILES IDX 9 13 11 14 2 15 1 16 6 17 7 18 8 19 20 20 21 21 22 22 23 23
REMARK SMILES IDX 24 24 25 25 86 26 26 27 85 28 27 29 28 30 29 31 79 32 30 33
REMARK SMILES IDX 84 34 78 35 80 36 31 37 83 38 77 39 76 40 32 42 64 43 44 44
REMARK SMILES IDX 63 45 45 46 48 47 62 48 81 49 46 50 47 51 61 53 82 54 49 55
REMARK SMILES IDX 33 56 34 57 42 58 35 59 37 60 43 61 36 62 38 63 39 64 40 65
REMARK SMILES IDX 41 66 65 67 66 68 74 69 67 70 69 71 75 72 68 73 70 74 71 75
REMARK SMILES IDX 72 76 73 77 50 78 51 79 59 80 52 81 54 82 60 83 53 84 55 85
REMARK SMILES IDX 56 86 57 87 58 88
REMARK H PARENT 80 41 48 52
REMARK Flexibility Score: inf
ROOT
ATOM      1  C   UNL A   1      35.141  20.693  24.748  1.00  0.00     0.202 C 
ENDROOT
BRANCH   1   2
ATOM      2  O   UNL A   1      34.806  22.065  24.953  1.00  0.00    -0.374 OA
BRANCH   2   3
ATOM      3  C   UNL A   1      33.458  22.463  24.683  1.00  0.00     0.202 C 
BRANCH   3   4
ATOM      4  C   UNL A   1      33.009  23.751  25.377  1.00  0.00     0.261 C 
BRANCH   4   5
ATOM      5  O   UNL A   1      32.355  24.590  24.412  1.00  0.00    -0.460 OA
BRANCH   5   6
ATOM      6  C   UNL A   1      33.053  25.664  23.986  1.00  0.00     0.342 C 
ATOM      7  O   UNL A   1      34.264  25.761  23.904  1.00  0.00    -0.246 OA
BRANCH   6   8
ATOM      8  C   UNL A   1      32.102  26.685  23.519  1.00  0.00     0.113 A 
ATOM      9  C   UNL A   1      31.633  27.677  24.366  1.00  0.00     0.114 A 
ATOM     10  N   UNL A   1      30.673  28.559  24.002  1.00  0.00    -0.225 NA
ATOM     11  C   UNL A   1      30.162  28.457  22.763  1.00  0.00     0.133 A 
ATOM     12  C   UNL A   1      31.620  26.723  22.223  1.00  0.00     0.057 A 
ATOM     13  N   UNL A   1      30.652  27.597  21.853  1.00  0.00    -0.237 NA
ATOM     14  C   UNL A   1      32.077  25.797  21.135  1.00  0.00     0.068 C 
BRANCH   9  15
ATOM     15  S   UNL A   1      32.276  27.936  26.020  1.00  0.00    -0.109 SA
ATOM     16  C   UNL A   1      33.561  29.162  25.659  1.00  0.00     0.092 C 
ENDBRANCH   9  15
BRANCH  11  17
ATOM     17  C   UNL A   1      28.948  29.264  22.367  1.00  0.00     0.058 C 
ATOM     18  C   UNL A   1      27.637  29.002  23.080  1.00  0.00     0.012 C 
ATOM     19  C   UNL A   1      28.335  30.320  23.254  1.00  0.00     0.012 C 
ENDBRANCH  11  17
ENDBRANCH   6   8
ENDBRANCH   5   6
ENDBRANCH   4   5
ENDBRANCH   3   4
ENDBRANCH   2   3
ENDBRANCH   1   2
BRANCH   1  20
ATOM     20  C   UNL A   1      36.602  20.298  24.993  1.00  0.00     0.261 C 
BRANCH  20  21
ATOM     21  O   UNL A   1      37.466  21.428  25.192  1.00  0.00    -0.460 OA
BRANCH  21  22
ATOM     22  C   UNL A   1      38.662  21.118  25.755  1.00  0.00     0.338 C 
ATOM     23  O   UNL A   1      39.267  20.064  25.657  1.00  0.00    -0.246 OA
BRANCH  22  24
ATOM     24  C   UNL A   1      39.247  22.302  26.412  1.00  0.00     0.060 A 
ATOM     25  C   UNL A   1      38.665  23.544  26.127  1.00  0.00     0.016 A 
ATOM     26  C   UNL A   1      40.395  22.221  27.204  1.00  0.00     0.016 A 
ATOM     27  C   UNL A   1      39.268  24.715  26.579  1.00  0.00     0.010 A 
ATOM     28  C   UNL A   1      41.000  23.400  27.654  1.00  0.00     0.010 A 
ATOM     29  C   UNL A   1      40.464  24.653  27.305  1.00  0.00    -0.014 A 
BRANCH  29  30
ATOM     30  C   UNL A   1      41.218  25.905  27.567  1.00  0.00     0.031 A 
ATOM     31  C   UNL A   1      40.557  27.010  28.346  1.00  0.00     0.074 A 
ATOM     32  C   UNL A   1      42.486  26.045  27.141  1.00  0.00     0.049 A 
ATOM     33  N   UNL A   1      41.042  28.167  28.715  1.00  0.00    -0.248 NA
ATOM     34  C   UNL A   1      39.164  26.781  28.766  1.00  0.00     0.031 C 
ATOM     35  C   UNL A   1      43.233  25.051  26.373  1.00  0.00     0.029 A 
ATOM     36  N   UNL A   1      43.363  27.091  27.284  1.00  0.00    -0.354 N 
ATOM     37  C   UNL A   1      40.011  28.814  29.387  1.00  0.00     0.074 A 
ATOM     38  C   UNL A   1      38.868  27.928  29.362  1.00  0.00     0.031 C 
ATOM     39  C   UNL A   1      44.452  25.543  26.094  1.00  0.00     0.029 A 
ATOM     40  C   UNL A   1      44.566  26.890  26.651  1.00  0.00     0.049 A 
ATOM     41  H   UNL A   1      43.150  27.907  27.792  1.00  0.00     0.167 HD
ATOM     42  C   UNL A   1      40.020  30.026  29.991  1.00  0.00     0.034 A 
ATOM     43  C   UNL A   1      45.633  27.704  26.527  1.00  0.00     0.034 A 
ATOM     44  C   UNL A   1      41.165  30.897  30.039  1.00  0.00     0.049 A 
ATOM     45  C   UNL A   1      45.619  29.048  27.209  1.00  0.00     0.074 A 
ATOM     46  C   UNL A   1      41.285  32.125  30.665  1.00  0.00     0.029 A 
ATOM     47  N   UNL A   1      42.382  30.636  29.432  1.00  0.00    -0.354 N 
ATOM     48  N   UNL A   1      44.680  29.589  27.949  1.00  0.00    -0.248 NA
ATOM     49  C   UNL A   1      46.826  29.875  27.073  1.00  0.00     0.031 C 
ATOM     50  C   UNL A   1      42.572  32.617  30.420  1.00  0.00     0.029 A 
ATOM     51  C   UNL A   1      43.260  31.682  29.662  1.00  0.00     0.049 A 
ATOM     52  H   UNL A   1      42.593  29.827  28.913  1.00  0.00     0.167 HD
ATOM     53  C   UNL A   1      45.199  30.799  28.399  1.00  0.00     0.074 A 
ATOM     54  C   UNL A   1      46.542  30.901  27.865  1.00  0.00     0.031 C 
ATOM     55  C   UNL A   1      44.614  31.745  29.174  1.00  0.00     0.034 A 
BRANCH  42  56
ATOM     56  C   UNL A   1      38.758  30.470  30.684  1.00  0.00     0.023 A 
ATOM     57  C   UNL A   1      38.615  30.261  32.071  1.00  0.00     0.012 A 
ATOM     58  C   UNL A   1      37.741  31.139  29.977  1.00  0.00     0.148 A 
ATOM     59  C   UNL A   1      37.466  30.682  32.738  1.00  0.00     0.002 A 
ATOM     60  C   UNL A   1      36.616  31.594  30.658  1.00  0.00     0.091 A 
ATOM     61  F   UNL A   1      37.883  31.307  28.655  1.00  0.00    -0.205 F 
ATOM     62  C   UNL A   1      36.473  31.358  32.034  1.00  0.00     0.022 A 
BRANCH  60  63
ATOM     63  S   UNL A   1      35.317  32.539  29.853  1.00  0.00     0.127 S 
ATOM     64  O   UNL A   1      34.401  32.787  30.965  1.00  0.00    -0.237 OA
ATOM     65  O   UNL A   1      36.040  33.720  29.383  1.00  0.00    -0.237 OA
ATOM     66  O   UNL A   1      34.799  31.685  28.794  1.00  0.00    -0.744 OA
ENDBRANCH  60  63
ENDBRANCH  42  56
BRANCH  43  67
ATOM     67  C   UNL A   1      46.832  27.247  25.768  1.00  0.00     0.023 A 
ATOM     68  C   UNL A   1      47.756  26.380  26.382  1.00  0.00     0.012 A 
ATOM     69  C   UNL A   1      47.051  27.655  24.438  1.00  0.00     0.148 A 
ATOM     70  C   UNL A   1      48.892  25.951  25.696  1.00  0.00     0.002 A 
ATOM     71  C   UNL A   1      48.155  27.180  23.741  1.00  0.00     0.091 A 
ATOM     72  F   UNL A   1      46.169  28.496  23.878  1.00  0.00    -0.205 F 
ATOM     73  C   UNL A   1      49.087  26.343  24.373  1.00  0.00     0.022 A 
BRANCH  71  74
ATOM     74  S   UNL A   1      48.412  27.527  21.998  1.00  0.00     0.127 S 
ATOM     75  O   UNL A   1      47.161  28.186  21.636  1.00  0.00    -0.237 OA
ATOM     76  O   UNL A   1      49.584  28.402  22.033  1.00  0.00    -0.237 OA
ATOM     77  O   UNL A   1      48.652  26.232  21.374  1.00  0.00    -0.744 OA
ENDBRANCH  71  74
ENDBRANCH  43  67
BRANCH  55  78
ATOM     78  C   UNL A   1      45.431  32.961  29.533  1.00  0.00     0.023 A 
ATOM     79  C   UNL A   1      46.248  32.944  30.681  1.00  0.00     0.012 A 
ATOM     80  C   UNL A   1      45.438  34.095  28.697  1.00  0.00     0.148 A 
ATOM     81  C   UNL A   1      47.030  34.050  31.010  1.00  0.00     0.002 A 
ATOM     82  C   UNL A   1      46.257  35.174  29.006  1.00  0.00     0.091 A 
ATOM     83  F   UNL A   1      44.639  34.102  27.620  1.00  0.00    -0.205 F 
ATOM     84  C   UNL A   1      47.043  35.159  30.168  1.00  0.00     0.022 A 
BRANCH  82  85
ATOM     85  S   UNL A   1      46.405  36.601  27.923  1.00  0.00     0.127 S 
ATOM     86  O   UNL A   1      46.699  35.971  26.637  1.00  0.00    -0.237 OA
ATOM     87  O   UNL A   1      45.075  37.204  28.015  1.00  0.00    -0.237 OA
ATOM     88  O   UNL A   1      47.473  37.416  28.486  1.00  0.00    -0.744 OA
ENDBRANCH  82  85
ENDBRANCH  55  78
ENDBRANCH  29  30
ENDBRANCH  22  24
ENDBRANCH  21  22
ENDBRANCH  20  21
ENDBRANCH   1  20
TORSDOF 19
ENDMDL
MODEL 3
REMARK VINA RESULT:     -10.3      4.862      7.347
REMARK SMILES CSc1nc(C2CC2)nc(C)c1C(=O)OCCOCCOC(=O)c1ccc(-c2c3nc(c(-c4cccc(S(=O)(=O)[O-])c4F)c4ccc([nH]4)c(-c4cccc(S(=O)(=O)[O-])c4F)c4nc(c(-c5cccc(S(=O)(=O)[O-])c5F)c5ccc2[nH]5)C=C4)C=C3)cc1
REMARK SMILES IDX 19 1 18 2 17 3 16 4 15 5 13 6 14 7 12 8 3 9 4 10 5 11 10 12
REMARK SMILES IDX 9 13 11 14 2 15 1 16 6 17 7 18 8 19 20 20 21 21 22 22 23 23
REMARK SMILES IDX 24 24 25 25 86 26 26 27 85 28 27 29 28 30 29 31 79 32 30 33
REMARK SMILES IDX 84 34 78 35 80 36 31 37 83 38 77 39 76 40 32 42 64 43 44 44
REMARK SMILES IDX 63 45 45 46 48 47 62 48 81 49 46 50 47 51 61 53 82 54 49 55
REMARK SMILES IDX 33 56 34 57 42 58 35 59 37 60 43 61 36 62 38 63 39 64 40 65
REMARK SMILES IDX 41 66 65 67 66 68 74 69 67 70 69 71 75 72 68 73 70 74 71 75
REMARK SMILES IDX 72 76 73 77 50 78 51 79 59 80 52 81 54 82 60 83 53 84 55 85
REMARK SMILES IDX 56 86 57 87 58 88
REMARK H PARENT 80 41 48 52
REMARK Flexibility Score: inf
ROOT
ATOM      1  C   UNL A   1      31.854  28.598  25.718  1.00  0.00     0.202 C 
ENDROOT
BRANCH   1   2
ATOM      2  O   UNL A   1      32.963  27.748  26.007  1.00  0.00    -0.374 OA
BRANCH   2   3
ATOM      3  C   UNL A   1      32.677  26.437  26.506  1.00  0.00     0.202 C 
BRANCH   3   4
ATOM      4  C   UNL A   1      32.406  25.378  25.435  1.00  0.00     0.261 C 
BRANCH   4   5
ATOM      5  O   UNL A   1      30.997  25.356  25.156  1.00  0.00    -0.460 OA
BRANCH   5   6
ATOM      6  C   UNL A   1      30.647  25.177  23.865  1.00  0.00     0.342 C 
ATOM      7  O   UNL A   1      30.578  24.117  23.269  1.00  0.00    -0.246 OA
BRANCH   6   8
ATOM      8  C   UNL A   1      30.247  26.476  23.304  1.00  0.00     0.113 A 
ATOM      9  C   UNL A   1      31.116  27.227  22.527  1.00  0.00     0.114 A 
ATOM     10  N   UNL A   1      30.820  28.475  22.093  1.00  0.00    -0.225 NA
ATOM     11  C   UNL A   1      29.629  28.994  22.436  1.00  0.00     0.133 A 
ATOM     12  C   UNL A   1      28.994  27.027  23.508  1.00  0.00     0.057 A 
ATOM     13  N   UNL A   1      28.693  28.279  23.084  1.00  0.00    -0.237 NA
ATOM     14  C   UNL A   1      27.885  26.328  24.238  1.00  0.00     0.068 C 
BRANCH   9  15
ATOM     15  S   UNL A   1      32.708  26.617  21.971  1.00  0.00    -0.109 SA
ATOM     16  C   UNL A   1      32.179  25.653  20.531  1.00  0.00     0.092 C 
ENDBRANCH   9  15
BRANCH  11  17
ATOM     17  C   UNL A   1      29.323  30.450  22.169  1.00  0.00     0.058 C 
ATOM     18  C   UNL A   1      28.287  30.794  21.118  1.00  0.00     0.012 C 
ATOM     19  C   UNL A   1      28.021  31.105  22.562  1.00  0.00     0.012 C 
ENDBRANCH  11  17
ENDBRANCH   6   8
ENDBRANCH   5   6
ENDBRANCH   4   5
ENDBRANCH   3   4
ENDBRANCH   2   3
ENDBRANCH   1   2
BRANCH   1  20
ATOM     20  C   UNL A   1      32.094  30.108  25.845  1.00  0.00     0.261 C 
BRANCH  20  21
ATOM     21  O   UNL A   1      32.318  30.532  27.199  1.00  0.00    -0.460 OA
BRANCH  21  22
ATOM     22  C   UNL A   1      33.086  31.645  27.312  1.00  0.00     0.338 C 
ATOM     23  O   UNL A   1      32.719  32.802  27.198  1.00  0.00    -0.246 OA
BRANCH  22  24
ATOM     24  C   UNL A   1      34.448  31.291  27.751  1.00  0.00     0.060 A 
ATOM     25  C   UNL A   1      34.704  29.941  28.018  1.00  0.00     0.016 A 
ATOM     26  C   UNL A   1      35.424  32.260  27.997  1.00  0.00     0.016 A 
ATOM     27  C   UNL A   1      35.914  29.561  28.593  1.00  0.00     0.010 A 
ATOM     28  C   UNL A   1      36.639  31.876  28.577  1.00  0.00     0.010 A 
ATOM     29  C   UNL A   1      36.870  30.532  28.919  1.00  0.00    -0.014 A 
BRANCH  29  30
ATOM     30  C   UNL A   1      38.040  30.145  29.747  1.00  0.00     0.031 A 
ATOM     31  C   UNL A   1      39.054  29.186  29.183  1.00  0.00     0.074 A 
ATOM     32  C   UNL A   1      38.215  30.665  30.975  1.00  0.00     0.049 A 
ATOM     33  N   UNL A   1      40.161  28.742  29.718  1.00  0.00    -0.248 NA
ATOM     34  C   UNL A   1      38.783  28.654  27.836  1.00  0.00     0.031 C 
ATOM     35  C   UNL A   1      37.302  31.598  31.634  1.00  0.00     0.029 A 
ATOM     36  N   UNL A   1      39.216  30.467  31.893  1.00  0.00    -0.354 N 
ATOM     37  C   UNL A   1      40.707  27.865  28.789  1.00  0.00     0.074 A 
ATOM     38  C   UNL A   1      39.802  27.824  27.662  1.00  0.00     0.031 C 
ATOM     39  C   UNL A   1      37.776  31.876  32.861  1.00  0.00     0.029 A 
ATOM     40  C   UNL A   1      39.015  31.132  33.079  1.00  0.00     0.049 A 
ATOM     41  H   UNL A   1      40.002  29.901  31.718  1.00  0.00     0.167 HD
ATOM     42  C   UNL A   1      41.869  27.171  28.856  1.00  0.00     0.034 A 
ATOM     43  C   UNL A   1      39.744  31.132  34.212  1.00  0.00     0.034 A 
ATOM     44  C   UNL A   1      42.783  27.231  29.965  1.00  0.00     0.049 A 
ATOM     45  C   UNL A   1      41.032  30.353  34.262  1.00  0.00     0.074 A 
ATOM     46  C   UNL A   1      44.006  26.599  30.107  1.00  0.00     0.029 A 
ATOM     47  N   UNL A   1      42.571  27.957  31.126  1.00  0.00    -0.354 N 
ATOM     48  N   UNL A   1      41.597  29.629  33.324  1.00  0.00    -0.248 NA
ATOM     49  C   UNL A   1      41.805  30.424  35.510  1.00  0.00     0.031 C 
ATOM     50  C   UNL A   1      44.527  26.930  31.363  1.00  0.00     0.029 A 
ATOM     51  C   UNL A   1      43.638  27.786  31.993  1.00  0.00     0.049 A 
ATOM     52  H   UNL A   1      41.780  28.513  31.309  1.00  0.00     0.167 HD
ATOM     53  C   UNL A   1      42.807  29.194  33.854  1.00  0.00     0.074 A 
ATOM     54  C   UNL A   1      42.902  29.751  35.188  1.00  0.00     0.031 C 
ATOM     55  C   UNL A   1      43.748  28.395  33.294  1.00  0.00     0.034 A 
BRANCH  42  56
ATOM     56  C   UNL A   1      42.237  26.311  27.675  1.00  0.00     0.023 A 
ATOM     57  C   UNL A   1      42.978  26.867  26.613  1.00  0.00     0.012 A 
ATOM     58  C   UNL A   1      41.898  24.945  27.641  1.00  0.00     0.148 A 
ATOM     59  C   UNL A   1      43.349  26.086  25.520  1.00  0.00     0.002 A 
ATOM     60  C   UNL A   1      42.308  24.161  26.567  1.00  0.00     0.091 A 
ATOM     61  F   UNL A   1      41.171  24.439  28.648  1.00  0.00    -0.205 F 
ATOM     62  C   UNL A   1      43.024  24.732  25.502  1.00  0.00     0.022 A 
BRANCH  60  63
ATOM     63  S   UNL A   1      42.001  22.393  26.489  1.00  0.00     0.127 S 
ATOM     64  O   UNL A   1      42.700  22.027  25.258  1.00  0.00    -0.237 OA
ATOM     65  O   UNL A   1      42.638  21.914  27.716  1.00  0.00    -0.237 OA
ATOM     66  O   UNL A   1      40.554  22.238  26.457  1.00  0.00    -0.744 OA
ENDBRANCH  60  63
ENDBRANCH  42  56
BRANCH  43  67
ATOM     67  C   UNL A   1      39.298  31.943  35.381  1.00  0.00     0.023 A 
ATOM     68  C   UNL A   1      38.428  31.375  36.331  1.00  0.00     0.012 A 
ATOM     69  C   UNL A   1      39.744  33.266  35.563  1.00  0.00     0.148 A 
ATOM     70  C   UNL A   1      37.985  32.120  37.425  1.00  0.00     0.002 A 
ATOM     71  C   UNL A   1      39.344  33.984  36.683  1.00  0.00     0.091 A 
ATOM     72  F   UNL A   1      40.557  33.795  34.636  1.00  0.00    -0.205 F 
ATOM     73  C   UNL A   1      38.451  33.420  37.606  1.00  0.00     0.022 A 
BRANCH  71  74
ATOM     74  S   UNL A   1      39.999  35.613  37.063  1.00  0.00     0.127 S 
ATOM     75  O   UNL A   1      39.312  35.927  38.312  1.00  0.00    -0.237 OA
ATOM     76  O   UNL A   1      41.430  35.340  37.197  1.00  0.00    -0.237 OA
ATOM     77  O   UNL A   1      39.654  36.448  35.920  1.00  0.00    -0.744 OA
ENDBRANCH  71  74
ENDBRANCH  43  67
BRANCH  55  78
ATOM     78  C   UNL A   1      44.990  28.104  34.098  1.00  0.00     0.023 A 
ATOM     79  C   UNL A   1      46.093  28.978  34.029  1.00  0.00     0.012 A 
ATOM     80  C   UNL A   1      45.039  26.999  34.973  1.00  0.00     0.148 A 
ATOM     81  C   UNL A   1      47.237  28.737  34.789  1.00  0.00     0.002 A 
ATOM     82  C   UNL A   1      46.163  26.793  35.761  1.00  0.00     0.091 A 
ATOM     83  F   UNL A   1      43.988  26.166  35.010  1.00  0.00    -0.205 F 
ATOM     84  C   UNL A   1      47.268  27.653  35.662  1.00  0.00     0.022 A 
BRANCH  82  85
ATOM     85  S   UNL A   1      46.245  25.477  36.981  1.00  0.00     0.127 S 
ATOM     86  O   UNL A   1      45.133  25.819  37.866  1.00  0.00    -0.237 OA
ATOM     87  O   UNL A   1      46.029  24.279  36.167  1.00  0.00    -0.237 OA
ATOM     88  O   UNL A   1      47.573  25.567  37.573  1.00  0.00    -0.744 OA
ENDBRANCH  82  85
ENDBRANCH  55  78
ENDBRANCH  29  30
ENDBRANCH  22  24
ENDBRANCH  21  22
ENDBRANCH  20  21
ENDBRANCH   1  20
TORSDOF 19
ENDMDL
