MODEL 1
REMARK VINA RESULT:     -10.3      0.000      0.000
REMARK SMILES C[C@H](CC(=O)OCCOCCOC(=O)c1ccc(-c2c3nc(c(-c4cccc(S(=O)(=O)[O-])c4F)c4ccc([nH]4)c(-c4cccc(S(=O)(=O)[O-])c4F)c4nc(c(-c5cccc(S(=O)(=O)[O-])c5F)c5ccc2[nH]5)C=C4)C=C3)cc1)c1ccc(O)cc1
REMARK SMILES IDX 9 1 8 2 7 3 6 4 4 5 5 6 3 7 2 8 1 9 78 10 79 11 84 12 80 13
REMARK SMILES IDX 83 14 81 15 82 16 10 18 11 19 12 20 13 21 14 22 15 23 16 24
REMARK SMILES IDX 77 25 17 26 76 27 18 28 19 29 20 30 70 31 21 32 75 33 69 34
REMARK SMILES IDX 71 35 22 36 74 37 68 38 67 39 23 41 55 42 35 43 54 44 36 45
REMARK SMILES IDX 39 46 53 47 72 48 37 49 38 50 52 52 73 53 40 54 24 55 25 56
REMARK SMILES IDX 33 57 26 58 28 59 34 60 27 61 29 62 30 63 31 64 32 65 56 66
REMARK SMILES IDX 57 67 65 68 58 69 60 70 66 71 59 72 61 73 62 74 63 75 64 76
REMARK SMILES IDX 41 77 42 78 50 79 43 80 45 81 51 82 44 83 46 84 47 85 48 86
REMARK SMILES IDX 49 87
REMARK H PARENT 82 17 71 40 39 51
REMARK Flexibility Score: inf
ROOT
ATOM      1  O   UNL A   1      37.167  21.889  25.391  1.00  0.00    -0.374 OA
ENDROOT
BRANCH   1   2
ATOM      2  C   UNL A   1      36.004  22.420  26.029  1.00  0.00     0.202 C 
BRANCH   2   3
ATOM      3  C   UNL A   1      34.949  21.390  26.458  1.00  0.00     0.261 C 
BRANCH   3   4
ATOM      4  O   UNL A   1      33.761  22.036  26.958  1.00  0.00    -0.463 OA
BRANCH   4   5
ATOM      5  C   UNL A   1      32.983  22.722  26.085  1.00  0.00     0.306 C 
ATOM      6  O   UNL A   1      33.144  23.892  25.762  1.00  0.00    -0.252 OA
BRANCH   5   7
ATOM      7  C   UNL A   1      31.896  21.828  25.518  1.00  0.00     0.130 C 
BRANCH   7   8
ATOM      8  C   UNL A   1      32.167  21.316  24.083  1.00  0.00     0.027 C 
ATOM      9  C   UNL A   1      33.363  22.026  23.421  1.00  0.00     0.013 C 
BRANCH   8  10
ATOM     10  C   UNL A   1      32.474  19.826  23.955  1.00  0.00    -0.044 A 
ATOM     11  C   UNL A   1      32.191  19.195  22.724  1.00  0.00     0.008 A 
ATOM     12  C   UNL A   1      33.203  19.120  24.918  1.00  0.00     0.008 A 
ATOM     13  C   UNL A   1      32.728  17.946  22.424  1.00  0.00     0.046 A 
ATOM     14  C   UNL A   1      33.733  17.863  24.619  1.00  0.00     0.046 A 
ATOM     15  C   UNL A   1      33.524  17.307  23.362  1.00  0.00     0.115 A 
BRANCH  15  16
ATOM     16  O   UNL A   1      34.127  16.140  23.002  1.00  0.00    -0.508 OA
ATOM     17  H   UNL A   1      35.027  16.138  22.743  1.00  0.00     0.293 HD
ENDBRANCH  15  16
ENDBRANCH   8  10
ENDBRANCH   7   8
ENDBRANCH   5   7
ENDBRANCH   4   5
ENDBRANCH   3   4
ENDBRANCH   2   3
ENDBRANCH   1   2
BRANCH   1  18
ATOM     18  C   UNL A   1      37.099  20.535  24.949  1.00  0.00     0.202 C 
BRANCH  18  19
ATOM     19  C   UNL A   1      38.397  19.720  25.042  1.00  0.00     0.261 C 
BRANCH  19  20
ATOM     20  O   UNL A   1      39.003  19.797  26.345  1.00  0.00    -0.460 OA
BRANCH  20  21
ATOM     21  C   UNL A   1      40.342  19.999  26.337  1.00  0.00     0.338 C 
ATOM     22  O   UNL A   1      41.184  19.262  25.842  1.00  0.00    -0.246 OA
BRANCH  21  23
ATOM     23  C   UNL A   1      40.677  21.345  26.854  1.00  0.00     0.060 A 
ATOM     24  C   UNL A   1      40.140  22.436  26.161  1.00  0.00     0.016 A 
ATOM     25  C   UNL A   1      41.534  21.557  27.938  1.00  0.00     0.016 A 
ATOM     26  C   UNL A   1      40.514  23.737  26.495  1.00  0.00     0.010 A 
ATOM     27  C   UNL A   1      41.905  22.868  28.276  1.00  0.00     0.010 A 
ATOM     28  C   UNL A   1      41.435  23.964  27.526  1.00  0.00    -0.014 A 
BRANCH  28  29
ATOM     29  C   UNL A   1      41.993  25.332  27.707  1.00  0.00     0.031 A 
ATOM     30  C   UNL A   1      41.149  26.399  28.358  1.00  0.00     0.074 A 
ATOM     31  C   UNL A   1      43.260  25.618  27.353  1.00  0.00     0.049 A 
ATOM     32  N   UNL A   1      41.461  27.635  28.656  1.00  0.00    -0.248 NA
ATOM     33  C   UNL A   1      39.774  26.025  28.725  1.00  0.00     0.031 C 
ATOM     34  C   UNL A   1      44.191  24.684  26.723  1.00  0.00     0.029 A 
ATOM     35  N   UNL A   1      43.978  26.784  27.467  1.00  0.00    -0.354 N 
ATOM     36  C   UNL A   1      40.318  28.193  29.218  1.00  0.00     0.074 A 
ATOM     37  C   UNL A   1      39.300  27.165  29.204  1.00  0.00     0.031 C 
ATOM     38  C   UNL A   1      45.354  25.318  26.491  1.00  0.00     0.029 A 
ATOM     39  C   UNL A   1      45.242  26.709  26.931  1.00  0.00     0.049 A 
ATOM     40  H   UNL A   1      43.621  27.598  27.891  1.00  0.00     0.167 HD
ATOM     41  C   UNL A   1      40.132  29.439  29.716  1.00  0.00     0.034 A 
ATOM     42  C   UNL A   1      46.195  27.653  26.791  1.00  0.00     0.034 A 
ATOM     43  C   UNL A   1      41.145  30.461  29.751  1.00  0.00     0.049 A 
ATOM     44  C   UNL A   1      45.954  29.042  27.326  1.00  0.00     0.074 A 
ATOM     45  C   UNL A   1      41.060  31.734  30.288  1.00  0.00     0.029 A 
ATOM     46  N   UNL A   1      42.416  30.340  29.214  1.00  0.00    -0.354 N 
ATOM     47  N   UNL A   1      44.910  29.514  27.962  1.00  0.00    -0.248 NA
ATOM     48  C   UNL A   1      47.039  30.021  27.151  1.00  0.00     0.031 C 
ATOM     49  C   UNL A   1      42.265  32.397  30.036  1.00  0.00     0.029 A 
ATOM     50  C   UNL A   1      43.118  31.521  29.386  1.00  0.00     0.049 A 
ATOM     51  H   UNL A   1      42.769  29.532  28.775  1.00  0.00     0.167 HD
ATOM     52  C   UNL A   1      45.226  30.827  28.298  1.00  0.00     0.074 A 
ATOM     53  C   UNL A   1      46.568  31.071  27.810  1.00  0.00     0.031 C 
ATOM     54  C   UNL A   1      44.470  31.748  28.943  1.00  0.00     0.034 A 
BRANCH  41  55
ATOM     55  C   UNL A   1      38.775  29.774  30.281  1.00  0.00     0.023 A 
ATOM     56  C   UNL A   1      38.417  29.319  31.566  1.00  0.00     0.012 A 
ATOM     57  C   UNL A   1      37.883  30.595  29.564  1.00  0.00     0.148 A 
ATOM     58  C   UNL A   1      37.176  29.646  32.114  1.00  0.00     0.002 A 
ATOM     59  C   UNL A   1      36.669  30.957  30.137  1.00  0.00     0.091 A 
ATOM     60  F   UNL A   1      38.234  31.003  28.337  1.00  0.00    -0.205 F 
ATOM     61  C   UNL A   1      36.309  30.474  31.405  1.00  0.00     0.022 A 
BRANCH  59  62
ATOM     62  S   UNL A   1      35.520  32.084  29.341  1.00  0.00     0.127 S 
ATOM     63  O   UNL A   1      35.116  31.312  28.167  1.00  0.00    -0.237 OA
ATOM     64  O   UNL A   1      34.481  32.233  30.359  1.00  0.00    -0.237 OA
ATOM     65  O   UNL A   1      36.274  33.298  29.060  1.00  0.00    -0.744 OA
ENDBRANCH  59  62
ENDBRANCH  41  55
BRANCH  42  66
ATOM     66  C   UNL A   1      47.486  27.313  26.126  1.00  0.00     0.023 A 
ATOM     67  C   UNL A   1      48.543  26.766  26.880  1.00  0.00     0.012 A 
ATOM     68  C   UNL A   1      47.667  27.532  24.747  1.00  0.00     0.148 A 
ATOM     69  C   UNL A   1      49.767  26.473  26.277  1.00  0.00     0.002 A 
ATOM     70  C   UNL A   1      48.868  27.183  24.142  1.00  0.00     0.091 A 
ATOM     71  F   UNL A   1      46.655  28.070  24.051  1.00  0.00    -0.205 F 
ATOM     72  C   UNL A   1      49.927  26.672  24.908  1.00  0.00     0.022 A 
BRANCH  70  73
ATOM     73  S   UNL A   1      49.116  27.281  22.365  1.00  0.00     0.127 S 
ATOM     74  O   UNL A   1      50.572  27.231  22.264  1.00  0.00    -0.237 OA
ATOM     75  O   UNL A   1      48.424  26.078  21.900  1.00  0.00    -0.237 OA
ATOM     76  O   UNL A   1      48.496  28.531  21.948  1.00  0.00    -0.744 OA
ENDBRANCH  70  73
ENDBRANCH  42  66
BRANCH  54  77
ATOM     77  C   UNL A   1      45.079  33.102  29.212  1.00  0.00     0.023 A 
ATOM     78  C   UNL A   1      45.793  33.334  30.405  1.00  0.00     0.012 A 
ATOM     79  C   UNL A   1      45.005  34.126  28.245  1.00  0.00     0.148 A 
ATOM     80  C   UNL A   1      46.390  34.573  30.646  1.00  0.00     0.002 A 
ATOM     81  C   UNL A   1      45.647  35.338  28.469  1.00  0.00     0.091 A 
ATOM     82  F   UNL A   1      44.309  33.894  27.122  1.00  0.00    -0.205 F 
ATOM     83  C   UNL A   1      46.328  35.569  29.675  1.00  0.00     0.022 A 
BRANCH  81  84
ATOM     84  S   UNL A   1      45.703  36.644  27.236  1.00  0.00     0.127 S 
ATOM     85  O   UNL A   1      46.283  35.947  26.090  1.00  0.00    -0.237 OA
ATOM     86  O   UNL A   1      44.288  36.990  27.087  1.00  0.00    -0.237 OA
ATOM     87  O   UNL A   1      46.527  37.701  27.804  1.00  0.00    -0.744 OA
ENDBRANCH  81  84
ENDBRANCH  54  77
ENDBRANCH  28  29
ENDBRANCH  21  23
ENDBRANCH  20  21
ENDBRANCH  19  20
ENDBRANCH  18  19
ENDBRANCH   1  18
TORSDOF 20
ENDMDL
MODEL 2
REMARK VINA RESULT:     -10.1      3.456      8.992
REMARK SMILES C[C@H](CC(=O)OCCOCCOC(=O)c1ccc(-c2c3nc(c(-c4cccc(S(=O)(=O)[O-])c4F)c4ccc([nH]4)c(-c4cccc(S(=O)(=O)[O-])c4F)c4nc(c(-c5cccc(S(=O)(=O)[O-])c5F)c5ccc2[nH]5)C=C4)C=C3)cc1)c1ccc(O)cc1
REMARK SMILES IDX 9 1 8 2 7 3 6 4 4 5 5 6 3 7 2 8 1 9 78 10 79 11 84 12 80 13
REMARK SMILES IDX 83 14 81 15 82 16 10 18 11 19 12 20 13 21 14 22 15 23 16 24
REMARK SMILES IDX 77 25 17 26 76 27 18 28 19 29 20 30 70 31 21 32 75 33 69 34
REMARK SMILES IDX 71 35 22 36 74 37 68 38 67 39 23 41 55 42 35 43 54 44 36 45
REMARK SMILES IDX 39 46 53 47 72 48 37 49 38 50 52 52 73 53 40 54 24 55 25 56
REMARK SMILES IDX 33 57 26 58 28 59 34 60 27 61 29 62 30 63 31 64 32 65 56 66
REMARK SMILES IDX 57 67 65 68 58 69 60 70 66 71 59 72 61 73 62 74 63 75 64 76
REMARK SMILES IDX 41 77 42 78 50 79 43 80 45 81 51 82 44 83 46 84 47 85 48 86
REMARK SMILES IDX 49 87
REMARK H PARENT 82 17 71 40 39 51
REMARK Flexibility Score: inf
ROOT
ATOM      1  O   UNL A   1      34.757  24.188  25.579  1.00  0.00    -0.374 OA
ENDROOT
BRANCH   1   2
ATOM      2  C   UNL A   1      33.532  24.656  25.011  1.00  0.00     0.202 C 
BRANCH   2   3
ATOM      3  C   UNL A   1      32.252  24.006  25.555  1.00  0.00     0.261 C 
BRANCH   3   4
ATOM      4  O   UNL A   1      31.074  24.637  25.013  1.00  0.00    -0.463 OA
BRANCH   4   5
ATOM      5  C   UNL A   1      30.675  25.820  25.539  1.00  0.00     0.306 C 
ATOM      6  O   UNL A   1      30.663  26.096  26.731  1.00  0.00    -0.252 OA
BRANCH   5   7
ATOM      7  C   UNL A   1      30.278  26.789  24.440  1.00  0.00     0.130 C 
BRANCH   7   8
ATOM      8  C   UNL A   1      31.457  27.576  23.819  1.00  0.00     0.027 C 
ATOM      9  C   UNL A   1      31.005  28.520  22.690  1.00  0.00     0.013 C 
BRANCH   8  10
ATOM     10  C   UNL A   1      32.244  28.462  24.781  1.00  0.00    -0.044 A 
ATOM     11  C   UNL A   1      31.580  29.565  25.359  1.00  0.00     0.008 A 
ATOM     12  C   UNL A   1      33.509  28.112  25.267  1.00  0.00     0.008 A 
ATOM     13  C   UNL A   1      32.114  30.218  26.468  1.00  0.00     0.046 A 
ATOM     14  C   UNL A   1      34.047  28.773  26.373  1.00  0.00     0.046 A 
ATOM     15  C   UNL A   1      33.326  29.791  26.986  1.00  0.00     0.115 A 
BRANCH  15  16
ATOM     16  O   UNL A   1      33.771  30.372  28.136  1.00  0.00    -0.508 OA
ATOM     17  H   UNL A   1      33.879  29.856  28.910  1.00  0.00     0.293 HD
ENDBRANCH  15  16
ENDBRANCH   8  10
ENDBRANCH   7   8
ENDBRANCH   5   7
ENDBRANCH   4   5
ENDBRANCH   3   4
ENDBRANCH   2   3
ENDBRANCH   1   2
BRANCH   1  18
ATOM     18  C   UNL A   1      34.927  22.775  25.670  1.00  0.00     0.202 C 
BRANCH  18  19
ATOM     19  C   UNL A   1      36.374  22.264  25.724  1.00  0.00     0.261 C 
BRANCH  19  20
ATOM     20  O   UNL A   1      37.334  23.334  25.799  1.00  0.00    -0.460 OA
BRANCH  20  21
ATOM     21  C   UNL A   1      38.553  22.972  26.265  1.00  0.00     0.338 C 
ATOM     22  O   UNL A   1      39.058  21.860  26.190  1.00  0.00    -0.246 OA
BRANCH  21  23
ATOM     23  C   UNL A   1      39.311  24.153  26.735  1.00  0.00     0.060 A 
ATOM     24  C   UNL A   1      39.252  24.434  28.105  1.00  0.00     0.016 A 
ATOM     25  C   UNL A   1      40.010  25.006  25.876  1.00  0.00     0.016 A 
ATOM     26  C   UNL A   1      39.822  25.601  28.611  1.00  0.00     0.010 A 
ATOM     27  C   UNL A   1      40.587  26.178  26.388  1.00  0.00     0.010 A 
ATOM     28  C   UNL A   1      40.456  26.507  27.751  1.00  0.00    -0.014 A 
BRANCH  28  29
ATOM     29  C   UNL A   1      40.845  27.846  28.274  1.00  0.00     0.031 A 
ATOM     30  C   UNL A   1      42.301  28.238  28.301  1.00  0.00     0.074 A 
ATOM     31  C   UNL A   1      39.915  28.735  28.667  1.00  0.00     0.049 A 
ATOM     32  N   UNL A   1      42.847  29.371  28.666  1.00  0.00    -0.248 NA
ATOM     33  C   UNL A   1      43.270  27.224  27.855  1.00  0.00     0.031 C 
ATOM     34  C   UNL A   1      38.473  28.496  28.686  1.00  0.00     0.029 A 
ATOM     35  N   UNL A   1      40.048  30.020  29.137  1.00  0.00    -0.354 N 
ATOM     36  C   UNL A   1      44.219  29.198  28.521  1.00  0.00     0.074 A 
ATOM     37  C   UNL A   1      44.424  27.845  28.051  1.00  0.00     0.031 C 
ATOM     38  C   UNL A   1      37.855  29.592  29.159  1.00  0.00     0.029 A 
ATOM     39  C   UNL A   1      38.857  30.602  29.501  1.00  0.00     0.049 A 
ATOM     40  H   UNL A   1      40.916  30.481  29.206  1.00  0.00     0.167 HD
ATOM     41  C   UNL A   1      45.220  30.085  28.742  1.00  0.00     0.034 A 
ATOM     42  C   UNL A   1      38.600  31.800  30.063  1.00  0.00     0.034 A 
ATOM     43  C   UNL A   1      45.023  31.438  29.192  1.00  0.00     0.049 A 
ATOM     44  C   UNL A   1      39.733  32.759  30.329  1.00  0.00     0.074 A 
ATOM     45  C   UNL A   1      45.977  32.423  29.389  1.00  0.00     0.029 A 
ATOM     46  N   UNL A   1      43.801  31.993  29.533  1.00  0.00    -0.354 N 
ATOM     47  N   UNL A   1      41.010  32.621  30.072  1.00  0.00    -0.248 NA
ATOM     48  C   UNL A   1      39.382  34.055  30.932  1.00  0.00     0.031 C 
ATOM     49  C   UNL A   1      45.335  33.559  29.891  1.00  0.00     0.029 A 
ATOM     50  C   UNL A   1      43.977  33.299  29.961  1.00  0.00     0.049 A 
ATOM     51  H   UNL A   1      42.935  31.529  29.479  1.00  0.00     0.167 HD
ATOM     52  C   UNL A   1      41.609  33.821  30.444  1.00  0.00     0.074 A 
ATOM     53  C   UNL A   1      40.550  34.683  30.928  1.00  0.00     0.031 C 
ATOM     54  C   UNL A   1      42.917  34.173  30.397  1.00  0.00     0.034 A 
BRANCH  41  55
ATOM     55  C   UNL A   1      46.633  29.625  28.490  1.00  0.00     0.023 A 
ATOM     56  C   UNL A   1      47.236  29.860  27.238  1.00  0.00     0.012 A 
ATOM     57  C   UNL A   1      47.383  29.019  29.517  1.00  0.00     0.148 A 
ATOM     58  C   UNL A   1      48.554  29.467  27.000  1.00  0.00     0.002 A 
ATOM     59  C   UNL A   1      48.711  28.675  29.287  1.00  0.00     0.091 A 
ATOM     60  F   UNL A   1      46.787  28.787  30.694  1.00  0.00    -0.205 F 
ATOM     61  C   UNL A   1      49.293  28.886  28.027  1.00  0.00     0.022 A 
BRANCH  59  62
ATOM     62  S   UNL A   1      49.770  27.998  30.569  1.00  0.00     0.127 S 
ATOM     63  O   UNL A   1      49.007  26.825  30.994  1.00  0.00    -0.237 OA
ATOM     64  O   UNL A   1      50.994  27.693  29.827  1.00  0.00    -0.237 OA
ATOM     65  O   UNL A   1      49.913  29.046  31.570  1.00  0.00    -0.744 OA
ENDBRANCH  59  62
ENDBRANCH  41  55
BRANCH  42  66
ATOM     66  C   UNL A   1      37.198  32.178  30.401  1.00  0.00     0.023 A 
ATOM     67  C   UNL A   1      36.689  31.914  31.688  1.00  0.00     0.012 A 
ATOM     68  C   UNL A   1      36.367  32.798  29.448  1.00  0.00     0.148 A 
ATOM     69  C   UNL A   1      35.368  32.233  32.009  1.00  0.00     0.002 A 
ATOM     70  C   UNL A   1      35.073  33.167  29.792  1.00  0.00     0.091 A 
ATOM     71  F   UNL A   1      36.865  33.024  28.224  1.00  0.00    -0.205 F 
ATOM     72  C   UNL A   1      34.563  32.868  31.065  1.00  0.00     0.022 A 
BRANCH  70  73
ATOM     73  S   UNL A   1      34.011  34.104  28.686  1.00  0.00     0.127 S 
ATOM     74  O   UNL A   1      34.876  35.222  28.319  1.00  0.00    -0.237 OA
ATOM     75  O   UNL A   1      33.766  33.135  27.617  1.00  0.00    -0.237 OA
ATOM     76  O   UNL A   1      32.831  34.448  29.468  1.00  0.00    -0.744 OA
ENDBRANCH  70  73
ENDBRANCH  42  66
BRANCH  54  77
ATOM     77  C   UNL A   1      43.293  35.567  30.834  1.00  0.00     0.023 A 
ATOM     78  C   UNL A   1      43.656  35.817  32.172  1.00  0.00     0.012 A 
ATOM     79  C   UNL A   1      43.356  36.618  29.897  1.00  0.00     0.148 A 
ATOM     80  C   UNL A   1      44.040  37.097  32.577  1.00  0.00     0.002 A 
ATOM     81  C   UNL A   1      43.790  37.878  30.295  1.00  0.00     0.091 A 
ATOM     82  F   UNL A   1      42.993  36.368  28.630  1.00  0.00    -0.205 F 
ATOM     83  C   UNL A   1      44.118  38.122  31.638  1.00  0.00     0.022 A 
BRANCH  81  84
ATOM     84  S   UNL A   1      44.016  39.234  29.139  1.00  0.00     0.127 S 
ATOM     85  O   UNL A   1      44.712  40.217  29.965  1.00  0.00    -0.237 OA
ATOM     86  O   UNL A   1      44.841  38.618  28.098  1.00  0.00    -0.237 OA
ATOM     87  O   UNL A   1      42.681  39.619  28.703  1.00  0.00    -0.744 OA
ENDBRANCH  81  84
ENDBRANCH  54  77
ENDBRANCH  28  29
ENDBRANCH  21  23
ENDBRANCH  20  21
ENDBRANCH  19  20
ENDBRANCH  18  19
ENDBRANCH   1  18
TORSDOF 20
ENDMDL
MODEL 3
REMARK VINA RESULT:     -10.0      5.699     10.946
REMARK SMILES C[C@H](CC(=O)OCCOCCOC(=O)c1ccc(-c2c3nc(c(-c4cccc(S(=O)(=O)[O-])c4F)c4ccc([nH]4)c(-c4cccc(S(=O)(=O)[O-])c4F)c4nc(c(-c5cccc(S(=O)(=O)[O-])c5F)c5ccc2[nH]5)C=C4)C=C3)cc1)c1ccc(O)cc1
REMARK SMILES IDX 9 1 8 2 7 3 6 4 4 5 5 6 3 7 2 8 1 9 78 10 79 11 84 12 80 13
REMARK SMILES IDX 83 14 81 15 82 16 10 18 11 19 12 20 13 21 14 22 15 23 16 24
REMARK SMILES IDX 77 25 17 26 76 27 18 28 19 29 20 30 70 31 21 32 75 33 69 34
REMARK SMILES IDX 71 35 22 36 74 37 68 38 67 39 23 41 55 42 35 43 54 44 36 45
REMARK SMILES IDX 39 46 53 47 72 48 37 49 38 50 52 52 73 53 40 54 24 55 25 56
REMARK SMILES IDX 33 57 26 58 28 59 34 60 27 61 29 62 30 63 31 64 32 65 56 66
REMARK SMILES IDX 57 67 65 68 58 69 60 70 66 71 59 72 61 73 62 74 63 75 64 76
REMARK SMILES IDX 41 77 42 78 50 79 43 80 45 81 51 82 44 83 46 84 47 85 48 86
REMARK SMILES IDX 49 87
REMARK H PARENT 82 17 71 40 39 51
REMARK Flexibility Score: inf
ROOT
ATOM      1  O   UNL A   1      34.088  33.712  30.703  1.00  0.00    -0.374 OA
ENDROOT
BRANCH   1   2
ATOM      2  C   UNL A   1      34.750  32.548  31.201  1.00  0.00     0.202 C 
BRANCH   2   3
ATOM      3  C   UNL A   1      35.647  32.763  32.429  1.00  0.00     0.261 C 
BRANCH   3   4
ATOM      4  O   UNL A   1      36.963  33.208  32.041  1.00  0.00    -0.463 OA
BRANCH   4   5
ATOM      5  C   UNL A   1      37.457  34.335  32.609  1.00  0.00     0.306 C 
ATOM      6  O   UNL A   1      36.822  35.111  33.312  1.00  0.00    -0.252 OA
BRANCH   5   7
ATOM      7  C   UNL A   1      38.933  34.493  32.291  1.00  0.00     0.130 C 
BRANCH   7   8
ATOM      8  C   UNL A   1      39.339  34.023  30.874  1.00  0.00     0.027 C 
ATOM      9  C   UNL A   1      38.538  34.731  29.766  1.00  0.00     0.013 C 
BRANCH   8  10
ATOM     10  C   UNL A   1      40.804  34.237  30.498  1.00  0.00    -0.044 A 
ATOM     11  C   UNL A   1      41.780  33.488  31.189  1.00  0.00     0.008 A 
ATOM     12  C   UNL A   1      41.195  34.973  29.375  1.00  0.00     0.008 A 
ATOM     13  C   UNL A   1      43.079  33.385  30.698  1.00  0.00     0.046 A 
ATOM     14  C   UNL A   1      42.500  34.877  28.888  1.00  0.00     0.046 A 
ATOM     15  C   UNL A   1      43.417  34.053  29.531  1.00  0.00     0.115 A 
BRANCH  15  16
ATOM     16  O   UNL A   1      44.660  33.846  29.012  1.00  0.00    -0.508 OA
ATOM     17  H   UNL A   1      45.371  33.618  29.576  1.00  0.00     0.293 HD
ENDBRANCH  15  16
ENDBRANCH   8  10
ENDBRANCH   7   8
ENDBRANCH   5   7
ENDBRANCH   4   5
ENDBRANCH   3   4
ENDBRANCH   2   3
ENDBRANCH   1   2
BRANCH   1  18
ATOM     18  C   UNL A   1      34.107  33.911  29.291  1.00  0.00     0.202 C 
BRANCH  18  19
ATOM     19  C   UNL A   1      35.305  33.316  28.535  1.00  0.00     0.261 C 
BRANCH  19  20
ATOM     20  O   UNL A   1      34.902  32.491  27.427  1.00  0.00    -0.460 OA
BRANCH  20  21
ATOM     21  C   UNL A   1      34.573  31.219  27.756  1.00  0.00     0.338 C 
ATOM     22  O   UNL A   1      33.455  30.723  27.708  1.00  0.00    -0.246 OA
BRANCH  21  23
ATOM     23  C   UNL A   1      35.784  30.411  28.021  1.00  0.00     0.060 A 
ATOM     24  C   UNL A   1      35.802  29.677  29.212  1.00  0.00     0.016 A 
ATOM     25  C   UNL A   1      36.900  30.406  27.178  1.00  0.00     0.016 A 
ATOM     26  C   UNL A   1      36.955  28.999  29.605  1.00  0.00     0.010 A 
ATOM     27  C   UNL A   1      38.058  29.719  27.573  1.00  0.00     0.010 A 
ATOM     28  C   UNL A   1      38.109  29.050  28.812  1.00  0.00    -0.014 A 
BRANCH  28  29
ATOM     29  C   UNL A   1      39.387  28.520  29.363  1.00  0.00     0.031 A 
ATOM     30  C   UNL A   1      39.981  29.147  30.598  1.00  0.00     0.074 A 
ATOM     31  C   UNL A   1      39.989  27.449  28.811  1.00  0.00     0.049 A 
ATOM     32  N   UNL A   1      41.053  28.804  31.268  1.00  0.00    -0.248 NA
ATOM     33  C   UNL A   1      39.274  30.310  31.157  1.00  0.00     0.031 C 
ATOM     34  C   UNL A   1      39.523  26.738  27.622  1.00  0.00     0.029 A 
ATOM     35  N   UNL A   1      41.133  26.781  29.176  1.00  0.00    -0.354 N 
ATOM     36  C   UNL A   1      41.165  29.722  32.306  1.00  0.00     0.074 A 
ATOM     37  C   UNL A   1      40.061  30.647  32.168  1.00  0.00     0.031 C 
ATOM     38  C   UNL A   1      40.382  25.742  27.345  1.00  0.00     0.029 A 
ATOM     39  C   UNL A   1      41.472  25.759  28.320  1.00  0.00     0.049 A 
ATOM     40  H   UNL A   1      41.661  27.012  29.974  1.00  0.00     0.167 HD
ATOM     41  C   UNL A   1      42.090  29.785  33.294  1.00  0.00     0.034 A 
ATOM     42  C   UNL A   1      42.546  24.943  28.308  1.00  0.00     0.034 A 
ATOM     43  C   UNL A   1      43.180  28.858  33.449  1.00  0.00     0.049 A 
ATOM     44  C   UNL A   1      43.578  25.051  29.402  1.00  0.00     0.074 A 
ATOM     45  C   UNL A   1      44.131  28.814  34.454  1.00  0.00     0.029 A 
ATOM     46  N   UNL A   1      43.478  27.828  32.572  1.00  0.00    -0.354 N 
ATOM     47  N   UNL A   1      43.601  25.848  30.442  1.00  0.00    -0.248 NA
ATOM     48  C   UNL A   1      44.718  24.123  29.337  1.00  0.00     0.031 C 
ATOM     49  C   UNL A   1      45.031  27.785  34.159  1.00  0.00     0.029 A 
ATOM     50  C   UNL A   1      44.612  27.156  32.999  1.00  0.00     0.049 A 
ATOM     51  H   UNL A   1      42.961  27.606  31.765  1.00  0.00     0.167 HD
ATOM     52  C   UNL A   1      44.730  25.493  31.174  1.00  0.00     0.074 A 
ATOM     53  C   UNL A   1      45.357  24.395  30.467  1.00  0.00     0.031 C 
ATOM     54  C   UNL A   1      45.209  26.033  32.321  1.00  0.00     0.034 A 
BRANCH  41  55
ATOM     55  C   UNL A   1      41.961  30.895  34.305  1.00  0.00     0.023 A 
ATOM     56  C   UNL A   1      42.928  31.919  34.353  1.00  0.00     0.012 A 
ATOM     57  C   UNL A   1      40.845  30.957  35.163  1.00  0.00     0.148 A 
ATOM     58  C   UNL A   1      42.805  32.970  35.263  1.00  0.00     0.002 A 
ATOM     59  C   UNL A   1      40.704  32.033  36.033  1.00  0.00     0.091 A 
ATOM     60  F   UNL A   1      39.945  29.965  35.116  1.00  0.00    -0.205 F 
ATOM     61  C   UNL A   1      41.689  33.032  36.094  1.00  0.00     0.022 A 
BRANCH  59  62
ATOM     62  S   UNL A   1      39.263  32.246  37.083  1.00  0.00     0.127 S 
ATOM     63  O   UNL A   1      38.529  33.288  36.367  1.00  0.00    -0.237 OA
ATOM     64  O   UNL A   1      38.647  30.921  37.030  1.00  0.00    -0.237 OA
ATOM     65  O   UNL A   1      39.771  32.628  38.393  1.00  0.00    -0.744 OA
ENDBRANCH  59  62
ENDBRANCH  41  55
BRANCH  42  66
ATOM     66  C   UNL A   1      42.696  23.927  27.227  1.00  0.00     0.023 A 
ATOM     67  C   UNL A   1      43.445  24.233  26.074  1.00  0.00     0.012 A 
ATOM     68  C   UNL A   1      42.097  22.658  27.341  1.00  0.00     0.148 A 
ATOM     69  C   UNL A   1      43.567  23.303  25.040  1.00  0.00     0.002 A 
ATOM     70  C   UNL A   1      42.272  21.716  26.335  1.00  0.00     0.091 A 
ATOM     71  F   UNL A   1      41.373  22.393  28.438  1.00  0.00    -0.205 F 
ATOM     72  C   UNL A   1      42.990  22.042  25.174  1.00  0.00     0.022 A 
BRANCH  70  73
ATOM     73  S   UNL A   1      41.676  20.028  26.480  1.00  0.00     0.127 S 
ATOM     74  O   UNL A   1      42.253  19.404  25.293  1.00  0.00    -0.237 OA
ATOM     75  O   UNL A   1      42.272  19.610  27.750  1.00  0.00    -0.237 OA
ATOM     76  O   UNL A   1      40.222  20.122  26.501  1.00  0.00    -0.744 OA
ENDBRANCH  70  73
ENDBRANCH  42  66
BRANCH  54  77
ATOM     77  C   UNL A   1      46.448  25.424  32.929  1.00  0.00     0.023 A 
ATOM     78  C   UNL A   1      47.711  26.003  32.692  1.00  0.00     0.012 A 
ATOM     79  C   UNL A   1      46.351  24.318  33.797  1.00  0.00     0.148 A 
ATOM     80  C   UNL A   1      48.859  25.468  33.280  1.00  0.00     0.002 A 
ATOM     81  C   UNL A   1      47.491  23.823  34.420  1.00  0.00     0.091 A 
ATOM     82  F   UNL A   1      45.144  23.769  34.000  1.00  0.00    -0.205 F 
ATOM     83  C   UNL A   1      48.748  24.388  34.151  1.00  0.00     0.022 A 
BRANCH  81  84
ATOM     84  S   UNL A   1      47.433  22.498  35.631  1.00  0.00     0.127 S 
ATOM     85  O   UNL A   1      46.684  23.122  36.720  1.00  0.00    -0.237 OA
ATOM     86  O   UNL A   1      46.703  21.452  34.912  1.00  0.00    -0.237 OA
ATOM     87  O   UNL A   1      48.818  22.168  35.937  1.00  0.00    -0.744 OA
ENDBRANCH  81  84
ENDBRANCH  54  77
ENDBRANCH  28  29
ENDBRANCH  21  23
ENDBRANCH  20  21
ENDBRANCH  19  20
ENDBRANCH  18  19
ENDBRANCH   1  18
TORSDOF 20
ENDMDL
