MODEL 1
REMARK VINA RESULT:     -10.3      0.000      0.000
REMARK SMILES O=C(OCCOCCOC(=O)c1oc2cccc3c2c1CCC3)c1ccc(-c2c3nc(c(-c4cccc(S(=O)(=O)[O-])c4F)c4ccc([nH]4)c(-c4cccc(S(=O)(=O)[O-])c4F)c4nc(c(-c5cccc(S(=O)(=O)[O-])c5F)c5ccc2[nH]5)C=C4)C=C3)cc1
REMARK SMILES IDX 4 1 3 2 2 3 1 4 24 5 25 6 86 7 26 8 85 9 27 10 28 11 29 12
REMARK SMILES IDX 79 13 30 14 84 15 78 16 80 17 31 18 83 19 77 20 76 21 32 23
REMARK SMILES IDX 64 24 44 25 63 26 45 27 48 28 62 29 81 30 46 31 47 32 61 34
REMARK SMILES IDX 82 35 49 36 33 37 34 38 42 39 35 40 37 41 43 42 36 43 38 44
REMARK SMILES IDX 39 45 40 46 41 47 65 48 66 49 74 50 67 51 69 52 75 53 68 54
REMARK SMILES IDX 70 55 71 56 72 57 73 58 50 59 51 60 59 61 52 62 54 63 60 64
REMARK SMILES IDX 53 65 55 66 56 67 57 68 58 69 5 70 6 71 7 72 8 73 9 74 10 75
REMARK SMILES IDX 11 76 12 77 13 78 20 79 14 80 19 81 21 82 15 83 18 84 22 85
REMARK SMILES IDX 16 86 17 87 23 88
REMARK H PARENT 80 22 48 33
REMARK Flexibility Score: inf
ROOT
ATOM      1  C   UNL A   1      33.930  33.206  28.503  1.00  0.00     0.261 C 
ENDROOT
BRANCH   1   2
ATOM      2  O   UNL A   1      35.159  33.094  29.247  1.00  0.00    -0.460 OA
BRANCH   2   3
ATOM      3  C   UNL A   1      35.320  32.162  30.221  1.00  0.00     0.338 C 
ATOM      4  O   UNL A   1      34.496  32.022  31.118  1.00  0.00    -0.246 OA
BRANCH   3   5
ATOM      5  C   UNL A   1      36.336  31.121  29.941  1.00  0.00     0.060 A 
ATOM      6  C   UNL A   1      36.602  30.053  30.799  1.00  0.00     0.016 A 
ATOM      7  C   UNL A   1      37.117  31.307  28.794  1.00  0.00     0.016 A 
ATOM      8  C   UNL A   1      37.772  29.342  30.667  1.00  0.00     0.010 A 
ATOM      9  C   UNL A   1      38.265  30.551  28.619  1.00  0.00     0.010 A 
ATOM     10  C   UNL A   1      38.628  29.646  29.615  1.00  0.00    -0.014 A 
BRANCH  10  11
ATOM     11  C   UNL A   1      39.922  28.998  29.650  1.00  0.00     0.031 A 
ATOM     12  C   UNL A   1      40.553  28.864  30.985  1.00  0.00     0.074 A 
ATOM     13  C   UNL A   1      40.497  28.537  28.525  1.00  0.00     0.049 A 
ATOM     14  N   UNL A   1      41.681  29.352  31.395  1.00  0.00    -0.248 NA
ATOM     15  C   UNL A   1      39.773  28.168  32.016  1.00  0.00     0.031 C 
ATOM     16  C   UNL A   1      39.877  28.366  27.208  1.00  0.00     0.029 A 
ATOM     17  N   UNL A   1      41.726  27.976  28.375  1.00  0.00    -0.354 N 
ATOM     18  C   UNL A   1      41.841  28.863  32.687  1.00  0.00     0.074 A 
ATOM     19  C   UNL A   1      40.589  28.250  33.064  1.00  0.00     0.031 C 
ATOM     20  C   UNL A   1      40.625  27.503  26.489  1.00  0.00     0.029 A 
ATOM     21  C   UNL A   1      41.818  27.174  27.247  1.00  0.00     0.049 A 
ATOM     22  H   UNL A   1      42.471  28.123  29.002  1.00  0.00     0.167 HD
ATOM     23  C   UNL A   1      43.042  28.801  33.322  1.00  0.00     0.034 A 
ATOM     24  C   UNL A   1      42.749  26.217  27.040  1.00  0.00     0.034 A 
ATOM     25  C   UNL A   1      44.063  29.592  32.709  1.00  0.00     0.049 A 
ATOM     26  C   UNL A   1      43.901  26.523  27.925  1.00  0.00     0.074 A 
ATOM     27  C   UNL A   1      44.261  30.939  32.488  1.00  0.00     0.029 A 
ATOM     28  N   UNL A   1      44.966  28.937  31.913  1.00  0.00    -0.354 N 
ATOM     29  N   UNL A   1      44.669  27.570  27.800  1.00  0.00    -0.248 NA
ATOM     30  C   UNL A   1      44.007  25.823  29.196  1.00  0.00     0.031 C 
ATOM     31  C   UNL A   1      44.973  31.015  31.256  1.00  0.00     0.029 A 
ATOM     32  C   UNL A   1      45.160  29.709  30.797  1.00  0.00     0.049 A 
ATOM     33  H   UNL A   1      45.397  28.073  32.106  1.00  0.00     0.167 HD
ATOM     34  C   UNL A   1      45.048  27.891  29.097  1.00  0.00     0.074 A 
ATOM     35  C   UNL A   1      44.725  26.709  29.888  1.00  0.00     0.031 C 
ATOM     36  C   UNL A   1      45.324  29.180  29.458  1.00  0.00     0.034 A 
BRANCH  23  37
ATOM     37  C   UNL A   1      43.339  27.762  34.357  1.00  0.00     0.023 A 
ATOM     38  C   UNL A   1      43.581  28.148  35.686  1.00  0.00     0.012 A 
ATOM     39  C   UNL A   1      43.573  26.413  34.010  1.00  0.00     0.148 A 
ATOM     40  C   UNL A   1      43.995  27.213  36.643  1.00  0.00     0.002 A 
ATOM     41  C   UNL A   1      43.894  25.473  34.978  1.00  0.00     0.091 A 
ATOM     42  F   UNL A   1      43.584  26.057  32.717  1.00  0.00    -0.205 F 
ATOM     43  C   UNL A   1      44.123  25.870  36.297  1.00  0.00     0.022 A 
BRANCH  41  44
ATOM     44  S   UNL A   1      43.947  23.728  34.566  1.00  0.00     0.127 S 
ATOM     45  O   UNL A   1      42.548  23.345  34.708  1.00  0.00    -0.237 OA
ATOM     46  O   UNL A   1      44.450  23.750  33.191  1.00  0.00    -0.237 OA
ATOM     47  O   UNL A   1      44.883  23.155  35.528  1.00  0.00    -0.744 OA
ENDBRANCH  41  44
ENDBRANCH  23  37
BRANCH  24  48
ATOM     48  C   UNL A   1      42.594  24.913  26.352  1.00  0.00     0.023 A 
ATOM     49  C   UNL A   1      43.551  24.534  25.391  1.00  0.00     0.012 A 
ATOM     50  C   UNL A   1      41.675  23.931  26.792  1.00  0.00     0.148 A 
ATOM     51  C   UNL A   1      43.617  23.219  24.915  1.00  0.00     0.002 A 
ATOM     52  C   UNL A   1      41.725  22.632  26.294  1.00  0.00     0.091 A 
ATOM     53  F   UNL A   1      40.815  24.228  27.775  1.00  0.00    -0.205 F 
ATOM     54  C   UNL A   1      42.706  22.268  25.367  1.00  0.00     0.022 A 
BRANCH  52  55
ATOM     55  S   UNL A   1      40.554  21.378  26.831  1.00  0.00     0.127 S 
ATOM     56  O   UNL A   1      41.007  20.193  26.099  1.00  0.00    -0.237 OA
ATOM     57  O   UNL A   1      40.791  21.333  28.269  1.00  0.00    -0.237 OA
ATOM     58  O   UNL A   1      39.248  21.866  26.408  1.00  0.00    -0.744 OA
ENDBRANCH  52  55
ENDBRANCH  24  48
BRANCH  36  59
ATOM     59  C   UNL A   1      45.475  30.205  28.362  1.00  0.00     0.023 A 
ATOM     60  C   UNL A   1      44.346  30.805  27.767  1.00  0.00     0.012 A 
ATOM     61  C   UNL A   1      46.752  30.720  28.077  1.00  0.00     0.148 A 
ATOM     62  C   UNL A   1      44.486  31.886  26.894  1.00  0.00     0.002 A 
ATOM     63  C   UNL A   1      46.884  31.821  27.238  1.00  0.00     0.091 A 
ATOM     64  F   UNL A   1      47.813  30.151  28.670  1.00  0.00    -0.205 F 
ATOM     65  C   UNL A   1      45.754  32.402  26.640  1.00  0.00     0.022 A 
BRANCH  63  66
ATOM     66  S   UNL A   1      48.466  32.625  26.956  1.00  0.00     0.127 S 
ATOM     67  O   UNL A   1      48.796  33.128  28.288  1.00  0.00    -0.237 OA
ATOM     68  O   UNL A   1      49.302  31.514  26.498  1.00  0.00    -0.237 OA
ATOM     69  O   UNL A   1      48.226  33.648  25.946  1.00  0.00    -0.744 OA
ENDBRANCH  63  66
ENDBRANCH  36  59
ENDBRANCH  10  11
ENDBRANCH   3   5
ENDBRANCH   2   3
ENDBRANCH   1   2
BRANCH   1  70
ATOM     70  C   UNL A   1      33.328  34.609  28.549  1.00  0.00     0.202 C 
BRANCH  70  71
ATOM     71  O   UNL A   1      32.608  34.950  29.734  1.00  0.00    -0.374 OA
BRANCH  71  72
ATOM     72  C   UNL A   1      32.921  36.234  30.296  1.00  0.00     0.202 C 
BRANCH  72  73
ATOM     73  C   UNL A   1      33.447  36.228  31.738  1.00  0.00     0.261 C 
BRANCH  73  74
ATOM     74  O   UNL A   1      34.240  35.052  32.001  1.00  0.00    -0.457 OA
BRANCH  74  75
ATOM     75  C   UNL A   1      35.174  35.185  32.992  1.00  0.00     0.374 C 
ATOM     76  O   UNL A   1      34.957  35.648  34.097  1.00  0.00    -0.242 OA
BRANCH  75  77
ATOM     77  C   UNL A   1      36.389  34.516  32.583  1.00  0.00     0.216 A 
ATOM     78  O   UNL A   1      36.980  34.944  31.401  1.00  0.00    -0.449 OA
ATOM     79  C   UNL A   1      37.185  33.548  33.159  1.00  0.00     0.014 A 
ATOM     80  C   UNL A   1      38.133  34.235  31.232  1.00  0.00     0.135 A 
ATOM     81  C   UNL A   1      38.247  33.336  32.260  1.00  0.00     0.028 A 
ATOM     82  C   UNL A   1      37.131  32.729  34.397  1.00  0.00     0.041 C 
ATOM     83  C   UNL A   1      39.076  34.333  30.218  1.00  0.00     0.048 A 
ATOM     84  C   UNL A   1      39.270  32.391  32.328  1.00  0.00    -0.037 A 
ATOM     85  C   UNL A   1      37.817  31.354  34.136  1.00  0.00     0.010 C 
ATOM     86  C   UNL A   1      40.141  33.413  30.291  1.00  0.00     0.004 A 
ATOM     87  C   UNL A   1      40.234  32.451  31.317  1.00  0.00     0.004 A 
ATOM     88  C   UNL A   1      39.242  31.438  33.492  1.00  0.00     0.036 C 
ENDBRANCH  75  77
ENDBRANCH  74  75
ENDBRANCH  73  74
ENDBRANCH  72  73
ENDBRANCH  71  72
ENDBRANCH  70  71
ENDBRANCH   1  70
TORSDOF 17
ENDMDL
MODEL 2
REMARK VINA RESULT:     -10.3      3.357     11.015
REMARK SMILES O=C(OCCOCCOC(=O)c1oc2cccc3c2c1CCC3)c1ccc(-c2c3nc(c(-c4cccc(S(=O)(=O)[O-])c4F)c4ccc([nH]4)c(-c4cccc(S(=O)(=O)[O-])c4F)c4nc(c(-c5cccc(S(=O)(=O)[O-])c5F)c5ccc2[nH]5)C=C4)C=C3)cc1
REMARK SMILES IDX 4 1 3 2 2 3 1 4 24 5 25 6 86 7 26 8 85 9 27 10 28 11 29 12
REMARK SMILES IDX 79 13 30 14 84 15 78 16 80 17 31 18 83 19 77 20 76 21 32 23
REMARK SMILES IDX 64 24 44 25 63 26 45 27 48 28 62 29 81 30 46 31 47 32 61 34
REMARK SMILES IDX 82 35 49 36 33 37 34 38 42 39 35 40 37 41 43 42 36 43 38 44
REMARK SMILES IDX 39 45 40 46 41 47 65 48 66 49 74 50 67 51 69 52 75 53 68 54
REMARK SMILES IDX 70 55 71 56 72 57 73 58 50 59 51 60 59 61 52 62 54 63 60 64
REMARK SMILES IDX 53 65 55 66 56 67 57 68 58 69 5 70 6 71 7 72 8 73 9 74 10 75
REMARK SMILES IDX 11 76 12 77 13 78 20 79 14 80 19 81 21 82 15 83 18 84 22 85
REMARK SMILES IDX 16 86 17 87 23 88
REMARK H PARENT 80 22 48 33
REMARK Flexibility Score: inf
ROOT
ATOM      1  C   UNL A   1      40.992  20.492  26.695  1.00  0.00     0.261 C 
ENDROOT
BRANCH   1   2
ATOM      2  O   UNL A   1      41.222  21.843  26.251  1.00  0.00    -0.460 OA
BRANCH   2   3
ATOM      3  C   UNL A   1      40.294  22.818  26.427  1.00  0.00     0.338 C 
ATOM      4  O   UNL A   1      39.096  22.564  26.470  1.00  0.00    -0.246 OA
BRANCH   3   5
ATOM      5  C   UNL A   1      40.822  24.117  26.905  1.00  0.00     0.060 A 
ATOM      6  C   UNL A   1      41.462  24.283  28.133  1.00  0.00     0.016 A 
ATOM      7  C   UNL A   1      40.559  25.231  26.098  1.00  0.00     0.016 A 
ATOM      8  C   UNL A   1      41.604  25.543  28.669  1.00  0.00     0.010 A 
ATOM      9  C   UNL A   1      40.757  26.505  26.605  1.00  0.00     0.010 A 
ATOM     10  C   UNL A   1      41.184  26.640  27.925  1.00  0.00    -0.014 A 
BRANCH  10  11
ATOM     11  C   UNL A   1      41.182  27.909  28.623  1.00  0.00     0.031 A 
ATOM     12  C   UNL A   1      42.230  28.878  28.225  1.00  0.00     0.074 A 
ATOM     13  C   UNL A   1      40.263  28.178  29.566  1.00  0.00     0.049 A 
ATOM     14  N   UNL A   1      43.170  29.391  28.954  1.00  0.00    -0.248 NA
ATOM     15  C   UNL A   1      42.282  29.248  26.805  1.00  0.00     0.031 C 
ATOM     16  C   UNL A   1      39.035  27.433  29.860  1.00  0.00     0.029 A 
ATOM     17  N   UNL A   1      40.166  29.279  30.358  1.00  0.00    -0.354 N 
ATOM     18  C   UNL A   1      43.820  30.298  28.123  1.00  0.00     0.074 A 
ATOM     19  C   UNL A   1      43.321  30.080  26.787  1.00  0.00     0.031 C 
ATOM     20  C   UNL A   1      38.199  28.237  30.548  1.00  0.00     0.029 A 
ATOM     21  C   UNL A   1      38.882  29.483  30.842  1.00  0.00     0.049 A 
ATOM     22  H   UNL A   1      40.927  29.868  30.566  1.00  0.00     0.167 HD
ATOM     23  C   UNL A   1      44.590  31.319  28.585  1.00  0.00     0.034 A 
ATOM     24  C   UNL A   1      38.402  30.652  31.322  1.00  0.00     0.034 A 
ATOM     25  C   UNL A   1      44.968  31.185  29.958  1.00  0.00     0.049 A 
ATOM     26  C   UNL A   1      39.569  31.478  31.719  1.00  0.00     0.074 A 
ATOM     27  C   UNL A   1      45.732  30.295  30.683  1.00  0.00     0.029 A 
ATOM     28  N   UNL A   1      44.256  31.913  30.875  1.00  0.00    -0.354 N 
ATOM     29  N   UNL A   1      40.380  31.186  32.698  1.00  0.00    -0.248 NA
ATOM     30  C   UNL A   1      40.053  32.490  30.792  1.00  0.00     0.031 C 
ATOM     31  C   UNL A   1      45.122  30.239  31.969  1.00  0.00     0.029 A 
ATOM     32  C   UNL A   1      44.017  31.095  31.948  1.00  0.00     0.049 A 
ATOM     33  H   UNL A   1      43.969  32.850  30.782  1.00  0.00     0.167 HD
ATOM     34  C   UNL A   1      41.618  31.669  32.293  1.00  0.00     0.074 A 
ATOM     35  C   UNL A   1      41.325  32.574  31.187  1.00  0.00     0.031 C 
ATOM     36  C   UNL A   1      42.780  31.079  32.702  1.00  0.00     0.034 A 
BRANCH  23  37
ATOM     37  C   UNL A   1      44.748  32.599  27.828  1.00  0.00     0.023 A 
ATOM     38  C   UNL A   1      45.875  32.795  27.011  1.00  0.00     0.012 A 
ATOM     39  C   UNL A   1      43.895  33.704  28.048  1.00  0.00     0.148 A 
ATOM     40  C   UNL A   1      46.115  34.032  26.401  1.00  0.00     0.002 A 
ATOM     41  C   UNL A   1      44.086  34.898  27.370  1.00  0.00     0.091 A 
ATOM     42  F   UNL A   1      42.951  33.629  28.998  1.00  0.00    -0.205 F 
ATOM     43  C   UNL A   1      45.205  35.076  26.556  1.00  0.00     0.022 A 
BRANCH  41  44
ATOM     44  S   UNL A   1      42.860  36.204  27.472  1.00  0.00     0.127 S 
ATOM     45  O   UNL A   1      42.864  36.507  28.898  1.00  0.00    -0.237 OA
ATOM     46  O   UNL A   1      43.440  37.241  26.615  1.00  0.00    -0.237 OA
ATOM     47  O   UNL A   1      41.644  35.605  26.933  1.00  0.00    -0.744 OA
ENDBRANCH  41  44
ENDBRANCH  23  37
BRANCH  24  48
ATOM     48  C   UNL A   1      37.034  31.209  31.193  1.00  0.00     0.023 A 
ATOM     49  C   UNL A   1      36.365  31.642  32.354  1.00  0.00     0.012 A 
ATOM     50  C   UNL A   1      36.474  31.553  29.940  1.00  0.00     0.148 A 
ATOM     51  C   UNL A   1      35.205  32.421  32.272  1.00  0.00     0.002 A 
ATOM     52  C   UNL A   1      35.304  32.303  29.864  1.00  0.00     0.091 A 
ATOM     53  F   UNL A   1      37.133  31.244  28.816  1.00  0.00    -0.205 F 
ATOM     54  C   UNL A   1      34.675  32.753  31.028  1.00  0.00     0.022 A 
BRANCH  52  55
ATOM     55  S   UNL A   1      34.570  32.735  28.280  1.00  0.00     0.127 S 
ATOM     56  O   UNL A   1      33.570  33.735  28.660  1.00  0.00    -0.237 OA
ATOM     57  O   UNL A   1      35.714  33.264  27.546  1.00  0.00    -0.237 OA
ATOM     58  O   UNL A   1      33.997  31.494  27.771  1.00  0.00    -0.744 OA
ENDBRANCH  52  55
ENDBRANCH  24  48
BRANCH  36  59
ATOM     59  C   UNL A   1      42.705  30.066  33.817  1.00  0.00     0.023 A 
ATOM     60  C   UNL A   1      42.203  28.768  33.587  1.00  0.00     0.012 A 
ATOM     61  C   UNL A   1      43.334  30.346  35.042  1.00  0.00     0.148 A 
ATOM     62  C   UNL A   1      42.310  27.774  34.562  1.00  0.00     0.002 A 
ATOM     63  C   UNL A   1      43.473  29.344  35.997  1.00  0.00     0.091 A 
ATOM     64  F   UNL A   1      43.827  31.580  35.235  1.00  0.00    -0.205 F 
ATOM     65  C   UNL A   1      42.957  28.059  35.762  1.00  0.00     0.022 A 
BRANCH  63  66
ATOM     66  S   UNL A   1      44.401  29.591  37.514  1.00  0.00     0.127 S 
ATOM     67  O   UNL A   1      43.654  30.668  38.159  1.00  0.00    -0.237 OA
ATOM     68  O   UNL A   1      44.281  28.287  38.169  1.00  0.00    -0.237 OA
ATOM     69  O   UNL A   1      45.759  29.932  37.108  1.00  0.00    -0.744 OA
ENDBRANCH  63  66
ENDBRANCH  36  59
ENDBRANCH  10  11
ENDBRANCH   3   5
ENDBRANCH   2   3
ENDBRANCH   1   2
BRANCH   1  70
ATOM     70  C   UNL A   1      42.204  19.582  26.498  1.00  0.00     0.202 C 
BRANCH  70  71
ATOM     71  O   UNL A   1      42.639  19.392  25.152  1.00  0.00    -0.374 OA
BRANCH  71  72
ATOM     72  C   UNL A   1      43.994  18.941  25.001  1.00  0.00     0.202 C 
BRANCH  72  73
ATOM     73  C   UNL A   1      44.942  19.894  24.259  1.00  0.00     0.261 C 
BRANCH  73  74
ATOM     74  O   UNL A   1      45.292  21.027  25.079  1.00  0.00    -0.457 OA
BRANCH  74  75
ATOM     75  C   UNL A   1      44.642  22.192  24.777  1.00  0.00     0.374 C 
ATOM     76  O   UNL A   1      43.948  22.369  23.791  1.00  0.00    -0.242 OA
BRANCH  75  77
ATOM     77  C   UNL A   1      44.754  23.096  25.900  1.00  0.00     0.216 A 
ATOM     78  O   UNL A   1      44.602  22.550  27.169  1.00  0.00    -0.449 OA
ATOM     79  C   UNL A   1      45.065  24.434  26.020  1.00  0.00     0.014 A 
ATOM     80  C   UNL A   1      44.804  23.548  28.077  1.00  0.00     0.135 A 
ATOM     81  C   UNL A   1      45.028  24.717  27.398  1.00  0.00     0.028 A 
ATOM     82  C   UNL A   1      45.362  25.543  25.077  1.00  0.00     0.041 C 
ATOM     83  C   UNL A   1      44.788  23.481  29.464  1.00  0.00     0.048 A 
ATOM     84  C   UNL A   1      45.173  25.947  28.039  1.00  0.00    -0.037 A 
ATOM     85  C   UNL A   1      44.881  26.890  25.698  1.00  0.00     0.010 C 
ATOM     86  C   UNL A   1      44.975  24.708  30.131  1.00  0.00     0.004 A 
ATOM     87  C   UNL A   1      45.153  25.922  29.437  1.00  0.00     0.004 A 
ATOM     88  C   UNL A   1      45.369  27.154  27.162  1.00  0.00     0.036 C 
ENDBRANCH  75  77
ENDBRANCH  74  75
ENDBRANCH  73  74
ENDBRANCH  72  73
ENDBRANCH  71  72
ENDBRANCH  70  71
ENDBRANCH   1  70
TORSDOF 17
ENDMDL
MODEL 3
REMARK VINA RESULT:     -10.0      1.468      1.830
REMARK SMILES O=C(OCCOCCOC(=O)c1oc2cccc3c2c1CCC3)c1ccc(-c2c3nc(c(-c4cccc(S(=O)(=O)[O-])c4F)c4ccc([nH]4)c(-c4cccc(S(=O)(=O)[O-])c4F)c4nc(c(-c5cccc(S(=O)(=O)[O-])c5F)c5ccc2[nH]5)C=C4)C=C3)cc1
REMARK SMILES IDX 4 1 3 2 2 3 1 4 24 5 25 6 86 7 26 8 85 9 27 10 28 11 29 12
REMARK SMILES IDX 79 13 30 14 84 15 78 16 80 17 31 18 83 19 77 20 76 21 32 23
REMARK SMILES IDX 64 24 44 25 63 26 45 27 48 28 62 29 81 30 46 31 47 32 61 34
REMARK SMILES IDX 82 35 49 36 33 37 34 38 42 39 35 40 37 41 43 42 36 43 38 44
REMARK SMILES IDX 39 45 40 46 41 47 65 48 66 49 74 50 67 51 69 52 75 53 68 54
REMARK SMILES IDX 70 55 71 56 72 57 73 58 50 59 51 60 59 61 52 62 54 63 60 64
REMARK SMILES IDX 53 65 55 66 56 67 57 68 58 69 5 70 6 71 7 72 8 73 9 74 10 75
REMARK SMILES IDX 11 76 12 77 13 78 20 79 14 80 19 81 21 82 15 83 18 84 22 85
REMARK SMILES IDX 16 86 17 87 23 88
REMARK H PARENT 80 22 48 33
REMARK Flexibility Score: inf
ROOT
ATOM      1  C   UNL A   1      33.875  32.191  27.890  1.00  0.00     0.261 C 
ENDROOT
BRANCH   1   2
ATOM      2  O   UNL A   1      34.986  32.080  28.800  1.00  0.00    -0.460 OA
BRANCH   2   3
ATOM      3  C   UNL A   1      36.254  32.373  28.416  1.00  0.00     0.338 C 
ATOM      4  O   UNL A   1      36.522  33.411  27.822  1.00  0.00    -0.246 OA
BRANCH   3   5
ATOM      5  C   UNL A   1      37.314  31.556  29.051  1.00  0.00     0.060 A 
ATOM      6  C   UNL A   1      38.486  32.093  29.584  1.00  0.00     0.016 A 
ATOM      7  C   UNL A   1      37.139  30.167  29.008  1.00  0.00     0.016 A 
ATOM      8  C   UNL A   1      39.568  31.277  29.827  1.00  0.00     0.010 A 
ATOM      9  C   UNL A   1      38.204  29.334  29.312  1.00  0.00     0.010 A 
ATOM     10  C   UNL A   1      39.435  29.909  29.622  1.00  0.00    -0.014 A 
BRANCH  10  11
ATOM     11  C   UNL A   1      40.659  29.139  29.708  1.00  0.00     0.031 A 
ATOM     12  C   UNL A   1      41.153  28.845  31.075  1.00  0.00     0.074 A 
ATOM     13  C   UNL A   1      41.289  28.714  28.600  1.00  0.00     0.049 A 
ATOM     14  N   UNL A   1      42.279  29.191  31.616  1.00  0.00    -0.248 NA
ATOM     15  C   UNL A   1      40.226  28.149  31.976  1.00  0.00     0.031 C 
ATOM     16  C   UNL A   1      40.777  28.703  27.227  1.00  0.00     0.029 A 
ATOM     17  N   UNL A   1      42.472  28.051  28.505  1.00  0.00    -0.354 N 
ATOM     18  C   UNL A   1      42.278  28.591  32.871  1.00  0.00     0.074 A 
ATOM     19  C   UNL A   1      40.949  28.073  33.090  1.00  0.00     0.031 C 
ATOM     20  C   UNL A   1      41.507  27.831  26.502  1.00  0.00     0.029 A 
ATOM     21  C   UNL A   1      42.595  27.333  27.325  1.00  0.00     0.049 A 
ATOM     22  H   UNL A   1      43.168  28.079  29.200  1.00  0.00     0.167 HD
ATOM     23  C   UNL A   1      43.407  28.368  33.595  1.00  0.00     0.034 A 
ATOM     24  C   UNL A   1      43.453  26.310  27.114  1.00  0.00     0.034 A 
ATOM     25  C   UNL A   1      44.545  29.104  33.136  1.00  0.00     0.049 A 
ATOM     26  C   UNL A   1      44.543  26.437  28.114  1.00  0.00     0.074 A 
ATOM     27  C   UNL A   1      44.879  30.438  33.047  1.00  0.00     0.029 A 
ATOM     28  N   UNL A   1      45.455  28.428  32.365  1.00  0.00    -0.354 N 
ATOM     29  N   UNL A   1      45.408  27.413  28.141  1.00  0.00    -0.248 NA
ATOM     30  C   UNL A   1      44.472  25.635  29.326  1.00  0.00     0.031 C 
ATOM     31  C   UNL A   1      45.703  30.540  31.888  1.00  0.00     0.029 A 
ATOM     32  C   UNL A   1      45.815  29.261  31.338  1.00  0.00     0.049 A 
ATOM     33  H   UNL A   1      45.789  27.515  32.519  1.00  0.00     0.167 HD
ATOM     34  C   UNL A   1      45.696  27.597  29.488  1.00  0.00     0.074 A 
ATOM     35  C   UNL A   1      45.201  26.394  30.146  1.00  0.00     0.031 C 
ATOM     36  C   UNL A   1      46.051  28.822  29.977  1.00  0.00     0.034 A 
BRANCH  23  37
ATOM     37  C   UNL A   1      43.518  27.230  34.559  1.00  0.00     0.023 A 
ATOM     38  C   UNL A   1      43.436  27.473  35.941  1.00  0.00     0.012 A 
ATOM     39  C   UNL A   1      43.893  25.934  34.140  1.00  0.00     0.148 A 
ATOM     40  C   UNL A   1      43.673  26.450  36.867  1.00  0.00     0.002 A 
ATOM     41  C   UNL A   1      44.036  24.902  35.056  1.00  0.00     0.091 A 
ATOM     42  F   UNL A   1      44.211  25.723  32.854  1.00  0.00    -0.205 F 
ATOM     43  C   UNL A   1      43.944  25.156  36.424  1.00  0.00     0.022 A 
BRANCH  41  44
ATOM     44  S   UNL A   1      44.270  23.215  34.492  1.00  0.00     0.127 S 
ATOM     45  O   UNL A   1      44.407  22.495  35.752  1.00  0.00    -0.237 OA
ATOM     46  O   UNL A   1      43.028  22.958  33.760  1.00  0.00    -0.237 OA
ATOM     47  O   UNL A   1      45.454  23.276  33.641  1.00  0.00    -0.744 OA
ENDBRANCH  41  44
ENDBRANCH  23  37
BRANCH  24  48
ATOM     48  C   UNL A   1      43.245  25.083  26.308  1.00  0.00     0.023 A 
ATOM     49  C   UNL A   1      44.135  24.806  25.252  1.00  0.00     0.012 A 
ATOM     50  C   UNL A   1      42.353  24.060  26.706  1.00  0.00     0.148 A 
ATOM     51  C   UNL A   1      44.163  23.548  24.642  1.00  0.00     0.002 A 
ATOM     52  C   UNL A   1      42.364  22.819  26.076  1.00  0.00     0.091 A 
ATOM     53  F   UNL A   1      41.561  24.253  27.769  1.00  0.00    -0.205 F 
ATOM     54  C   UNL A   1      43.279  22.554  25.053  1.00  0.00     0.022 A 
BRANCH  52  55
ATOM     55  S   UNL A   1      41.225  21.514  26.558  1.00  0.00     0.127 S 
ATOM     56  O   UNL A   1      41.717  20.369  25.789  1.00  0.00    -0.237 OA
ATOM     57  O   UNL A   1      41.451  21.425  27.996  1.00  0.00    -0.237 OA
ATOM     58  O   UNL A   1      39.908  21.980  26.142  1.00  0.00    -0.744 OA
ENDBRANCH  52  55
ENDBRANCH  24  48
BRANCH  36  59
ATOM     59  C   UNL A   1      46.390  29.909  28.987  1.00  0.00     0.023 A 
ATOM     60  C   UNL A   1      47.707  30.075  28.512  1.00  0.00     0.012 A 
ATOM     61  C   UNL A   1      45.347  30.625  28.373  1.00  0.00     0.148 A 
ATOM     62  C   UNL A   1      47.985  30.949  27.459  1.00  0.00     0.002 A 
ATOM     63  C   UNL A   1      45.622  31.465  27.299  1.00  0.00     0.091 A 
ATOM     64  F   UNL A   1      44.097  30.437  28.823  1.00  0.00    -0.205 F 
ATOM     65  C   UNL A   1      46.940  31.634  26.844  1.00  0.00     0.022 A 
BRANCH  63  66
ATOM     66  S   UNL A   1      44.322  32.287  26.372  1.00  0.00     0.127 S 
ATOM     67  O   UNL A   1      43.408  31.184  26.080  1.00  0.00    -0.237 OA
ATOM     68  O   UNL A   1      43.815  33.260  27.341  1.00  0.00    -0.237 OA
ATOM     69  O   UNL A   1      44.969  32.884  25.210  1.00  0.00    -0.744 OA
ENDBRANCH  63  66
ENDBRANCH  36  59
ENDBRANCH  10  11
ENDBRANCH   3   5
ENDBRANCH   2   3
ENDBRANCH   1   2
BRANCH   1  70
ATOM     70  C   UNL A   1      33.108  33.504  28.038  1.00  0.00     0.202 C 
BRANCH  70  71
ATOM     71  O   UNL A   1      33.897  34.681  28.214  1.00  0.00    -0.374 OA
BRANCH  71  72
ATOM     72  C   UNL A   1      33.398  35.617  29.183  1.00  0.00     0.202 C 
BRANCH  72  73
ATOM     73  C   UNL A   1      33.423  35.150  30.645  1.00  0.00     0.261 C 
BRANCH  73  74
ATOM     74  O   UNL A   1      34.699  34.574  30.989  1.00  0.00    -0.457 OA
BRANCH  74  75
ATOM     75  C   UNL A   1      35.269  35.056  32.135  1.00  0.00     0.374 C 
ATOM     76  O   UNL A   1      34.770  35.894  32.864  1.00  0.00    -0.242 OA
BRANCH  75  77
ATOM     77  C   UNL A   1      36.450  34.277  32.434  1.00  0.00     0.216 A 
ATOM     78  O   UNL A   1      37.658  34.960  32.507  1.00  0.00    -0.449 OA
ATOM     79  C   UNL A   1      36.664  32.952  32.754  1.00  0.00     0.014 A 
ATOM     80  C   UNL A   1      38.623  34.063  32.856  1.00  0.00     0.135 A 
ATOM     81  C   UNL A   1      38.050  32.821  32.953  1.00  0.00     0.028 A 
ATOM     82  C   UNL A   1      35.813  31.740  32.876  1.00  0.00     0.041 C 
ATOM     83  C   UNL A   1      39.976  34.280  33.081  1.00  0.00     0.048 A 
ATOM     84  C   UNL A   1      38.789  31.665  33.200  1.00  0.00    -0.037 A 
ATOM     85  C   UNL A   1      36.652  30.482  32.502  1.00  0.00     0.010 C 
ATOM     86  C   UNL A   1      40.734  33.128  33.373  1.00  0.00     0.004 A 
ATOM     87  C   UNL A   1      40.159  31.842  33.421  1.00  0.00     0.004 A 
ATOM     88  C   UNL A   1      38.032  30.365  33.234  1.00  0.00     0.036 C 
ENDBRANCH  75  77
ENDBRANCH  74  75
ENDBRANCH  73  74
ENDBRANCH  72  73
ENDBRANCH  71  72
ENDBRANCH  70  71
ENDBRANCH   1  70
TORSDOF 17
ENDMDL
