MODEL 1
REMARK VINA RESULT:     -11.2      0.000      0.000
REMARK SMILES C[C@@H](C(=O)OCCOCCOC(=O)c1ccc(-c2c3nc(c(-c4cccc(S(=O)(=O)[O-])c4F)c4ccc([nH]4)c(-c4cccc(S(=O)(=O)[O-])c4F)c4nc(c(-c5cccc(S(=O)(=O)[O-])c5F)c5ccc2[nH]5)C=C4)C=C3)cc1)c1ccc(C[C@H]2CCC[C@@H]2O)cc1Br
REMARK SMILES IDX 7 1 6 2 5 3 3 4 4 5 2 6 1 7 77 8 78 9 89 10 79 11 88 12
REMARK SMILES IDX 90 13 80 14 81 15 82 16 83 17 86 18 84 19 85 20 87 21 8 23
REMARK SMILES IDX 9 24 10 25 11 26 12 27 13 28 14 29 15 30 76 31 16 32 75 33
REMARK SMILES IDX 17 34 18 35 19 36 69 37 20 38 74 39 68 40 70 41 21 42 73 43
REMARK SMILES IDX 67 44 66 45 22 47 54 48 34 49 53 50 35 51 38 52 52 53 71 54
REMARK SMILES IDX 36 55 37 56 51 58 72 59 39 60 23 61 24 62 32 63 25 64 27 65
REMARK SMILES IDX 33 66 26 67 28 68 29 69 30 70 31 71 55 72 56 73 64 74 57 75
REMARK SMILES IDX 59 76 65 77 58 78 60 79 61 80 62 81 63 82 40 83 41 84 49 85
REMARK SMILES IDX 42 86 44 87 50 88 43 89 45 90 46 91 47 92 48 93
REMARK H PARENT 87 22 70 46 38 57
REMARK Flexibility Score: inf
ROOT
ATOM      1  C   UNL A   1      32.503  29.033  26.604  1.00  0.00     0.202 C 
ENDROOT
BRANCH   1   2
ATOM      2  C   UNL A   1      33.537  28.030  26.077  1.00  0.00     0.261 C 
BRANCH   2   3
ATOM      3  O   UNL A   1      33.059  26.676  26.228  1.00  0.00    -0.463 OA
BRANCH   3   4
ATOM      4  C   UNL A   1      33.368  25.808  25.227  1.00  0.00     0.313 C 
ATOM      5  O   UNL A   1      34.492  25.353  25.037  1.00  0.00    -0.252 OA
BRANCH   4   6
ATOM      6  C   UNL A   1      32.149  25.439  24.362  1.00  0.00     0.127 C 
ATOM      7  C   UNL A   1      30.841  26.147  24.734  1.00  0.00     0.025 C 
BRANCH   6   8
ATOM      8  C   UNL A   1      31.974  23.917  24.346  1.00  0.00    -0.020 A 
ATOM      9  C   UNL A   1      31.304  23.293  25.417  1.00  0.00     0.006 A 
ATOM     10  C   UNL A   1      32.559  23.084  23.383  1.00  0.00     0.022 A 
ATOM     11  C   UNL A   1      31.324  21.909  25.595  1.00  0.00     0.004 A 
ATOM     12  C   UNL A   1      32.577  21.692  23.562  1.00  0.00     0.019 A 
ATOM     13  Br  UNL A   1      33.380  23.746  21.804  1.00  0.00    -0.050 Br
ATOM     14  C   UNL A   1      32.017  21.099  24.702  1.00  0.00    -0.047 A 
BRANCH  14  15
ATOM     15  C   UNL A   1      32.214  19.628  24.980  1.00  0.00     0.041 C 
BRANCH  15  16
ATOM     16  C   UNL A   1      33.217  18.899  24.063  1.00  0.00     0.022 C 
ATOM     17  C   UNL A   1      34.577  18.545  24.690  1.00  0.00     0.007 C 
ATOM     18  C   UNL A   1      32.731  17.585  23.442  1.00  0.00     0.117 C 
ATOM     19  C   UNL A   1      34.993  17.201  24.085  1.00  0.00     0.003 C 
ATOM     20  C   UNL A   1      34.022  16.950  22.945  1.00  0.00     0.032 C 
BRANCH  18  21
ATOM     21  O   UNL A   1      31.845  17.809  22.359  1.00  0.00    -0.393 OA
ATOM     22  H   UNL A   1      32.224  18.474  21.764  1.00  0.00     0.210 HD
ENDBRANCH  18  21
ENDBRANCH  15  16
ENDBRANCH  14  15
ENDBRANCH   6   8
ENDBRANCH   4   6
ENDBRANCH   3   4
ENDBRANCH   2   3
ENDBRANCH   1   2
BRANCH   1  23
ATOM     23  O   UNL A   1      32.586  30.366  26.085  1.00  0.00    -0.374 OA
BRANCH  23  24
ATOM     24  C   UNL A   1      31.405  31.156  26.163  1.00  0.00     0.202 C 
BRANCH  24  25
ATOM     25  C   UNL A   1      31.525  32.537  26.814  1.00  0.00     0.261 C 
BRANCH  25  26
ATOM     26  O   UNL A   1      32.843  33.087  26.684  1.00  0.00    -0.460 OA
BRANCH  26  27
ATOM     27  C   UNL A   1      33.347  33.581  27.838  1.00  0.00     0.338 C 
ATOM     28  O   UNL A   1      32.804  34.370  28.602  1.00  0.00    -0.246 OA
BRANCH  27  29
ATOM     29  C   UNL A   1      34.603  32.893  28.176  1.00  0.00     0.060 A 
ATOM     30  C   UNL A   1      34.503  31.567  28.615  1.00  0.00     0.016 A 
ATOM     31  C   UNL A   1      35.841  33.536  28.119  1.00  0.00     0.016 A 
ATOM     32  C   UNL A   1      35.636  30.895  29.060  1.00  0.00     0.010 A 
ATOM     33  C   UNL A   1      36.979  32.861  28.574  1.00  0.00     0.010 A 
ATOM     34  C   UNL A   1      36.871  31.555  29.085  1.00  0.00    -0.014 A 
BRANCH  34  35
ATOM     35  C   UNL A   1      38.007  30.926  29.796  1.00  0.00     0.031 A 
ATOM     36  C   UNL A   1      38.274  31.312  31.224  1.00  0.00     0.074 A 
ATOM     37  C   UNL A   1      38.772  30.002  29.185  1.00  0.00     0.049 A 
ATOM     38  N   UNL A   1      39.204  30.885  32.038  1.00  0.00    -0.248 NA
ATOM     39  C   UNL A   1      37.372  32.315  31.817  1.00  0.00     0.031 C 
ATOM     40  C   UNL A   1      38.600  29.541  27.809  1.00  0.00     0.029 A 
ATOM     41  N   UNL A   1      39.858  29.301  29.644  1.00  0.00    -0.354 N 
ATOM     42  C   UNL A   1      39.021  31.587  33.223  1.00  0.00     0.074 A 
ATOM     43  C   UNL A   1      37.896  32.475  33.023  1.00  0.00     0.031 C 
ATOM     44  C   UNL A   1      39.563  28.647  27.526  1.00  0.00     0.029 A 
ATOM     45  C   UNL A   1      40.430  28.492  28.692  1.00  0.00     0.049 A 
ATOM     46  H   UNL A   1      40.194  29.371  30.567  1.00  0.00     0.167 HD
ATOM     47  C   UNL A   1      39.716  31.489  34.380  1.00  0.00     0.034 A 
ATOM     48  C   UNL A   1      41.540  27.730  28.753  1.00  0.00     0.034 A 
ATOM     49  C   UNL A   1      40.817  30.587  34.582  1.00  0.00     0.049 A 
ATOM     50  C   UNL A   1      42.311  27.657  30.046  1.00  0.00     0.074 A 
ATOM     51  C   UNL A   1      41.553  30.373  35.733  1.00  0.00     0.029 A 
ATOM     52  N   UNL A   1      41.351  29.760  33.606  1.00  0.00    -0.354 N 
ATOM     53  N   UNL A   1      42.051  28.234  31.196  1.00  0.00    -0.248 NA
ATOM     54  C   UNL A   1      43.507  26.805  30.060  1.00  0.00     0.031 C 
ATOM     55  C   UNL A   1      42.555  29.441  35.444  1.00  0.00     0.029 A 
ATOM     56  C   UNL A   1      42.419  29.048  34.122  1.00  0.00     0.049 A 
ATOM     57  H   UNL A   1      41.019  29.691  32.681  1.00  0.00     0.167 HD
ATOM     58  C   UNL A   1      43.028  27.783  32.078  1.00  0.00     0.074 A 
ATOM     59  C   UNL A   1      43.873  26.873  31.333  1.00  0.00     0.031 C 
ATOM     60  C   UNL A   1      43.217  28.103  33.382  1.00  0.00     0.034 A 
BRANCH  47  61
ATOM     61  C   UNL A   1      39.299  32.372  35.526  1.00  0.00     0.023 A 
ATOM     62  C   UNL A   1      38.443  31.865  36.526  1.00  0.00     0.012 A 
ATOM     63  C   UNL A   1      39.799  33.682  35.644  1.00  0.00     0.148 A 
ATOM     64  C   UNL A   1      38.070  32.660  37.609  1.00  0.00     0.002 A 
ATOM     65  C   UNL A   1      39.458  34.453  36.749  1.00  0.00     0.091 A 
ATOM     66  F   UNL A   1      40.591  34.153  34.670  1.00  0.00    -0.205 F 
ATOM     67  C   UNL A   1      38.586  33.948  37.726  1.00  0.00     0.022 A 
BRANCH  65  68
ATOM     68  S   UNL A   1      40.131  36.094  37.028  1.00  0.00     0.127 S 
ATOM     69  O   UNL A   1      41.556  35.807  37.181  1.00  0.00    -0.237 OA
ATOM     70  O   UNL A   1      39.778  36.787  35.789  1.00  0.00    -0.237 OA
ATOM     71  O   UNL A   1      39.467  36.605  38.220  1.00  0.00    -0.744 OA
ENDBRANCH  65  68
ENDBRANCH  47  61
BRANCH  48  72
ATOM     72  C   UNL A   1      41.972  26.945  27.563  1.00  0.00     0.023 A 
ATOM     73  C   UNL A   1      42.599  27.600  26.485  1.00  0.00     0.012 A 
ATOM     74  C   UNL A   1      41.775  25.551  27.498  1.00  0.00     0.148 A 
ATOM     75  C   UNL A   1      42.993  26.889  25.352  1.00  0.00     0.002 A 
ATOM     76  C   UNL A   1      42.221  24.839  26.390  1.00  0.00     0.091 A 
ATOM     77  F   UNL A   1      41.160  24.948  28.525  1.00  0.00    -0.205 F 
ATOM     78  C   UNL A   1      42.814  25.507  25.308  1.00  0.00     0.022 A 
BRANCH  76  79
ATOM     79  S   UNL A   1      42.147  23.047  26.305  1.00  0.00     0.127 S 
ATOM     80  O   UNL A   1      43.020  22.659  27.409  1.00  0.00    -0.237 OA
ATOM     81  O   UNL A   1      40.723  22.793  26.527  1.00  0.00    -0.237 OA
ATOM     82  O   UNL A   1      42.618  22.697  24.972  1.00  0.00    -0.744 OA
ENDBRANCH  76  79
ENDBRANCH  48  72
BRANCH  60  83
ATOM     83  C   UNL A   1      44.355  27.436  34.111  1.00  0.00     0.023 A 
ATOM     84  C   UNL A   1      45.617  28.062  34.167  1.00  0.00     0.012 A 
ATOM     85  C   UNL A   1      44.151  26.226  34.804  1.00  0.00     0.148 A 
ATOM     86  C   UNL A   1      46.665  27.476  34.875  1.00  0.00     0.002 A 
ATOM     87  C   UNL A   1      45.186  25.676  35.550  1.00  0.00     0.091 A 
ATOM     88  F   UNL A   1      42.949  25.639  34.724  1.00  0.00    -0.205 F 
ATOM     89  C   UNL A   1      46.447  26.292  35.576  1.00  0.00     0.022 A 
BRANCH  87  90
ATOM     90  S   UNL A   1      44.968  24.208  36.563  1.00  0.00     0.127 S 
ATOM     91  O   UNL A   1      44.199  23.342  35.670  1.00  0.00    -0.237 OA
ATOM     92  O   UNL A   1      46.348  23.780  36.791  1.00  0.00    -0.237 OA
ATOM     93  O   UNL A   1      44.267  24.649  37.761  1.00  0.00    -0.744 OA
ENDBRANCH  87  90
ENDBRANCH  60  83
ENDBRANCH  34  35
ENDBRANCH  27  29
ENDBRANCH  26  27
ENDBRANCH  25  26
ENDBRANCH  24  25
ENDBRANCH  23  24
ENDBRANCH   1  23
TORSDOF 21
ENDMDL
MODEL 2
REMARK VINA RESULT:     -10.2      3.466      8.888
REMARK SMILES C[C@@H](C(=O)OCCOCCOC(=O)c1ccc(-c2c3nc(c(-c4cccc(S(=O)(=O)[O-])c4F)c4ccc([nH]4)c(-c4cccc(S(=O)(=O)[O-])c4F)c4nc(c(-c5cccc(S(=O)(=O)[O-])c5F)c5ccc2[nH]5)C=C4)C=C3)cc1)c1ccc(C[C@H]2CCC[C@@H]2O)cc1Br
REMARK SMILES IDX 7 1 6 2 5 3 3 4 4 5 2 6 1 7 77 8 78 9 89 10 79 11 88 12
REMARK SMILES IDX 90 13 80 14 81 15 82 16 83 17 86 18 84 19 85 20 87 21 8 23
REMARK SMILES IDX 9 24 10 25 11 26 12 27 13 28 14 29 15 30 76 31 16 32 75 33
REMARK SMILES IDX 17 34 18 35 19 36 69 37 20 38 74 39 68 40 70 41 21 42 73 43
REMARK SMILES IDX 67 44 66 45 22 47 54 48 34 49 53 50 35 51 38 52 52 53 71 54
REMARK SMILES IDX 36 55 37 56 51 58 72 59 39 60 23 61 24 62 32 63 25 64 27 65
REMARK SMILES IDX 33 66 26 67 28 68 29 69 30 70 31 71 55 72 56 73 64 74 57 75
REMARK SMILES IDX 59 76 65 77 58 78 60 79 61 80 62 81 63 82 40 83 41 84 49 85
REMARK SMILES IDX 42 86 44 87 50 88 43 89 45 90 46 91 47 92 48 93
REMARK H PARENT 87 22 70 46 38 57
REMARK Flexibility Score: inf
ROOT
ATOM      1  C   UNL A   1      31.940  29.740  26.760  1.00  0.00     0.202 C 
ENDROOT
BRANCH   1   2
ATOM      2  C   UNL A   1      33.301  29.243  26.258  1.00  0.00     0.261 C 
BRANCH   2   3
ATOM      3  O   UNL A   1      33.177  27.938  25.652  1.00  0.00    -0.463 OA
BRANCH   3   4
ATOM      4  C   UNL A   1      33.554  27.836  24.349  1.00  0.00     0.313 C 
ATOM      5  O   UNL A   1      34.368  28.581  23.809  1.00  0.00    -0.252 OA
BRANCH   4   6
ATOM      6  C   UNL A   1      32.863  26.669  23.620  1.00  0.00     0.127 C 
ATOM      7  C   UNL A   1      33.575  26.169  22.357  1.00  0.00     0.025 C 
BRANCH   6   8
ATOM      8  C   UNL A   1      31.405  27.037  23.330  1.00  0.00    -0.020 A 
ATOM      9  C   UNL A   1      31.129  28.113  22.463  1.00  0.00     0.006 A 
ATOM     10  C   UNL A   1      30.315  26.444  23.982  1.00  0.00     0.022 A 
ATOM     11  C   UNL A   1      29.851  28.661  22.348  1.00  0.00     0.004 A 
ATOM     12  C   UNL A   1      29.030  26.993  23.863  1.00  0.00     0.019 A 
ATOM     13  Br  UNL A   1      30.480  24.899  25.074  1.00  0.00    -0.050 Br
ATOM     14  C   UNL A   1      28.799  28.145  23.098  1.00  0.00    -0.047 A 
BRANCH  14  15
ATOM     15  C   UNL A   1      27.459  28.838  23.135  1.00  0.00     0.041 C 
BRANCH  15  16
ATOM     16  C   UNL A   1      27.459  30.324  22.721  1.00  0.00     0.022 C 
ATOM     17  C   UNL A   1      27.979  31.321  23.771  1.00  0.00     0.007 C 
ATOM     18  C   UNL A   1      28.241  30.670  21.448  1.00  0.00     0.117 C 
ATOM     19  C   UNL A   1      28.713  32.420  22.995  1.00  0.00     0.003 C 
ATOM     20  C   UNL A   1      28.371  32.183  21.534  1.00  0.00     0.032 C 
BRANCH  18  21
ATOM     21  O   UNL A   1      27.531  30.303  20.278  1.00  0.00    -0.393 OA
ATOM     22  H   UNL A   1      28.137  30.306  19.519  1.00  0.00     0.210 HD
ENDBRANCH  18  21
ENDBRANCH  15  16
ENDBRANCH  14  15
ENDBRANCH   6   8
ENDBRANCH   4   6
ENDBRANCH   3   4
ENDBRANCH   2   3
ENDBRANCH   1   2
BRANCH   1  23
ATOM     23  O   UNL A   1      31.769  31.160  26.837  1.00  0.00    -0.374 OA
BRANCH  23  24
ATOM     24  C   UNL A   1      32.821  31.898  27.447  1.00  0.00     0.202 C 
BRANCH  24  25
ATOM     25  C   UNL A   1      32.701  33.425  27.445  1.00  0.00     0.261 C 
BRANCH  25  26
ATOM     26  O   UNL A   1      33.829  34.060  28.061  1.00  0.00    -0.460 OA
BRANCH  26  27
ATOM     27  C   UNL A   1      33.592  34.500  29.318  1.00  0.00     0.338 C 
ATOM     28  O   UNL A   1      32.575  35.047  29.728  1.00  0.00    -0.246 OA
BRANCH  27  29
ATOM     29  C   UNL A   1      34.672  34.066  30.218  1.00  0.00     0.060 A 
ATOM     30  C   UNL A   1      35.970  34.486  29.902  1.00  0.00     0.016 A 
ATOM     31  C   UNL A   1      34.437  33.226  31.309  1.00  0.00     0.016 A 
ATOM     32  C   UNL A   1      37.050  34.018  30.640  1.00  0.00     0.010 A 
ATOM     33  C   UNL A   1      35.527  32.751  32.046  1.00  0.00     0.010 A 
ATOM     34  C   UNL A   1      36.838  33.112  31.687  1.00  0.00    -0.014 A 
BRANCH  34  35
ATOM     35  C   UNL A   1      38.003  32.427  32.291  1.00  0.00     0.031 A 
ATOM     36  C   UNL A   1      38.646  31.292  31.544  1.00  0.00     0.074 A 
ATOM     37  C   UNL A   1      38.497  32.830  33.476  1.00  0.00     0.049 A 
ATOM     38  N   UNL A   1      39.675  30.558  31.877  1.00  0.00    -0.248 NA
ATOM     39  C   UNL A   1      38.050  30.935  30.245  1.00  0.00     0.031 C 
ATOM     40  C   UNL A   1      37.964  33.925  34.285  1.00  0.00     0.029 A 
ATOM     41  N   UNL A   1      39.551  32.349  34.211  1.00  0.00    -0.354 N 
ATOM     42  C   UNL A   1      39.830  29.635  30.850  1.00  0.00     0.074 A 
ATOM     43  C   UNL A   1      38.785  29.894  29.884  1.00  0.00     0.031 C 
ATOM     44  C   UNL A   1      38.681  34.019  35.417  1.00  0.00     0.029 A 
ATOM     45  C   UNL A   1      39.706  32.978  35.423  1.00  0.00     0.049 A 
ATOM     46  H   UNL A   1      40.139  31.624  33.899  1.00  0.00     0.167 HD
ATOM     47  C   UNL A   1      40.769  28.669  30.716  1.00  0.00     0.034 A 
ATOM     48  C   UNL A   1      40.568  32.725  36.428  1.00  0.00     0.034 A 
ATOM     49  C   UNL A   1      41.820  28.433  31.667  1.00  0.00     0.049 A 
ATOM     50  C   UNL A   1      41.587  31.627  36.264  1.00  0.00     0.074 A 
ATOM     51  C   UNL A   1      42.853  27.514  31.598  1.00  0.00     0.029 A 
ATOM     52  N   UNL A   1      41.966  29.108  32.870  1.00  0.00    -0.354 N 
ATOM     53  N   UNL A   1      41.798  30.844  35.233  1.00  0.00    -0.248 NA
ATOM     54  C   UNL A   1      42.507  31.400  37.386  1.00  0.00     0.031 C 
ATOM     55  C   UNL A   1      43.603  27.611  32.774  1.00  0.00     0.029 A 
ATOM     56  C   UNL A   1      43.060  28.615  33.559  1.00  0.00     0.049 A 
ATOM     57  H   UNL A   1      41.377  29.831  33.185  1.00  0.00     0.167 HD
ATOM     58  C   UNL A   1      42.898  30.061  35.567  1.00  0.00     0.074 A 
ATOM     59  C   UNL A   1      43.318  30.476  36.889  1.00  0.00     0.031 C 
ATOM     60  C   UNL A   1      43.498  29.077  34.851  1.00  0.00     0.034 A 
BRANCH  47  61
ATOM     61  C   UNL A   1      40.711  27.801  29.487  1.00  0.00     0.023 A 
ATOM     62  C   UNL A   1      39.772  26.751  29.414  1.00  0.00     0.012 A 
ATOM     63  C   UNL A   1      41.546  28.060  28.384  1.00  0.00     0.148 A 
ATOM     64  C   UNL A   1      39.686  25.956  28.272  1.00  0.00     0.002 A 
ATOM     65  C   UNL A   1      41.424  27.290  27.233  1.00  0.00     0.091 A 
ATOM     66  F   UNL A   1      42.450  29.045  28.483  1.00  0.00    -0.205 F 
ATOM     67  C   UNL A   1      40.503  26.233  27.179  1.00  0.00     0.022 A 
BRANCH  65  68
ATOM     68  S   UNL A   1      42.377  27.617  25.746  1.00  0.00     0.127 S 
ATOM     69  O   UNL A   1      43.747  27.479  26.237  1.00  0.00    -0.237 OA
ATOM     70  O   UNL A   1      41.937  26.542  24.856  1.00  0.00    -0.237 OA
ATOM     71  O   UNL A   1      42.001  28.956  25.312  1.00  0.00    -0.744 OA
ENDBRANCH  65  68
ENDBRANCH  47  61
BRANCH  48  72
ATOM     72  C   UNL A   1      40.527  33.549  37.669  1.00  0.00     0.023 A 
ATOM     73  C   UNL A   1      41.380  34.663  37.795  1.00  0.00     0.012 A 
ATOM     74  C   UNL A   1      39.641  33.241  38.721  1.00  0.00     0.148 A 
ATOM     75  C   UNL A   1      41.374  35.436  38.957  1.00  0.00     0.002 A 
ATOM     76  C   UNL A   1      39.600  34.048  39.851  1.00  0.00     0.091 A 
ATOM     77  F   UNL A   1      38.850  32.166  38.589  1.00  0.00    -0.205 F 
ATOM     78  C   UNL A   1      40.478  35.135  39.980  1.00  0.00     0.022 A 
BRANCH  76  79
ATOM     79  S   UNL A   1      38.391  33.811  41.159  1.00  0.00     0.127 S 
ATOM     80  O   UNL A   1      38.944  32.664  41.872  1.00  0.00    -0.237 OA
ATOM     81  O   UNL A   1      38.473  35.083  41.878  1.00  0.00    -0.237 OA
ATOM     82  O   UNL A   1      37.121  33.585  40.483  1.00  0.00    -0.744 OA
ENDBRANCH  76  79
ENDBRANCH  48  72
BRANCH  60  83
ATOM     83  C   UNL A   1      44.703  28.404  35.457  1.00  0.00     0.023 A 
ATOM     84  C   UNL A   1      45.998  28.861  35.139  1.00  0.00     0.012 A 
ATOM     85  C   UNL A   1      44.546  27.370  36.401  1.00  0.00     0.148 A 
ATOM     86  C   UNL A   1      47.118  28.275  35.727  1.00  0.00     0.002 A 
ATOM     87  C   UNL A   1      45.665  26.827  37.021  1.00  0.00     0.091 A 
ATOM     88  F   UNL A   1      43.307  26.939  36.677  1.00  0.00    -0.205 F 
ATOM     89  C   UNL A   1      46.952  27.269  36.676  1.00  0.00     0.022 A 
BRANCH  87  90
ATOM     90  S   UNL A   1      45.540  25.599  38.326  1.00  0.00     0.127 S 
ATOM     91  O   UNL A   1      46.943  25.414  38.696  1.00  0.00    -0.237 OA
ATOM     92  O   UNL A   1      44.731  26.292  39.329  1.00  0.00    -0.237 OA
ATOM     93  O   UNL A   1      44.895  24.439  37.726  1.00  0.00    -0.744 OA
ENDBRANCH  87  90
ENDBRANCH  60  83
ENDBRANCH  34  35
ENDBRANCH  27  29
ENDBRANCH  26  27
ENDBRANCH  25  26
ENDBRANCH  24  25
ENDBRANCH  23  24
ENDBRANCH   1  23
TORSDOF 21
ENDMDL
MODEL 3
REMARK VINA RESULT:     -10.2      3.641      5.274
REMARK SMILES C[C@@H](C(=O)OCCOCCOC(=O)c1ccc(-c2c3nc(c(-c4cccc(S(=O)(=O)[O-])c4F)c4ccc([nH]4)c(-c4cccc(S(=O)(=O)[O-])c4F)c4nc(c(-c5cccc(S(=O)(=O)[O-])c5F)c5ccc2[nH]5)C=C4)C=C3)cc1)c1ccc(C[C@H]2CCC[C@@H]2O)cc1Br
REMARK SMILES IDX 7 1 6 2 5 3 3 4 4 5 2 6 1 7 77 8 78 9 89 10 79 11 88 12
REMARK SMILES IDX 90 13 80 14 81 15 82 16 83 17 86 18 84 19 85 20 87 21 8 23
REMARK SMILES IDX 9 24 10 25 11 26 12 27 13 28 14 29 15 30 76 31 16 32 75 33
REMARK SMILES IDX 17 34 18 35 19 36 69 37 20 38 74 39 68 40 70 41 21 42 73 43
REMARK SMILES IDX 67 44 66 45 22 47 54 48 34 49 53 50 35 51 38 52 52 53 71 54
REMARK SMILES IDX 36 55 37 56 51 58 72 59 39 60 23 61 24 62 32 63 25 64 27 65
REMARK SMILES IDX 33 66 26 67 28 68 29 69 30 70 31 71 55 72 56 73 64 74 57 75
REMARK SMILES IDX 59 76 65 77 58 78 60 79 61 80 62 81 63 82 40 83 41 84 49 85
REMARK SMILES IDX 42 86 44 87 50 88 43 89 45 90 46 91 47 92 48 93
REMARK H PARENT 87 22 70 46 38 57
REMARK Flexibility Score: inf
ROOT
ATOM      1  C   UNL A   1      34.765  30.761  27.407  1.00  0.00     0.202 C 
ENDROOT
BRANCH   1   2
ATOM      2  C   UNL A   1      33.366  30.156  27.246  1.00  0.00     0.261 C 
BRANCH   2   3
ATOM      3  O   UNL A   1      33.387  28.738  27.518  1.00  0.00    -0.463 OA
BRANCH   3   4
ATOM      4  C   UNL A   1      32.280  28.034  27.158  1.00  0.00     0.313 C 
ATOM      5  O   UNL A   1      31.210  28.083  27.758  1.00  0.00    -0.252 OA
BRANCH   4   6
ATOM      6  C   UNL A   1      32.504  27.177  25.898  1.00  0.00     0.127 C 
ATOM      7  C   UNL A   1      33.862  27.360  25.211  1.00  0.00     0.025 C 
BRANCH   6   8
ATOM      8  C   UNL A   1      31.348  27.397  24.916  1.00  0.00    -0.020 A 
ATOM      9  C   UNL A   1      31.296  28.595  24.177  1.00  0.00     0.006 A 
ATOM     10  C   UNL A   1      30.257  26.525  24.802  1.00  0.00     0.022 A 
ATOM     11  C   UNL A   1      30.160  28.972  23.460  1.00  0.00     0.004 A 
ATOM     12  C   UNL A   1      29.116  26.903  24.078  1.00  0.00     0.019 A 
ATOM     13  Br  UNL A   1      30.216  24.807  25.612  1.00  0.00    -0.050 Br
ATOM     14  C   UNL A   1      29.032  28.157  23.457  1.00  0.00    -0.047 A 
BRANCH  14  15
ATOM     15  C   UNL A   1      27.733  28.631  22.851  1.00  0.00     0.041 C 
BRANCH  15  16
ATOM     16  C   UNL A   1      27.603  30.154  22.647  1.00  0.00     0.022 C 
ATOM     17  C   UNL A   1      28.077  31.038  23.814  1.00  0.00     0.007 C 
ATOM     18  C   UNL A   1      28.314  30.733  21.418  1.00  0.00     0.117 C 
ATOM     19  C   UNL A   1      28.696  32.289  23.181  1.00  0.00     0.003 C 
ATOM     20  C   UNL A   1      28.328  32.226  21.709  1.00  0.00     0.032 C 
BRANCH  18  21
ATOM     21  O   UNL A   1      27.598  30.471  20.223  1.00  0.00    -0.393 OA
ATOM     22  H   UNL A   1      27.775  31.176  19.580  1.00  0.00     0.210 HD
ENDBRANCH  18  21
ENDBRANCH  15  16
ENDBRANCH  14  15
ENDBRANCH   6   8
ENDBRANCH   4   6
ENDBRANCH   3   4
ENDBRANCH   2   3
ENDBRANCH   1   2
BRANCH   1  23
ATOM     23  O   UNL A   1      34.834  32.187  27.516  1.00  0.00    -0.374 OA
BRANCH  23  24
ATOM     24  C   UNL A   1      33.702  32.841  28.077  1.00  0.00     0.202 C 
BRANCH  24  25
ATOM     25  C   UNL A   1      33.965  34.024  29.013  1.00  0.00     0.261 C 
BRANCH  25  26
ATOM     26  O   UNL A   1      35.186  33.874  29.749  1.00  0.00    -0.460 OA
BRANCH  26  27
ATOM     27  C   UNL A   1      35.146  32.894  30.682  1.00  0.00     0.338 C 
ATOM     28  O   UNL A   1      34.199  32.596  31.398  1.00  0.00    -0.246 OA
BRANCH  27  29
ATOM     29  C   UNL A   1      36.367  32.076  30.606  1.00  0.00     0.060 A 
ATOM     30  C   UNL A   1      36.358  30.856  31.294  1.00  0.00     0.016 A 
ATOM     31  C   UNL A   1      37.511  32.508  29.931  1.00  0.00     0.016 A 
ATOM     32  C   UNL A   1      37.515  30.088  31.361  1.00  0.00     0.010 A 
ATOM     33  C   UNL A   1      38.675  31.738  30.006  1.00  0.00     0.010 A 
ATOM     34  C   UNL A   1      38.692  30.548  30.757  1.00  0.00    -0.014 A 
BRANCH  34  35
ATOM     35  C   UNL A   1      39.968  29.858  31.052  1.00  0.00     0.031 A 
ATOM     36  C   UNL A   1      40.748  30.266  32.272  1.00  0.00     0.074 A 
ATOM     37  C   UNL A   1      40.410  28.865  30.260  1.00  0.00     0.049 A 
ATOM     38  N   UNL A   1      41.880  29.796  32.726  1.00  0.00    -0.248 NA
ATOM     39  C   UNL A   1      40.176  31.348  33.091  1.00  0.00     0.031 C 
ATOM     40  C   UNL A   1      39.733  28.377  29.060  1.00  0.00     0.029 A 
ATOM     41  N   UNL A   1      41.545  28.099  30.342  1.00  0.00    -0.354 N 
ATOM     42  C   UNL A   1      42.172  30.543  33.860  1.00  0.00     0.074 A 
ATOM     43  C   UNL A   1      41.103  31.504  34.024  1.00  0.00     0.031 C 
ATOM     44  C   UNL A   1      40.479  27.407  28.503  1.00  0.00     0.029 A 
ATOM     45  C   UNL A   1      41.694  27.224  29.294  1.00  0.00     0.049 A 
ATOM     46  H   UNL A   1      42.192  28.171  31.082  1.00  0.00     0.167 HD
ATOM     47  C   UNL A   1      43.227  30.428  34.700  1.00  0.00     0.034 A 
ATOM     48  C   UNL A   1      42.706  26.384  28.999  1.00  0.00     0.034 A 
ATOM     49  C   UNL A   1      44.273  29.454  34.547  1.00  0.00     0.049 A 
ATOM     50  C   UNL A   1      43.882  26.294  29.938  1.00  0.00     0.074 A 
ATOM     51  C   UNL A   1      45.358  29.220  35.374  1.00  0.00     0.029 A 
ATOM     52  N   UNL A   1      44.376  28.563  33.491  1.00  0.00    -0.354 N 
ATOM     53  N   UNL A   1      44.082  26.920  31.073  1.00  0.00    -0.248 NA
ATOM     54  C   UNL A   1      44.953  25.357  29.574  1.00  0.00     0.031 C 
ATOM     55  C   UNL A   1      46.135  28.209  34.799  1.00  0.00     0.029 A 
ATOM     56  C   UNL A   1      45.515  27.789  33.633  1.00  0.00     0.049 A 
ATOM     57  H   UNL A   1      43.733  28.491  32.748  1.00  0.00     0.167 HD
ATOM     58  C   UNL A   1      45.281  26.425  31.575  1.00  0.00     0.074 A 
ATOM     59  C   UNL A   1      45.751  25.435  30.630  1.00  0.00     0.031 C 
ATOM     60  C   UNL A   1      45.940  26.768  32.710  1.00  0.00     0.034 A 
BRANCH  47  61
ATOM     61  C   UNL A   1      43.297  31.371  35.871  1.00  0.00     0.023 A 
ATOM     62  C   UNL A   1      42.734  30.996  37.109  1.00  0.00     0.012 A 
ATOM     63  C   UNL A   1      43.971  32.603  35.763  1.00  0.00     0.148 A 
ATOM     64  C   UNL A   1      42.815  31.847  38.211  1.00  0.00     0.002 A 
ATOM     65  C   UNL A   1      44.086  33.425  36.878  1.00  0.00     0.091 A 
ATOM     66  F   UNL A   1      44.478  32.952  34.572  1.00  0.00    -0.205 F 
ATOM     67  C   UNL A   1      43.500  33.053  38.098  1.00  0.00     0.022 A 
BRANCH  65  68
ATOM     68  S   UNL A   1      45.014  34.962  36.855  1.00  0.00     0.127 S 
ATOM     69  O   UNL A   1      44.277  35.736  35.857  1.00  0.00    -0.237 OA
ATOM     70  O   UNL A   1      44.860  35.436  38.231  1.00  0.00    -0.237 OA
ATOM     71  O   UNL A   1      46.377  34.605  36.485  1.00  0.00    -0.744 OA
ENDBRANCH  65  68
ENDBRANCH  47  61
BRANCH  48  72
ATOM     72  C   UNL A   1      42.640  25.536  27.776  1.00  0.00     0.023 A 
ATOM     73  C   UNL A   1      43.122  26.038  26.552  1.00  0.00     0.012 A 
ATOM     74  C   UNL A   1      42.111  24.230  27.822  1.00  0.00     0.148 A 
ATOM     75  C   UNL A   1      43.051  25.269  25.390  1.00  0.00     0.002 A 
ATOM     76  C   UNL A   1      42.095  23.449  26.673  1.00  0.00     0.091 A 
ATOM     77  F   UNL A   1      41.641  23.778  28.993  1.00  0.00    -0.205 F 
ATOM     78  C   UNL A   1      42.547  23.972  25.452  1.00  0.00     0.022 A 
BRANCH  76  79
ATOM     79  S   UNL A   1      41.584  21.727  26.688  1.00  0.00     0.127 S 
ATOM     80  O   UNL A   1      42.019  21.275  25.370  1.00  0.00    -0.237 OA
ATOM     81  O   UNL A   1      42.357  21.193  27.811  1.00  0.00    -0.237 OA
ATOM     82  O   UNL A   1      40.144  21.747  26.908  1.00  0.00    -0.744 OA
ENDBRANCH  76  79
ENDBRANCH  48  72
BRANCH  60  83
ATOM     83  C   UNL A   1      47.223  26.041  33.023  1.00  0.00     0.023 A 
ATOM     84  C   UNL A   1      48.457  26.581  32.609  1.00  0.00     0.012 A 
ATOM     85  C   UNL A   1      47.208  24.863  33.797  1.00  0.00     0.148 A 
ATOM     86  C   UNL A   1      49.653  25.941  32.931  1.00  0.00     0.002 A 
ATOM     87  C   UNL A   1      48.407  24.259  34.157  1.00  0.00     0.091 A 
ATOM     88  F   UNL A   1      46.023  24.356  34.167  1.00  0.00    -0.205 F 
ATOM     89  C   UNL A   1      49.629  24.789  33.714  1.00  0.00     0.022 A 
BRANCH  87  90
ATOM     90  S   UNL A   1      48.476  22.832  35.246  1.00  0.00     0.127 S 
ATOM     91  O   UNL A   1      49.917  22.598  35.338  1.00  0.00    -0.237 OA
ATOM     92  O   UNL A   1      47.861  23.345  36.470  1.00  0.00    -0.237 OA
ATOM     93  O   UNL A   1      47.715  21.783  34.582  1.00  0.00    -0.744 OA
ENDBRANCH  87  90
ENDBRANCH  60  83
ENDBRANCH  34  35
ENDBRANCH  27  29
ENDBRANCH  26  27
ENDBRANCH  25  26
ENDBRANCH  24  25
ENDBRANCH  23  24
ENDBRANCH   1  23
TORSDOF 21
ENDMDL
