MODEL 1
REMARK VINA RESULT:     -11.2      0.000      0.000
REMARK SMILES CC[C@]1(C(=O)OCCOCCOC(=O)c2ccc(-c3c4nc(c(-c5cccc(S(=O)(=O)[O-])c5F)c5ccc([nH]5)c(-c5cccc(S(=O)(=O)[O-])c5F)c5nc(c(-c6cccc(S(=O)(=O)[O-])c6F)c6ccc3[nH]6)C=C5)C=C4)cc2)CCN(C(=O)[C@]2(C)CCCO2)C1
REMARK SMILES IDX 10 1 9 2 8 3 7 4 6 5 4 6 5 7 3 8 78 9 89 10 79 11 80 12 2 13
REMARK SMILES IDX 1 14 81 15 82 16 83 17 85 18 88 19 84 20 86 21 87 22 11 23
REMARK SMILES IDX 12 24 13 25 14 26 15 27 16 28 77 29 17 30 76 31 18 32 19 33
REMARK SMILES IDX 20 34 70 35 21 36 75 37 69 38 71 39 22 40 74 41 68 42 67 43
REMARK SMILES IDX 23 45 55 46 35 47 54 48 36 49 39 50 53 51 72 52 37 53 38 54
REMARK SMILES IDX 52 56 73 57 40 58 24 59 25 60 33 61 26 62 28 63 34 64 27 65
REMARK SMILES IDX 29 66 30 67 31 68 32 69 56 70 57 71 65 72 58 73 60 74 66 75
REMARK SMILES IDX 59 76 61 77 62 78 63 79 64 80 41 81 42 82 50 83 43 84 45 85
REMARK SMILES IDX 51 86 44 87 46 88 47 89 48 90 49 91
REMARK H PARENT 71 44 39 55
REMARK Flexibility Score: inf
ROOT
ATOM      1  C   UNL A   1      36.003  21.476  25.463  1.00  0.00     0.202 C 
ENDROOT
BRANCH   1   2
ATOM      2  O   UNL A   1      35.946  22.742  24.807  1.00  0.00    -0.374 OA
BRANCH   2   3
ATOM      3  C   UNL A   1      35.484  23.861  25.571  1.00  0.00     0.202 C 
BRANCH   3   4
ATOM      4  C   UNL A   1      34.057  23.753  26.112  1.00  0.00     0.261 C 
BRANCH   4   5
ATOM      5  O   UNL A   1      33.198  24.632  25.371  1.00  0.00    -0.463 OA
BRANCH   5   6
ATOM      6  C   UNL A   1      32.395  25.445  26.099  1.00  0.00     0.314 C 
ATOM      7  O   UNL A   1      31.726  25.080  27.058  1.00  0.00    -0.252 OA
BRANCH   6   8
ATOM      8  C   UNL A   1      32.427  26.894  25.608  1.00  0.00     0.087 C 
ATOM      9  C   UNL A   1      33.523  27.223  24.564  1.00  0.00     0.042 C 
ATOM     10  C   UNL A   1      31.139  27.064  24.784  1.00  0.00     0.138 C 
ATOM     11  C   UNL A   1      32.886  28.262  23.668  1.00  0.00     0.121 C 
ATOM     12  N   UNL A   1      31.499  27.867  23.622  1.00  0.00    -0.339 N 
BRANCH   8  13
ATOM     13  C   UNL A   1      32.608  27.806  26.861  1.00  0.00     0.017 C 
ATOM     14  C   UNL A   1      31.509  28.806  27.178  1.00  0.00     0.005 C 
ENDBRANCH   8  13
BRANCH  12  15
ATOM     15  C   UNL A   1      30.565  28.134  22.637  1.00  0.00     0.254 C 
ATOM     16  O   UNL A   1      30.677  27.597  21.529  1.00  0.00    -0.272 OA
BRANCH  15  17
ATOM     17  C   UNL A   1      29.394  29.118  22.940  1.00  0.00     0.144 C 
ATOM     18  C   UNL A   1      29.038  30.026  21.759  1.00  0.00     0.048 C 
ATOM     19  O   UNL A   1      29.739  29.972  24.046  1.00  0.00    -0.365 OA
ATOM     20  C   UNL A   1      28.157  28.303  23.349  1.00  0.00     0.053 C 
ATOM     21  C   UNL A   1      29.047  31.437  22.308  1.00  0.00     0.032 C 
ATOM     22  C   UNL A   1      29.255  31.288  23.797  1.00  0.00     0.162 C 
ENDBRANCH  15  17
ENDBRANCH  12  15
ENDBRANCH   6   8
ENDBRANCH   5   6
ENDBRANCH   4   5
ENDBRANCH   3   4
ENDBRANCH   2   3
ENDBRANCH   1   2
BRANCH   1  23
ATOM     23  C   UNL A   1      37.286  20.656  25.278  1.00  0.00     0.261 C 
BRANCH  23  24
ATOM     24  O   UNL A   1      38.451  21.476  25.084  1.00  0.00    -0.460 OA
BRANCH  24  25
ATOM     25  C   UNL A   1      39.460  21.212  25.945  1.00  0.00     0.338 C 
ATOM     26  O   UNL A   1      40.148  20.193  25.979  1.00  0.00    -0.246 OA
BRANCH  25  27
ATOM     27  C   UNL A   1      39.778  22.384  26.779  1.00  0.00     0.060 A 
ATOM     28  C   UNL A   1      39.145  23.586  26.442  1.00  0.00     0.016 A 
ATOM     29  C   UNL A   1      40.752  22.351  27.781  1.00  0.00     0.016 A 
ATOM     30  C   UNL A   1      39.547  24.776  27.040  1.00  0.00     0.010 A 
ATOM     31  C   UNL A   1      41.155  23.552  28.381  1.00  0.00     0.010 A 
ATOM     32  C   UNL A   1      40.595  24.775  27.969  1.00  0.00    -0.014 A 
BRANCH  32  33
ATOM     33  C   UNL A   1      41.209  26.075  28.338  1.00  0.00     0.031 A 
ATOM     34  C   UNL A   1      42.616  26.372  27.885  1.00  0.00     0.074 A 
ATOM     35  C   UNL A   1      40.501  27.013  28.993  1.00  0.00     0.049 A 
ATOM     36  N   UNL A   1      43.303  27.480  27.993  1.00  0.00    -0.248 NA
ATOM     37  C   UNL A   1      43.342  25.278  27.221  1.00  0.00     0.031 C 
ATOM     38  C   UNL A   1      39.136  26.849  29.489  1.00  0.00     0.029 A 
ATOM     39  N   UNL A   1      40.840  28.293  29.353  1.00  0.00    -0.354 N 
ATOM     40  C   UNL A   1      44.544  27.213  27.427  1.00  0.00     0.074 A 
ATOM     41  C   UNL A   1      44.525  25.831  27.000  1.00  0.00     0.031 C 
ATOM     42  C   UNL A   1      38.756  27.984  30.099  1.00  0.00     0.029 A 
ATOM     43  C   UNL A   1      39.850  28.953  30.040  1.00  0.00     0.049 A 
ATOM     44  H   UNL A   1      41.711  28.700  29.140  1.00  0.00     0.167 HD
ATOM     45  C   UNL A   1      45.597  28.046  27.250  1.00  0.00     0.034 A 
ATOM     46  C   UNL A   1      39.827  30.198  30.555  1.00  0.00     0.034 A 
ATOM     47  C   UNL A   1      45.609  29.428  27.646  1.00  0.00     0.049 A 
ATOM     48  C   UNL A   1      41.008  31.109  30.340  1.00  0.00     0.074 A 
ATOM     49  C   UNL A   1      46.612  30.366  27.470  1.00  0.00     0.029 A 
ATOM     50  N   UNL A   1      44.571  30.071  28.301  1.00  0.00    -0.354 N 
ATOM     51  N   UNL A   1      42.119  30.881  29.682  1.00  0.00    -0.248 NA
ATOM     52  C   UNL A   1      40.912  32.465  30.899  1.00  0.00     0.031 C 
ATOM     53  C   UNL A   1      46.185  31.574  28.033  1.00  0.00     0.029 A 
ATOM     54  C   UNL A   1      44.909  31.391  28.544  1.00  0.00     0.049 A 
ATOM     55  H   UNL A   1      43.718  29.652  28.557  1.00  0.00     0.167 HD
ATOM     56  C   UNL A   1      42.837  32.071  29.719  1.00  0.00     0.074 A 
ATOM     57  C   UNL A   1      42.022  33.026  30.442  1.00  0.00     0.031 C 
ATOM     58  C   UNL A   1      44.068  32.347  29.217  1.00  0.00     0.034 A 
BRANCH  45  59
ATOM     59  C   UNL A   1      46.813  27.492  26.557  1.00  0.00     0.023 A 
ATOM     60  C   UNL A   1      47.700  26.660  27.271  1.00  0.00     0.012 A 
ATOM     61  C   UNL A   1      47.056  27.756  25.195  1.00  0.00     0.148 A 
ATOM     62  C   UNL A   1      48.825  26.122  26.648  1.00  0.00     0.002 A 
ATOM     63  C   UNL A   1      48.160  27.184  24.571  1.00  0.00     0.091 A 
ATOM     64  F   UNL A   1      46.217  28.571  24.541  1.00  0.00    -0.205 F 
ATOM     65  C   UNL A   1      49.049  26.376  25.297  1.00  0.00     0.022 A 
BRANCH  63  66
ATOM     66  S   UNL A   1      48.495  27.396  22.820  1.00  0.00     0.127 S 
ATOM     67  O   UNL A   1      47.347  28.197  22.394  1.00  0.00    -0.237 OA
ATOM     68  O   UNL A   1      49.768  28.117  22.833  1.00  0.00    -0.237 OA
ATOM     69  O   UNL A   1      48.565  26.054  22.261  1.00  0.00    -0.744 OA
ENDBRANCH  63  66
ENDBRANCH  45  59
BRANCH  46  70
ATOM     70  C   UNL A   1      38.616  30.681  31.278  1.00  0.00     0.023 A 
ATOM     71  C   UNL A   1      38.532  30.533  32.676  1.00  0.00     0.012 A 
ATOM     72  C   UNL A   1      37.555  31.298  30.587  1.00  0.00     0.148 A 
ATOM     73  C   UNL A   1      37.401  30.964  33.370  1.00  0.00     0.002 A 
ATOM     74  C   UNL A   1      36.455  31.774  31.291  1.00  0.00     0.091 A 
ATOM     75  F   UNL A   1      37.645  31.410  29.255  1.00  0.00    -0.205 F 
ATOM     76  C   UNL A   1      36.368  31.593  32.680  1.00  0.00     0.022 A 
BRANCH  74  77
ATOM     77  S   UNL A   1      35.142  32.708  30.497  1.00  0.00     0.127 S 
ATOM     78  O   UNL A   1      34.188  32.870  31.591  1.00  0.00    -0.237 OA
ATOM     79  O   UNL A   1      35.838  33.932  30.099  1.00  0.00    -0.237 OA
ATOM     80  O   UNL A   1      34.698  31.882  29.382  1.00  0.00    -0.744 OA
ENDBRANCH  74  77
ENDBRANCH  46  70
BRANCH  58  81
ATOM     81  C   UNL A   1      44.602  33.742  29.408  1.00  0.00     0.023 A 
ATOM     82  C   UNL A   1      45.209  34.096  30.630  1.00  0.00     0.012 A 
ATOM     83  C   UNL A   1      44.558  34.685  28.362  1.00  0.00     0.148 A 
ATOM     84  C   UNL A   1      45.726  35.377  30.821  1.00  0.00     0.002 A 
ATOM     85  C   UNL A   1      45.118  35.945  28.544  1.00  0.00     0.091 A 
ATOM     86  F   UNL A   1      43.959  34.341  27.212  1.00  0.00    -0.205 F 
ATOM     87  C   UNL A   1      45.691  36.297  29.776  1.00  0.00     0.022 A 
BRANCH  85  88
ATOM     88  S   UNL A   1      45.195  37.151  27.214  1.00  0.00     0.127 S 
ATOM     89  O   UNL A   1      43.781  37.335  26.895  1.00  0.00    -0.237 OA
ATOM     90  O   UNL A   1      45.828  38.300  27.863  1.00  0.00    -0.237 OA
ATOM     91  O   UNL A   1      46.005  36.534  26.171  1.00  0.00    -0.744 OA
ENDBRANCH  85  88
ENDBRANCH  58  81
ENDBRANCH  32  33
ENDBRANCH  25  27
ENDBRANCH  24  25
ENDBRANCH  23  24
ENDBRANCH   1  23
TORSDOF 20
ENDMDL
MODEL 2
REMARK VINA RESULT:     -11.0      4.862     10.364
REMARK SMILES CC[C@]1(C(=O)OCCOCCOC(=O)c2ccc(-c3c4nc(c(-c5cccc(S(=O)(=O)[O-])c5F)c5ccc([nH]5)c(-c5cccc(S(=O)(=O)[O-])c5F)c5nc(c(-c6cccc(S(=O)(=O)[O-])c6F)c6ccc3[nH]6)C=C5)C=C4)cc2)CCN(C(=O)[C@]2(C)CCCO2)C1
REMARK SMILES IDX 10 1 9 2 8 3 7 4 6 5 4 6 5 7 3 8 78 9 89 10 79 11 80 12 2 13
REMARK SMILES IDX 1 14 81 15 82 16 83 17 85 18 88 19 84 20 86 21 87 22 11 23
REMARK SMILES IDX 12 24 13 25 14 26 15 27 16 28 77 29 17 30 76 31 18 32 19 33
REMARK SMILES IDX 20 34 70 35 21 36 75 37 69 38 71 39 22 40 74 41 68 42 67 43
REMARK SMILES IDX 23 45 55 46 35 47 54 48 36 49 39 50 53 51 72 52 37 53 38 54
REMARK SMILES IDX 52 56 73 57 40 58 24 59 25 60 33 61 26 62 28 63 34 64 27 65
REMARK SMILES IDX 29 66 30 67 31 68 32 69 56 70 57 71 65 72 58 73 60 74 66 75
REMARK SMILES IDX 59 76 61 77 62 78 63 79 64 80 41 81 42 82 50 83 43 84 45 85
REMARK SMILES IDX 51 86 44 87 46 88 47 89 48 90 49 91
REMARK H PARENT 71 44 39 55
REMARK Flexibility Score: inf
ROOT
ATOM      1  C   UNL A   1      31.260  29.928  25.471  1.00  0.00     0.202 C 
ENDROOT
BRANCH   1   2
ATOM      2  O   UNL A   1      30.569  30.040  24.228  1.00  0.00    -0.374 OA
BRANCH   2   3
ATOM      3  C   UNL A   1      29.801  28.913  23.795  1.00  0.00     0.202 C 
BRANCH   3   4
ATOM      4  C   UNL A   1      29.870  28.596  22.300  1.00  0.00     0.261 C 
BRANCH   4   5
ATOM      5  O   UNL A   1      30.834  27.556  22.077  1.00  0.00    -0.463 OA
BRANCH   5   6
ATOM      6  C   UNL A   1      30.910  26.592  23.026  1.00  0.00     0.314 C 
ATOM      7  O   UNL A   1      29.942  26.015  23.508  1.00  0.00    -0.252 OA
BRANCH   6   8
ATOM      8  C   UNL A   1      32.352  26.272  23.423  1.00  0.00     0.087 C 
ATOM      9  C   UNL A   1      32.735  26.612  24.886  1.00  0.00     0.042 C 
ATOM     10  C   UNL A   1      32.436  24.737  23.420  1.00  0.00     0.138 C 
ATOM     11  C   UNL A   1      33.724  25.535  25.274  1.00  0.00     0.121 C 
ATOM     12  N   UNL A   1      33.246  24.367  24.574  1.00  0.00    -0.339 N 
BRANCH   8  13
ATOM     13  C   UNL A   1      33.287  27.049  22.445  1.00  0.00     0.017 C 
ATOM     14  C   UNL A   1      33.920  28.340  22.940  1.00  0.00     0.005 C 
ENDBRANCH   8  13
BRANCH  12  15
ATOM     15  C   UNL A   1      33.445  23.037  24.894  1.00  0.00     0.254 C 
ATOM     16  O   UNL A   1      32.474  22.322  25.165  1.00  0.00    -0.272 OA
BRANCH  15  17
ATOM     17  C   UNL A   1      34.897  22.465  24.919  1.00  0.00     0.144 C 
ATOM     18  C   UNL A   1      35.717  22.935  26.125  1.00  0.00     0.048 C 
ATOM     19  O   UNL A   1      35.608  22.869  23.736  1.00  0.00    -0.365 OA
ATOM     20  C   UNL A   1      34.824  20.931  24.917  1.00  0.00     0.053 C 
ATOM     21  C   UNL A   1      37.007  23.484  25.556  1.00  0.00     0.032 C 
ATOM     22  C   UNL A   1      36.956  23.181  24.077  1.00  0.00     0.162 C 
ENDBRANCH  15  17
ENDBRANCH  12  15
ENDBRANCH   6   8
ENDBRANCH   5   6
ENDBRANCH   4   5
ENDBRANCH   3   4
ENDBRANCH   2   3
ENDBRANCH   1   2
BRANCH   1  23
ATOM     23  C   UNL A   1      31.726  31.233  26.127  1.00  0.00     0.261 C 
BRANCH  23  24
ATOM     24  O   UNL A   1      32.573  31.014  27.268  1.00  0.00    -0.460 OA
BRANCH  24  25
ATOM     25  C   UNL A   1      33.329  32.084  27.607  1.00  0.00     0.338 C 
ATOM     26  O   UNL A   1      32.926  33.221  27.845  1.00  0.00    -0.246 OA
BRANCH  25  27
ATOM     27  C   UNL A   1      34.734  31.701  27.828  1.00  0.00     0.060 A 
ATOM     28  C   UNL A   1      35.004  30.332  27.939  1.00  0.00     0.016 A 
ATOM     29  C   UNL A   1      35.743  32.644  28.045  1.00  0.00     0.016 A 
ATOM     30  C   UNL A   1      36.260  29.901  28.355  1.00  0.00     0.010 A 
ATOM     31  C   UNL A   1      37.007  32.207  28.465  1.00  0.00     0.010 A 
ATOM     32  C   UNL A   1      37.250  30.837  28.679  1.00  0.00    -0.014 A 
BRANCH  32  33
ATOM     33  C   UNL A   1      38.448  30.366  29.419  1.00  0.00     0.031 A 
ATOM     34  C   UNL A   1      38.640  30.802  30.849  1.00  0.00     0.074 A 
ATOM     35  C   UNL A   1      39.309  29.497  28.859  1.00  0.00     0.049 A 
ATOM     36  N   UNL A   1      39.544  30.424  31.715  1.00  0.00    -0.248 NA
ATOM     37  C   UNL A   1      37.686  31.795  31.372  1.00  0.00     0.031 C 
ATOM     38  C   UNL A   1      39.238  29.002  27.486  1.00  0.00     0.029 A 
ATOM     39  N   UNL A   1      40.415  28.879  29.385  1.00  0.00    -0.354 N 
ATOM     40  C   UNL A   1      39.279  31.139  32.877  1.00  0.00     0.074 A 
ATOM     41  C   UNL A   1      38.147  31.994  32.598  1.00  0.00     0.031 C 
ATOM     42  C   UNL A   1      40.265  28.162  27.273  1.00  0.00     0.029 A 
ATOM     43  C   UNL A   1      41.066  28.062  28.492  1.00  0.00     0.049 A 
ATOM     44  H   UNL A   1      40.715  29.008  30.314  1.00  0.00     0.167 HD
ATOM     45  C   UNL A   1      39.901  31.073  34.078  1.00  0.00     0.034 A 
ATOM     46  C   UNL A   1      42.177  27.314  28.644  1.00  0.00     0.034 A 
ATOM     47  C   UNL A   1      41.008  30.203  34.369  1.00  0.00     0.049 A 
ATOM     48  C   UNL A   1      42.847  27.252  29.992  1.00  0.00     0.074 A 
ATOM     49  C   UNL A   1      41.677  30.032  35.568  1.00  0.00     0.029 A 
ATOM     50  N   UNL A   1      41.612  29.360  33.450  1.00  0.00    -0.354 N 
ATOM     51  N   UNL A   1      42.500  27.831  31.116  1.00  0.00    -0.248 NA
ATOM     52  C   UNL A   1      44.037  26.395  30.103  1.00  0.00     0.031 C 
ATOM     53  C   UNL A   1      42.697  29.094  35.369  1.00  0.00     0.029 A 
ATOM     54  C   UNL A   1      42.651  28.670  34.051  1.00  0.00     0.049 A 
ATOM     55  H   UNL A   1      41.343  29.265  32.508  1.00  0.00     0.167 HD
ATOM     56  C   UNL A   1      43.406  27.384  32.073  1.00  0.00     0.074 A 
ATOM     57  C   UNL A   1      44.300  26.464  31.401  1.00  0.00     0.031 C 
ATOM     58  C   UNL A   1      43.500  27.717  33.385  1.00  0.00     0.034 A 
BRANCH  45  59
ATOM     59  C   UNL A   1      39.366  31.941  35.186  1.00  0.00     0.023 A 
ATOM     60  C   UNL A   1      38.383  31.428  36.057  1.00  0.00     0.012 A 
ATOM     61  C   UNL A   1      39.862  33.242  35.393  1.00  0.00     0.148 A 
ATOM     62  C   UNL A   1      37.882  32.206  37.100  1.00  0.00     0.002 A 
ATOM     63  C   UNL A   1      39.385  33.998  36.459  1.00  0.00     0.091 A 
ATOM     64  F   UNL A   1      40.776  33.723  34.538  1.00  0.00    -0.205 F 
ATOM     65  C   UNL A   1      38.390  33.486  37.306  1.00  0.00     0.022 A 
BRANCH  63  66
ATOM     66  S   UNL A   1      40.026  35.631  36.846  1.00  0.00     0.127 S 
ATOM     67  O   UNL A   1      39.298  35.950  38.074  1.00  0.00    -0.237 OA
ATOM     68  O   UNL A   1      41.453  35.367  37.035  1.00  0.00    -0.237 OA
ATOM     69  O   UNL A   1      39.712  36.466  35.696  1.00  0.00    -0.744 OA
ENDBRANCH  63  66
ENDBRANCH  45  59
BRANCH  46  70
ATOM     70  C   UNL A   1      42.695  26.512  27.499  1.00  0.00     0.023 A 
ATOM     71  C   UNL A   1      43.598  27.095  26.591  1.00  0.00     0.012 A 
ATOM     72  C   UNL A   1      42.306  25.171  27.317  1.00  0.00     0.148 A 
ATOM     73  C   UNL A   1      44.083  26.367  25.503  1.00  0.00     0.002 A 
ATOM     74  C   UNL A   1      42.834  24.435  26.263  1.00  0.00     0.091 A 
ATOM     75  F   UNL A   1      41.429  24.640  28.179  1.00  0.00    -0.205 F 
ATOM     76  C   UNL A   1      43.710  25.035  25.345  1.00  0.00     0.022 A 
BRANCH  74  77
ATOM     77  S   UNL A   1      42.506  22.681  26.061  1.00  0.00     0.127 S 
ATOM     78  O   UNL A   1      43.074  22.127  27.287  1.00  0.00    -0.237 OA
ATOM     79  O   UNL A   1      41.045  22.650  25.989  1.00  0.00    -0.237 OA
ATOM     80  O   UNL A   1      43.174  22.300  24.823  1.00  0.00    -0.744 OA
ENDBRANCH  74  77
ENDBRANCH  46  70
BRANCH  58  81
ATOM     81  C   UNL A   1      44.595  27.067  34.191  1.00  0.00     0.023 A 
ATOM     82  C   UNL A   1      45.861  27.681  34.273  1.00  0.00     0.012 A 
ATOM     83  C   UNL A   1      44.356  25.882  34.916  1.00  0.00     0.148 A 
ATOM     84  C   UNL A   1      46.882  27.106  35.029  1.00  0.00     0.002 A 
ATOM     85  C   UNL A   1      45.364  25.339  35.705  1.00  0.00     0.091 A 
ATOM     86  F   UNL A   1      43.153  25.297  34.811  1.00  0.00    -0.205 F 
ATOM     87  C   UNL A   1      46.631  25.943  35.752  1.00  0.00     0.022 A 
BRANCH  85  88
ATOM     88  S   UNL A   1      45.088  23.896  36.739  1.00  0.00     0.127 S 
ATOM     89  O   UNL A   1      46.445  23.576  37.174  1.00  0.00    -0.237 OA
ATOM     90  O   UNL A   1      44.218  24.422  37.792  1.00  0.00    -0.237 OA
ATOM     91  O   UNL A   1      44.451  22.911  35.875  1.00  0.00    -0.744 OA
ENDBRANCH  85  88
ENDBRANCH  58  81
ENDBRANCH  32  33
ENDBRANCH  25  27
ENDBRANCH  24  25
ENDBRANCH  23  24
ENDBRANCH   1  23
TORSDOF 20
ENDMDL
MODEL 3
REMARK VINA RESULT:     -10.9      1.519      2.065
REMARK SMILES CC[C@]1(C(=O)OCCOCCOC(=O)c2ccc(-c3c4nc(c(-c5cccc(S(=O)(=O)[O-])c5F)c5ccc([nH]5)c(-c5cccc(S(=O)(=O)[O-])c5F)c5nc(c(-c6cccc(S(=O)(=O)[O-])c6F)c6ccc3[nH]6)C=C5)C=C4)cc2)CCN(C(=O)[C@]2(C)CCCO2)C1
REMARK SMILES IDX 10 1 9 2 8 3 7 4 6 5 4 6 5 7 3 8 78 9 89 10 79 11 80 12 2 13
REMARK SMILES IDX 1 14 81 15 82 16 83 17 85 18 88 19 84 20 86 21 87 22 11 23
REMARK SMILES IDX 12 24 13 25 14 26 15 27 16 28 77 29 17 30 76 31 18 32 19 33
REMARK SMILES IDX 20 34 70 35 21 36 75 37 69 38 71 39 22 40 74 41 68 42 67 43
REMARK SMILES IDX 23 45 55 46 35 47 54 48 36 49 39 50 53 51 72 52 37 53 38 54
REMARK SMILES IDX 52 56 73 57 40 58 24 59 25 60 33 61 26 62 28 63 34 64 27 65
REMARK SMILES IDX 29 66 30 67 31 68 32 69 56 70 57 71 65 72 58 73 60 74 66 75
REMARK SMILES IDX 59 76 61 77 62 78 63 79 64 80 41 81 42 82 50 83 43 84 45 85
REMARK SMILES IDX 51 86 44 87 46 88 47 89 48 90 49 91
REMARK H PARENT 71 44 39 55
REMARK Flexibility Score: inf
ROOT
ATOM      1  C   UNL A   1      35.791  21.105  24.897  1.00  0.00     0.202 C 
ENDROOT
BRANCH   1   2
ATOM      2  O   UNL A   1      35.677  22.373  24.253  1.00  0.00    -0.374 OA
BRANCH   2   3
ATOM      3  C   UNL A   1      35.094  23.445  25.002  1.00  0.00     0.202 C 
BRANCH   3   4
ATOM      4  C   UNL A   1      33.772  23.123  25.702  1.00  0.00     0.261 C 
BRANCH   4   5
ATOM      5  O   UNL A   1      32.702  23.814  25.040  1.00  0.00    -0.463 OA
BRANCH   5   6
ATOM      6  C   UNL A   1      32.607  25.145  25.276  1.00  0.00     0.314 C 
ATOM      7  O   UNL A   1      32.770  25.668  26.372  1.00  0.00    -0.252 OA
BRANCH   6   8
ATOM      8  C   UNL A   1      32.294  25.944  24.010  1.00  0.00     0.087 C 
ATOM      9  C   UNL A   1      30.895  25.696  23.390  1.00  0.00     0.042 C 
ATOM     10  C   UNL A   1      32.180  27.405  24.478  1.00  0.00     0.138 C 
ATOM     11  C   UNL A   1      30.497  27.038  22.815  1.00  0.00     0.121 C 
ATOM     12  N   UNL A   1      31.064  27.987  23.744  1.00  0.00    -0.339 N 
BRANCH   8  13
ATOM     13  C   UNL A   1      33.398  25.606  22.961  1.00  0.00     0.017 C 
ATOM     14  C   UNL A   1      33.017  24.713  21.791  1.00  0.00     0.005 C 
ENDBRANCH   8  13
BRANCH  12  15
ATOM     15  C   UNL A   1      30.653  29.282  24.000  1.00  0.00     0.254 C 
ATOM     16  O   UNL A   1      31.173  29.914  24.927  1.00  0.00    -0.272 OA
BRANCH  15  17
ATOM     17  C   UNL A   1      29.532  29.917  23.121  1.00  0.00     0.144 C 
ATOM     18  C   UNL A   1      29.056  31.281  23.631  1.00  0.00     0.048 C 
ATOM     19  O   UNL A   1      28.384  29.051  23.083  1.00  0.00    -0.365 OA
ATOM     20  C   UNL A   1      30.054  30.062  21.684  1.00  0.00     0.053 C 
ATOM     21  C   UNL A   1      27.548  31.181  23.725  1.00  0.00     0.032 C 
ATOM     22  C   UNL A   1      27.196  29.837  23.133  1.00  0.00     0.162 C 
ENDBRANCH  15  17
ENDBRANCH  12  15
ENDBRANCH   6   8
ENDBRANCH   5   6
ENDBRANCH   4   5
ENDBRANCH   3   4
ENDBRANCH   2   3
ENDBRANCH   1   2
BRANCH   1  23
ATOM     23  C   UNL A   1      37.195  20.495  24.986  1.00  0.00     0.261 C 
BRANCH  23  24
ATOM     24  O   UNL A   1      38.233  21.488  25.045  1.00  0.00    -0.460 OA
BRANCH  24  25
ATOM     25  C   UNL A   1      39.244  21.180  25.891  1.00  0.00     0.338 C 
ATOM     26  O   UNL A   1      39.885  20.131  25.915  1.00  0.00    -0.246 OA
BRANCH  25  27
ATOM     27  C   UNL A   1      39.626  22.337  26.716  1.00  0.00     0.060 A 
ATOM     28  C   UNL A   1      39.043  23.567  26.386  1.00  0.00     0.016 A 
ATOM     29  C   UNL A   1      40.613  22.262  27.704  1.00  0.00     0.016 A 
ATOM     30  C   UNL A   1      39.507  24.739  26.976  1.00  0.00     0.010 A 
ATOM     31  C   UNL A   1      41.079  23.444  28.295  1.00  0.00     0.010 A 
ATOM     32  C   UNL A   1      40.568  24.691  27.889  1.00  0.00    -0.014 A 
BRANCH  32  33
ATOM     33  C   UNL A   1      41.246  25.963  28.245  1.00  0.00     0.031 A 
ATOM     34  C   UNL A   1      42.658  26.195  27.773  1.00  0.00     0.074 A 
ATOM     35  C   UNL A   1      40.590  26.933  28.908  1.00  0.00     0.049 A 
ATOM     36  N   UNL A   1      43.397  27.270  27.868  1.00  0.00    -0.248 NA
ATOM     37  C   UNL A   1      43.325  25.066  27.102  1.00  0.00     0.031 C 
ATOM     38  C   UNL A   1      39.227  26.833  29.423  1.00  0.00     0.029 A 
ATOM     39  N   UNL A   1      40.993  28.197  29.260  1.00  0.00    -0.354 N 
ATOM     40  C   UNL A   1      44.616  26.945  27.286  1.00  0.00     0.074 A 
ATOM     41  C   UNL A   1      44.529  25.565  26.863  1.00  0.00     0.031 C 
ATOM     42  C   UNL A   1      38.907  27.986  30.035  1.00  0.00     0.029 A 
ATOM     43  C   UNL A   1      40.043  28.903  29.958  1.00  0.00     0.049 A 
ATOM     44  H   UNL A   1      41.878  28.564  29.033  1.00  0.00     0.167 HD
ATOM     45  C   UNL A   1      45.703  27.730  27.092  1.00  0.00     0.034 A 
ATOM     46  C   UNL A   1      40.084  30.149  30.470  1.00  0.00     0.034 A 
ATOM     47  C   UNL A   1      45.784  29.110  27.483  1.00  0.00     0.049 A 
ATOM     48  C   UNL A   1      41.302  31.005  30.235  1.00  0.00     0.074 A 
ATOM     49  C   UNL A   1      46.826  30.001  27.291  1.00  0.00     0.029 A 
ATOM     50  N   UNL A   1      44.786  29.801  28.151  1.00  0.00    -0.354 N 
ATOM     51  N   UNL A   1      42.393  30.725  29.563  1.00  0.00    -0.248 NA
ATOM     52  C   UNL A   1      41.275  32.365  30.792  1.00  0.00     0.031 C 
ATOM     53  C   UNL A   1      46.462  31.228  27.857  1.00  0.00     0.029 A 
ATOM     54  C   UNL A   1      45.187  31.105  28.386  1.00  0.00     0.049 A 
ATOM     55  H   UNL A   1      43.918  29.422  28.420  1.00  0.00     0.167 HD
ATOM     56  C   UNL A   1      43.165  31.882  29.587  1.00  0.00     0.074 A 
ATOM     57  C   UNL A   1      42.404  32.875  30.318  1.00  0.00     0.031 C 
ATOM     58  C   UNL A   1      44.399  32.100  29.067  1.00  0.00     0.034 A 
BRANCH  45  59
ATOM     59  C   UNL A   1      46.883  27.119  26.384  1.00  0.00     0.023 A 
ATOM     60  C   UNL A   1      46.945  27.159  24.976  1.00  0.00     0.012 A 
ATOM     61  C   UNL A   1      47.947  26.546  27.107  1.00  0.00     0.148 A 
ATOM     62  C   UNL A   1      48.034  26.613  24.297  1.00  0.00     0.002 A 
ATOM     63  C   UNL A   1      49.048  26.039  26.424  1.00  0.00     0.091 A 
ATOM     64  F   UNL A   1      47.858  26.492  28.444  1.00  0.00    -0.205 F 
ATOM     65  C   UNL A   1      49.089  26.063  25.021  1.00  0.00     0.022 A 
BRANCH  63  66
ATOM     66  S   UNL A   1      50.485  25.372  27.271  1.00  0.00     0.127 S 
ATOM     67  O   UNL A   1      50.883  26.502  28.111  1.00  0.00    -0.237 OA
ATOM     68  O   UNL A   1      49.916  24.240  28.003  1.00  0.00    -0.237 OA
ATOM     69  O   UNL A   1      51.429  25.004  26.225  1.00  0.00    -0.744 OA
ENDBRANCH  63  66
ENDBRANCH  45  59
BRANCH  46  70
ATOM     70  C   UNL A   1      38.906  30.689  31.207  1.00  0.00     0.023 A 
ATOM     71  C   UNL A   1      38.831  30.540  32.606  1.00  0.00     0.012 A 
ATOM     72  C   UNL A   1      37.869  31.359  30.530  1.00  0.00     0.148 A 
ATOM     73  C   UNL A   1      37.730  31.024  33.313  1.00  0.00     0.002 A 
ATOM     74  C   UNL A   1      36.802  31.885  31.248  1.00  0.00     0.091 A 
ATOM     75  F   UNL A   1      37.949  31.470  29.197  1.00  0.00    -0.205 F 
ATOM     76  C   UNL A   1      36.721  31.705  32.637  1.00  0.00     0.022 A 
BRANCH  74  77
ATOM     77  S   UNL A   1      35.527  32.885  30.472  1.00  0.00     0.127 S 
ATOM     78  O   UNL A   1      34.862  31.908  29.614  1.00  0.00    -0.237 OA
ATOM     79  O   UNL A   1      34.744  33.329  31.625  1.00  0.00    -0.237 OA
ATOM     80  O   UNL A   1      36.238  33.955  29.784  1.00  0.00    -0.744 OA
ENDBRANCH  74  77
ENDBRANCH  46  70
BRANCH  58  81
ATOM     81  C   UNL A   1      44.999  33.470  29.247  1.00  0.00     0.023 A 
ATOM     82  C   UNL A   1      45.745  33.759  30.408  1.00  0.00     0.012 A 
ATOM     83  C   UNL A   1      44.878  34.452  28.244  1.00  0.00     0.148 A 
ATOM     84  C   UNL A   1      46.323  35.015  30.586  1.00  0.00     0.002 A 
ATOM     85  C   UNL A   1      45.497  35.687  28.407  1.00  0.00     0.091 A 
ATOM     86  F   UNL A   1      44.148  34.170  27.154  1.00  0.00    -0.205 F 
ATOM     87  C   UNL A   1      46.210  35.974  29.582  1.00  0.00     0.022 A 
BRANCH  85  88
ATOM     88  S   UNL A   1      45.475  36.938  27.118  1.00  0.00     0.127 S 
ATOM     89  O   UNL A   1      46.226  38.025  27.743  1.00  0.00    -0.237 OA
ATOM     90  O   UNL A   1      46.171  36.271  26.017  1.00  0.00    -0.237 OA
ATOM     91  O   UNL A   1      44.067  37.209  26.859  1.00  0.00    -0.744 OA
ENDBRANCH  85  88
ENDBRANCH  58  81
ENDBRANCH  32  33
ENDBRANCH  25  27
ENDBRANCH  24  25
ENDBRANCH  23  24
ENDBRANCH   1  23
TORSDOF 20
ENDMDL
