MODEL 1
REMARK VINA RESULT:     -11.5      0.000      0.000
REMARK SMILES O=C(CCC(=O)OCCOCCOC(=O)c1ccc(-c2c3nc(c(-c4cccc(S(=O)(=O)[O-])c4F)c4ccc([nH]4)c(-c4cccc(S(=O)(=O)[O-])c4F)c4nc(c(-c5cccc(S(=O)(=O)[O-])c5F)c5ccc2[nH]5)C=C4)C=C3)cc1)/[NH+]=C1\S[C@H]2CS(=O)(=O)C[C@@H]2N1c1ccc2c(c1)OCO2
REMARK SMILES IDX 10 1 9 2 8 3 7 4 5 5 6 6 4 7 3 8 2 9 1 10 79 11 80 12 81 14
REMARK SMILES IDX 89 15 82 16 88 17 83 18 87 19 84 20 85 21 86 22 90 23 91 24
REMARK SMILES IDX 95 25 92 26 94 27 93 28 96 29 98 30 97 31 11 32 12 33 13 34
REMARK SMILES IDX 14 35 15 36 16 37 17 38 78 39 18 40 77 41 19 42 20 43 21 44
REMARK SMILES IDX 71 45 22 46 76 47 70 48 72 49 23 50 75 51 69 52 68 53 24 55
REMARK SMILES IDX 56 56 36 57 55 58 37 59 40 60 54 61 73 62 38 63 39 64 53 66
REMARK SMILES IDX 74 67 41 68 25 69 26 70 34 71 27 72 29 73 35 74 28 75 30 76
REMARK SMILES IDX 31 77 32 78 33 79 57 80 58 81 66 82 59 83 61 84 67 85 60 86
REMARK SMILES IDX 62 87 63 88 64 89 65 90 42 91 43 92 51 93 44 94 46 95 52 96
REMARK SMILES IDX 45 97 47 98 48 99 49 100 50 101
REMARK H PARENT 79 13 72 54 40 65
REMARK Flexibility Score: inf
ROOT
ATOM      1  O   UNL A   1      37.495  21.174  24.900  1.00  0.00    -0.374 OA
ENDROOT
BRANCH   1   2
ATOM      2  C   UNL A   1      37.061  22.519  24.818  1.00  0.00     0.202 C 
BRANCH   2   3
ATOM      3  C   UNL A   1      35.931  22.921  23.830  1.00  0.00     0.261 C 
BRANCH   3   4
ATOM      4  O   UNL A   1      34.760  23.295  24.562  1.00  0.00    -0.463 OA
BRANCH   4   5
ATOM      5  C   UNL A   1      33.941  22.239  24.727  1.00  0.00     0.306 C 
ATOM      6  O   UNL A   1      34.206  21.105  24.350  1.00  0.00    -0.252 OA
BRANCH   5   7
ATOM      7  C   UNL A   1      32.706  22.628  25.484  1.00  0.00     0.135 C 
BRANCH   7   8
ATOM      8  C   UNL A   1      31.382  22.726  24.710  1.00  0.00     0.139 C 
BRANCH   8   9
ATOM      9  C   UNL A   1      30.927  23.775  23.652  1.00  0.00     0.308 C 
ATOM     10  O   UNL A   1      29.976  23.408  22.954  1.00  0.00    -0.247 OA
ATOM     11  N   UNL A   1      31.468  25.053  23.413  1.00  0.00    -0.204 N 
ATOM     12  C   UNL A   1      31.363  26.144  24.118  1.00  0.00     0.319 C 
ATOM     13  H   UNL A   1      32.006  25.134  22.593  1.00  0.00     0.316 HD
ATOM     14  S   UNL A   1      30.980  26.241  25.848  1.00  0.00    -0.029 SA
ATOM     15  N   UNL A   1      31.605  27.489  23.741  1.00  0.00    -0.216 N 
ATOM     16  C   UNL A   1      31.637  27.836  26.160  1.00  0.00     0.120 C 
ATOM     17  C   UNL A   1      32.312  28.189  24.842  1.00  0.00     0.212 C 
ATOM     18  C   UNL A   1      32.664  28.131  27.225  1.00  0.00     0.156 C 
ATOM     19  C   UNL A   1      32.463  29.686  24.986  1.00  0.00     0.188 C 
ATOM     20  S   UNL A   1      33.213  29.754  26.659  1.00  0.00     0.155 S 
ATOM     21  O   UNL A   1      32.528  30.755  27.460  1.00  0.00    -0.229 OA
ATOM     22  O   UNL A   1      34.647  29.713  26.529  1.00  0.00    -0.229 OA
BRANCH  15  23
ATOM     23  C   UNL A   1      30.501  28.170  23.157  1.00  0.00     0.132 A 
ATOM     24  C   UNL A   1      29.190  27.790  23.512  1.00  0.00     0.056 A 
ATOM     25  C   UNL A   1      30.661  29.315  22.348  1.00  0.00     0.102 A 
ATOM     26  C   UNL A   1      28.072  28.516  23.065  1.00  0.00     0.055 A 
ATOM     27  C   UNL A   1      29.556  30.028  21.953  1.00  0.00     0.170 A 
ATOM     28  C   UNL A   1      28.292  29.639  22.299  1.00  0.00     0.166 A 
ATOM     29  O   UNL A   1      29.585  31.212  21.285  1.00  0.00    -0.453 OA
ATOM     30  O   UNL A   1      27.360  30.529  21.865  1.00  0.00    -0.454 OA
ATOM     31  C   UNL A   1      28.213  31.623  21.467  1.00  0.00     0.468 C 
ENDBRANCH  15  23
ENDBRANCH   8   9
ENDBRANCH   7   8
ENDBRANCH   5   7
ENDBRANCH   4   5
ENDBRANCH   3   4
ENDBRANCH   2   3
ENDBRANCH   1   2
BRANCH   1  32
ATOM     32  C   UNL A   1      38.792  20.713  25.393  1.00  0.00     0.202 C 
BRANCH  32  33
ATOM     33  C   UNL A   1      39.492  19.285  25.833  1.00  0.00     0.261 C 
BRANCH  33  34
ATOM     34  O   UNL A   1      40.927  18.934  25.539  1.00  0.00    -0.460 OA
BRANCH  34  35
ATOM     35  C   UNL A   1      41.933  19.512  26.324  1.00  0.00     0.338 C 
ATOM     36  O   UNL A   1      43.012  18.960  26.517  1.00  0.00    -0.246 OA
BRANCH  35  37
ATOM     37  C   UNL A   1      41.727  20.965  26.827  1.00  0.00     0.060 A 
ATOM     38  C   UNL A   1      41.666  22.034  25.933  1.00  0.00     0.016 A 
ATOM     39  C   UNL A   1      41.898  21.367  28.155  1.00  0.00     0.016 A 
ATOM     40  C   UNL A   1      41.712  23.406  26.276  1.00  0.00     0.010 A 
ATOM     41  C   UNL A   1      41.943  22.766  28.526  1.00  0.00     0.010 A 
ATOM     42  C   UNL A   1      41.884  23.824  27.584  1.00  0.00    -0.014 A 
BRANCH  42  43
ATOM     43  C   UNL A   1      42.232  25.287  27.865  1.00  0.00     0.031 A 
ATOM     44  C   UNL A   1      43.556  25.835  27.348  1.00  0.00     0.074 A 
ATOM     45  C   UNL A   1      41.381  26.219  28.378  1.00  0.00     0.049 A 
ATOM     46  N   UNL A   1      44.109  27.012  27.523  1.00  0.00    -0.248 NA
ATOM     47  C   UNL A   1      44.319  24.956  26.445  1.00  0.00     0.031 C 
ATOM     48  C   UNL A   1      39.985  26.000  28.762  1.00  0.00     0.029 A 
ATOM     49  N   UNL A   1      41.572  27.568  28.663  1.00  0.00    -0.354 N 
ATOM     50  C   UNL A   1      45.296  26.996  26.795  1.00  0.00     0.074 A 
ATOM     51  C   UNL A   1      45.373  25.703  26.154  1.00  0.00     0.031 C 
ATOM     52  C   UNL A   1      39.463  27.146  29.241  1.00  0.00     0.029 A 
ATOM     53  C   UNL A   1      40.498  28.178  29.290  1.00  0.00     0.049 A 
ATOM     54  H   UNL A   1      42.402  28.049  28.439  1.00  0.00     0.167 HD
ATOM     55  C   UNL A   1      46.247  27.952  26.657  1.00  0.00     0.034 A 
ATOM     56  C   UNL A   1      40.365  29.387  29.895  1.00  0.00     0.034 A 
ATOM     57  C   UNL A   1      46.227  29.245  27.283  1.00  0.00     0.049 A 
ATOM     58  C   UNL A   1      41.529  30.358  29.925  1.00  0.00     0.074 A 
ATOM     59  C   UNL A   1      47.228  30.205  27.302  1.00  0.00     0.029 A 
ATOM     60  N   UNL A   1      45.166  29.764  28.000  1.00  0.00    -0.354 N 
ATOM     61  N   UNL A   1      42.684  30.286  29.310  1.00  0.00    -0.248 NA
ATOM     62  C   UNL A   1      41.368  31.585  30.729  1.00  0.00     0.031 C 
ATOM     63  C   UNL A   1      46.788  31.286  28.071  1.00  0.00     0.029 A 
ATOM     64  C   UNL A   1      45.491  31.025  28.476  1.00  0.00     0.049 A 
ATOM     65  H   UNL A   1      44.308  29.307  28.150  1.00  0.00     0.167 HD
ATOM     66  C   UNL A   1      43.359  31.466  29.620  1.00  0.00     0.074 A 
ATOM     67  C   UNL A   1      42.481  32.250  30.456  1.00  0.00     0.031 C 
ATOM     68  C   UNL A   1      44.606  31.851  29.252  1.00  0.00     0.034 A 
BRANCH  55  69
ATOM     69  C   UNL A   1      47.454  27.600  25.833  1.00  0.00     0.023 A 
ATOM     70  C   UNL A   1      48.589  27.024  26.437  1.00  0.00     0.012 A 
ATOM     71  C   UNL A   1      47.438  27.815  24.441  1.00  0.00     0.148 A 
ATOM     72  C   UNL A   1      49.702  26.691  25.666  1.00  0.00     0.002 A 
ATOM     73  C   UNL A   1      48.532  27.442  23.676  1.00  0.00     0.091 A 
ATOM     74  F   UNL A   1      46.350  28.380  23.898  1.00  0.00    -0.205 F 
ATOM     75  C   UNL A   1      49.671  26.891  24.287  1.00  0.00     0.022 A 
BRANCH  73  76
ATOM     76  S   UNL A   1      48.562  27.606  21.889  1.00  0.00     0.127 S 
ATOM     77  O   UNL A   1      47.282  28.266  21.633  1.00  0.00    -0.237 OA
ATOM     78  O   UNL A   1      49.738  28.450  21.680  1.00  0.00    -0.237 OA
ATOM     79  O   UNL A   1      48.676  26.254  21.360  1.00  0.00    -0.744 OA
ENDBRANCH  73  76
ENDBRANCH  55  69
BRANCH  56  80
ATOM     80  C   UNL A   1      39.110  29.753  30.643  1.00  0.00     0.023 A 
ATOM     81  C   UNL A   1      38.752  29.082  31.833  1.00  0.00     0.012 A 
ATOM     82  C   UNL A   1      38.206  30.693  30.108  1.00  0.00     0.148 A 
ATOM     83  C   UNL A   1      37.510  29.306  32.441  1.00  0.00     0.002 A 
ATOM     84  C   UNL A   1      37.007  30.968  30.759  1.00  0.00     0.091 A 
ATOM     85  F   UNL A   1      38.516  31.282  28.944  1.00  0.00    -0.205 F 
ATOM     86  C   UNL A   1      36.644  30.258  31.911  1.00  0.00     0.022 A 
BRANCH  84  87
ATOM     87  S   UNL A   1      35.899  32.271  30.210  1.00  0.00     0.127 S 
ATOM     88  O   UNL A   1      35.098  32.509  31.408  1.00  0.00    -0.237 OA
ATOM     89  O   UNL A   1      36.839  33.342  29.873  1.00  0.00    -0.237 OA
ATOM     90  O   UNL A   1      35.185  31.720  29.066  1.00  0.00    -0.744 OA
ENDBRANCH  84  87
ENDBRANCH  56  80
BRANCH  68  91
ATOM     91  C   UNL A   1      45.091  33.220  29.665  1.00  0.00     0.023 A 
ATOM     92  C   UNL A   1      45.700  33.420  30.920  1.00  0.00     0.012 A 
ATOM     93  C   UNL A   1      44.997  34.305  28.768  1.00  0.00     0.148 A 
ATOM     94  C   UNL A   1      46.164  34.683  31.293  1.00  0.00     0.002 A 
ATOM     95  C   UNL A   1      45.510  35.547  29.123  1.00  0.00     0.091 A 
ATOM     96  F   UNL A   1      44.400  34.106  27.583  1.00  0.00    -0.205 F 
ATOM     97  C   UNL A   1      46.080  35.742  30.391  1.00  0.00     0.022 A 
BRANCH  95  98
ATOM     98  S   UNL A   1      45.535  36.937  27.986  1.00  0.00     0.127 S 
ATOM     99  O   UNL A   1      45.744  38.063  28.896  1.00  0.00    -0.237 OA
ATOM    100  O   UNL A   1      46.682  36.622  27.134  1.00  0.00    -0.237 OA
ATOM    101  O   UNL A   1      44.250  36.916  27.300  1.00  0.00    -0.744 OA
ENDBRANCH  95  98
ENDBRANCH  68  91
ENDBRANCH  42  43
ENDBRANCH  35  37
ENDBRANCH  34  35
ENDBRANCH  33  34
ENDBRANCH  32  33
ENDBRANCH   1  32
TORSDOF 20
ENDMDL
MODEL 2
REMARK VINA RESULT:     -10.9      6.400     11.272
REMARK SMILES O=C(CCC(=O)OCCOCCOC(=O)c1ccc(-c2c3nc(c(-c4cccc(S(=O)(=O)[O-])c4F)c4ccc([nH]4)c(-c4cccc(S(=O)(=O)[O-])c4F)c4nc(c(-c5cccc(S(=O)(=O)[O-])c5F)c5ccc2[nH]5)C=C4)C=C3)cc1)/[NH+]=C1\S[C@H]2CS(=O)(=O)C[C@@H]2N1c1ccc2c(c1)OCO2
REMARK SMILES IDX 10 1 9 2 8 3 7 4 5 5 6 6 4 7 3 8 2 9 1 10 79 11 80 12 81 14
REMARK SMILES IDX 89 15 82 16 88 17 83 18 87 19 84 20 85 21 86 22 90 23 91 24
REMARK SMILES IDX 95 25 92 26 94 27 93 28 96 29 98 30 97 31 11 32 12 33 13 34
REMARK SMILES IDX 14 35 15 36 16 37 17 38 78 39 18 40 77 41 19 42 20 43 21 44
REMARK SMILES IDX 71 45 22 46 76 47 70 48 72 49 23 50 75 51 69 52 68 53 24 55
REMARK SMILES IDX 56 56 36 57 55 58 37 59 40 60 54 61 73 62 38 63 39 64 53 66
REMARK SMILES IDX 74 67 41 68 25 69 26 70 34 71 27 72 29 73 35 74 28 75 30 76
REMARK SMILES IDX 31 77 32 78 33 79 57 80 58 81 66 82 59 83 61 84 67 85 60 86
REMARK SMILES IDX 62 87 63 88 64 89 65 90 42 91 43 92 51 93 44 94 46 95 52 96
REMARK SMILES IDX 45 97 47 98 48 99 49 100 50 101
REMARK H PARENT 79 13 72 54 40 65
REMARK Flexibility Score: inf
ROOT
ATOM      1  O   UNL A   1      33.995  31.395  27.872  1.00  0.00    -0.374 OA
ENDROOT
BRANCH   1   2
ATOM      2  C   UNL A   1      33.498  30.577  26.830  1.00  0.00     0.202 C 
BRANCH   2   3
ATOM      3  C   UNL A   1      32.026  30.080  26.855  1.00  0.00     0.261 C 
BRANCH   3   4
ATOM      4  O   UNL A   1      31.369  30.455  25.640  1.00  0.00    -0.463 OA
BRANCH   4   5
ATOM      5  C   UNL A   1      31.248  29.398  24.816  1.00  0.00     0.306 C 
ATOM      6  O   UNL A   1      31.059  29.491  23.610  1.00  0.00    -0.252 OA
BRANCH   5   7
ATOM      7  C   UNL A   1      31.440  28.109  25.559  1.00  0.00     0.135 C 
BRANCH   7   8
ATOM      8  C   UNL A   1      32.046  26.918  24.800  1.00  0.00     0.139 C 
BRANCH   8   9
ATOM      9  C   UNL A   1      33.531  26.466  24.686  1.00  0.00     0.308 C 
ATOM     10  O   UNL A   1      34.347  27.303  25.085  1.00  0.00    -0.247 OA
ATOM     11  N   UNL A   1      34.027  25.244  24.189  1.00  0.00    -0.204 N 
ATOM     12  C   UNL A   1      34.008  24.059  24.730  1.00  0.00     0.319 C 
ATOM     13  H   UNL A   1      34.450  25.293  23.301  1.00  0.00     0.316 HD
ATOM     14  S   UNL A   1      32.889  23.499  25.989  1.00  0.00    -0.029 SA
ATOM     15  N   UNL A   1      34.777  22.911  24.416  1.00  0.00    -0.216 N 
ATOM     16  C   UNL A   1      33.044  21.776  25.712  1.00  0.00     0.120 C 
ATOM     17  C   UNL A   1      33.908  21.709  24.460  1.00  0.00     0.212 C 
ATOM     18  C   UNL A   1      31.878  20.857  25.442  1.00  0.00     0.156 C 
ATOM     19  C   UNL A   1      34.382  20.275  24.512  1.00  0.00     0.188 C 
ATOM     20  S   UNL A   1      32.774  19.435  24.786  1.00  0.00     0.155 S 
ATOM     21  O   UNL A   1      32.907  18.465  25.860  1.00  0.00    -0.229 OA
ATOM     22  O   UNL A   1      32.198  19.103  23.507  1.00  0.00    -0.229 OA
BRANCH  15  23
ATOM     23  C   UNL A   1      36.033  22.814  25.076  1.00  0.00     0.132 A 
ATOM     24  C   UNL A   1      36.852  21.691  24.840  1.00  0.00     0.056 A 
ATOM     25  C   UNL A   1      36.566  23.871  25.845  1.00  0.00     0.102 A 
ATOM     26  C   UNL A   1      38.155  21.613  25.363  1.00  0.00     0.055 A 
ATOM     27  C   UNL A   1      37.853  23.786  26.316  1.00  0.00     0.170 A 
ATOM     28  C   UNL A   1      38.630  22.685  26.085  1.00  0.00     0.166 A 
ATOM     29  O   UNL A   1      38.520  24.784  26.955  1.00  0.00    -0.453 OA
ATOM     30  O   UNL A   1      39.886  22.849  26.576  1.00  0.00    -0.454 OA
ATOM     31  C   UNL A   1      39.864  24.260  26.880  1.00  0.00     0.468 C 
ENDBRANCH  15  23
ENDBRANCH   8   9
ENDBRANCH   7   8
ENDBRANCH   5   7
ENDBRANCH   4   5
ENDBRANCH   3   4
ENDBRANCH   2   3
ENDBRANCH   1   2
BRANCH   1  32
ATOM     32  C   UNL A   1      35.233  31.184  28.621  1.00  0.00     0.202 C 
BRANCH  32  33
ATOM     33  C   UNL A   1      35.792  31.441  30.152  1.00  0.00     0.261 C 
BRANCH  33  34
ATOM     34  O   UNL A   1      36.436  30.373  30.996  1.00  0.00    -0.460 OA
BRANCH  34  35
ATOM     35  C   UNL A   1      37.109  30.755  32.164  1.00  0.00     0.338 C 
ATOM     36  O   UNL A   1      36.677  31.626  32.913  1.00  0.00    -0.246 OA
BRANCH  35  37
ATOM     37  C   UNL A   1      38.354  29.937  32.595  1.00  0.00     0.060 A 
ATOM     38  C   UNL A   1      39.563  30.569  32.887  1.00  0.00     0.016 A 
ATOM     39  C   UNL A   1      38.481  28.555  32.431  1.00  0.00     0.016 A 
ATOM     40  C   UNL A   1      40.813  29.928  33.064  1.00  0.00     0.010 A 
ATOM     41  C   UNL A   1      39.750  27.881  32.612  1.00  0.00     0.010 A 
ATOM     42  C   UNL A   1      40.959  28.562  32.903  1.00  0.00    -0.014 A 
BRANCH  42  43
ATOM     43  C   UNL A   1      42.364  27.964  32.801  1.00  0.00     0.031 A 
ATOM     44  C   UNL A   1      43.111  27.634  34.087  1.00  0.00     0.074 A 
ATOM     45  C   UNL A   1      42.951  27.512  31.658  1.00  0.00     0.049 A 
ATOM     46  N   UNL A   1      44.335  27.194  34.263  1.00  0.00    -0.248 NA
ATOM     47  C   UNL A   1      42.341  27.741  35.337  1.00  0.00     0.031 C 
ATOM     48  C   UNL A   1      42.360  27.521  30.318  1.00  0.00     0.029 A 
ATOM     49  N   UNL A   1      44.202  26.941  31.441  1.00  0.00    -0.354 N 
ATOM     50  C   UNL A   1      44.492  27.020  35.636  1.00  0.00     0.074 A 
ATOM     51  C   UNL A   1      43.231  27.374  36.246  1.00  0.00     0.031 C 
ATOM     52  C   UNL A   1      43.239  27.009  29.434  1.00  0.00     0.029 A 
ATOM     53  C   UNL A   1      44.501  26.708  30.109  1.00  0.00     0.049 A 
ATOM     54  H   UNL A   1      44.823  26.722  32.173  1.00  0.00     0.167 HD
ATOM     55  C   UNL A   1      45.570  26.604  36.344  1.00  0.00     0.034 A 
ATOM     56  C   UNL A   1      45.655  26.362  29.483  1.00  0.00     0.034 A 
ATOM     57  C   UNL A   1      46.849  26.255  35.789  1.00  0.00     0.049 A 
ATOM     58  C   UNL A   1      46.918  26.122  30.288  1.00  0.00     0.074 A 
ATOM     59  C   UNL A   1      48.026  25.967  36.463  1.00  0.00     0.029 A 
ATOM     60  N   UNL A   1      47.127  26.147  34.440  1.00  0.00    -0.354 N 
ATOM     61  N   UNL A   1      47.072  26.056  31.587  1.00  0.00    -0.248 NA
ATOM     62  C   UNL A   1      48.169  25.902  29.537  1.00  0.00     0.031 C 
ATOM     63  C   UNL A   1      49.028  25.730  35.517  1.00  0.00     0.029 A 
ATOM     64  C   UNL A   1      48.459  25.809  34.259  1.00  0.00     0.049 A 
ATOM     65  H   UNL A   1      46.476  26.289  33.716  1.00  0.00     0.167 HD
ATOM     66  C   UNL A   1      48.415  25.748  31.801  1.00  0.00     0.074 A 
ATOM     67  C   UNL A   1      49.032  25.616  30.502  1.00  0.00     0.031 C 
ATOM     68  C   UNL A   1      49.076  25.606  32.976  1.00  0.00     0.034 A 
BRANCH  55  69
ATOM     69  C   UNL A   1      45.433  26.574  37.841  1.00  0.00     0.023 A 
ATOM     70  C   UNL A   1      45.133  25.370  38.508  1.00  0.00     0.012 A 
ATOM     71  C   UNL A   1      45.642  27.751  38.586  1.00  0.00     0.148 A 
ATOM     72  C   UNL A   1      45.015  25.347  39.897  1.00  0.00     0.002 A 
ATOM     73  C   UNL A   1      45.564  27.711  39.970  1.00  0.00     0.091 A 
ATOM     74  F   UNL A   1      45.910  28.885  37.922  1.00  0.00    -0.205 F 
ATOM     75  C   UNL A   1      45.240  26.513  40.628  1.00  0.00     0.022 A 
BRANCH  73  76
ATOM     76  S   UNL A   1      45.895  29.144  40.997  1.00  0.00     0.127 S 
ATOM     77  O   UNL A   1      44.604  29.830  40.969  1.00  0.00    -0.237 OA
ATOM     78  O   UNL A   1      46.232  28.528  42.280  1.00  0.00    -0.237 OA
ATOM     79  O   UNL A   1      46.988  29.860  40.355  1.00  0.00    -0.744 OA
ENDBRANCH  73  76
ENDBRANCH  55  69
BRANCH  56  80
ATOM     80  C   UNL A   1      45.747  26.314  27.980  1.00  0.00     0.023 A 
ATOM     81  C   UNL A   1      45.814  27.503  27.219  1.00  0.00     0.012 A 
ATOM     82  C   UNL A   1      45.649  25.086  27.295  1.00  0.00     0.148 A 
ATOM     83  C   UNL A   1      45.736  27.467  25.821  1.00  0.00     0.002 A 
ATOM     84  C   UNL A   1      45.649  25.053  25.904  1.00  0.00     0.091 A 
ATOM     85  F   UNL A   1      45.520  23.964  28.018  1.00  0.00    -0.205 F 
ATOM     86  C   UNL A   1      45.666  26.243  25.164  1.00  0.00     0.022 A 
BRANCH  84  87
ATOM     87  S   UNL A   1      45.693  23.510  24.985  1.00  0.00     0.127 S 
ATOM     88  O   UNL A   1      46.227  22.583  25.980  1.00  0.00    -0.237 OA
ATOM     89  O   UNL A   1      44.279  23.315  24.658  1.00  0.00    -0.237 OA
ATOM     90  O   UNL A   1      46.545  23.766  23.833  1.00  0.00    -0.744 OA
ENDBRANCH  84  87
ENDBRANCH  56  80
BRANCH  68  91
ATOM     91  C   UNL A   1      50.530  25.201  32.943  1.00  0.00     0.023 A 
ATOM     92  C   UNL A   1      51.547  26.175  32.888  1.00  0.00     0.012 A 
ATOM     93  C   UNL A   1      50.889  23.840  33.033  1.00  0.00     0.148 A 
ATOM     94  C   UNL A   1      52.892  25.800  32.876  1.00  0.00     0.002 A 
ATOM     95  C   UNL A   1      52.230  23.475  33.076  1.00  0.00     0.091 A 
ATOM     96  F   UNL A   1      49.911  22.922  33.068  1.00  0.00    -0.205 F 
ATOM     97  C   UNL A   1      53.233  24.452  32.981  1.00  0.00     0.022 A 
BRANCH  95  98
ATOM     98  S   UNL A   1      52.756  21.774  33.313  1.00  0.00     0.127 S 
ATOM     99  O   UNL A   1      52.279  21.141  32.084  1.00  0.00    -0.237 OA
ATOM    100  O   UNL A   1      54.210  21.908  33.404  1.00  0.00    -0.237 OA
ATOM    101  O   UNL A   1      52.113  21.324  34.540  1.00  0.00    -0.744 OA
ENDBRANCH  95  98
ENDBRANCH  68  91
ENDBRANCH  42  43
ENDBRANCH  35  37
ENDBRANCH  34  35
ENDBRANCH  33  34
ENDBRANCH  32  33
ENDBRANCH   1  32
TORSDOF 20
ENDMDL
MODEL 3
REMARK VINA RESULT:     -10.7      8.087     15.455
REMARK SMILES O=C(CCC(=O)OCCOCCOC(=O)c1ccc(-c2c3nc(c(-c4cccc(S(=O)(=O)[O-])c4F)c4ccc([nH]4)c(-c4cccc(S(=O)(=O)[O-])c4F)c4nc(c(-c5cccc(S(=O)(=O)[O-])c5F)c5ccc2[nH]5)C=C4)C=C3)cc1)/[NH+]=C1\S[C@H]2CS(=O)(=O)C[C@@H]2N1c1ccc2c(c1)OCO2
REMARK SMILES IDX 10 1 9 2 8 3 7 4 5 5 6 6 4 7 3 8 2 9 1 10 79 11 80 12 81 14
REMARK SMILES IDX 89 15 82 16 88 17 83 18 87 19 84 20 85 21 86 22 90 23 91 24
REMARK SMILES IDX 95 25 92 26 94 27 93 28 96 29 98 30 97 31 11 32 12 33 13 34
REMARK SMILES IDX 14 35 15 36 16 37 17 38 78 39 18 40 77 41 19 42 20 43 21 44
REMARK SMILES IDX 71 45 22 46 76 47 70 48 72 49 23 50 75 51 69 52 68 53 24 55
REMARK SMILES IDX 56 56 36 57 55 58 37 59 40 60 54 61 73 62 38 63 39 64 53 66
REMARK SMILES IDX 74 67 41 68 25 69 26 70 34 71 27 72 29 73 35 74 28 75 30 76
REMARK SMILES IDX 31 77 32 78 33 79 57 80 58 81 66 82 59 83 61 84 67 85 60 86
REMARK SMILES IDX 62 87 63 88 64 89 65 90 42 91 43 92 51 93 44 94 46 95 52 96
REMARK SMILES IDX 45 97 47 98 48 99 49 100 50 101
REMARK H PARENT 79 13 72 54 40 65
REMARK Flexibility Score: inf
ROOT
ATOM      1  O   UNL A   1      46.236  40.645  24.436  1.00  0.00    -0.374 OA
ENDROOT
BRANCH   1   2
ATOM      2  C   UNL A   1      46.318  41.929  23.847  1.00  0.00     0.202 C 
BRANCH   2   3
ATOM      3  C   UNL A   1      45.220  42.414  22.862  1.00  0.00     0.261 C 
BRANCH   3   4
ATOM      4  O   UNL A   1      43.931  42.276  23.469  1.00  0.00    -0.463 OA
BRANCH   4   5
ATOM      5  C   UNL A   1      42.995  42.935  22.761  1.00  0.00     0.306 C 
ATOM      6  O   UNL A   1      42.251  43.783  23.237  1.00  0.00    -0.252 OA
BRANCH   5   7
ATOM      7  C   UNL A   1      43.036  42.540  21.315  1.00  0.00     0.135 C 
BRANCH   7   8
ATOM      8  C   UNL A   1      41.972  43.126  20.373  1.00  0.00     0.139 C 
BRANCH   8   9
ATOM      9  C   UNL A   1      42.138  44.106  19.175  1.00  0.00     0.308 C 
ATOM     10  O   UNL A   1      41.107  44.715  18.872  1.00  0.00    -0.247 OA
ATOM     11  N   UNL A   1      43.301  44.362  18.422  1.00  0.00    -0.204 N 
ATOM     12  C   UNL A   1      44.370  45.033  18.748  1.00  0.00     0.319 C 
ATOM     13  H   UNL A   1      43.308  43.975  17.517  1.00  0.00     0.316 HD
ATOM     14  S   UNL A   1      44.936  45.369  20.396  1.00  0.00    -0.029 SA
ATOM     15  N   UNL A   1      45.380  45.579  17.917  1.00  0.00    -0.216 N 
ATOM     16  C   UNL A   1      46.618  45.690  20.022  1.00  0.00     0.120 C 
ATOM     17  C   UNL A   1      46.707  45.349  18.541  1.00  0.00     0.212 C 
ATOM     18  C   UNL A   1      47.776  44.970  20.667  1.00  0.00     0.156 C 
ATOM     19  C   UNL A   1      47.996  46.042  18.162  1.00  0.00     0.188 C 
ATOM     20  S   UNL A   1      49.081  45.416  19.502  1.00  0.00     0.155 S 
ATOM     21  O   UNL A   1      49.828  46.520  20.080  1.00  0.00    -0.229 OA
ATOM     22  O   UNL A   1      49.712  44.199  19.060  1.00  0.00    -0.229 OA
BRANCH  15  23
ATOM     23  C   UNL A   1      45.126  46.888  17.422  1.00  0.00     0.132 A 
ATOM     24  C   UNL A   1      43.852  47.462  17.611  1.00  0.00     0.056 A 
ATOM     25  C   UNL A   1      46.145  47.701  16.879  1.00  0.00     0.102 A 
ATOM     26  C   UNL A   1      43.593  48.799  17.258  1.00  0.00     0.055 A 
ATOM     27  C   UNL A   1      45.876  49.013  16.575  1.00  0.00     0.170 A 
ATOM     28  C   UNL A   1      44.632  49.551  16.757  1.00  0.00     0.166 A 
ATOM     29  O   UNL A   1      46.797  49.928  16.170  1.00  0.00    -0.453 OA
ATOM     30  O   UNL A   1      44.613  50.877  16.461  1.00  0.00    -0.454 OA
ATOM     31  C   UNL A   1      46.028  51.137  16.351  1.00  0.00     0.468 C 
ENDBRANCH  15  23
ENDBRANCH   8   9
ENDBRANCH   7   8
ENDBRANCH   5   7
ENDBRANCH   4   5
ENDBRANCH   3   4
ENDBRANCH   2   3
ENDBRANCH   1   2
BRANCH   1  32
ATOM     32  C   UNL A   1      46.567  40.305  25.819  1.00  0.00     0.202 C 
BRANCH  32  33
ATOM     33  C   UNL A   1      47.405  39.131  26.620  1.00  0.00     0.261 C 
BRANCH  33  34
ATOM     34  O   UNL A   1      47.324  37.667  26.279  1.00  0.00    -0.460 OA
BRANCH  34  35
ATOM     35  C   UNL A   1      47.686  36.730  27.256  1.00  0.00     0.338 C 
ATOM     36  O   UNL A   1      48.722  36.828  27.906  1.00  0.00    -0.246 OA
BRANCH  35  37
ATOM     37  C   UNL A   1      46.663  35.625  27.629  1.00  0.00     0.060 A 
ATOM     38  C   UNL A   1      47.063  34.474  28.309  1.00  0.00     0.016 A 
ATOM     39  C   UNL A   1      45.385  35.519  27.074  1.00  0.00     0.016 A 
ATOM     40  C   UNL A   1      46.283  33.309  28.499  1.00  0.00     0.010 A 
ATOM     41  C   UNL A   1      44.569  34.337  27.261  1.00  0.00     0.010 A 
ATOM     42  C   UNL A   1      45.017  33.185  27.955  1.00  0.00    -0.014 A 
BRANCH  42  43
ATOM     43  C   UNL A   1      44.344  31.811  27.926  1.00  0.00     0.031 A 
ATOM     44  C   UNL A   1      45.037  30.674  27.185  1.00  0.00     0.074 A 
ATOM     45  C   UNL A   1      43.260  31.444  28.667  1.00  0.00     0.049 A 
ATOM     46  N   UNL A   1      44.633  29.447  26.954  1.00  0.00    -0.248 NA
ATOM     47  C   UNL A   1      46.405  30.941  26.712  1.00  0.00     0.031 C 
ATOM     48  C   UNL A   1      42.534  32.288  29.617  1.00  0.00     0.029 A 
ATOM     49  N   UNL A   1      42.573  30.235  28.738  1.00  0.00    -0.354 N 
ATOM     50  C   UNL A   1      45.672  28.818  26.273  1.00  0.00     0.074 A 
ATOM     51  C   UNL A   1      46.737  29.788  26.151  1.00  0.00     0.031 C 
ATOM     52  C   UNL A   1      41.512  31.591  30.151  1.00  0.00     0.029 A 
ATOM     53  C   UNL A   1      41.436  30.270  29.528  1.00  0.00     0.049 A 
ATOM     54  H   UNL A   1      42.870  29.424  28.265  1.00  0.00     0.167 HD
ATOM     55  C   UNL A   1      45.757  27.555  25.787  1.00  0.00     0.034 A 
ATOM     56  C   UNL A   1      40.416  29.389  29.692  1.00  0.00     0.034 A 
ATOM     57  C   UNL A   1      44.726  26.559  25.868  1.00  0.00     0.049 A 
ATOM     58  C   UNL A   1      40.424  28.065  28.953  1.00  0.00     0.074 A 
ATOM     59  C   UNL A   1      44.691  25.309  25.268  1.00  0.00     0.029 A 
ATOM     60  N   UNL A   1      43.549  26.689  26.581  1.00  0.00    -0.354 N 
ATOM     61  N   UNL A   1      41.375  27.524  28.232  1.00  0.00    -0.248 NA
ATOM     62  C   UNL A   1      39.215  27.224  29.054  1.00  0.00     0.031 C 
ATOM     63  C   UNL A   1      43.472  24.702  25.583  1.00  0.00     0.029 A 
ATOM     64  C   UNL A   1      42.777  25.548  26.428  1.00  0.00     0.049 A 
ATOM     65  H   UNL A   1      43.298  27.474  27.118  1.00  0.00     0.167 HD
ATOM     66  C   UNL A   1      40.897  26.276  27.837  1.00  0.00     0.074 A 
ATOM     67  C   UNL A   1      39.581  26.124  28.413  1.00  0.00     0.031 C 
ATOM     68  C   UNL A   1      41.496  25.349  27.050  1.00  0.00     0.034 A 
BRANCH  55  69
ATOM     69  C   UNL A   1      47.012  27.194  25.042  1.00  0.00     0.023 A 
ATOM     70  C   UNL A   1      47.986  26.371  25.639  1.00  0.00     0.012 A 
ATOM     71  C   UNL A   1      47.199  27.654  23.724  1.00  0.00     0.148 A 
ATOM     72  C   UNL A   1      49.145  26.032  24.939  1.00  0.00     0.002 A 
ATOM     73  C   UNL A   1      48.333  27.278  23.020  1.00  0.00     0.091 A 
ATOM     74  F   UNL A   1      46.262  28.450  23.189  1.00  0.00    -0.205 F 
ATOM     75  C   UNL A   1      49.314  26.477  23.629  1.00  0.00     0.022 A 
BRANCH  73  76
ATOM     76  S   UNL A   1      48.610  27.752  21.312  1.00  0.00     0.127 S 
ATOM     77  O   UNL A   1      49.335  26.591  20.798  1.00  0.00    -0.237 OA
ATOM     78  O   UNL A   1      47.244  27.893  20.809  1.00  0.00    -0.237 OA
ATOM     79  O   UNL A   1      49.378  28.989  21.353  1.00  0.00    -0.744 OA
ENDBRANCH  73  76
ENDBRANCH  55  69
BRANCH  56  80
ATOM     80  C   UNL A   1      39.204  29.739  30.516  1.00  0.00     0.023 A 
ATOM     81  C   UNL A   1      39.008  29.174  31.795  1.00  0.00     0.012 A 
ATOM     82  C   UNL A   1      38.182  30.547  29.978  1.00  0.00     0.148 A 
ATOM     83  C   UNL A   1      37.809  29.369  32.492  1.00  0.00     0.002 A 
ATOM     84  C   UNL A   1      37.025  30.800  30.709  1.00  0.00     0.091 A 
ATOM     85  F   UNL A   1      38.341  31.030  28.737  1.00  0.00    -0.205 F 
ATOM     86  C   UNL A   1      36.824  30.192  31.955  1.00  0.00     0.022 A 
BRANCH  84  87
ATOM     87  S   UNL A   1      35.769  31.952  30.141  1.00  0.00     0.127 S 
ATOM     88  O   UNL A   1      34.883  32.026  31.299  1.00  0.00    -0.237 OA
ATOM     89  O   UNL A   1      36.560  33.159  29.890  1.00  0.00    -0.237 OA
ATOM     90  O   UNL A   1      35.201  31.350  28.943  1.00  0.00    -0.744 OA
ENDBRANCH  84  87
ENDBRANCH  56  80
BRANCH  68  91
ATOM     91  C   UNL A   1      40.791  24.033  26.819  1.00  0.00     0.023 A 
ATOM     92  C   UNL A   1      39.442  24.000  26.413  1.00  0.00     0.012 A 
ATOM     93  C   UNL A   1      41.499  22.819  26.946  1.00  0.00     0.148 A 
ATOM     94  C   UNL A   1      38.798  22.783  26.183  1.00  0.00     0.002 A 
ATOM     95  C   UNL A   1      40.868  21.613  26.662  1.00  0.00     0.091 A 
ATOM     96  F   UNL A   1      42.778  22.863  27.349  1.00  0.00    -0.205 F 
ATOM     97  C   UNL A   1      39.513  21.591  26.296  1.00  0.00     0.022 A 
BRANCH  95  98
ATOM     98  S   UNL A   1      41.741  20.044  26.683  1.00  0.00     0.127 S 
ATOM     99  O   UNL A   1      41.612  19.649  28.085  1.00  0.00    -0.237 OA
ATOM    100  O   UNL A   1      40.955  19.237  25.748  1.00  0.00    -0.237 OA
ATOM    101  O   UNL A   1      43.097  20.334  26.237  1.00  0.00    -0.744 OA
ENDBRANCH  95  98
ENDBRANCH  68  91
ENDBRANCH  42  43
ENDBRANCH  35  37
ENDBRANCH  34  35
ENDBRANCH  33  34
ENDBRANCH  32  33
ENDBRANCH   1  32
TORSDOF 20
ENDMDL
