MODEL 1
REMARK VINA RESULT:     -11.5      0.000      0.000
REMARK SMILES Cc1ncccc1NC(=O)NC[C@H]1CCC[C@H]1C(=O)OCCOCCOC(=O)c1ccc(-c2c3nc(c(-c4cccc(S(=O)(=O)[O-])c4F)c4ccc([nH]4)c(-c4cccc(S(=O)(=O)[O-])c4F)c4nc(c(-c5cccc(S(=O)(=O)[O-])c5F)c5ccc2[nH]5)C=C4)C=C3)cc1
REMARK SMILES IDX 23 1 22 2 21 3 20 4 18 5 19 6 17 7 13 8 14 9 15 10 16 11
REMARK SMILES IDX 12 12 11 13 8 14 9 15 10 17 7 19 1 20 2 21 3 22 4 23 6 24
REMARK SMILES IDX 5 25 24 26 25 27 26 28 27 29 28 30 29 31 30 32 91 33 31 34
REMARK SMILES IDX 90 35 32 36 33 37 34 38 84 39 35 40 89 41 83 42 85 43 36 44
REMARK SMILES IDX 88 45 82 46 81 47 37 49 69 50 49 51 68 52 50 53 53 54 67 55
REMARK SMILES IDX 86 56 51 57 52 58 66 60 87 61 54 62 38 63 39 64 47 65 40 66
REMARK SMILES IDX 42 67 48 68 41 69 43 70 44 71 45 72 46 73 70 74 71 75 79 76
REMARK SMILES IDX 72 77 74 78 80 79 73 80 75 81 76 82 77 83 78 84 55 85 56 86
REMARK SMILES IDX 64 87 57 88 59 89 65 90 58 91 60 92 61 93 62 94 63 95
REMARK H PARENT 8 16 11 18 85 48 53 59
REMARK Flexibility Score: inf
ROOT
ATOM      1  O   UNL A   1      30.770  29.375  24.607  1.00  0.00    -0.374 OA
ENDROOT
BRANCH   1   2
ATOM      2  C   UNL A   1      31.083  29.353  23.212  1.00  0.00     0.202 C 
BRANCH   2   3
ATOM      3  C   UNL A   1      30.106  28.568  22.333  1.00  0.00     0.261 C 
BRANCH   3   4
ATOM      4  O   UNL A   1      30.226  27.156  22.607  1.00  0.00    -0.463 OA
BRANCH   4   5
ATOM      5  C   UNL A   1      31.382  26.558  22.242  1.00  0.00     0.309 C 
ATOM      6  O   UNL A   1      31.685  26.259  21.093  1.00  0.00    -0.252 OA
BRANCH   5   7
ATOM      7  C   UNL A   1      32.323  26.340  23.410  1.00  0.00     0.104 C 
ATOM      8  C   UNL A   1      31.796  25.649  24.682  1.00  0.00     0.022 C 
ATOM      9  C   UNL A   1      33.097  25.491  25.468  1.00  0.00     0.006 C 
ATOM     10  C   UNL A   1      34.165  25.146  24.431  1.00  0.00     0.001 C 
ATOM     11  C   UNL A   1      33.619  25.612  23.077  1.00  0.00     0.016 C 
BRANCH   8  12
ATOM     12  C   UNL A   1      30.989  24.345  24.536  1.00  0.00     0.122 C 
BRANCH  12  13
ATOM     13  N   UNL A   1      30.463  23.750  25.736  1.00  0.00    -0.338 N 
ATOM     14  N   UNL A   1      31.865  22.301  27.049  1.00  0.00    -0.306 N 
ATOM     15  C   UNL A   1      30.779  23.011  26.779  1.00  0.00     0.319 C 
ATOM     16  H   UNL A   1      31.730  21.831  27.904  1.00  0.00     0.171 HD
ATOM     17  O   UNL A   1      29.868  22.931  27.616  1.00  0.00    -0.249 OA
ATOM     18  H   UNL A   1      29.510  23.985  25.803  1.00  0.00     0.165 HD
BRANCH  14  19
ATOM     19  C   UNL A   1      33.141  21.977  26.555  1.00  0.00     0.064 A 
ATOM     20  C   UNL A   1      32.133  20.332  24.839  1.00  0.00     0.069 C 
ATOM     21  C   UNL A   1      33.278  21.051  25.498  1.00  0.00     0.061 A 
ATOM     22  N   UNL A   1      34.487  20.711  24.955  1.00  0.00    -0.259 NA
ATOM     23  C   UNL A   1      35.595  21.267  25.470  1.00  0.00     0.111 A 
ATOM     24  C   UNL A   1      34.326  22.487  27.060  1.00  0.00     0.030 A 
ATOM     25  C   UNL A   1      35.566  22.155  26.516  1.00  0.00     0.022 A 
ENDBRANCH  14  19
ENDBRANCH  12  13
ENDBRANCH   8  12
ENDBRANCH   5   7
ENDBRANCH   4   5
ENDBRANCH   3   4
ENDBRANCH   2   3
ENDBRANCH   1   2
BRANCH   1  26
ATOM     26  C   UNL A   1      31.844  29.632  25.508  1.00  0.00     0.202 C 
BRANCH  26  27
ATOM     27  C   UNL A   1      31.864  31.023  26.171  1.00  0.00     0.261 C 
BRANCH  27  28
ATOM     28  O   UNL A   1      32.582  31.051  27.420  1.00  0.00    -0.460 OA
BRANCH  28  29
ATOM     29  C   UNL A   1      33.445  32.092  27.550  1.00  0.00     0.338 C 
ATOM     30  O   UNL A   1      33.158  33.276  27.523  1.00  0.00    -0.246 OA
BRANCH  29  31
ATOM     31  C   UNL A   1      34.797  31.613  27.917  1.00  0.00     0.060 A 
ATOM     32  C   UNL A   1      34.956  30.231  28.075  1.00  0.00     0.016 A 
ATOM     33  C   UNL A   1      35.865  32.476  28.177  1.00  0.00     0.016 A 
ATOM     34  C   UNL A   1      36.155  29.712  28.562  1.00  0.00     0.010 A 
ATOM     35  C   UNL A   1      37.070  31.951  28.667  1.00  0.00     0.010 A 
ATOM     36  C   UNL A   1      37.205  30.570  28.908  1.00  0.00    -0.014 A 
BRANCH  36  37
ATOM     37  C   UNL A   1      38.375  30.023  29.648  1.00  0.00     0.031 A 
ATOM     38  C   UNL A   1      38.542  30.344  31.112  1.00  0.00     0.074 A 
ATOM     39  C   UNL A   1      39.258  29.209  29.042  1.00  0.00     0.049 A 
ATOM     40  N   UNL A   1      39.466  29.945  31.948  1.00  0.00    -0.248 NA
ATOM     41  C   UNL A   1      37.534  31.232  31.713  1.00  0.00     0.031 C 
ATOM     42  C   UNL A   1      39.213  28.811  27.637  1.00  0.00     0.029 A 
ATOM     43  N   UNL A   1      40.376  28.580  29.535  1.00  0.00    -0.354 N 
ATOM     44  C   UNL A   1      39.173  30.557  33.161  1.00  0.00     0.074 A 
ATOM     45  C   UNL A   1      37.991  31.366  32.949  1.00  0.00     0.031 C 
ATOM     46  C   UNL A   1      40.263  28.014  27.376  1.00  0.00     0.029 A 
ATOM     47  C   UNL A   1      41.072  27.869  28.586  1.00  0.00     0.049 A 
ATOM     48  H   UNL A   1      40.653  28.634  30.479  1.00  0.00     0.167 HD
ATOM     49  C   UNL A   1      39.816  30.449  34.349  1.00  0.00     0.034 A 
ATOM     50  C   UNL A   1      42.236  27.194  28.675  1.00  0.00     0.034 A 
ATOM     51  C   UNL A   1      40.978  29.631  34.571  1.00  0.00     0.049 A 
ATOM     52  C   UNL A   1      42.948  27.111  30.001  1.00  0.00     0.074 A 
ATOM     53  C   UNL A   1      41.663  29.412  35.755  1.00  0.00     0.029 A 
ATOM     54  N   UNL A   1      41.641  28.910  33.590  1.00  0.00    -0.354 N 
ATOM     55  N   UNL A   1      42.591  27.598  31.165  1.00  0.00    -0.248 NA
ATOM     56  C   UNL A   1      44.210  26.356  30.031  1.00  0.00     0.031 C 
ATOM     57  C   UNL A   1      42.765  28.597  35.480  1.00  0.00     0.029 A 
ATOM     58  C   UNL A   1      42.741  28.266  34.135  1.00  0.00     0.049 A 
ATOM     59  H   UNL A   1      41.371  28.864  32.645  1.00  0.00     0.167 HD
ATOM     60  C   UNL A   1      43.562  27.178  32.069  1.00  0.00     0.074 A 
ATOM     61  C   UNL A   1      44.512  26.381  31.322  1.00  0.00     0.031 C 
ATOM     62  C   UNL A   1      43.660  27.437  33.398  1.00  0.00     0.034 A 
BRANCH  49  63
ATOM     63  C   UNL A   1      39.270  31.233  35.516  1.00  0.00     0.023 A 
ATOM     64  C   UNL A   1      38.246  30.685  36.316  1.00  0.00     0.012 A 
ATOM     65  C   UNL A   1      39.807  32.492  35.850  1.00  0.00     0.148 A 
ATOM     66  C   UNL A   1      37.741  31.394  37.406  1.00  0.00     0.002 A 
ATOM     67  C   UNL A   1      39.332  33.170  36.966  1.00  0.00     0.091 A 
ATOM     68  F   UNL A   1      40.766  33.007  35.067  1.00  0.00    -0.205 F 
ATOM     69  C   UNL A   1      38.291  32.629  37.737  1.00  0.00     0.022 A 
BRANCH  67  70
ATOM     70  S   UNL A   1      40.031  34.730  37.521  1.00  0.00     0.127 S 
ATOM     71  O   UNL A   1      39.012  35.190  38.464  1.00  0.00    -0.237 OA
ATOM     72  O   UNL A   1      41.286  34.301  38.142  1.00  0.00    -0.237 OA
ATOM     73  O   UNL A   1      40.192  35.547  36.327  1.00  0.00    -0.744 OA
ENDBRANCH  67  70
ENDBRANCH  49  63
BRANCH  50  74
ATOM     74  C   UNL A   1      42.794  26.515  27.470  1.00  0.00     0.023 A 
ATOM     75  C   UNL A   1      43.627  27.230  26.590  1.00  0.00     0.012 A 
ATOM     76  C   UNL A   1      42.509  25.162  27.202  1.00  0.00     0.148 A 
ATOM     77  C   UNL A   1      44.147  26.618  25.448  1.00  0.00     0.002 A 
ATOM     78  C   UNL A   1      43.074  24.542  26.094  1.00  0.00     0.091 A 
ATOM     79  F   UNL A   1      41.697  24.505  28.043  1.00  0.00    -0.205 F 
ATOM     80  C   UNL A   1      43.879  25.273  25.207  1.00  0.00     0.022 A 
BRANCH  78  81
ATOM     81  S   UNL A   1      42.883  22.786  25.767  1.00  0.00     0.127 S 
ATOM     82  O   UNL A   1      43.750  22.198  26.785  1.00  0.00    -0.237 OA
ATOM     83  O   UNL A   1      41.450  22.594  25.992  1.00  0.00    -0.237 OA
ATOM     84  O   UNL A   1      43.310  22.590  24.389  1.00  0.00    -0.744 OA
ENDBRANCH  78  81
ENDBRANCH  50  74
BRANCH  62  85
ATOM     85  C   UNL A   1      44.811  26.821  34.155  1.00  0.00     0.023 A 
ATOM     86  C   UNL A   1      45.996  27.554  34.359  1.00  0.00     0.012 A 
ATOM     87  C   UNL A   1      44.686  25.539  34.729  1.00  0.00     0.148 A 
ATOM     88  C   UNL A   1      47.053  27.009  35.090  1.00  0.00     0.002 A 
ATOM     89  C   UNL A   1      45.722  25.023  35.500  1.00  0.00     0.091 A 
ATOM     90  F   UNL A   1      43.558  24.848  34.512  1.00  0.00    -0.205 F 
ATOM     91  C   UNL A   1      46.910  25.750  35.670  1.00  0.00     0.022 A 
BRANCH  89  92
ATOM     92  S   UNL A   1      45.592  23.454  36.366  1.00  0.00     0.127 S 
ATOM     93  O   UNL A   1      46.925  22.890  36.162  1.00  0.00    -0.237 OA
ATOM     94  O   UNL A   1      45.314  23.880  37.739  1.00  0.00    -0.237 OA
ATOM     95  O   UNL A   1      44.504  22.728  35.726  1.00  0.00    -0.744 OA
ENDBRANCH  89  92
ENDBRANCH  62  85
ENDBRANCH  36  37
ENDBRANCH  29  31
ENDBRANCH  28  29
ENDBRANCH  27  28
ENDBRANCH  26  27
ENDBRANCH   1  26
TORSDOF 20
ENDMDL
MODEL 2
REMARK VINA RESULT:     -11.4      1.416      2.237
REMARK SMILES Cc1ncccc1NC(=O)NC[C@H]1CCC[C@H]1C(=O)OCCOCCOC(=O)c1ccc(-c2c3nc(c(-c4cccc(S(=O)(=O)[O-])c4F)c4ccc([nH]4)c(-c4cccc(S(=O)(=O)[O-])c4F)c4nc(c(-c5cccc(S(=O)(=O)[O-])c5F)c5ccc2[nH]5)C=C4)C=C3)cc1
REMARK SMILES IDX 23 1 22 2 21 3 20 4 18 5 19 6 17 7 13 8 14 9 15 10 16 11
REMARK SMILES IDX 12 12 11 13 8 14 9 15 10 17 7 19 1 20 2 21 3 22 4 23 6 24
REMARK SMILES IDX 5 25 24 26 25 27 26 28 27 29 28 30 29 31 30 32 91 33 31 34
REMARK SMILES IDX 90 35 32 36 33 37 34 38 84 39 35 40 89 41 83 42 85 43 36 44
REMARK SMILES IDX 88 45 82 46 81 47 37 49 69 50 49 51 68 52 50 53 53 54 67 55
REMARK SMILES IDX 86 56 51 57 52 58 66 60 87 61 54 62 38 63 39 64 47 65 40 66
REMARK SMILES IDX 42 67 48 68 41 69 43 70 44 71 45 72 46 73 70 74 71 75 79 76
REMARK SMILES IDX 72 77 74 78 80 79 73 80 75 81 76 82 77 83 78 84 55 85 56 86
REMARK SMILES IDX 64 87 57 88 59 89 65 90 58 91 60 92 61 93 62 94 63 95
REMARK H PARENT 8 16 11 18 85 48 53 59
REMARK Flexibility Score: inf
ROOT
ATOM      1  O   UNL A   1      32.361  28.492  25.945  1.00  0.00    -0.374 OA
ENDROOT
BRANCH   1   2
ATOM      2  C   UNL A   1      31.430  27.627  26.600  1.00  0.00     0.202 C 
BRANCH   2   3
ATOM      3  C   UNL A   1      30.804  26.546  25.715  1.00  0.00     0.261 C 
BRANCH   3   4
ATOM      4  O   UNL A   1      30.503  25.378  26.507  1.00  0.00    -0.463 OA
BRANCH   4   5
ATOM      5  C   UNL A   1      31.453  24.418  26.567  1.00  0.00     0.309 C 
ATOM      6  O   UNL A   1      31.428  23.453  27.322  1.00  0.00    -0.252 OA
BRANCH   5   7
ATOM      7  C   UNL A   1      32.551  24.615  25.541  1.00  0.00     0.104 C 
ATOM      8  C   UNL A   1      34.012  24.330  25.940  1.00  0.00     0.022 C 
ATOM      9  C   UNL A   1      34.700  24.480  24.583  1.00  0.00     0.006 C 
ATOM     10  C   UNL A   1      33.737  23.879  23.563  1.00  0.00     0.001 C 
ATOM     11  C   UNL A   1      32.354  23.878  24.223  1.00  0.00     0.016 C 
BRANCH   8  12
ATOM     12  C   UNL A   1      34.337  23.011  26.665  1.00  0.00     0.122 C 
BRANCH  12  13
ATOM     13  N   UNL A   1      35.624  22.415  26.417  1.00  0.00    -0.338 N 
ATOM     14  N   UNL A   1      35.763  20.406  25.101  1.00  0.00    -0.306 N 
ATOM     15  C   UNL A   1      36.237  21.451  25.763  1.00  0.00     0.319 C 
ATOM     16  H   UNL A   1      36.521  19.865  24.781  1.00  0.00     0.171 HD
ATOM     17  O   UNL A   1      37.473  21.518  25.838  1.00  0.00    -0.249 OA
ATOM     18  H   UNL A   1      36.298  22.919  26.927  1.00  0.00     0.165 HD
BRANCH  14  19
ATOM     19  C   UNL A   1      34.567  19.791  24.691  1.00  0.00     0.064 A 
ATOM     20  C   UNL A   1      35.631  17.445  24.871  1.00  0.00     0.069 C 
ATOM     21  C   UNL A   1      34.491  18.385  24.589  1.00  0.00     0.061 A 
ATOM     22  N   UNL A   1      33.351  17.723  24.220  1.00  0.00    -0.259 NA
ATOM     23  C   UNL A   1      32.263  18.449  23.918  1.00  0.00     0.111 A 
ATOM     24  C   UNL A   1      33.419  20.478  24.333  1.00  0.00     0.030 A 
ATOM     25  C   UNL A   1      32.248  19.821  23.959  1.00  0.00     0.022 A 
ENDBRANCH  14  19
ENDBRANCH  12  13
ENDBRANCH   8  12
ENDBRANCH   5   7
ENDBRANCH   4   5
ENDBRANCH   3   4
ENDBRANCH   2   3
ENDBRANCH   1   2
BRANCH   1  26
ATOM     26  C   UNL A   1      31.822  29.603  25.233  1.00  0.00     0.202 C 
BRANCH  26  27
ATOM     27  C   UNL A   1      31.691  30.922  26.020  1.00  0.00     0.261 C 
BRANCH  27  28
ATOM     28  O   UNL A   1      32.414  30.919  27.266  1.00  0.00    -0.460 OA
BRANCH  28  29
ATOM     29  C   UNL A   1      33.214  32.000  27.455  1.00  0.00     0.338 C 
ATOM     30  O   UNL A   1      32.860  33.165  27.486  1.00  0.00    -0.246 OA
BRANCH  29  31
ATOM     31  C   UNL A   1      34.590  31.582  27.809  1.00  0.00     0.060 A 
ATOM     32  C   UNL A   1      34.796  30.215  28.034  1.00  0.00     0.016 A 
ATOM     33  C   UNL A   1      35.637  32.488  27.994  1.00  0.00     0.016 A 
ATOM     34  C   UNL A   1      36.023  29.758  28.514  1.00  0.00     0.010 A 
ATOM     35  C   UNL A   1      36.871  32.026  28.477  1.00  0.00     0.010 A 
ATOM     36  C   UNL A   1      37.055  30.665  28.785  1.00  0.00    -0.014 A 
BRANCH  36  37
ATOM     37  C   UNL A   1      38.260  30.193  29.520  1.00  0.00     0.031 A 
ATOM     38  C   UNL A   1      38.477  30.631  30.946  1.00  0.00     0.074 A 
ATOM     39  C   UNL A   1      39.132  29.344  28.946  1.00  0.00     0.049 A 
ATOM     40  N   UNL A   1      39.439  30.311  31.775  1.00  0.00    -0.248 NA
ATOM     41  C   UNL A   1      37.479  31.551  31.514  1.00  0.00     0.031 C 
ATOM     42  C   UNL A   1      39.040  28.835  27.579  1.00  0.00     0.029 A 
ATOM     43  N   UNL A   1      40.278  28.771  29.443  1.00  0.00    -0.354 N 
ATOM     44  C   UNL A   1      39.182  31.014  32.946  1.00  0.00     0.074 A 
ATOM     45  C   UNL A   1      37.981  31.788  32.718  1.00  0.00     0.031 C 
ATOM     46  C   UNL A   1      40.091  28.033  27.341  1.00  0.00     0.029 A 
ATOM     47  C   UNL A   1      40.948  27.995  28.527  1.00  0.00     0.049 A 
ATOM     48  H   UNL A   1      40.589  28.902  30.368  1.00  0.00     0.167 HD
ATOM     49  C   UNL A   1      39.871  31.008  34.113  1.00  0.00     0.034 A 
ATOM     50  C   UNL A   1      42.125  27.344  28.623  1.00  0.00     0.034 A 
ATOM     51  C   UNL A   1      41.054  30.224  34.353  1.00  0.00     0.049 A 
ATOM     52  C   UNL A   1      42.888  27.375  29.922  1.00  0.00     0.074 A 
ATOM     53  C   UNL A   1      41.786  30.108  35.523  1.00  0.00     0.029 A 
ATOM     54  N   UNL A   1      41.690  29.437  33.407  1.00  0.00    -0.354 N 
ATOM     55  N   UNL A   1      42.568  27.948  31.057  1.00  0.00    -0.248 NA
ATOM     56  C   UNL A   1      44.162  26.640  29.962  1.00  0.00     0.031 C 
ATOM     57  C   UNL A   1      42.890  29.288  35.270  1.00  0.00     0.029 A 
ATOM     58  C   UNL A   1      42.820  28.852  33.957  1.00  0.00     0.049 A 
ATOM     59  H   UNL A   1      41.385  29.312  32.479  1.00  0.00     0.167 HD
ATOM     60  C   UNL A   1      43.579  27.613  31.953  1.00  0.00     0.074 A 
ATOM     61  C   UNL A   1      44.512  26.772  31.235  1.00  0.00     0.031 C 
ATOM     62  C   UNL A   1      43.723  27.978  33.253  1.00  0.00     0.034 A 
BRANCH  49  63
ATOM     63  C   UNL A   1      39.358  31.875  35.234  1.00  0.00     0.023 A 
ATOM     64  C   UNL A   1      38.436  31.352  36.164  1.00  0.00     0.012 A 
ATOM     65  C   UNL A   1      39.829  33.193  35.398  1.00  0.00     0.148 A 
ATOM     66  C   UNL A   1      37.963  32.139  37.215  1.00  0.00     0.002 A 
ATOM     67  C   UNL A   1      39.390  33.955  36.474  1.00  0.00     0.091 A 
ATOM     68  F   UNL A   1      40.690  33.681  34.493  1.00  0.00    -0.205 F 
ATOM     69  C   UNL A   1      38.447  33.434  37.375  1.00  0.00     0.022 A 
BRANCH  67  70
ATOM     70  S   UNL A   1      40.016  35.604  36.812  1.00  0.00     0.127 S 
ATOM     71  O   UNL A   1      39.337  35.925  38.067  1.00  0.00    -0.237 OA
ATOM     72  O   UNL A   1      41.455  35.366  36.942  1.00  0.00    -0.237 OA
ATOM     73  O   UNL A   1      39.637  36.422  35.669  1.00  0.00    -0.744 OA
ENDBRANCH  67  70
ENDBRANCH  49  63
BRANCH  50  74
ATOM     74  C   UNL A   1      42.647  26.578  27.454  1.00  0.00     0.023 A 
ATOM     75  C   UNL A   1      43.506  27.209  26.535  1.00  0.00     0.012 A 
ATOM     76  C   UNL A   1      42.303  25.226  27.259  1.00  0.00     0.148 A 
ATOM     77  C   UNL A   1      43.993  26.515  25.426  1.00  0.00     0.002 A 
ATOM     78  C   UNL A   1      42.835  24.525  26.184  1.00  0.00     0.091 A 
ATOM     79  F   UNL A   1      41.466  24.651  28.135  1.00  0.00    -0.205 F 
ATOM     80  C   UNL A   1      43.667  25.172  25.257  1.00  0.00     0.022 A 
BRANCH  78  81
ATOM     81  S   UNL A   1      42.566  22.764  25.951  1.00  0.00     0.127 S 
ATOM     82  O   UNL A   1      43.287  22.200  27.090  1.00  0.00    -0.237 OA
ATOM     83  O   UNL A   1      41.109  22.670  26.036  1.00  0.00    -0.237 OA
ATOM     84  O   UNL A   1      43.118  22.449  24.641  1.00  0.00    -0.744 OA
ENDBRANCH  78  81
ENDBRANCH  50  74
BRANCH  62  85
ATOM     85  C   UNL A   1      44.911  27.438  34.010  1.00  0.00     0.023 A 
ATOM     86  C   UNL A   1      46.091  28.202  34.112  1.00  0.00     0.012 A 
ATOM     87  C   UNL A   1      44.829  26.204  34.686  1.00  0.00     0.148 A 
ATOM     88  C   UNL A   1      47.183  27.729  34.841  1.00  0.00     0.002 A 
ATOM     89  C   UNL A   1      45.901  25.762  35.453  1.00  0.00     0.091 A 
ATOM     90  F   UNL A   1      43.705  25.482  34.566  1.00  0.00    -0.205 F 
ATOM     91  C   UNL A   1      47.083  26.517  35.522  1.00  0.00     0.022 A 
BRANCH  89  92
ATOM     92  S   UNL A   1      45.829  24.264  36.443  1.00  0.00     0.127 S 
ATOM     93  O   UNL A   1      46.166  23.239  35.456  1.00  0.00    -0.237 OA
ATOM     94  O   UNL A   1      46.866  24.506  37.447  1.00  0.00    -0.237 OA
ATOM     95  O   UNL A   1      44.475  24.196  36.974  1.00  0.00    -0.744 OA
ENDBRANCH  89  92
ENDBRANCH  62  85
ENDBRANCH  36  37
ENDBRANCH  29  31
ENDBRANCH  28  29
ENDBRANCH  27  28
ENDBRANCH  26  27
ENDBRANCH   1  26
TORSDOF 20
ENDMDL
MODEL 3
REMARK VINA RESULT:     -11.3      1.333      2.142
REMARK SMILES Cc1ncccc1NC(=O)NC[C@H]1CCC[C@H]1C(=O)OCCOCCOC(=O)c1ccc(-c2c3nc(c(-c4cccc(S(=O)(=O)[O-])c4F)c4ccc([nH]4)c(-c4cccc(S(=O)(=O)[O-])c4F)c4nc(c(-c5cccc(S(=O)(=O)[O-])c5F)c5ccc2[nH]5)C=C4)C=C3)cc1
REMARK SMILES IDX 23 1 22 2 21 3 20 4 18 5 19 6 17 7 13 8 14 9 15 10 16 11
REMARK SMILES IDX 12 12 11 13 8 14 9 15 10 17 7 19 1 20 2 21 3 22 4 23 6 24
REMARK SMILES IDX 5 25 24 26 25 27 26 28 27 29 28 30 29 31 30 32 91 33 31 34
REMARK SMILES IDX 90 35 32 36 33 37 34 38 84 39 35 40 89 41 83 42 85 43 36 44
REMARK SMILES IDX 88 45 82 46 81 47 37 49 69 50 49 51 68 52 50 53 53 54 67 55
REMARK SMILES IDX 86 56 51 57 52 58 66 60 87 61 54 62 38 63 39 64 47 65 40 66
REMARK SMILES IDX 42 67 48 68 41 69 43 70 44 71 45 72 46 73 70 74 71 75 79 76
REMARK SMILES IDX 72 77 74 78 80 79 73 80 75 81 76 82 77 83 78 84 55 85 56 86
REMARK SMILES IDX 64 87 57 88 59 89 65 90 58 91 60 92 61 93 62 94 63 95
REMARK H PARENT 8 16 11 18 85 48 53 59
REMARK Flexibility Score: inf
ROOT
ATOM      1  O   UNL A   1      32.021  28.099  24.416  1.00  0.00    -0.374 OA
ENDROOT
BRANCH   1   2
ATOM      2  C   UNL A   1      32.759  26.989  24.933  1.00  0.00     0.202 C 
BRANCH   2   3
ATOM      3  C   UNL A   1      32.946  25.817  23.965  1.00  0.00     0.261 C 
BRANCH   3   4
ATOM      4  O   UNL A   1      33.767  24.802  24.578  1.00  0.00    -0.463 OA
BRANCH   4   5
ATOM      5  C   UNL A   1      34.538  24.058  23.753  1.00  0.00     0.309 C 
ATOM      6  O   UNL A   1      34.253  23.773  22.596  1.00  0.00    -0.252 OA
BRANCH   5   7
ATOM      7  C   UNL A   1      35.851  23.650  24.387  1.00  0.00     0.104 C 
ATOM      8  C   UNL A   1      35.855  23.118  25.834  1.00  0.00     0.022 C 
ATOM      9  C   UNL A   1      37.314  22.679  25.961  1.00  0.00     0.006 C 
ATOM     10  C   UNL A   1      37.684  22.083  24.605  1.00  0.00     0.001 C 
ATOM     11  C   UNL A   1      36.673  22.639  23.597  1.00  0.00     0.016 C 
BRANCH   8  12
ATOM     12  C   UNL A   1      34.836  22.031  26.225  1.00  0.00     0.122 C 
BRANCH  12  13
ATOM     13  N   UNL A   1      33.439  22.369  26.143  1.00  0.00    -0.338 N 
ATOM     14  N   UNL A   1      31.868  20.721  25.366  1.00  0.00    -0.306 N 
ATOM     15  C   UNL A   1      32.244  21.881  25.885  1.00  0.00     0.319 C 
ATOM     16  H   UNL A   1      30.888  20.721  25.270  1.00  0.00     0.171 HD
ATOM     17  O   UNL A   1      31.327  22.680  26.123  1.00  0.00    -0.249 OA
ATOM     18  H   UNL A   1      33.341  23.323  26.363  1.00  0.00     0.165 HD
BRANCH  14  19
ATOM     19  C   UNL A   1      32.365  19.490  24.902  1.00  0.00     0.064 A 
ATOM     20  C   UNL A   1      32.097  20.231  22.443  1.00  0.00     0.069 C 
ATOM     21  C   UNL A   1      32.487  19.252  23.516  1.00  0.00     0.061 A 
ATOM     22  N   UNL A   1      32.987  18.087  22.999  1.00  0.00    -0.259 NA
ATOM     23  C   UNL A   1      33.352  17.117  23.853  1.00  0.00     0.111 A 
ATOM     24  C   UNL A   1      32.730  18.436  25.723  1.00  0.00     0.030 A 
ATOM     25  C   UNL A   1      33.243  17.244  25.215  1.00  0.00     0.022 A 
ENDBRANCH  14  19
ENDBRANCH  12  13
ENDBRANCH   8  12
ENDBRANCH   5   7
ENDBRANCH   4   5
ENDBRANCH   3   4
ENDBRANCH   2   3
ENDBRANCH   1   2
BRANCH   1  26
ATOM     26  C   UNL A   1      31.565  29.068  25.357  1.00  0.00     0.202 C 
BRANCH  26  27
ATOM     27  C   UNL A   1      32.548  30.204  25.701  1.00  0.00     0.261 C 
BRANCH  27  28
ATOM     28  O   UNL A   1      32.512  30.592  27.088  1.00  0.00    -0.460 OA
BRANCH  28  29
ATOM     29  C   UNL A   1      33.283  31.668  27.392  1.00  0.00     0.338 C 
ATOM     30  O   UNL A   1      32.905  32.822  27.493  1.00  0.00    -0.246 OA
BRANCH  29  31
ATOM     31  C   UNL A   1      34.649  31.246  27.774  1.00  0.00     0.060 A 
ATOM     32  C   UNL A   1      34.836  29.886  28.051  1.00  0.00     0.016 A 
ATOM     33  C   UNL A   1      35.706  32.145  27.936  1.00  0.00     0.016 A 
ATOM     34  C   UNL A   1      36.052  29.431  28.560  1.00  0.00     0.010 A 
ATOM     35  C   UNL A   1      36.929  31.685  28.448  1.00  0.00     0.010 A 
ATOM     36  C   UNL A   1      37.093  30.334  28.808  1.00  0.00    -0.014 A 
BRANCH  36  37
ATOM     37  C   UNL A   1      38.285  29.874  29.571  1.00  0.00     0.031 A 
ATOM     38  C   UNL A   1      38.504  30.374  30.977  1.00  0.00     0.074 A 
ATOM     39  C   UNL A   1      39.144  28.982  29.042  1.00  0.00     0.049 A 
ATOM     40  N   UNL A   1      39.454  30.075  31.825  1.00  0.00    -0.248 NA
ATOM     41  C   UNL A   1      37.520  31.339  31.495  1.00  0.00     0.031 C 
ATOM     42  C   UNL A   1      39.049  28.412  27.701  1.00  0.00     0.029 A 
ATOM     43  N   UNL A   1      40.276  28.412  29.573  1.00  0.00    -0.354 N 
ATOM     44  C   UNL A   1      39.205  30.836  32.961  1.00  0.00     0.074 A 
ATOM     45  C   UNL A   1      38.020  31.622  32.689  1.00  0.00     0.031 C 
ATOM     46  C   UNL A   1      40.086  27.580  27.507  1.00  0.00     0.029 A 
ATOM     47  C   UNL A   1      40.935  27.581  28.697  1.00  0.00     0.049 A 
ATOM     48  H   UNL A   1      40.585  28.580  30.492  1.00  0.00     0.167 HD
ATOM     49  C   UNL A   1      39.888  30.872  34.131  1.00  0.00     0.034 A 
ATOM     50  C   UNL A   1      42.098  26.913  28.831  1.00  0.00     0.034 A 
ATOM     51  C   UNL A   1      41.054  30.078  34.414  1.00  0.00     0.049 A 
ATOM     52  C   UNL A   1      42.856  26.990  30.132  1.00  0.00     0.074 A 
ATOM     53  C   UNL A   1      41.778  30.003  35.593  1.00  0.00     0.029 A 
ATOM     54  N   UNL A   1      41.680  29.235  33.509  1.00  0.00    -0.354 N 
ATOM     55  N   UNL A   1      42.541  27.622  31.237  1.00  0.00    -0.248 NA
ATOM     56  C   UNL A   1      44.115  26.234  30.214  1.00  0.00     0.031 C 
ATOM     57  C   UNL A   1      42.867  29.151  35.385  1.00  0.00     0.029 A 
ATOM     58  C   UNL A   1      42.795  28.655  34.094  1.00  0.00     0.049 A 
ATOM     59  H   UNL A   1      41.377  29.073  32.587  1.00  0.00     0.167 HD
ATOM     60  C   UNL A   1      43.540  27.310  32.154  1.00  0.00     0.074 A 
ATOM     61  C   UNL A   1      44.461  26.418  31.482  1.00  0.00     0.031 C 
ATOM     62  C   UNL A   1      43.684  27.732  33.436  1.00  0.00     0.034 A 
BRANCH  49  63
ATOM     63  C   UNL A   1      39.386  31.801  35.207  1.00  0.00     0.023 A 
ATOM     64  C   UNL A   1      38.416  31.353  36.128  1.00  0.00     0.012 A 
ATOM     65  C   UNL A   1      39.913  33.101  35.339  1.00  0.00     0.148 A 
ATOM     66  C   UNL A   1      37.952  32.197  37.137  1.00  0.00     0.002 A 
ATOM     67  C   UNL A   1      39.481  33.918  36.376  1.00  0.00     0.091 A 
ATOM     68  F   UNL A   1      40.820  33.517  34.443  1.00  0.00    -0.205 F 
ATOM     69  C   UNL A   1      38.492  33.473  37.268  1.00  0.00     0.022 A 
BRANCH  67  70
ATOM     70  S   UNL A   1      40.174  35.549  36.676  1.00  0.00     0.127 S 
ATOM     71  O   UNL A   1      39.515  36.344  35.641  1.00  0.00    -0.237 OA
ATOM     72  O   UNL A   1      39.722  35.829  38.039  1.00  0.00    -0.237 OA
ATOM     73  O   UNL A   1      41.616  35.407  36.532  1.00  0.00    -0.744 OA
ENDBRANCH  67  70
ENDBRANCH  49  63
BRANCH  50  74
ATOM     74  C   UNL A   1      42.612  26.084  27.703  1.00  0.00     0.023 A 
ATOM     75  C   UNL A   1      43.565  26.623  26.819  1.00  0.00     0.012 A 
ATOM     76  C   UNL A   1      42.166  24.761  27.512  1.00  0.00     0.148 A 
ATOM     77  C   UNL A   1      44.047  25.869  25.747  1.00  0.00     0.002 A 
ATOM     78  C   UNL A   1      42.690  23.997  26.476  1.00  0.00     0.091 A 
ATOM     79  F   UNL A   1      41.243  24.275  28.353  1.00  0.00    -0.205 F 
ATOM     80  C   UNL A   1      43.618  24.555  25.582  1.00  0.00     0.022 A 
BRANCH  78  81
ATOM     81  S   UNL A   1      42.287  22.260  26.258  1.00  0.00     0.127 S 
ATOM     82  O   UNL A   1      43.094  21.912  25.090  1.00  0.00    -0.237 OA
ATOM     83  O   UNL A   1      42.750  21.684  27.520  1.00  0.00    -0.237 OA
ATOM     84  O   UNL A   1      40.845  22.209  26.063  1.00  0.00    -0.744 OA
ENDBRANCH  78  81
ENDBRANCH  50  74
BRANCH  62  85
ATOM     85  C   UNL A   1      44.859  27.206  34.225  1.00  0.00     0.023 A 
ATOM     86  C   UNL A   1      46.067  27.928  34.261  1.00  0.00     0.012 A 
ATOM     87  C   UNL A   1      44.736  26.031  34.994  1.00  0.00     0.148 A 
ATOM     88  C   UNL A   1      47.147  27.470  35.017  1.00  0.00     0.002 A 
ATOM     89  C   UNL A   1      45.796  25.608  35.786  1.00  0.00     0.091 A 
ATOM     90  F   UNL A   1      43.583  25.347  34.937  1.00  0.00    -0.205 F 
ATOM     91  C   UNL A   1      47.007  26.319  35.789  1.00  0.00     0.022 A 
BRANCH  89  92
ATOM     92  S   UNL A   1      45.677  24.194  36.888  1.00  0.00     0.127 S 
ATOM     93  O   UNL A   1      47.079  23.967  37.235  1.00  0.00    -0.237 OA
ATOM     94  O   UNL A   1      44.856  24.719  37.980  1.00  0.00    -0.237 OA
ATOM     95  O   UNL A   1      45.048  23.132  36.115  1.00  0.00    -0.744 OA
ENDBRANCH  89  92
ENDBRANCH  62  85
ENDBRANCH  36  37
ENDBRANCH  29  31
ENDBRANCH  28  29
ENDBRANCH  27  28
ENDBRANCH  26  27
ENDBRANCH   1  26
TORSDOF 20
ENDMDL
