MODEL 1
REMARK VINA RESULT:     -12.4      0.000      0.000
REMARK SMILES O=C(OCCOCCOC(=O)[C@@H]1CCn2c(C(=O)c3ccccc3)ccc21)c1ccc(-c2c3nc(c(-c4cccc(S(=O)(=O)[O-])c4F)c4ccc([nH]4)c(-c4cccc(S(=O)(=O)[O-])c4F)c4nc(c(-c5cccc(S(=O)(=O)[O-])c5F)c5ccc2[nH]5)C=C4)C=C3)cc1
REMARK SMILES IDX 5 1 4 2 3 3 2 4 1 5 28 6 29 7 90 8 30 9 89 10 31 11 32 12
REMARK SMILES IDX 33 13 83 14 34 15 88 16 82 17 84 18 35 19 87 20 81 21 80 22
REMARK SMILES IDX 36 24 68 25 48 26 67 27 49 28 52 29 66 30 85 31 50 32 51 33
REMARK SMILES IDX 65 35 86 36 53 37 37 38 38 39 46 40 39 41 41 42 47 43 40 44
REMARK SMILES IDX 42 45 43 46 44 47 45 48 69 49 70 50 78 51 71 52 73 53 79 54
REMARK SMILES IDX 72 55 74 56 75 57 76 58 77 59 54 60 55 61 63 62 56 63 58 64
REMARK SMILES IDX 64 65 57 66 59 67 60 68 61 69 62 70 6 71 7 72 8 73 9 74
REMARK SMILES IDX 10 75 11 76 12 77 13 78 27 79 14 80 15 81 26 82 16 83 25 84
REMARK SMILES IDX 17 85 18 86 19 87 20 88 24 89 21 90 23 91 22 92
REMARK H PARENT 84 23 52 34
REMARK Flexibility Score: inf
ROOT
ATOM      1  C   UNL A   1      31.919  30.067  25.895  1.00  0.00     0.202 C 
ENDROOT
BRANCH   1   2
ATOM      2  C   UNL A   1      31.717  31.241  26.862  1.00  0.00     0.261 C 
BRANCH   2   3
ATOM      3  O   UNL A   1      32.704  32.268  26.664  1.00  0.00    -0.460 OA
BRANCH   3   4
ATOM      4  C   UNL A   1      33.447  32.874  27.627  1.00  0.00     0.338 C 
ATOM      5  O   UNL A   1      33.041  33.919  28.128  1.00  0.00    -0.246 OA
BRANCH   4   6
ATOM      6  C   UNL A   1      34.732  32.293  28.106  1.00  0.00     0.060 A 
ATOM      7  C   UNL A   1      34.885  30.951  28.438  1.00  0.00     0.016 A 
ATOM      8  C   UNL A   1      35.855  33.125  28.188  1.00  0.00     0.016 A 
ATOM      9  C   UNL A   1      36.048  30.454  28.971  1.00  0.00     0.010 A 
ATOM     10  C   UNL A   1      37.072  32.615  28.654  1.00  0.00     0.010 A 
ATOM     11  C   UNL A   1      37.150  31.283  29.079  1.00  0.00    -0.014 A 
BRANCH  11  12
ATOM     12  C   UNL A   1      38.299  30.712  29.786  1.00  0.00     0.031 A 
ATOM     13  C   UNL A   1      38.435  31.010  31.244  1.00  0.00     0.074 A 
ATOM     14  C   UNL A   1      39.051  29.787  29.163  1.00  0.00     0.049 A 
ATOM     15  N   UNL A   1      39.346  30.609  32.082  1.00  0.00    -0.248 NA
ATOM     16  C   UNL A   1      37.391  31.861  31.845  1.00  0.00     0.031 C 
ATOM     17  C   UNL A   1      38.853  29.328  27.782  1.00  0.00     0.029 A 
ATOM     18  N   UNL A   1      40.097  29.036  29.615  1.00  0.00    -0.354 N 
ATOM     19  C   UNL A   1      39.034  31.222  33.287  1.00  0.00     0.074 A 
ATOM     20  C   UNL A   1      37.831  31.994  33.085  1.00  0.00     0.031 C 
ATOM     21  C   UNL A   1      39.740  28.361  27.509  1.00  0.00     0.029 A 
ATOM     22  C   UNL A   1      40.616  28.195  28.660  1.00  0.00     0.049 A 
ATOM     23  H   UNL A   1      40.447  29.092  30.533  1.00  0.00     0.167 HD
ATOM     24  C   UNL A   1      39.717  31.152  34.450  1.00  0.00     0.034 A 
ATOM     25  C   UNL A   1      41.708  27.413  28.712  1.00  0.00     0.034 A 
ATOM     26  C   UNL A   1      40.899  30.354  34.608  1.00  0.00     0.049 A 
ATOM     27  C   UNL A   1      42.486  27.407  29.999  1.00  0.00     0.074 A 
ATOM     28  C   UNL A   1      41.715  30.223  35.713  1.00  0.00     0.029 A 
ATOM     29  N   UNL A   1      41.436  29.551  33.608  1.00  0.00    -0.354 N 
ATOM     30  N   UNL A   1      42.211  28.015  31.129  1.00  0.00    -0.248 NA
ATOM     31  C   UNL A   1      43.712  26.604  30.026  1.00  0.00     0.031 C 
ATOM     32  C   UNL A   1      42.771  29.372  35.367  1.00  0.00     0.029 A 
ATOM     33  C   UNL A   1      42.581  28.929  34.064  1.00  0.00     0.049 A 
ATOM     34  H   UNL A   1      41.055  29.440  32.707  1.00  0.00     0.167 HD
ATOM     35  C   UNL A   1      43.206  27.638  32.018  1.00  0.00     0.074 A 
ATOM     36  C   UNL A   1      44.085  26.738  31.292  1.00  0.00     0.031 C 
ATOM     37  C   UNL A   1      43.391  28.002  33.312  1.00  0.00     0.034 A 
BRANCH  24  38
ATOM     38  C   UNL A   1      39.242  32.029  35.576  1.00  0.00     0.023 A 
ATOM     39  C   UNL A   1      39.619  33.386  35.646  1.00  0.00     0.012 A 
ATOM     40  C   UNL A   1      38.453  31.477  36.604  1.00  0.00     0.148 A 
ATOM     41  C   UNL A   1      39.258  34.164  36.747  1.00  0.00     0.002 A 
ATOM     42  C   UNL A   1      38.057  32.271  37.672  1.00  0.00     0.091 A 
ATOM     43  F   UNL A   1      38.137  30.176  36.538  1.00  0.00    -0.205 F 
ATOM     44  C   UNL A   1      38.473  33.609  37.756  1.00  0.00     0.022 A 
BRANCH  42  45
ATOM     45  S   UNL A   1      36.992  31.663  38.983  1.00  0.00     0.127 S 
ATOM     46  O   UNL A   1      37.819  31.894  40.166  1.00  0.00    -0.237 OA
ATOM     47  O   UNL A   1      35.831  32.545  38.868  1.00  0.00    -0.237 OA
ATOM     48  O   UNL A   1      36.727  30.265  38.671  1.00  0.00    -0.744 OA
ENDBRANCH  42  45
ENDBRANCH  24  38
BRANCH  25  49
ATOM     49  C   UNL A   1      42.122  26.605  27.531  1.00  0.00     0.023 A 
ATOM     50  C   UNL A   1      42.826  27.217  26.477  1.00  0.00     0.012 A 
ATOM     51  C   UNL A   1      41.838  25.226  27.453  1.00  0.00     0.148 A 
ATOM     52  C   UNL A   1      43.212  26.479  25.355  1.00  0.00     0.002 A 
ATOM     53  C   UNL A   1      42.272  24.485  26.360  1.00  0.00     0.091 A 
ATOM     54  F   UNL A   1      41.157  24.660  28.459  1.00  0.00    -0.205 F 
ATOM     55  C   UNL A   1      42.944  25.114  25.301  1.00  0.00     0.022 A 
BRANCH  53  56
ATOM     56  S   UNL A   1      42.071  22.703  26.258  1.00  0.00     0.127 S 
ATOM     57  O   UNL A   1      42.762  22.254  27.464  1.00  0.00    -0.237 OA
ATOM     58  O   UNL A   1      40.615  22.562  26.293  1.00  0.00    -0.237 OA
ATOM     59  O   UNL A   1      42.683  22.308  24.997  1.00  0.00    -0.744 OA
ENDBRANCH  53  56
ENDBRANCH  25  49
BRANCH  37  60
ATOM     60  C   UNL A   1      44.546  27.373  34.037  1.00  0.00     0.023 A 
ATOM     61  C   UNL A   1      45.795  28.020  34.085  1.00  0.00     0.012 A 
ATOM     62  C   UNL A   1      44.355  26.170  34.742  1.00  0.00     0.148 A 
ATOM     63  C   UNL A   1      46.850  27.457  34.797  1.00  0.00     0.002 A 
ATOM     64  C   UNL A   1      45.392  25.648  35.500  1.00  0.00     0.091 A 
ATOM     65  F   UNL A   1      43.162  25.562  34.662  1.00  0.00    -0.205 F 
ATOM     66  C   UNL A   1      46.645  26.281  35.517  1.00  0.00     0.022 A 
BRANCH  64  67
ATOM     67  S   UNL A   1      45.175  24.208  36.548  1.00  0.00     0.127 S 
ATOM     68  O   UNL A   1      46.556  23.884  36.899  1.00  0.00    -0.237 OA
ATOM     69  O   UNL A   1      44.374  24.743  37.649  1.00  0.00    -0.237 OA
ATOM     70  O   UNL A   1      44.486  23.216  35.731  1.00  0.00    -0.744 OA
ENDBRANCH  64  67
ENDBRANCH  37  60
ENDBRANCH  11  12
ENDBRANCH   4   6
ENDBRANCH   3   4
ENDBRANCH   2   3
ENDBRANCH   1   2
BRANCH   1  71
ATOM     71  O   UNL A   1      32.272  28.788  26.426  1.00  0.00    -0.374 OA
BRANCH  71  72
ATOM     72  C   UNL A   1      33.634  28.375  26.304  1.00  0.00     0.202 C 
BRANCH  72  73
ATOM     73  C   UNL A   1      33.704  26.869  26.052  1.00  0.00     0.261 C 
BRANCH  73  74
ATOM     74  O   UNL A   1      32.609  26.526  25.185  1.00  0.00    -0.463 OA
BRANCH  74  75
ATOM     75  C   UNL A   1      32.980  26.162  23.925  1.00  0.00     0.315 C 
ATOM     76  O   UNL A   1      33.908  25.399  23.669  1.00  0.00    -0.251 OA
BRANCH  75  77
ATOM     77  C   UNL A   1      32.115  26.850  22.876  1.00  0.00     0.148 C 
ATOM     78  C   UNL A   1      32.318  28.385  22.728  1.00  0.00     0.043 C 
ATOM     79  C   UNL A   1      30.662  26.778  23.222  1.00  0.00     0.033 A 
ATOM     80  C   UNL A   1      30.921  28.985  22.489  1.00  0.00     0.124 C 
ATOM     81  N   UNL A   1      30.011  27.948  22.945  1.00  0.00    -0.341 N 
ATOM     82  C   UNL A   1      29.774  25.923  23.818  1.00  0.00     0.025 A 
ATOM     83  C   UNL A   1      28.686  27.876  23.268  1.00  0.00     0.090 A 
ATOM     84  C   UNL A   1      28.536  26.616  23.855  1.00  0.00     0.032 A 
BRANCH  83  85
ATOM     85  C   UNL A   1      27.619  28.858  23.126  1.00  0.00     0.209 C 
ATOM     86  O   UNL A   1      26.446  28.605  23.398  1.00  0.00    -0.287 OA
BRANCH  85  87
ATOM     87  C   UNL A   1      27.891  30.231  22.640  1.00  0.00     0.024 A 
ATOM     88  C   UNL A   1      27.917  30.456  21.259  1.00  0.00     0.012 A 
ATOM     89  C   UNL A   1      28.165  31.281  23.522  1.00  0.00     0.012 A 
ATOM     90  C   UNL A   1      28.138  31.743  20.766  1.00  0.00     0.001 A 
ATOM     91  C   UNL A   1      28.360  32.571  23.027  1.00  0.00     0.001 A 
ATOM     92  C   UNL A   1      28.338  32.801  21.652  1.00  0.00     0.000 A 
ENDBRANCH  85  87
ENDBRANCH  83  85
ENDBRANCH  75  77
ENDBRANCH  74  75
ENDBRANCH  73  74
ENDBRANCH  72  73
ENDBRANCH  71  72
ENDBRANCH   1  71
TORSDOF 19
ENDMDL
MODEL 2
REMARK VINA RESULT:     -12.2      2.523      4.464
REMARK SMILES O=C(OCCOCCOC(=O)[C@@H]1CCn2c(C(=O)c3ccccc3)ccc21)c1ccc(-c2c3nc(c(-c4cccc(S(=O)(=O)[O-])c4F)c4ccc([nH]4)c(-c4cccc(S(=O)(=O)[O-])c4F)c4nc(c(-c5cccc(S(=O)(=O)[O-])c5F)c5ccc2[nH]5)C=C4)C=C3)cc1
REMARK SMILES IDX 5 1 4 2 3 3 2 4 1 5 28 6 29 7 90 8 30 9 89 10 31 11 32 12
REMARK SMILES IDX 33 13 83 14 34 15 88 16 82 17 84 18 35 19 87 20 81 21 80 22
REMARK SMILES IDX 36 24 68 25 48 26 67 27 49 28 52 29 66 30 85 31 50 32 51 33
REMARK SMILES IDX 65 35 86 36 53 37 37 38 38 39 46 40 39 41 41 42 47 43 40 44
REMARK SMILES IDX 42 45 43 46 44 47 45 48 69 49 70 50 78 51 71 52 73 53 79 54
REMARK SMILES IDX 72 55 74 56 75 57 76 58 77 59 54 60 55 61 63 62 56 63 58 64
REMARK SMILES IDX 64 65 57 66 59 67 60 68 61 69 62 70 6 71 7 72 8 73 9 74
REMARK SMILES IDX 10 75 11 76 12 77 13 78 27 79 14 80 15 81 26 82 16 83 25 84
REMARK SMILES IDX 17 85 18 86 19 87 20 88 24 89 21 90 23 91 22 92
REMARK H PARENT 84 23 52 34
REMARK Flexibility Score: inf
ROOT
ATOM      1  C   UNL A   1      31.739  30.473  25.644  1.00  0.00     0.202 C 
ENDROOT
BRANCH   1   2
ATOM      2  C   UNL A   1      31.674  31.344  26.905  1.00  0.00     0.261 C 
BRANCH   2   3
ATOM      3  O   UNL A   1      32.442  32.551  26.758  1.00  0.00    -0.460 OA
BRANCH   3   4
ATOM      4  C   UNL A   1      33.210  33.144  27.708  1.00  0.00     0.338 C 
ATOM      5  O   UNL A   1      32.839  34.204  28.204  1.00  0.00    -0.246 OA
BRANCH   4   6
ATOM      6  C   UNL A   1      34.484  32.532  28.180  1.00  0.00     0.060 A 
ATOM      7  C   UNL A   1      34.585  31.208  28.596  1.00  0.00     0.016 A 
ATOM      8  C   UNL A   1      35.647  33.310  28.168  1.00  0.00     0.016 A 
ATOM      9  C   UNL A   1      35.742  30.690  29.120  1.00  0.00     0.010 A 
ATOM     10  C   UNL A   1      36.856  32.772  28.624  1.00  0.00     0.010 A 
ATOM     11  C   UNL A   1      36.886  31.468  29.134  1.00  0.00    -0.014 A 
BRANCH  11  12
ATOM     12  C   UNL A   1      38.032  30.887  29.838  1.00  0.00     0.031 A 
ATOM     13  C   UNL A   1      38.161  31.162  31.301  1.00  0.00     0.074 A 
ATOM     14  C   UNL A   1      38.789  29.974  29.203  1.00  0.00     0.049 A 
ATOM     15  N   UNL A   1      39.067  30.748  32.137  1.00  0.00    -0.248 NA
ATOM     16  C   UNL A   1      37.112  32.001  31.910  1.00  0.00     0.031 C 
ATOM     17  C   UNL A   1      38.599  29.537  27.814  1.00  0.00     0.029 A 
ATOM     18  N   UNL A   1      39.834  29.217  29.649  1.00  0.00    -0.354 N 
ATOM     19  C   UNL A   1      38.749  31.341  33.351  1.00  0.00     0.074 A 
ATOM     20  C   UNL A   1      37.546  32.115  33.154  1.00  0.00     0.031 C 
ATOM     21  C   UNL A   1      39.489  28.576  27.530  1.00  0.00     0.029 A 
ATOM     22  C   UNL A   1      40.360  28.393  28.682  1.00  0.00     0.049 A 
ATOM     23  H   UNL A   1      40.179  29.259  30.569  1.00  0.00     0.167 HD
ATOM     24  C   UNL A   1      39.426  31.254  34.516  1.00  0.00     0.034 A 
ATOM     25  C   UNL A   1      41.453  27.612  28.728  1.00  0.00     0.034 A 
ATOM     26  C   UNL A   1      40.608  30.455  34.666  1.00  0.00     0.049 A 
ATOM     27  C   UNL A   1      42.224  27.586  30.018  1.00  0.00     0.074 A 
ATOM     28  C   UNL A   1      41.419  30.307  35.773  1.00  0.00     0.029 A 
ATOM     29  N   UNL A   1      41.152  29.669  33.657  1.00  0.00    -0.354 N 
ATOM     30  N   UNL A   1      41.942  28.175  31.157  1.00  0.00    -0.248 NA
ATOM     31  C   UNL A   1      43.451  26.785  30.039  1.00  0.00     0.031 C 
ATOM     32  C   UNL A   1      42.478  29.464  35.419  1.00  0.00     0.029 A 
ATOM     33  C   UNL A   1      42.296  29.042  34.108  1.00  0.00     0.049 A 
ATOM     34  H   UNL A   1      40.776  29.572  32.752  1.00  0.00     0.167 HD
ATOM     35  C   UNL A   1      42.934  27.786  32.045  1.00  0.00     0.074 A 
ATOM     36  C   UNL A   1      43.817  26.899  31.308  1.00  0.00     0.031 C 
ATOM     37  C   UNL A   1      43.111  28.129  33.345  1.00  0.00     0.034 A 
BRANCH  24  38
ATOM     38  C   UNL A   1      38.943  32.111  35.653  1.00  0.00     0.023 A 
ATOM     39  C   UNL A   1      39.284  33.477  35.726  1.00  0.00     0.012 A 
ATOM     40  C   UNL A   1      38.185  31.532  36.689  1.00  0.00     0.148 A 
ATOM     41  C   UNL A   1      38.919  34.240  36.836  1.00  0.00     0.002 A 
ATOM     42  C   UNL A   1      37.783  32.310  37.767  1.00  0.00     0.091 A 
ATOM     43  F   UNL A   1      37.903  30.223  36.621  1.00  0.00    -0.205 F 
ATOM     44  C   UNL A   1      38.164  33.658  37.853  1.00  0.00     0.022 A 
BRANCH  42  45
ATOM     45  S   UNL A   1      36.754  31.666  39.090  1.00  0.00     0.127 S 
ATOM     46  O   UNL A   1      35.513  32.412  38.889  1.00  0.00    -0.237 OA
ATOM     47  O   UNL A   1      36.674  30.245  38.750  1.00  0.00    -0.237 OA
ATOM     48  O   UNL A   1      37.462  31.956  40.329  1.00  0.00    -0.744 OA
ENDBRANCH  42  45
ENDBRANCH  24  38
BRANCH  25  49
ATOM     49  C   UNL A   1      41.874  26.824  27.535  1.00  0.00     0.023 A 
ATOM     50  C   UNL A   1      42.482  27.475  26.446  1.00  0.00     0.012 A 
ATOM     51  C   UNL A   1      41.693  25.427  27.482  1.00  0.00     0.148 A 
ATOM     52  C   UNL A   1      42.873  26.756  25.314  1.00  0.00     0.002 A 
ATOM     53  C   UNL A   1      42.134  24.708  26.377  1.00  0.00     0.091 A 
ATOM     54  F   UNL A   1      41.102  24.822  28.523  1.00  0.00    -0.205 F 
ATOM     55  C   UNL A   1      42.708  25.374  25.283  1.00  0.00     0.022 A 
BRANCH  53  56
ATOM     56  S   UNL A   1      42.065  22.915  26.298  1.00  0.00     0.127 S 
ATOM     57  O   UNL A   1      42.840  22.534  27.476  1.00  0.00    -0.237 OA
ATOM     58  O   UNL A   1      40.626  22.664  26.399  1.00  0.00    -0.237 OA
ATOM     59  O   UNL A   1      42.649  22.552  25.014  1.00  0.00    -0.744 OA
ENDBRANCH  53  56
ENDBRANCH  25  49
BRANCH  37  60
ATOM     60  C   UNL A   1      44.263  27.490  34.066  1.00  0.00     0.023 A 
ATOM     61  C   UNL A   1      45.524  28.116  34.089  1.00  0.00     0.012 A 
ATOM     62  C   UNL A   1      44.060  26.300  34.790  1.00  0.00     0.148 A 
ATOM     63  C   UNL A   1      46.578  27.545  34.798  1.00  0.00     0.002 A 
ATOM     64  C   UNL A   1      45.096  25.771  35.543  1.00  0.00     0.091 A 
ATOM     65  F   UNL A   1      42.855  25.712  34.732  1.00  0.00    -0.205 F 
ATOM     66  C   UNL A   1      46.361  26.382  35.537  1.00  0.00     0.022 A 
BRANCH  64  67
ATOM     67  S   UNL A   1      44.867  24.350  36.615  1.00  0.00     0.127 S 
ATOM     68  O   UNL A   1      46.203  24.189  37.186  1.00  0.00    -0.237 OA
ATOM     69  O   UNL A   1      43.855  24.831  37.555  1.00  0.00    -0.237 OA
ATOM     70  O   UNL A   1      44.419  23.265  35.752  1.00  0.00    -0.744 OA
ENDBRANCH  64  67
ENDBRANCH  37  60
ENDBRANCH  11  12
ENDBRANCH   4   6
ENDBRANCH   3   4
ENDBRANCH   2   3
ENDBRANCH   1   2
BRANCH   1  71
ATOM     71  O   UNL A   1      32.224  29.134  25.753  1.00  0.00    -0.374 OA
BRANCH  71  72
ATOM     72  C   UNL A   1      33.336  28.765  24.935  1.00  0.00     0.202 C 
BRANCH  72  73
ATOM     73  C   UNL A   1      33.328  27.256  24.691  1.00  0.00     0.261 C 
BRANCH  73  74
ATOM     74  O   UNL A   1      32.442  27.002  23.587  1.00  0.00    -0.463 OA
BRANCH  74  75
ATOM     75  C   UNL A   1      33.026  26.378  22.526  1.00  0.00     0.315 C 
ATOM     76  O   UNL A   1      33.852  26.901  21.783  1.00  0.00    -0.251 OA
BRANCH  75  77
ATOM     77  C   UNL A   1      32.498  24.958  22.363  1.00  0.00     0.148 C 
ATOM     78  C   UNL A   1      31.179  24.633  23.121  1.00  0.00     0.043 C 
ATOM     79  C   UNL A   1      33.431  23.949  22.952  1.00  0.00     0.033 A 
ATOM     80  C   UNL A   1      31.329  23.197  23.655  1.00  0.00     0.124 C 
ATOM     81  N   UNL A   1      32.761  22.954  23.610  1.00  0.00    -0.341 N 
ATOM     82  C   UNL A   1      34.774  23.743  23.117  1.00  0.00     0.025 A 
ATOM     83  C   UNL A   1      33.620  22.040  24.150  1.00  0.00     0.090 A 
ATOM     84  C   UNL A   1      34.892  22.550  23.877  1.00  0.00     0.032 A 
BRANCH  83  85
ATOM     85  C   UNL A   1      33.358  20.820  24.902  1.00  0.00     0.209 C 
ATOM     86  O   UNL A   1      33.050  20.832  26.094  1.00  0.00    -0.287 OA
BRANCH  85  87
ATOM     87  C   UNL A   1      33.447  19.484  24.268  1.00  0.00     0.024 A 
ATOM     88  C   UNL A   1      34.512  18.648  24.625  1.00  0.00     0.012 A 
ATOM     89  C   UNL A   1      32.529  19.068  23.300  1.00  0.00     0.012 A 
ATOM     90  C   UNL A   1      34.611  17.371  24.071  1.00  0.00     0.001 A 
ATOM     91  C   UNL A   1      32.615  17.781  22.768  1.00  0.00     0.001 A 
ATOM     92  C   UNL A   1      33.650  16.932  23.160  1.00  0.00     0.000 A 
ENDBRANCH  85  87
ENDBRANCH  83  85
ENDBRANCH  75  77
ENDBRANCH  74  75
ENDBRANCH  73  74
ENDBRANCH  72  73
ENDBRANCH  71  72
ENDBRANCH   1  71
TORSDOF 19
ENDMDL
MODEL 3
REMARK VINA RESULT:     -11.9      5.247     10.239
REMARK SMILES O=C(OCCOCCOC(=O)[C@@H]1CCn2c(C(=O)c3ccccc3)ccc21)c1ccc(-c2c3nc(c(-c4cccc(S(=O)(=O)[O-])c4F)c4ccc([nH]4)c(-c4cccc(S(=O)(=O)[O-])c4F)c4nc(c(-c5cccc(S(=O)(=O)[O-])c5F)c5ccc2[nH]5)C=C4)C=C3)cc1
REMARK SMILES IDX 5 1 4 2 3 3 2 4 1 5 28 6 29 7 90 8 30 9 89 10 31 11 32 12
REMARK SMILES IDX 33 13 83 14 34 15 88 16 82 17 84 18 35 19 87 20 81 21 80 22
REMARK SMILES IDX 36 24 68 25 48 26 67 27 49 28 52 29 66 30 85 31 50 32 51 33
REMARK SMILES IDX 65 35 86 36 53 37 37 38 38 39 46 40 39 41 41 42 47 43 40 44
REMARK SMILES IDX 42 45 43 46 44 47 45 48 69 49 70 50 78 51 71 52 73 53 79 54
REMARK SMILES IDX 72 55 74 56 75 57 76 58 77 59 54 60 55 61 63 62 56 63 58 64
REMARK SMILES IDX 64 65 57 66 59 67 60 68 61 69 62 70 6 71 7 72 8 73 9 74
REMARK SMILES IDX 10 75 11 76 12 77 13 78 27 79 14 80 15 81 26 82 16 83 25 84
REMARK SMILES IDX 17 85 18 86 19 87 20 88 24 89 21 90 23 91 22 92
REMARK H PARENT 84 23 52 34
REMARK Flexibility Score: inf
ROOT
ATOM      1  C   UNL A   1      36.957  21.197  24.644  1.00  0.00     0.202 C 
ENDROOT
BRANCH   1   2
ATOM      2  C   UNL A   1      38.019  20.112  24.867  1.00  0.00     0.261 C 
BRANCH   2   3
ATOM      3  O   UNL A   1      38.669  20.258  26.141  1.00  0.00    -0.460 OA
BRANCH   3   4
ATOM      4  C   UNL A   1      39.969  20.587  26.356  1.00  0.00     0.338 C 
ATOM      5  O   UNL A   1      40.845  19.764  26.104  1.00  0.00    -0.246 OA
BRANCH   4   6
ATOM      6  C   UNL A   1      40.363  21.929  26.868  1.00  0.00     0.060 A 
ATOM      7  C   UNL A   1      39.825  23.118  26.385  1.00  0.00     0.016 A 
ATOM      8  C   UNL A   1      41.289  22.002  27.915  1.00  0.00     0.016 A 
ATOM      9  C   UNL A   1      40.271  24.347  26.799  1.00  0.00     0.010 A 
ATOM     10  C   UNL A   1      41.696  23.248  28.406  1.00  0.00     0.010 A 
ATOM     11  C   UNL A   1      41.207  24.420  27.815  1.00  0.00    -0.014 A 
BRANCH  11  12
ATOM     12  C   UNL A   1      41.729  25.760  28.094  1.00  0.00     0.031 A 
ATOM     13  C   UNL A   1      43.058  26.122  27.516  1.00  0.00     0.074 A 
ATOM     14  C   UNL A   1      40.916  26.667  28.665  1.00  0.00     0.049 A 
ATOM     15  N   UNL A   1      43.715  27.242  27.605  1.00  0.00    -0.248 NA
ATOM     16  C   UNL A   1      43.731  25.088  26.709  1.00  0.00     0.031 C 
ATOM     17  C   UNL A   1      39.536  26.412  29.097  1.00  0.00     0.029 A 
ATOM     18  N   UNL A   1      41.110  27.990  28.940  1.00  0.00    -0.354 N 
ATOM     19  C   UNL A   1      44.912  27.022  26.938  1.00  0.00     0.074 A 
ATOM     20  C   UNL A   1      44.879  25.676  26.418  1.00  0.00     0.031 C 
ATOM     21  C   UNL A   1      39.005  27.550  29.565  1.00  0.00     0.029 A 
ATOM     22  C   UNL A   1      40.029  28.584  29.545  1.00  0.00     0.049 A 
ATOM     23  H   UNL A   1      41.942  28.471  28.727  1.00  0.00     0.167 HD
ATOM     24  C   UNL A   1      45.949  27.876  26.800  1.00  0.00     0.034 A 
ATOM     25  C   UNL A   1      39.910  29.821  30.060  1.00  0.00     0.034 A 
ATOM     26  C   UNL A   1      45.925  29.214  27.320  1.00  0.00     0.049 A 
ATOM     27  C   UNL A   1      41.104  30.727  29.948  1.00  0.00     0.074 A 
ATOM     28  C   UNL A   1      46.918  30.172  27.291  1.00  0.00     0.029 A 
ATOM     29  N   UNL A   1      44.837  29.776  27.976  1.00  0.00    -0.354 N 
ATOM     30  N   UNL A   1      42.251  30.508  29.349  1.00  0.00    -0.248 NA
ATOM     31  C   UNL A   1      40.990  32.049  30.571  1.00  0.00     0.031 C 
ATOM     32  C   UNL A   1      46.444  31.300  27.969  1.00  0.00     0.029 A 
ATOM     33  C   UNL A   1      45.135  31.065  28.370  1.00  0.00     0.049 A 
ATOM     34  H   UNL A   1      43.978  29.322  28.136  1.00  0.00     0.167 HD
ATOM     35  C   UNL A   1      42.984  31.677  29.484  1.00  0.00     0.074 A 
ATOM     36  C   UNL A   1      42.140  32.606  30.216  1.00  0.00     0.031 C 
ATOM     37  C   UNL A   1      44.238  31.964  29.055  1.00  0.00     0.034 A 
BRANCH  24  38
ATOM     38  C   UNL A   1      47.193  27.340  26.149  1.00  0.00     0.023 A 
ATOM     39  C   UNL A   1      47.381  27.438  24.755  1.00  0.00     0.012 A 
ATOM     40  C   UNL A   1      48.161  26.682  26.932  1.00  0.00     0.148 A 
ATOM     41  C   UNL A   1      48.490  26.847  24.147  1.00  0.00     0.002 A 
ATOM     42  C   UNL A   1      49.287  26.139  26.325  1.00  0.00     0.091 A 
ATOM     43  F   UNL A   1      47.946  26.566  28.250  1.00  0.00    -0.205 F 
ATOM     44  C   UNL A   1      49.444  26.204  24.932  1.00  0.00     0.022 A 
BRANCH  42  45
ATOM     45  S   UNL A   1      50.600  25.350  27.261  1.00  0.00     0.127 S 
ATOM     46  O   UNL A   1      51.531  24.970  26.200  1.00  0.00    -0.237 OA
ATOM     47  O   UNL A   1      51.063  26.442  28.117  1.00  0.00    -0.237 OA
ATOM     48  O   UNL A   1      49.979  24.241  27.972  1.00  0.00    -0.744 OA
ENDBRANCH  42  45
ENDBRANCH  24  38
BRANCH  25  49
ATOM     49  C   UNL A   1      38.645  30.251  30.719  1.00  0.00     0.023 A 
ATOM     50  C   UNL A   1      38.432  29.959  32.080  1.00  0.00     0.012 A 
ATOM     51  C   UNL A   1      37.658  30.967  30.011  1.00  0.00     0.148 A 
ATOM     52  C   UNL A   1      37.247  30.343  32.713  1.00  0.00     0.002 A 
ATOM     53  C   UNL A   1      36.506  31.395  30.661  1.00  0.00     0.091 A 
ATOM     54  F   UNL A   1      37.871  31.228  28.713  1.00  0.00    -0.205 F 
ATOM     55  C   UNL A   1      36.290  31.068  32.008  1.00  0.00     0.022 A 
BRANCH  53  56
ATOM     56  S   UNL A   1      35.273  32.430  29.863  1.00  0.00     0.127 S 
ATOM     57  O   UNL A   1      34.774  31.544  28.814  1.00  0.00    -0.237 OA
ATOM     58  O   UNL A   1      34.335  32.678  30.958  1.00  0.00    -0.237 OA
ATOM     59  O   UNL A   1      35.987  33.613  29.403  1.00  0.00    -0.744 OA
ENDBRANCH  53  56
ENDBRANCH  25  49
BRANCH  37  60
ATOM     60  C   UNL A   1      44.741  33.356  29.307  1.00  0.00     0.023 A 
ATOM     61  C   UNL A   1      45.441  33.656  30.492  1.00  0.00     0.012 A 
ATOM     62  C   UNL A   1      44.584  34.345  28.318  1.00  0.00     0.148 A 
ATOM     63  C   UNL A   1      45.948  34.936  30.702  1.00  0.00     0.002 A 
ATOM     64  C   UNL A   1      45.145  35.599  28.508  1.00  0.00     0.091 A 
ATOM     65  F   UNL A   1      43.894  34.039  27.210  1.00  0.00    -0.205 F 
ATOM     66  C   UNL A   1      45.813  35.902  29.705  1.00  0.00     0.022 A 
BRANCH  64  67
ATOM     67  S   UNL A   1      45.122  36.856  27.228  1.00  0.00     0.127 S 
ATOM     68  O   UNL A   1      45.685  38.007  27.932  1.00  0.00    -0.237 OA
ATOM     69  O   UNL A   1      45.996  36.277  26.209  1.00  0.00    -0.237 OA
ATOM     70  O   UNL A   1      43.729  36.990  26.822  1.00  0.00    -0.744 OA
ENDBRANCH  64  67
ENDBRANCH  37  60
ENDBRANCH  11  12
ENDBRANCH   4   6
ENDBRANCH   3   4
ENDBRANCH   2   3
ENDBRANCH   1   2
BRANCH   1  71
ATOM     71  O   UNL A   1      36.586  22.036  25.739  1.00  0.00    -0.374 OA
BRANCH  71  72
ATOM     72  C   UNL A   1      35.298  21.831  26.323  1.00  0.00     0.202 C 
BRANCH  72  73
ATOM     73  C   UNL A   1      34.444  20.951  25.410  1.00  0.00     0.261 C 
BRANCH  73  74
ATOM     74  O   UNL A   1      33.318  21.738  24.983  1.00  0.00    -0.463 OA
BRANCH  74  75
ATOM     75  C   UNL A   1      32.866  21.445  23.731  1.00  0.00     0.315 C 
ATOM     76  O   UNL A   1      32.495  20.331  23.372  1.00  0.00    -0.251 OA
BRANCH  75  77
ATOM     77  C   UNL A   1      32.912  22.671  22.829  1.00  0.00     0.148 C 
ATOM     78  C   UNL A   1      34.209  23.527  22.910  1.00  0.00     0.043 C 
ATOM     79  C   UNL A   1      31.873  23.677  23.206  1.00  0.00     0.033 A 
ATOM     80  C   UNL A   1      33.764  24.997  22.810  1.00  0.00     0.124 C 
ATOM     81  N   UNL A   1      32.348  24.958  23.132  1.00  0.00    -0.341 N 
ATOM     82  C   UNL A   1      30.594  23.722  23.693  1.00  0.00     0.025 A 
ATOM     83  C   UNL A   1      31.394  25.870  23.483  1.00  0.00     0.090 A 
ATOM     84  C   UNL A   1      30.298  25.097  23.876  1.00  0.00     0.032 A 
BRANCH  83  85
ATOM     85  C   UNL A   1      31.443  27.325  23.527  1.00  0.00     0.209 C 
ATOM     86  O   UNL A   1      31.325  28.021  22.519  1.00  0.00    -0.287 OA
BRANCH  85  87
ATOM     87  C   UNL A   1      31.641  28.056  24.801  1.00  0.00     0.024 A 
ATOM     88  C   UNL A   1      32.096  29.378  24.746  1.00  0.00     0.012 A 
ATOM     89  C   UNL A   1      31.429  27.443  26.039  1.00  0.00     0.012 A 
ATOM     90  C   UNL A   1      32.263  30.108  25.924  1.00  0.00     0.001 A 
ATOM     91  C   UNL A   1      31.572  28.182  27.213  1.00  0.00     0.001 A 
ATOM     92  C   UNL A   1      31.980  29.514  27.154  1.00  0.00     0.000 A 
ENDBRANCH  85  87
ENDBRANCH  83  85
ENDBRANCH  75  77
ENDBRANCH  74  75
ENDBRANCH  73  74
ENDBRANCH  72  73
ENDBRANCH  71  72
ENDBRANCH   1  71
TORSDOF 19
ENDMDL
