MODEL 1
REMARK VINA RESULT:     -12.4      0.000      0.000
REMARK SMILES O=C(COc1ccccc1/C=C1\C(=O)Nc2ccccc21)OCCOCCOC(=O)c1ccc(-c2c3nc(c(-c4cccc(S(=O)(=O)[O-])c4F)c4ccc([nH]4)c(-c4cccc(S(=O)(=O)[O-])c4F)c4nc(c(-c5cccc(S(=O)(=O)[O-])c5F)c5ccc2[nH]5)C=C4)C=C3)cc1
REMARK SMILES IDX 25 1 24 2 23 3 22 4 2 5 1 6 3 7 4 8 5 9 6 10 10 11 7 12 9 13
REMARK SMILES IDX 8 14 11 15 12 16 13 17 21 18 14 19 15 20 16 21 20 22 17 24
REMARK SMILES IDX 19 25 18 26 26 27 27 28 28 29 29 30 30 31 31 32 32 33 93 34
REMARK SMILES IDX 33 35 92 36 34 37 35 38 36 39 86 40 37 41 91 42 85 43 87 44
REMARK SMILES IDX 38 45 90 46 84 47 83 48 39 50 71 51 51 52 70 53 52 54 55 55
REMARK SMILES IDX 69 56 88 57 53 58 54 59 68 61 89 62 56 63 40 64 41 65 49 66
REMARK SMILES IDX 42 67 44 68 50 69 43 70 45 71 46 72 47 73 48 74 72 75 73 76
REMARK SMILES IDX 81 77 74 78 76 79 82 80 75 81 77 82 78 83 79 84 80 85 57 86
REMARK SMILES IDX 58 87 66 88 59 89 61 90 67 91 60 92 62 93 63 94 64 95 65 96
REMARK H PARENT 15 23 87 49 55 60
REMARK Flexibility Score: inf
ROOT
ATOM      1  O   UNL A   1      31.414  29.154  23.536  1.00  0.00    -0.374 OA
ENDROOT
BRANCH   1   2
ATOM      2  C   UNL A   1      32.200  28.574  22.505  1.00  0.00     0.202 C 
BRANCH   2   3
ATOM      3  C   UNL A   1      33.443  27.759  22.879  1.00  0.00     0.261 C 
BRANCH   3   4
ATOM      4  O   UNL A   1      33.785  26.720  21.945  1.00  0.00    -0.461 OA
BRANCH   4   5
ATOM      5  C   UNL A   1      32.958  25.824  21.364  1.00  0.00     0.344 C 
ATOM      6  O   UNL A   1      32.904  25.780  20.132  1.00  0.00    -0.248 OA
BRANCH   5   7
ATOM      7  C   UNL A   1      32.019  24.945  22.187  1.00  0.00     0.351 C 
BRANCH   7   8
ATOM      8  O   UNL A   1      32.480  24.166  23.258  1.00  0.00    -0.481 OA
BRANCH   8   9
ATOM      9  C   UNL A   1      31.681  23.919  24.338  1.00  0.00     0.127 A 
ATOM     10  C   UNL A   1      31.259  25.123  24.931  1.00  0.00     0.047 A 
ATOM     11  C   UNL A   1      31.373  22.684  24.944  1.00  0.00     0.017 A 
ATOM     12  C   UNL A   1      30.540  25.131  26.119  1.00  0.00     0.004 A 
ATOM     13  C   UNL A   1      30.715  22.728  26.187  1.00  0.00     0.012 A 
ATOM     14  C   UNL A   1      30.282  23.929  26.758  1.00  0.00     0.001 A 
BRANCH  11  15
ATOM     15  C   UNL A   1      31.793  21.366  24.423  1.00  0.00     0.026 C 
ATOM     16  C   UNL A   1      32.900  20.655  24.706  1.00  0.00     0.050 C 
ATOM     17  C   UNL A   1      34.082  21.034  25.579  1.00  0.00     0.256 C 
ATOM     18  C   UNL A   1      33.209  19.318  24.161  1.00  0.00     0.011 A 
ATOM     19  O   UNL A   1      34.223  21.998  26.304  1.00  0.00    -0.269 OA
ATOM     20  N   UNL A   1      35.006  20.017  25.400  1.00  0.00    -0.321 N 
ATOM     21  C   UNL A   1      34.498  19.001  24.600  1.00  0.00     0.049 A 
ATOM     22  C   UNL A   1      32.489  18.395  23.421  1.00  0.00     0.011 A 
ATOM     23  H   UNL A   1      35.910  20.016  25.790  1.00  0.00     0.170 HD
ATOM     24  C   UNL A   1      35.123  17.806  24.301  1.00  0.00     0.027 A 
ATOM     25  C   UNL A   1      33.092  17.165  23.127  1.00  0.00     0.001 A 
ATOM     26  C   UNL A   1      34.400  16.876  23.556  1.00  0.00     0.002 A 
ENDBRANCH  11  15
ENDBRANCH   8   9
ENDBRANCH   7   8
ENDBRANCH   5   7
ENDBRANCH   4   5
ENDBRANCH   3   4
ENDBRANCH   2   3
ENDBRANCH   1   2
BRANCH   1  27
ATOM     27  C   UNL A   1      31.960  29.291  24.843  1.00  0.00     0.202 C 
BRANCH  27  28
ATOM     28  C   UNL A   1      31.642  30.502  25.738  1.00  0.00     0.261 C 
BRANCH  28  29
ATOM     29  O   UNL A   1      32.309  30.541  27.006  1.00  0.00    -0.460 OA
BRANCH  29  30
ATOM     30  C   UNL A   1      32.991  31.687  27.252  1.00  0.00     0.338 C 
ATOM     31  O   UNL A   1      32.565  32.827  27.198  1.00  0.00    -0.246 OA
BRANCH  30  32
ATOM     32  C   UNL A   1      34.333  31.364  27.765  1.00  0.00     0.060 A 
ATOM     33  C   UNL A   1      34.622  30.029  28.079  1.00  0.00     0.016 A 
ATOM     34  C   UNL A   1      35.259  32.376  28.019  1.00  0.00     0.016 A 
ATOM     35  C   UNL A   1      35.842  29.704  28.670  1.00  0.00     0.010 A 
ATOM     36  C   UNL A   1      36.473  32.048  28.626  1.00  0.00     0.010 A 
ATOM     37  C   UNL A   1      36.759  30.717  28.974  1.00  0.00    -0.014 A 
BRANCH  37  38
ATOM     38  C   UNL A   1      37.986  30.406  29.744  1.00  0.00     0.031 A 
ATOM     39  C   UNL A   1      38.974  29.425  29.183  1.00  0.00     0.074 A 
ATOM     40  C   UNL A   1      38.178  30.959  30.954  1.00  0.00     0.049 A 
ATOM     41  N   UNL A   1      40.063  28.949  29.725  1.00  0.00    -0.248 NA
ATOM     42  C   UNL A   1      38.697  28.904  27.831  1.00  0.00     0.031 C 
ATOM     43  C   UNL A   1      37.277  31.915  31.598  1.00  0.00     0.029 A 
ATOM     44  N   UNL A   1      39.173  30.759  31.878  1.00  0.00    -0.354 N 
ATOM     45  C   UNL A   1      40.584  28.050  28.802  1.00  0.00     0.074 A 
ATOM     46  C   UNL A   1      39.697  28.049  27.660  1.00  0.00     0.031 C 
ATOM     47  C   UNL A   1      37.733  32.179  32.834  1.00  0.00     0.029 A 
ATOM     48  C   UNL A   1      38.941  31.394  33.076  1.00  0.00     0.049 A 
ATOM     49  H   UNL A   1      39.975  30.215  31.700  1.00  0.00     0.167 HD
ATOM     50  C   UNL A   1      41.706  27.300  28.899  1.00  0.00     0.034 A 
ATOM     51  C   UNL A   1      39.607  31.316  34.245  1.00  0.00     0.034 A 
ATOM     52  C   UNL A   1      42.596  27.326  30.027  1.00  0.00     0.049 A 
ATOM     53  C   UNL A   1      40.840  30.455  34.328  1.00  0.00     0.074 A 
ATOM     54  C   UNL A   1      43.805  26.672  30.183  1.00  0.00     0.029 A 
ATOM     55  N   UNL A   1      42.362  28.023  31.201  1.00  0.00    -0.354 N 
ATOM     56  N   UNL A   1      41.412  29.740  33.390  1.00  0.00    -0.248 NA
ATOM     57  C   UNL A   1      41.535  30.408  35.624  1.00  0.00     0.031 C 
ATOM     58  C   UNL A   1      44.289  26.952  31.465  1.00  0.00     0.029 A 
ATOM     59  C   UNL A   1      43.390  27.794  32.099  1.00  0.00     0.049 A 
ATOM     60  H   UNL A   1      41.581  28.597  31.371  1.00  0.00     0.167 HD
ATOM     61  C   UNL A   1      42.541  29.176  33.974  1.00  0.00     0.074 A 
ATOM     62  C   UNL A   1      42.590  29.658  35.339  1.00  0.00     0.031 C 
ATOM     63  C   UNL A   1      43.446  28.319  33.438  1.00  0.00     0.034 A 
BRANCH  50  64
ATOM     64  C   UNL A   1      42.062  26.404  27.744  1.00  0.00     0.023 A 
ATOM     65  C   UNL A   1      42.918  26.881  26.732  1.00  0.00     0.012 A 
ATOM     66  C   UNL A   1      41.627  25.065  27.714  1.00  0.00     0.148 A 
ATOM     67  C   UNL A   1      43.327  26.041  25.698  1.00  0.00     0.002 A 
ATOM     68  C   UNL A   1      42.067  24.224  26.698  1.00  0.00     0.091 A 
ATOM     69  F   UNL A   1      40.797  24.641  28.677  1.00  0.00    -0.205 F 
ATOM     70  C   UNL A   1      42.911  24.711  25.686  1.00  0.00     0.022 A 
BRANCH  68  71
ATOM     71  S   UNL A   1      41.644  22.479  26.628  1.00  0.00     0.127 S 
ATOM     72  O   UNL A   1      42.280  22.072  25.376  1.00  0.00    -0.237 OA
ATOM     73  O   UNL A   1      42.287  21.959  27.836  1.00  0.00    -0.237 OA
ATOM     74  O   UNL A   1      40.190  22.415  26.634  1.00  0.00    -0.744 OA
ENDBRANCH  68  71
ENDBRANCH  50  64
BRANCH  51  75
ATOM     75  C   UNL A   1      39.126  32.077  35.433  1.00  0.00     0.023 A 
ATOM     76  C   UNL A   1      39.338  33.467  35.504  1.00  0.00     0.012 A 
ATOM     77  C   UNL A   1      38.456  31.431  36.491  1.00  0.00     0.148 A 
ATOM     78  C   UNL A   1      38.921  34.194  36.620  1.00  0.00     0.002 A 
ATOM     79  C   UNL A   1      37.994  32.170  37.575  1.00  0.00     0.091 A 
ATOM     80  F   UNL A   1      38.286  30.102  36.421  1.00  0.00    -0.205 F 
ATOM     81  C   UNL A   1      38.239  33.548  37.649  1.00  0.00     0.022 A 
BRANCH  79  82
ATOM     82  S   UNL A   1      36.998  31.428  38.872  1.00  0.00     0.127 S 
ATOM     83  O   UNL A   1      37.863  31.574  40.038  1.00  0.00    -0.237 OA
ATOM     84  O   UNL A   1      35.809  32.282  38.876  1.00  0.00    -0.237 OA
ATOM     85  O   UNL A   1      36.746  30.063  38.429  1.00  0.00    -0.744 OA
ENDBRANCH  79  82
ENDBRANCH  51  75
BRANCH  63  86
ATOM     86  C   UNL A   1      44.571  27.848  34.321  1.00  0.00     0.023 A 
ATOM     87  C   UNL A   1      45.774  28.581  34.357  1.00  0.00     0.012 A 
ATOM     88  C   UNL A   1      44.406  26.741  35.176  1.00  0.00     0.148 A 
ATOM     89  C   UNL A   1      46.807  28.202  35.212  1.00  0.00     0.002 A 
ATOM     90  C   UNL A   1      45.423  26.398  36.059  1.00  0.00     0.091 A 
ATOM     91  F   UNL A   1      43.259  26.050  35.113  1.00  0.00    -0.205 F 
ATOM     92  C   UNL A   1      46.627  27.120  36.071  1.00  0.00     0.022 A 
BRANCH  90  93
ATOM     93  S   UNL A   1      45.245  25.079  37.265  1.00  0.00     0.127 S 
ATOM     94  O   UNL A   1      46.465  25.232  38.056  1.00  0.00    -0.237 OA
ATOM     95  O   UNL A   1      44.016  25.459  37.962  1.00  0.00    -0.237 OA
ATOM     96  O   UNL A   1      45.148  23.844  36.499  1.00  0.00    -0.744 OA
ENDBRANCH  90  93
ENDBRANCH  63  86
ENDBRANCH  37  38
ENDBRANCH  30  32
ENDBRANCH  29  30
ENDBRANCH  28  29
ENDBRANCH  27  28
ENDBRANCH   1  27
TORSDOF 20
ENDMDL
MODEL 2
REMARK VINA RESULT:     -11.3      6.313      9.686
REMARK SMILES O=C(COc1ccccc1/C=C1\C(=O)Nc2ccccc21)OCCOCCOC(=O)c1ccc(-c2c3nc(c(-c4cccc(S(=O)(=O)[O-])c4F)c4ccc([nH]4)c(-c4cccc(S(=O)(=O)[O-])c4F)c4nc(c(-c5cccc(S(=O)(=O)[O-])c5F)c5ccc2[nH]5)C=C4)C=C3)cc1
REMARK SMILES IDX 25 1 24 2 23 3 22 4 2 5 1 6 3 7 4 8 5 9 6 10 10 11 7 12 9 13
REMARK SMILES IDX 8 14 11 15 12 16 13 17 21 18 14 19 15 20 16 21 20 22 17 24
REMARK SMILES IDX 19 25 18 26 26 27 27 28 28 29 29 30 30 31 31 32 32 33 93 34
REMARK SMILES IDX 33 35 92 36 34 37 35 38 36 39 86 40 37 41 91 42 85 43 87 44
REMARK SMILES IDX 38 45 90 46 84 47 83 48 39 50 71 51 51 52 70 53 52 54 55 55
REMARK SMILES IDX 69 56 88 57 53 58 54 59 68 61 89 62 56 63 40 64 41 65 49 66
REMARK SMILES IDX 42 67 44 68 50 69 43 70 45 71 46 72 47 73 48 74 72 75 73 76
REMARK SMILES IDX 81 77 74 78 76 79 82 80 75 81 77 82 78 83 79 84 80 85 57 86
REMARK SMILES IDX 58 87 66 88 59 89 61 90 67 91 60 92 62 93 63 94 64 95 65 96
REMARK H PARENT 15 23 87 49 55 60
REMARK Flexibility Score: inf
ROOT
ATOM      1  O   UNL A   1      40.856  20.368  27.561  1.00  0.00    -0.374 OA
ENDROOT
BRANCH   1   2
ATOM      2  C   UNL A   1      41.119  21.762  27.499  1.00  0.00     0.202 C 
BRANCH   2   3
ATOM      3  C   UNL A   1      40.518  22.589  26.357  1.00  0.00     0.261 C 
BRANCH   3   4
ATOM      4  O   UNL A   1      39.213  23.129  26.626  1.00  0.00    -0.461 OA
BRANCH   4   5
ATOM      5  C   UNL A   1      38.067  22.900  25.948  1.00  0.00     0.344 C 
ATOM      6  O   UNL A   1      38.004  21.915  25.207  1.00  0.00    -0.248 OA
BRANCH   5   7
ATOM      7  C   UNL A   1      36.896  23.878  25.995  1.00  0.00     0.351 C 
BRANCH   7   8
ATOM      8  O   UNL A   1      35.936  23.937  24.975  1.00  0.00    -0.481 OA
BRANCH   8   9
ATOM      9  C   UNL A   1      34.623  24.178  25.263  1.00  0.00     0.127 A 
ATOM     10  C   UNL A   1      34.413  25.546  25.519  1.00  0.00     0.047 A 
ATOM     11  C   UNL A   1      33.575  23.253  25.444  1.00  0.00     0.017 A 
ATOM     12  C   UNL A   1      33.182  26.018  25.958  1.00  0.00     0.004 A 
ATOM     13  C   UNL A   1      32.366  23.750  25.965  1.00  0.00     0.012 A 
ATOM     14  C   UNL A   1      32.161  25.114  26.197  1.00  0.00     0.001 A 
BRANCH  11  15
ATOM     15  C   UNL A   1      33.698  21.795  25.233  1.00  0.00     0.026 C 
ATOM     16  C   UNL A   1      33.188  21.034  24.246  1.00  0.00     0.050 C 
ATOM     17  C   UNL A   1      32.269  21.435  23.108  1.00  0.00     0.256 C 
ATOM     18  C   UNL A   1      33.407  19.581  24.101  1.00  0.00     0.011 A 
ATOM     19  O   UNL A   1      31.901  22.542  22.771  1.00  0.00    -0.269 OA
ATOM     20  N   UNL A   1      31.926  20.246  22.483  1.00  0.00    -0.321 N 
ATOM     21  C   UNL A   1      32.604  19.167  23.034  1.00  0.00     0.049 A 
ATOM     22  C   UNL A   1      34.235  18.669  24.732  1.00  0.00     0.011 A 
ATOM     23  H   UNL A   1      31.282  20.177  21.742  1.00  0.00     0.170 HD
ATOM     24  C   UNL A   1      32.561  17.860  22.587  1.00  0.00     0.027 A 
ATOM     25  C   UNL A   1      34.228  17.342  24.280  1.00  0.00     0.001 A 
ATOM     26  C   UNL A   1      33.393  16.940  23.222  1.00  0.00     0.002 A 
ENDBRANCH  11  15
ENDBRANCH   8   9
ENDBRANCH   7   8
ENDBRANCH   5   7
ENDBRANCH   4   5
ENDBRANCH   3   4
ENDBRANCH   2   3
ENDBRANCH   1   2
BRANCH   1  27
ATOM     27  C   UNL A   1      41.941  19.447  27.530  1.00  0.00     0.202 C 
BRANCH  27  28
ATOM     28  C   UNL A   1      42.360  18.721  26.239  1.00  0.00     0.261 C 
BRANCH  28  29
ATOM     29  O   UNL A   1      42.696  19.560  25.126  1.00  0.00    -0.460 OA
BRANCH  29  30
ATOM     30  C   UNL A   1      44.025  19.674  24.882  1.00  0.00     0.338 C 
ATOM     31  O   UNL A   1      44.769  18.821  24.429  1.00  0.00    -0.246 OA
BRANCH  30  32
ATOM     32  C   UNL A   1      44.451  21.066  25.098  1.00  0.00     0.060 A 
ATOM     33  C   UNL A   1      44.886  21.439  26.377  1.00  0.00     0.016 A 
ATOM     34  C   UNL A   1      44.334  22.011  24.078  1.00  0.00     0.016 A 
ATOM     35  C   UNL A   1      45.191  22.772  26.645  1.00  0.00     0.010 A 
ATOM     36  C   UNL A   1      44.625  23.348  24.355  1.00  0.00     0.010 A 
ATOM     37  C   UNL A   1      45.032  23.737  25.644  1.00  0.00    -0.014 A 
BRANCH  37  38
ATOM     38  C   UNL A   1      45.198  25.174  25.959  1.00  0.00     0.031 A 
ATOM     39  C   UNL A   1      46.578  25.766  25.974  1.00  0.00     0.074 A 
ATOM     40  C   UNL A   1      44.127  25.921  26.280  1.00  0.00     0.049 A 
ATOM     41  N   UNL A   1      46.955  26.972  26.304  1.00  0.00    -0.248 NA
ATOM     42  C   UNL A   1      47.684  24.880  25.567  1.00  0.00     0.031 C 
ATOM     43  C   UNL A   1      42.744  25.444  26.307  1.00  0.00     0.029 A 
ATOM     44  N   UNL A   1      44.041  27.228  26.689  1.00  0.00    -0.354 N 
ATOM     45  C   UNL A   1      48.339  26.984  26.181  1.00  0.00     0.074 A 
ATOM     46  C   UNL A   1      48.738  25.666  25.739  1.00  0.00     0.031 C 
ATOM     47  C   UNL A   1      41.953  26.430  26.762  1.00  0.00     0.029 A 
ATOM     48  C   UNL A   1      42.775  27.595  27.080  1.00  0.00     0.049 A 
ATOM     49  H   UNL A   1      44.811  27.842  26.701  1.00  0.00     0.167 HD
ATOM     50  C   UNL A   1      49.196  28.006  26.409  1.00  0.00     0.034 A 
ATOM     51  C   UNL A   1      42.339  28.728  27.666  1.00  0.00     0.034 A 
ATOM     52  C   UNL A   1      48.789  29.320  26.824  1.00  0.00     0.049 A 
ATOM     53  C   UNL A   1      43.321  29.840  27.928  1.00  0.00     0.074 A 
ATOM     54  C   UNL A   1      49.570  30.448  26.995  1.00  0.00     0.029 A 
ATOM     55  N   UNL A   1      47.491  29.675  27.157  1.00  0.00    -0.354 N 
ATOM     56  N   UNL A   1      44.601  29.893  27.650  1.00  0.00    -0.248 NA
ATOM     57  C   UNL A   1      42.796  31.058  28.564  1.00  0.00     0.031 C 
ATOM     58  C   UNL A   1      48.749  31.480  27.460  1.00  0.00     0.029 A 
ATOM     59  C   UNL A   1      47.453  30.999  27.561  1.00  0.00     0.049 A 
ATOM     60  H   UNL A   1      46.712  29.076  27.113  1.00  0.00     0.167 HD
ATOM     61  C   UNL A   1      45.029  31.152  28.056  1.00  0.00     0.074 A 
ATOM     62  C   UNL A   1      43.865  31.842  28.571  1.00  0.00     0.031 C 
ATOM     63  C   UNL A   1      46.277  31.685  28.026  1.00  0.00     0.034 A 
BRANCH  50  64
ATOM     64  C   UNL A   1      50.664  27.763  26.189  1.00  0.00     0.023 A 
ATOM     65  C   UNL A   1      51.479  27.398  27.280  1.00  0.00     0.012 A 
ATOM     66  C   UNL A   1      51.213  27.801  24.893  1.00  0.00     0.148 A 
ATOM     67  C   UNL A   1      52.823  27.087  27.085  1.00  0.00     0.002 A 
ATOM     68  C   UNL A   1      52.546  27.456  24.702  1.00  0.00     0.091 A 
ATOM     69  F   UNL A   1      50.423  28.170  23.876  1.00  0.00    -0.205 F 
ATOM     70  C   UNL A   1      53.354  27.105  25.797  1.00  0.00     0.022 A 
BRANCH  68  71
ATOM     71  S   UNL A   1      53.309  27.382  23.077  1.00  0.00     0.127 S 
ATOM     72  O   UNL A   1      52.334  26.590  22.330  1.00  0.00    -0.237 OA
ATOM     73  O   UNL A   1      53.364  28.794  22.700  1.00  0.00    -0.237 OA
ATOM     74  O   UNL A   1      54.606  26.749  23.269  1.00  0.00    -0.744 OA
ENDBRANCH  68  71
ENDBRANCH  50  64
BRANCH  51  75
ATOM     75  C   UNL A   1      40.904  28.873  28.042  1.00  0.00     0.023 A 
ATOM     76  C   UNL A   1      39.957  29.216  27.060  1.00  0.00     0.012 A 
ATOM     77  C   UNL A   1      40.474  28.669  29.368  1.00  0.00     0.148 A 
ATOM     78  C   UNL A   1      38.613  29.385  27.396  1.00  0.00     0.002 A 
ATOM     79  C   UNL A   1      39.125  28.785  29.686  1.00  0.00     0.091 A 
ATOM     80  F   UNL A   1      41.392  28.370  30.299  1.00  0.00    -0.205 F 
ATOM     81  C   UNL A   1      38.195  29.158  28.705  1.00  0.00     0.022 A 
BRANCH  79  82
ATOM     82  S   UNL A   1      38.498  28.382  31.320  1.00  0.00     0.127 S 
ATOM     83  O   UNL A   1      38.671  26.934  31.361  1.00  0.00    -0.237 OA
ATOM     84  O   UNL A   1      39.400  29.136  32.193  1.00  0.00    -0.237 OA
ATOM     85  O   UNL A   1      37.122  28.863  31.332  1.00  0.00    -0.744 OA
ENDBRANCH  79  82
ENDBRANCH  51  75
BRANCH  63  86
ATOM     86  C   UNL A   1      46.453  33.081  28.558  1.00  0.00     0.023 A 
ATOM     87  C   UNL A   1      46.954  33.266  29.862  1.00  0.00     0.012 A 
ATOM     88  C   UNL A   1      46.211  34.204  27.743  1.00  0.00     0.148 A 
ATOM     89  C   UNL A   1      47.187  34.548  30.356  1.00  0.00     0.002 A 
ATOM     90  C   UNL A   1      46.489  35.477  28.225  1.00  0.00     0.091 A 
ATOM     91  F   UNL A   1      45.720  34.005  26.511  1.00  0.00    -0.205 F 
ATOM     92  C   UNL A   1      46.967  35.652  29.535  1.00  0.00     0.022 A 
BRANCH  90  93
ATOM     93  S   UNL A   1      46.325  36.949  27.209  1.00  0.00     0.127 S 
ATOM     94  O   UNL A   1      44.924  36.871  26.797  1.00  0.00    -0.237 OA
ATOM     95  O   UNL A   1      46.622  38.019  28.162  1.00  0.00    -0.237 OA
ATOM     96  O   UNL A   1      47.301  36.807  26.137  1.00  0.00    -0.744 OA
ENDBRANCH  90  93
ENDBRANCH  63  86
ENDBRANCH  37  38
ENDBRANCH  30  32
ENDBRANCH  29  30
ENDBRANCH  28  29
ENDBRANCH  27  28
ENDBRANCH   1  27
TORSDOF 20
ENDMDL
MODEL 3
REMARK VINA RESULT:     -11.3      5.770     10.638
REMARK SMILES O=C(COc1ccccc1/C=C1\C(=O)Nc2ccccc21)OCCOCCOC(=O)c1ccc(-c2c3nc(c(-c4cccc(S(=O)(=O)[O-])c4F)c4ccc([nH]4)c(-c4cccc(S(=O)(=O)[O-])c4F)c4nc(c(-c5cccc(S(=O)(=O)[O-])c5F)c5ccc2[nH]5)C=C4)C=C3)cc1
REMARK SMILES IDX 25 1 24 2 23 3 22 4 2 5 1 6 3 7 4 8 5 9 6 10 10 11 7 12 9 13
REMARK SMILES IDX 8 14 11 15 12 16 13 17 21 18 14 19 15 20 16 21 20 22 17 24
REMARK SMILES IDX 19 25 18 26 26 27 27 28 28 29 29 30 30 31 31 32 32 33 93 34
REMARK SMILES IDX 33 35 92 36 34 37 35 38 36 39 86 40 37 41 91 42 85 43 87 44
REMARK SMILES IDX 38 45 90 46 84 47 83 48 39 50 71 51 51 52 70 53 52 54 55 55
REMARK SMILES IDX 69 56 88 57 53 58 54 59 68 61 89 62 56 63 40 64 41 65 49 66
REMARK SMILES IDX 42 67 44 68 50 69 43 70 45 71 46 72 47 73 48 74 72 75 73 76
REMARK SMILES IDX 81 77 74 78 76 79 82 80 75 81 77 82 78 83 79 84 80 85 57 86
REMARK SMILES IDX 58 87 66 88 59 89 61 90 67 91 60 92 62 93 63 94 64 95 65 96
REMARK H PARENT 15 23 87 49 55 60
REMARK Flexibility Score: inf
ROOT
ATOM      1  O   UNL A   1      39.299  21.807  26.845  1.00  0.00    -0.374 OA
ENDROOT
BRANCH   1   2
ATOM      2  C   UNL A   1      39.555  23.178  26.578  1.00  0.00     0.202 C 
BRANCH   2   3
ATOM      3  C   UNL A   1      38.395  24.091  26.167  1.00  0.00     0.261 C 
BRANCH   3   4
ATOM      4  O   UNL A   1      37.089  23.600  26.516  1.00  0.00    -0.461 OA
BRANCH   4   5
ATOM      5  C   UNL A   1      36.228  22.912  25.735  1.00  0.00     0.344 C 
ATOM      6  O   UNL A   1      36.050  21.712  25.965  1.00  0.00    -0.248 OA
BRANCH   5   7
ATOM      7  C   UNL A   1      35.556  23.550  24.523  1.00  0.00     0.351 C 
BRANCH   7   8
ATOM      8  O   UNL A   1      35.054  24.859  24.556  1.00  0.00    -0.481 OA
BRANCH   8   9
ATOM      9  C   UNL A   1      33.796  25.115  25.024  1.00  0.00     0.127 A 
ATOM     10  C   UNL A   1      33.737  26.387  25.622  1.00  0.00     0.047 A 
ATOM     11  C   UNL A   1      32.683  24.252  25.080  1.00  0.00     0.017 A 
ATOM     12  C   UNL A   1      32.595  26.823  26.282  1.00  0.00     0.004 A 
ATOM     13  C   UNL A   1      31.572  24.689  25.824  1.00  0.00     0.012 A 
ATOM     14  C   UNL A   1      31.515  25.963  26.398  1.00  0.00     0.001 A 
BRANCH  11  15
ATOM     15  C   UNL A   1      32.651  22.887  24.513  1.00  0.00     0.026 C 
ATOM     16  C   UNL A   1      32.757  21.703  25.145  1.00  0.00     0.050 C 
ATOM     17  C   UNL A   1      33.024  21.423  26.612  1.00  0.00     0.256 C 
ATOM     18  C   UNL A   1      32.668  20.383  24.488  1.00  0.00     0.011 A 
ATOM     19  O   UNL A   1      33.072  22.198  27.545  1.00  0.00    -0.269 OA
ATOM     20  N   UNL A   1      33.192  20.050  26.694  1.00  0.00    -0.321 N 
ATOM     21  C   UNL A   1      32.959  19.433  25.471  1.00  0.00     0.049 A 
ATOM     22  C   UNL A   1      32.318  19.969  23.214  1.00  0.00     0.011 A 
ATOM     23  H   UNL A   1      33.445  19.572  27.516  1.00  0.00     0.170 HD
ATOM     24  C   UNL A   1      32.952  18.073  25.230  1.00  0.00     0.027 A 
ATOM     25  C   UNL A   1      32.279  18.592  22.951  1.00  0.00     0.001 A 
ATOM     26  C   UNL A   1      32.601  17.654  23.948  1.00  0.00     0.002 A 
ENDBRANCH  11  15
ENDBRANCH   8   9
ENDBRANCH   7   8
ENDBRANCH   5   7
ENDBRANCH   4   5
ENDBRANCH   3   4
ENDBRANCH   2   3
ENDBRANCH   1   2
BRANCH   1  27
ATOM     27  C   UNL A   1      39.324  20.866  25.776  1.00  0.00     0.202 C 
BRANCH  27  28
ATOM     28  C   UNL A   1      39.941  19.466  25.935  1.00  0.00     0.261 C 
BRANCH  28  29
ATOM     29  O   UNL A   1      41.228  19.273  25.335  1.00  0.00    -0.460 OA
BRANCH  29  30
ATOM     30  C   UNL A   1      42.272  19.341  26.198  1.00  0.00     0.338 C 
ATOM     31  O   UNL A   1      42.992  18.427  26.561  1.00  0.00    -0.246 OA
BRANCH  30  32
ATOM     32  C   UNL A   1      42.540  20.748  26.541  1.00  0.00     0.060 A 
ATOM     33  C   UNL A   1      42.850  21.638  25.505  1.00  0.00     0.016 A 
ATOM     34  C   UNL A   1      42.574  21.159  27.874  1.00  0.00     0.016 A 
ATOM     35  C   UNL A   1      43.216  22.949  25.804  1.00  0.00     0.010 A 
ATOM     36  C   UNL A   1      42.958  22.469  28.170  1.00  0.00     0.010 A 
ATOM     37  C   UNL A   1      43.302  23.361  27.139  1.00  0.00    -0.014 A 
BRANCH  37  38
ATOM     38  C   UNL A   1      43.842  24.698  27.476  1.00  0.00     0.031 A 
ATOM     39  C   UNL A   1      42.903  25.769  27.950  1.00  0.00     0.074 A 
ATOM     40  C   UNL A   1      45.150  24.958  27.303  1.00  0.00     0.049 A 
ATOM     41  N   UNL A   1      43.150  27.024  28.216  1.00  0.00    -0.248 NA
ATOM     42  C   UNL A   1      41.496  25.377  28.149  1.00  0.00     0.031 C 
ATOM     43  C   UNL A   1      46.147  23.994  26.836  1.00  0.00     0.029 A 
ATOM     44  N   UNL A   1      45.855  26.125  27.457  1.00  0.00    -0.354 N 
ATOM     45  C   UNL A   1      41.930  27.581  28.578  1.00  0.00     0.074 A 
ATOM     46  C   UNL A   1      40.942  26.528  28.506  1.00  0.00     0.031 C 
ATOM     47  C   UNL A   1      47.326  24.623  26.691  1.00  0.00     0.029 A 
ATOM     48  C   UNL A   1      47.160  26.035  27.030  1.00  0.00     0.049 A 
ATOM     49  H   UNL A   1      45.466  26.947  27.834  1.00  0.00     0.167 HD
ATOM     50  C   UNL A   1      41.663  28.856  28.946  1.00  0.00     0.034 A 
ATOM     51  C   UNL A   1      48.099  26.992  26.893  1.00  0.00     0.034 A 
ATOM     52  C   UNL A   1      42.655  29.891  29.039  1.00  0.00     0.049 A 
ATOM     53  C   UNL A   1      47.765  28.406  27.289  1.00  0.00     0.074 A 
ATOM     54  C   UNL A   1      42.502  31.191  29.488  1.00  0.00     0.029 A 
ATOM     55  N   UNL A   1      43.979  29.752  28.656  1.00  0.00    -0.354 N 
ATOM     56  N   UNL A   1      46.650  28.882  27.788  1.00  0.00    -0.248 NA
ATOM     57  C   UNL A   1      48.825  29.413  27.125  1.00  0.00     0.031 C 
ATOM     58  C   UNL A   1      43.729  31.847  29.348  1.00  0.00     0.029 A 
ATOM     59  C   UNL A   1      44.649  30.950  28.829  1.00  0.00     0.049 A 
ATOM     60  H   UNL A   1      44.384  28.924  28.311  1.00  0.00     0.167 HD
ATOM     61  C   UNL A   1      46.879  30.234  28.017  1.00  0.00     0.074 A 
ATOM     62  C   UNL A   1      48.250  30.496  27.631  1.00  0.00     0.031 C 
ATOM     63  C   UNL A   1      46.028  31.181  28.484  1.00  0.00     0.034 A 
BRANCH  50  64
ATOM     64  C   UNL A   1      40.245  29.208  29.305  1.00  0.00     0.023 A 
ATOM     65  C   UNL A   1      39.322  29.502  28.281  1.00  0.00     0.012 A 
ATOM     66  C   UNL A   1      39.807  29.153  30.642  1.00  0.00     0.148 A 
ATOM     67  C   UNL A   1      37.984  29.749  28.586  1.00  0.00     0.002 A 
ATOM     68  C   UNL A   1      38.465  29.367  30.934  1.00  0.00     0.091 A 
ATOM     69  F   UNL A   1      40.709  28.892  31.599  1.00  0.00    -0.205 F 
ATOM     70  C   UNL A   1      37.553  29.671  29.909  1.00  0.00     0.022 A 
BRANCH  68  71
ATOM     71  S   UNL A   1      37.796  29.223  32.595  1.00  0.00     0.127 S 
ATOM     72  O   UNL A   1      36.460  29.793  32.425  1.00  0.00    -0.237 OA
ATOM     73  O   UNL A   1      37.819  27.777  32.811  1.00  0.00    -0.237 OA
ATOM     74  O   UNL A   1      38.689  29.985  33.457  1.00  0.00    -0.744 OA
ENDBRANCH  68  71
ENDBRANCH  50  64
BRANCH  51  75
ATOM     75  C   UNL A   1      49.447  26.647  26.359  1.00  0.00     0.023 A 
ATOM     76  C   UNL A   1      50.328  25.872  27.137  1.00  0.00     0.012 A 
ATOM     77  C   UNL A   1      49.860  27.081  25.084  1.00  0.00     0.148 A 
ATOM     78  C   UNL A   1      51.605  25.561  26.668  1.00  0.00     0.002 A 
ATOM     79  C   UNL A   1      51.113  26.722  24.600  1.00  0.00     0.091 A 
ATOM     80  F   UNL A   1      49.020  27.842  24.366  1.00  0.00    -0.205 F 
ATOM     81  C   UNL A   1      51.994  25.976  25.396  1.00  0.00     0.022 A 
BRANCH  79  82
ATOM     82  S   UNL A   1      51.630  27.111  22.924  1.00  0.00     0.127 S 
ATOM     83  O   UNL A   1      50.459  26.715  22.149  1.00  0.00    -0.237 OA
ATOM     84  O   UNL A   1      51.861  28.554  22.998  1.00  0.00    -0.237 OA
ATOM     85  O   UNL A   1      52.839  26.327  22.704  1.00  0.00    -0.744 OA
ENDBRANCH  79  82
ENDBRANCH  51  75
BRANCH  63  86
ATOM     86  C   UNL A   1      46.548  32.588  28.611  1.00  0.00     0.023 A 
ATOM     87  C   UNL A   1      47.017  33.040  29.860  1.00  0.00     0.012 A 
ATOM     88  C   UNL A   1      46.656  33.425  27.484  1.00  0.00     0.148 A 
ATOM     89  C   UNL A   1      47.562  34.316  29.991  1.00  0.00     0.002 A 
ATOM     90  C   UNL A   1      47.243  34.679  27.613  1.00  0.00     0.091 A 
ATOM     91  F   UNL A   1      46.189  32.979  26.309  1.00  0.00    -0.205 F 
ATOM     92  C   UNL A   1      47.686  35.129  28.867  1.00  0.00     0.022 A 
BRANCH  90  93
ATOM     93  S   UNL A   1      47.529  35.756  26.205  1.00  0.00     0.127 S 
ATOM     94  O   UNL A   1      48.793  36.394  26.571  1.00  0.00    -0.237 OA
ATOM     95  O   UNL A   1      47.625  34.803  25.099  1.00  0.00    -0.237 OA
ATOM     96  O   UNL A   1      46.377  36.645  26.138  1.00  0.00    -0.744 OA
ENDBRANCH  90  93
ENDBRANCH  63  86
ENDBRANCH  37  38
ENDBRANCH  30  32
ENDBRANCH  29  30
ENDBRANCH  28  29
ENDBRANCH  27  28
ENDBRANCH   1  27
TORSDOF 20
ENDMDL
