MODEL 1
REMARK VINA RESULT:      -9.1      0.000      0.000
REMARK SMILES Cc1ccc(S(=O)(=O)n2cc(C(=O)C(=O)NCC(=O)OCCOCCOC(=O)c3ccc(-c4c5nc(c(-c6cccc(S(=O)(=O)[O-])c6F)c6ccc([nH]6)c(-c6cccc(S(=O)(=O)[O-])c6F)c6nc(c(-c7cccc(S(=O)(=O)[O-])c7F)c7ccc4[nH]7)C=C6)C=C5)cc3)c3ccccc32)cc1
REMARK SMILES IDX 22 1 21 2 20 3 18 4 19 5 17 6 16 7 14 8 15 9 12 11 13 12
REMARK SMILES IDX 11 13 9 14 10 15 97 16 92 17 96 18 93 19 95 20 94 21 6 22
REMARK SMILES IDX 7 23 8 24 5 25 1 26 2 27 3 28 99 29 4 30 98 31 23 32 24 33
REMARK SMILES IDX 25 34 26 35 27 36 28 37 29 38 30 39 91 40 31 41 90 42 32 43
REMARK SMILES IDX 33 44 34 45 84 46 35 47 89 48 83 49 85 50 36 51 88 52 82 53
REMARK SMILES IDX 81 54 37 56 69 57 49 58 68 59 50 60 53 61 67 62 86 63 51 64
REMARK SMILES IDX 52 65 66 67 87 68 54 69 38 70 39 71 47 72 40 73 42 74 48 75
REMARK SMILES IDX 41 76 43 77 44 78 45 79 46 80 70 81 71 82 79 83 72 84 74 85
REMARK SMILES IDX 80 86 73 87 75 88 76 89 77 90 78 91 55 92 56 93 64 94 57 95
REMARK SMILES IDX 59 96 65 97 58 98 60 99 61 100 62 101 63 102
REMARK H PARENT 16 10 85 55 53 66
REMARK Flexibility Score: inf
ROOT
ATOM      1  C   UNL A   1      41.816  33.123  36.518  1.00  0.00     0.202 C 
ENDROOT
BRANCH   1   2
ATOM      2  C   UNL A   1      41.813  32.046  35.467  1.00  0.00     0.261 C 
BRANCH   2   3
ATOM      3  O   UNL A   1      41.299  30.822  36.032  1.00  0.00    -0.462 OA
BRANCH   3   4
ATOM      4  C   UNL A   1      40.172  30.246  35.502  1.00  0.00     0.325 C 
ATOM      5  O   UNL A   1      39.225  29.794  36.121  1.00  0.00    -0.250 OA
BRANCH   4   6
ATOM      6  C   UNL A   1      40.232  30.217  33.982  1.00  0.00     0.239 C 
BRANCH   6   7
ATOM      7  N   UNL A   1      39.581  29.013  33.477  1.00  0.00    -0.338 N 
ATOM      8  C   UNL A   1      38.277  28.900  33.050  1.00  0.00     0.292 C 
ATOM      9  O   UNL A   1      37.793  27.778  32.943  1.00  0.00    -0.265 OA
ATOM     10  H   UNL A   1      40.132  28.197  33.438  1.00  0.00     0.164 HD
BRANCH   8  11
ATOM     11  C   UNL A   1      37.451  30.179  32.730  1.00  0.00     0.252 C 
ATOM     12  O   UNL A   1      37.062  30.887  33.654  1.00  0.00    -0.283 OA
BRANCH  11  13
ATOM     13  C   UNL A   1      37.192  30.586  31.350  1.00  0.00     0.054 A 
ATOM     14  N   UNL A   1      36.320  31.551  29.545  1.00  0.00    -0.240 N 
ATOM     15  C   UNL A   1      36.268  31.513  30.910  1.00  0.00     0.117 A 
ATOM     16  C   UNL A   1      37.259  30.672  29.053  1.00  0.00     0.065 A 
ATOM     17  C   UNL A   1      37.830  30.057  30.175  1.00  0.00     0.012 A 
ATOM     18  C   UNL A   1      37.640  30.321  27.745  1.00  0.00     0.028 A 
ATOM     19  C   UNL A   1      38.827  29.075  29.974  1.00  0.00     0.011 A 
ATOM     20  C   UNL A   1      38.606  29.323  27.581  1.00  0.00     0.002 A 
ATOM     21  C   UNL A   1      39.197  28.712  28.678  1.00  0.00     0.001 A 
BRANCH  14  22
ATOM     22  S   UNL A   1      35.217  32.444  28.612  1.00  0.00     0.268 S 
ATOM     23  O   UNL A   1      34.153  31.511  28.273  1.00  0.00    -0.201 OA
ATOM     24  O   UNL A   1      35.993  33.122  27.597  1.00  0.00    -0.201 OA
BRANCH  22  25
ATOM     25  C   UNL A   1      34.515  33.696  29.652  1.00  0.00     0.088 A 
ATOM     26  C   UNL A   1      32.398  36.593  32.015  1.00  0.00     0.044 C 
ATOM     27  C   UNL A   1      33.166  35.603  31.191  1.00  0.00    -0.051 A 
ATOM     28  C   UNL A   1      32.918  35.503  29.817  1.00  0.00     0.005 A 
ATOM     29  C   UNL A   1      34.127  34.770  31.776  1.00  0.00     0.005 A 
ATOM     30  C   UNL A   1      33.585  34.550  29.050  1.00  0.00     0.022 A 
ATOM     31  C   UNL A   1      34.813  33.825  31.009  1.00  0.00     0.022 A 
ENDBRANCH  22  25
ENDBRANCH  14  22
ENDBRANCH  11  13
ENDBRANCH   8  11
ENDBRANCH   6   7
ENDBRANCH   4   6
ENDBRANCH   3   4
ENDBRANCH   2   3
ENDBRANCH   1   2
BRANCH   1  32
ATOM     32  O   UNL A   1      40.605  32.948  37.240  1.00  0.00    -0.374 OA
BRANCH  32  33
ATOM     33  C   UNL A   1      39.598  33.918  37.065  1.00  0.00     0.202 C 
BRANCH  33  34
ATOM     34  C   UNL A   1      38.360  33.399  36.328  1.00  0.00     0.261 C 
BRANCH  34  35
ATOM     35  O   UNL A   1      38.659  33.197  34.933  1.00  0.00    -0.460 OA
BRANCH  35  36
ATOM     36  C   UNL A   1      37.956  33.985  34.067  1.00  0.00     0.338 C 
ATOM     37  O   UNL A   1      36.740  34.080  34.066  1.00  0.00    -0.246 OA
BRANCH  36  38
ATOM     38  C   UNL A   1      38.866  34.494  32.998  1.00  0.00     0.060 A 
ATOM     39  C   UNL A   1      38.463  34.485  31.651  1.00  0.00     0.016 A 
ATOM     40  C   UNL A   1      40.209  34.678  33.312  1.00  0.00     0.016 A 
ATOM     41  C   UNL A   1      39.423  34.482  30.627  1.00  0.00     0.010 A 
ATOM     42  C   UNL A   1      41.145  34.547  32.310  1.00  0.00     0.010 A 
ATOM     43  C   UNL A   1      40.767  34.410  30.961  1.00  0.00    -0.014 A 
BRANCH  43  44
ATOM     44  C   UNL A   1      41.901  34.261  30.041  1.00  0.00     0.031 A 
ATOM     45  C   UNL A   1      42.285  32.865  29.718  1.00  0.00     0.074 A 
ATOM     46  C   UNL A   1      42.324  35.272  29.237  1.00  0.00     0.049 A 
ATOM     47  N   UNL A   1      43.188  32.541  28.865  1.00  0.00    -0.248 NA
ATOM     48  C   UNL A   1      41.668  31.699  30.349  1.00  0.00     0.031 C 
ATOM     49  C   UNL A   1      42.817  35.142  27.859  1.00  0.00     0.029 A 
ATOM     50  N   UNL A   1      42.350  36.663  29.429  1.00  0.00    -0.354 N 
ATOM     51  C   UNL A   1      43.071  31.195  28.606  1.00  0.00     0.074 A 
ATOM     52  C   UNL A   1      42.172  30.702  29.616  1.00  0.00     0.031 C 
ATOM     53  C   UNL A   1      43.332  36.312  27.447  1.00  0.00     0.029 A 
ATOM     54  C   UNL A   1      43.366  37.181  28.604  1.00  0.00     0.049 A 
ATOM     55  H   UNL A   1      41.766  37.180  30.029  1.00  0.00     0.167 HD
ATOM     56  C   UNL A   1      43.674  30.718  27.483  1.00  0.00     0.034 A 
ATOM     57  C   UNL A   1      44.449  37.826  29.119  1.00  0.00     0.034 A 
ATOM     58  C   UNL A   1      44.502  31.776  26.867  1.00  0.00     0.049 A 
ATOM     59  C   UNL A   1      45.715  37.093  28.760  1.00  0.00     0.074 A 
ATOM     60  C   UNL A   1      44.333  32.618  25.780  1.00  0.00     0.029 A 
ATOM     61  N   UNL A   1      45.570  32.297  27.598  1.00  0.00    -0.354 N 
ATOM     62  N   UNL A   1      45.710  35.900  28.233  1.00  0.00    -0.248 NA
ATOM     63  C   UNL A   1      47.065  37.620  28.894  1.00  0.00     0.031 C 
ATOM     64  C   UNL A   1      45.280  33.678  25.896  1.00  0.00     0.029 A 
ATOM     65  C   UNL A   1      46.052  33.465  27.029  1.00  0.00     0.049 A 
ATOM     66  H   UNL A   1      45.935  31.887  28.415  1.00  0.00     0.167 HD
ATOM     67  C   UNL A   1      46.975  35.450  28.032  1.00  0.00     0.074 A 
ATOM     68  C   UNL A   1      47.793  36.592  28.417  1.00  0.00     0.031 C 
ATOM     69  C   UNL A   1      47.201  34.165  27.616  1.00  0.00     0.034 A 
BRANCH  56  70
ATOM     70  C   UNL A   1      43.412  29.380  26.801  1.00  0.00     0.023 A 
ATOM     71  C   UNL A   1      42.094  29.159  26.337  1.00  0.00     0.012 A 
ATOM     72  C   UNL A   1      44.311  28.301  26.615  1.00  0.00     0.148 A 
ATOM     73  C   UNL A   1      41.681  27.949  25.766  1.00  0.00     0.002 A 
ATOM     74  C   UNL A   1      43.903  27.089  26.045  1.00  0.00     0.091 A 
ATOM     75  F   UNL A   1      45.588  28.419  26.967  1.00  0.00    -0.205 F 
ATOM     76  C   UNL A   1      42.584  26.908  25.626  1.00  0.00     0.022 A 
BRANCH  74  77
ATOM     77  S   UNL A   1      45.012  25.678  25.840  1.00  0.00     0.127 S 
ATOM     78  O   UNL A   1      45.882  26.129  24.753  1.00  0.00    -0.237 OA
ATOM     79  O   UNL A   1      45.667  25.600  27.144  1.00  0.00    -0.237 OA
ATOM     80  O   UNL A   1      44.175  24.534  25.500  1.00  0.00    -0.744 OA
ENDBRANCH  74  77
ENDBRANCH  56  70
BRANCH  57  81
ATOM     81  C   UNL A   1      44.105  38.567  30.373  1.00  0.00     0.023 A 
ATOM     82  C   UNL A   1      44.695  38.073  31.568  1.00  0.00     0.012 A 
ATOM     83  C   UNL A   1      43.703  39.914  30.328  1.00  0.00     0.148 A 
ATOM     84  C   UNL A   1      45.030  38.935  32.617  1.00  0.00     0.002 A 
ATOM     85  C   UNL A   1      44.052  40.770  31.376  1.00  0.00     0.091 A 
ATOM     86  F   UNL A   1      43.057  40.352  29.240  1.00  0.00    -0.205 F 
ATOM     87  C   UNL A   1      44.753  40.291  32.496  1.00  0.00     0.022 A 
BRANCH  85  88
ATOM     88  S   UNL A   1      43.764  42.544  31.288  1.00  0.00     0.127 S 
ATOM     89  O   UNL A   1      44.416  42.887  30.027  1.00  0.00    -0.237 OA
ATOM     90  O   UNL A   1      42.301  42.628  31.259  1.00  0.00    -0.237 OA
ATOM     91  O   UNL A   1      44.369  43.094  32.492  1.00  0.00    -0.744 OA
ENDBRANCH  85  88
ENDBRANCH  57  81
BRANCH  69  92
ATOM     92  C   UNL A   1      48.530  33.439  27.731  1.00  0.00     0.023 A 
ATOM     93  C   UNL A   1      49.493  33.471  26.706  1.00  0.00     0.012 A 
ATOM     94  C   UNL A   1      48.928  32.826  28.948  1.00  0.00     0.148 A 
ATOM     95  C   UNL A   1      50.752  32.880  26.846  1.00  0.00     0.002 A 
ATOM     96  C   UNL A   1      50.226  32.362  29.129  1.00  0.00     0.091 A 
ATOM     97  F   UNL A   1      48.046  32.656  29.943  1.00  0.00    -0.205 F 
ATOM     98  C   UNL A   1      51.131  32.352  28.069  1.00  0.00     0.022 A 
BRANCH  96  99
ATOM     99  S   UNL A   1      50.839  31.917  30.759  1.00  0.00     0.127 S 
ATOM    100  O   UNL A   1      52.232  31.584  30.473  1.00  0.00    -0.237 OA
ATOM    101  O   UNL A   1      50.649  33.160  31.508  1.00  0.00    -0.237 OA
ATOM    102  O   UNL A   1      49.993  30.817  31.203  1.00  0.00    -0.744 OA
ENDBRANCH  96  99
ENDBRANCH  69  92
ENDBRANCH  43  44
ENDBRANCH  36  38
ENDBRANCH  35  36
ENDBRANCH  34  35
ENDBRANCH  33  34
ENDBRANCH  32  33
ENDBRANCH   1  32
TORSDOF 22
ENDMDL
MODEL 2
REMARK VINA RESULT:      -8.7      7.455     13.740
REMARK SMILES Cc1ccc(S(=O)(=O)n2cc(C(=O)C(=O)NCC(=O)OCCOCCOC(=O)c3ccc(-c4c5nc(c(-c6cccc(S(=O)(=O)[O-])c6F)c6ccc([nH]6)c(-c6cccc(S(=O)(=O)[O-])c6F)c6nc(c(-c7cccc(S(=O)(=O)[O-])c7F)c7ccc4[nH]7)C=C6)C=C5)cc3)c3ccccc32)cc1
REMARK SMILES IDX 22 1 21 2 20 3 18 4 19 5 17 6 16 7 14 8 15 9 12 11 13 12
REMARK SMILES IDX 11 13 9 14 10 15 97 16 92 17 96 18 93 19 95 20 94 21 6 22
REMARK SMILES IDX 7 23 8 24 5 25 1 26 2 27 3 28 99 29 4 30 98 31 23 32 24 33
REMARK SMILES IDX 25 34 26 35 27 36 28 37 29 38 30 39 91 40 31 41 90 42 32 43
REMARK SMILES IDX 33 44 34 45 84 46 35 47 89 48 83 49 85 50 36 51 88 52 82 53
REMARK SMILES IDX 81 54 37 56 69 57 49 58 68 59 50 60 53 61 67 62 86 63 51 64
REMARK SMILES IDX 52 65 66 67 87 68 54 69 38 70 39 71 47 72 40 73 42 74 48 75
REMARK SMILES IDX 41 76 43 77 44 78 45 79 46 80 70 81 71 82 79 83 72 84 74 85
REMARK SMILES IDX 80 86 73 87 75 88 76 89 77 90 78 91 55 92 56 93 64 94 57 95
REMARK SMILES IDX 59 96 65 97 58 98 60 99 61 100 62 101 63 102
REMARK H PARENT 16 10 85 55 53 66
REMARK Flexibility Score: inf
ROOT
ATOM      1  C   UNL A   1      41.946  41.697  24.925  1.00  0.00     0.202 C 
ENDROOT
BRANCH   1   2
ATOM      2  C   UNL A   1      41.930  42.042  23.460  1.00  0.00     0.261 C 
BRANCH   2   3
ATOM      3  O   UNL A   1      42.870  43.106  23.205  1.00  0.00    -0.462 OA
BRANCH   3   4
ATOM      4  C   UNL A   1      43.861  42.932  22.273  1.00  0.00     0.325 C 
ATOM      5  O   UNL A   1      44.806  42.166  22.347  1.00  0.00    -0.250 OA
BRANCH   4   6
ATOM      6  C   UNL A   1      43.657  43.850  21.076  1.00  0.00     0.239 C 
BRANCH   6   7
ATOM      7  N   UNL A   1      42.349  43.609  20.476  1.00  0.00    -0.338 N 
ATOM      8  C   UNL A   1      42.013  43.752  19.149  1.00  0.00     0.292 C 
ATOM      9  O   UNL A   1      40.825  43.807  18.850  1.00  0.00    -0.265 OA
ATOM     10  H   UNL A   1      41.633  43.313  21.084  1.00  0.00     0.164 HD
BRANCH   8  11
ATOM     11  C   UNL A   1      43.132  43.854  18.071  1.00  0.00     0.252 C 
ATOM     12  O   UNL A   1      43.431  42.856  17.424  1.00  0.00    -0.283 OA
BRANCH  11  13
ATOM     13  C   UNL A   1      43.779  45.130  17.772  1.00  0.00     0.054 A 
ATOM     14  N   UNL A   1      45.256  46.790  17.654  1.00  0.00    -0.240 N 
ATOM     15  C   UNL A   1      45.079  45.496  18.057  1.00  0.00     0.117 A 
ATOM     16  C   UNL A   1      44.104  47.306  17.102  1.00  0.00     0.065 A 
ATOM     17  C   UNL A   1      43.159  46.273  17.157  1.00  0.00     0.012 A 
ATOM     18  C   UNL A   1      43.779  48.578  16.597  1.00  0.00     0.028 A 
ATOM     19  C   UNL A   1      41.855  46.522  16.672  1.00  0.00     0.011 A 
ATOM     20  C   UNL A   1      42.471  48.801  16.155  1.00  0.00     0.002 A 
ATOM     21  C   UNL A   1      41.522  47.788  16.186  1.00  0.00     0.001 A 
BRANCH  14  22
ATOM     22  S   UNL A   1      46.672  47.666  17.985  1.00  0.00     0.268 S 
ATOM     23  O   UNL A   1      46.287  48.666  18.971  1.00  0.00    -0.201 OA
ATOM     24  O   UNL A   1      47.237  48.031  16.705  1.00  0.00    -0.201 OA
BRANCH  22  25
ATOM     25  C   UNL A   1      47.822  46.566  18.765  1.00  0.00     0.088 A 
ATOM     26  C   UNL A   1      50.249  43.732  20.897  1.00  0.00     0.044 C 
ATOM     27  C   UNL A   1      49.431  44.742  20.147  1.00  0.00    -0.051 A 
ATOM     28  C   UNL A   1      48.581  45.604  20.849  1.00  0.00     0.005 A 
ATOM     29  C   UNL A   1      49.500  44.834  18.752  1.00  0.00     0.005 A 
ATOM     30  C   UNL A   1      47.774  46.510  20.162  1.00  0.00     0.022 A 
ATOM     31  C   UNL A   1      48.708  45.752  18.058  1.00  0.00     0.022 A 
ENDBRANCH  22  25
ENDBRANCH  14  22
ENDBRANCH  11  13
ENDBRANCH   8  11
ENDBRANCH   6   7
ENDBRANCH   4   6
ENDBRANCH   3   4
ENDBRANCH   2   3
ENDBRANCH   1   2
BRANCH   1  32
ATOM     32  O   UNL A   1      43.094  40.881  25.108  1.00  0.00    -0.374 OA
BRANCH  32  33
ATOM     33  C   UNL A   1      43.860  41.089  26.273  1.00  0.00     0.202 C 
BRANCH  33  34
ATOM     34  C   UNL A   1      44.500  39.814  26.829  1.00  0.00     0.261 C 
BRANCH  34  35
ATOM     35  O   UNL A   1      43.482  38.908  27.295  1.00  0.00    -0.460 OA
BRANCH  35  36
ATOM     36  C   UNL A   1      43.789  38.227  28.439  1.00  0.00     0.338 C 
ATOM     37  O   UNL A   1      44.089  38.764  29.492  1.00  0.00    -0.246 OA
BRANCH  36  38
ATOM     38  C   UNL A   1      43.940  36.772  28.134  1.00  0.00     0.060 A 
ATOM     39  C   UNL A   1      43.047  36.129  27.260  1.00  0.00     0.016 A 
ATOM     40  C   UNL A   1      44.766  36.012  28.957  1.00  0.00     0.016 A 
ATOM     41  C   UNL A   1      42.860  34.740  27.340  1.00  0.00     0.010 A 
ATOM     42  C   UNL A   1      44.485  34.672  29.115  1.00  0.00     0.010 A 
ATOM     43  C   UNL A   1      43.506  34.027  28.338  1.00  0.00    -0.014 A 
BRANCH  43  44
ATOM     44  C   UNL A   1      43.332  32.606  28.665  1.00  0.00     0.031 A 
ATOM     45  C   UNL A   1      44.095  31.655  27.820  1.00  0.00     0.074 A 
ATOM     46  C   UNL A   1      42.843  32.189  29.862  1.00  0.00     0.049 A 
ATOM     47  N   UNL A   1      44.140  30.388  28.014  1.00  0.00    -0.248 NA
ATOM     48  C   UNL A   1      44.884  32.071  26.660  1.00  0.00     0.031 C 
ATOM     49  C   UNL A   1      43.282  31.010  30.621  1.00  0.00     0.029 A 
ATOM     50  N   UNL A   1      41.889  32.754  30.724  1.00  0.00    -0.354 N 
ATOM     51  C   UNL A   1      45.156  29.870  27.246  1.00  0.00     0.074 A 
ATOM     52  C   UNL A   1      45.529  30.940  26.359  1.00  0.00     0.031 C 
ATOM     53  C   UNL A   1      42.449  30.795  31.652  1.00  0.00     0.029 A 
ATOM     54  C   UNL A   1      41.337  31.706  31.483  1.00  0.00     0.049 A 
ATOM     55  H   UNL A   1      41.650  33.707  30.785  1.00  0.00     0.167 HD
ATOM     56  C   UNL A   1      45.613  28.628  27.564  1.00  0.00     0.034 A 
ATOM     57  C   UNL A   1      40.015  31.389  31.415  1.00  0.00     0.034 A 
ATOM     58  C   UNL A   1      44.750  28.024  28.601  1.00  0.00     0.049 A 
ATOM     59  C   UNL A   1      39.839  29.978  30.922  1.00  0.00     0.074 A 
ATOM     60  C   UNL A   1      44.874  27.843  29.968  1.00  0.00     0.029 A 
ATOM     61  N   UNL A   1      43.407  27.795  28.300  1.00  0.00    -0.354 N 
ATOM     62  N   UNL A   1      40.823  29.279  30.426  1.00  0.00    -0.248 NA
ATOM     63  C   UNL A   1      38.605  29.207  30.983  1.00  0.00     0.031 C 
ATOM     64  C   UNL A   1      43.579  27.552  30.491  1.00  0.00     0.029 A 
ATOM     65  C   UNL A   1      42.672  27.517  29.441  1.00  0.00     0.049 A 
ATOM     66  H   UNL A   1      43.029  27.827  27.391  1.00  0.00     0.167 HD
ATOM     67  C   UNL A   1      40.399  28.053  30.029  1.00  0.00     0.074 A 
ATOM     68  C   UNL A   1      39.004  28.037  30.448  1.00  0.00     0.031 C 
ATOM     69  C   UNL A   1      41.240  27.209  29.352  1.00  0.00     0.034 A 
BRANCH  56  70
ATOM     70  C   UNL A   1      46.922  27.991  27.112  1.00  0.00     0.023 A 
ATOM     71  C   UNL A   1      46.830  27.038  26.070  1.00  0.00     0.012 A 
ATOM     72  C   UNL A   1      48.222  28.193  27.639  1.00  0.00     0.148 A 
ATOM     73  C   UNL A   1      47.932  26.309  25.606  1.00  0.00     0.002 A 
ATOM     74  C   UNL A   1      49.326  27.465  27.179  1.00  0.00     0.091 A 
ATOM     75  F   UNL A   1      48.431  29.103  28.586  1.00  0.00    -0.205 F 
ATOM     76  C   UNL A   1      49.182  26.517  26.166  1.00  0.00     0.022 A 
BRANCH  74  77
ATOM     77  S   UNL A   1      50.986  27.664  27.863  1.00  0.00     0.127 S 
ATOM     78  O   UNL A   1      50.791  27.269  29.260  1.00  0.00    -0.237 OA
ATOM     79  O   UNL A   1      51.768  26.716  27.072  1.00  0.00    -0.237 OA
ATOM     80  O   UNL A   1      51.348  29.064  27.683  1.00  0.00    -0.744 OA
ENDBRANCH  74  77
ENDBRANCH  56  70
BRANCH  57  81
ATOM     81  C   UNL A   1      39.170  32.598  31.154  1.00  0.00     0.023 A 
ATOM     82  C   UNL A   1      39.463  33.313  29.961  1.00  0.00     0.012 A 
ATOM     83  C   UNL A   1      37.884  32.713  31.710  1.00  0.00     0.148 A 
ATOM     84  C   UNL A   1      38.456  33.980  29.256  1.00  0.00     0.002 A 
ATOM     85  C   UNL A   1      36.882  33.371  30.992  1.00  0.00     0.091 A 
ATOM     86  F   UNL A   1      37.640  32.120  32.885  1.00  0.00    -0.205 F 
ATOM     87  C   UNL A   1      37.157  33.964  29.747  1.00  0.00     0.022 A 
BRANCH  85  88
ATOM     88  S   UNL A   1      35.167  33.370  31.536  1.00  0.00     0.127 S 
ATOM     89  O   UNL A   1      35.208  32.417  32.641  1.00  0.00    -0.237 OA
ATOM     90  O   UNL A   1      34.960  34.763  31.940  1.00  0.00    -0.237 OA
ATOM     91  O   UNL A   1      34.393  32.966  30.371  1.00  0.00    -0.744 OA
ENDBRANCH  85  88
ENDBRANCH  57  81
BRANCH  69  92
ATOM     92  C   UNL A   1      40.789  26.013  28.532  1.00  0.00     0.023 A 
ATOM     93  C   UNL A   1      39.618  26.036  27.753  1.00  0.00     0.012 A 
ATOM     94  C   UNL A   1      41.615  24.868  28.388  1.00  0.00     0.148 A 
ATOM     95  C   UNL A   1      39.249  24.971  26.927  1.00  0.00     0.002 A 
ATOM     96  C   UNL A   1      41.314  23.874  27.464  1.00  0.00     0.091 A 
ATOM     97  F   UNL A   1      42.696  24.709  29.165  1.00  0.00    -0.205 F 
ATOM     98  C   UNL A   1      40.112  23.901  26.759  1.00  0.00     0.022 A 
BRANCH  96  99
ATOM     99  S   UNL A   1      42.518  22.615  27.021  1.00  0.00     0.127 S 
ATOM    100  O   UNL A   1      42.642  21.869  28.270  1.00  0.00    -0.237 OA
ATOM    101  O   UNL A   1      41.829  21.898  25.946  1.00  0.00    -0.237 OA
ATOM    102  O   UNL A   1      43.700  23.347  26.588  1.00  0.00    -0.744 OA
ENDBRANCH  96  99
ENDBRANCH  69  92
ENDBRANCH  43  44
ENDBRANCH  36  38
ENDBRANCH  35  36
ENDBRANCH  34  35
ENDBRANCH  33  34
ENDBRANCH  32  33
ENDBRANCH   1  32
TORSDOF 22
ENDMDL
MODEL 3
REMARK VINA RESULT:      -8.7      5.086      7.888
REMARK SMILES Cc1ccc(S(=O)(=O)n2cc(C(=O)C(=O)NCC(=O)OCCOCCOC(=O)c3ccc(-c4c5nc(c(-c6cccc(S(=O)(=O)[O-])c6F)c6ccc([nH]6)c(-c6cccc(S(=O)(=O)[O-])c6F)c6nc(c(-c7cccc(S(=O)(=O)[O-])c7F)c7ccc4[nH]7)C=C6)C=C5)cc3)c3ccccc32)cc1
REMARK SMILES IDX 22 1 21 2 20 3 18 4 19 5 17 6 16 7 14 8 15 9 12 11 13 12
REMARK SMILES IDX 11 13 9 14 10 15 97 16 92 17 96 18 93 19 95 20 94 21 6 22
REMARK SMILES IDX 7 23 8 24 5 25 1 26 2 27 3 28 99 29 4 30 98 31 23 32 24 33
REMARK SMILES IDX 25 34 26 35 27 36 28 37 29 38 30 39 91 40 31 41 90 42 32 43
REMARK SMILES IDX 33 44 34 45 84 46 35 47 89 48 83 49 85 50 36 51 88 52 82 53
REMARK SMILES IDX 81 54 37 56 69 57 49 58 68 59 50 60 53 61 67 62 86 63 51 64
REMARK SMILES IDX 52 65 66 67 87 68 54 69 38 70 39 71 47 72 40 73 42 74 48 75
REMARK SMILES IDX 41 76 43 77 44 78 45 79 46 80 70 81 71 82 79 83 72 84 74 85
REMARK SMILES IDX 80 86 73 87 75 88 76 89 77 90 78 91 55 92 56 93 64 94 57 95
REMARK SMILES IDX 59 96 65 97 58 98 60 99 61 100 62 101 63 102
REMARK H PARENT 16 10 85 55 53 66
REMARK Flexibility Score: inf
ROOT
ATOM      1  C   UNL A   1      36.062  33.682  31.360  1.00  0.00     0.202 C 
ENDROOT
BRANCH   1   2
ATOM      2  C   UNL A   1      34.719  33.427  30.729  1.00  0.00     0.261 C 
BRANCH   2   3
ATOM      3  O   UNL A   1      34.852  32.422  29.702  1.00  0.00    -0.462 OA
BRANCH   3   4
ATOM      4  C   UNL A   1      34.303  32.638  28.463  1.00  0.00     0.325 C 
ATOM      5  O   UNL A   1      33.798  33.670  28.058  1.00  0.00    -0.250 OA
BRANCH   4   6
ATOM      6  C   UNL A   1      34.381  31.385  27.602  1.00  0.00     0.239 C 
BRANCH   6   7
ATOM      7  N   UNL A   1      33.372  30.420  28.028  1.00  0.00    -0.338 N 
ATOM      8  C   UNL A   1      32.903  29.346  27.306  1.00  0.00     0.292 C 
ATOM      9  O   UNL A   1      31.858  28.813  27.663  1.00  0.00    -0.265 OA
ATOM     10  H   UNL A   1      32.988  30.551  28.926  1.00  0.00     0.164 HD
BRANCH   8  11
ATOM     11  C   UNL A   1      33.690  28.845  26.059  1.00  0.00     0.252 C 
ATOM     12  O   UNL A   1      34.906  29.000  26.018  1.00  0.00    -0.283 OA
BRANCH  11  13
ATOM     13  C   UNL A   1      33.015  28.135  24.975  1.00  0.00     0.054 A 
ATOM     14  N   UNL A   1      32.521  26.672  23.373  1.00  0.00    -0.240 N 
ATOM     15  C   UNL A   1      33.407  26.956  24.375  1.00  0.00     0.117 A 
ATOM     16  C   UNL A   1      31.538  27.633  23.285  1.00  0.00     0.065 A 
ATOM     17  C   UNL A   1      31.823  28.563  24.293  1.00  0.00     0.012 A 
ATOM     18  C   UNL A   1      30.454  27.805  22.406  1.00  0.00     0.028 A 
ATOM     19  C   UNL A   1      30.980  29.690  24.431  1.00  0.00     0.011 A 
ATOM     20  C   UNL A   1      29.659  28.948  22.548  1.00  0.00     0.002 A 
ATOM     21  C   UNL A   1      29.914  29.875  23.550  1.00  0.00     0.001 A 
BRANCH  14  22
ATOM     22  S   UNL A   1      32.752  25.390  22.284  1.00  0.00     0.268 S 
ATOM     23  O   UNL A   1      33.747  25.865  21.334  1.00  0.00    -0.201 OA
ATOM     24  O   UNL A   1      31.434  24.966  21.865  1.00  0.00    -0.201 OA
BRANCH  22  25
ATOM     25  C   UNL A   1      33.472  24.040  23.178  1.00  0.00     0.088 A 
ATOM     26  C   UNL A   1      34.929  20.490  25.111  1.00  0.00     0.044 C 
ATOM     27  C   UNL A   1      34.431  21.749  24.465  1.00  0.00    -0.051 A 
ATOM     28  C   UNL A   1      33.057  22.013  24.429  1.00  0.00     0.005 A 
ATOM     29  C   UNL A   1      35.321  22.664  23.890  1.00  0.00     0.005 A 
ATOM     30  C   UNL A   1      32.577  23.152  23.784  1.00  0.00     0.022 A 
ATOM     31  C   UNL A   1      34.848  23.817  23.257  1.00  0.00     0.022 A 
ENDBRANCH  22  25
ENDBRANCH  14  22
ENDBRANCH  11  13
ENDBRANCH   8  11
ENDBRANCH   6   7
ENDBRANCH   4   6
ENDBRANCH   3   4
ENDBRANCH   2   3
ENDBRANCH   1   2
BRANCH   1  32
ATOM     32  O   UNL A   1      36.286  32.580  32.229  1.00  0.00    -0.374 OA
BRANCH  32  33
ATOM     33  C   UNL A   1      37.559  32.469  32.822  1.00  0.00     0.202 C 
BRANCH  33  34
ATOM     34  C   UNL A   1      37.641  31.405  33.919  1.00  0.00     0.261 C 
BRANCH  34  35
ATOM     35  O   UNL A   1      38.853  30.638  33.779  1.00  0.00    -0.460 OA
BRANCH  35  36
ATOM     36  C   UNL A   1      38.806  29.639  32.849  1.00  0.00     0.338 C 
ATOM     37  O   UNL A   1      38.170  28.608  32.988  1.00  0.00    -0.246 OA
BRANCH  36  38
ATOM     38  C   UNL A   1      39.825  29.893  31.786  1.00  0.00     0.060 A 
ATOM     39  C   UNL A   1      39.476  29.814  30.427  1.00  0.00     0.016 A 
ATOM     40  C   UNL A   1      41.168  29.896  32.152  1.00  0.00     0.016 A 
ATOM     41  C   UNL A   1      40.461  29.561  29.459  1.00  0.00     0.010 A 
ATOM     42  C   UNL A   1      42.107  29.523  31.216  1.00  0.00     0.010 A 
ATOM     43  C   UNL A   1      41.762  29.315  29.868  1.00  0.00    -0.014 A 
BRANCH  43  44
ATOM     44  C   UNL A   1      42.891  28.902  29.025  1.00  0.00     0.031 A 
ATOM     45  C   UNL A   1      43.142  27.441  28.960  1.00  0.00     0.074 A 
ATOM     46  C   UNL A   1      43.426  29.713  28.075  1.00  0.00     0.049 A 
ATOM     47  N   UNL A   1      44.022  26.890  28.206  1.00  0.00    -0.248 NA
ATOM     48  C   UNL A   1      42.402  26.466  29.760  1.00  0.00     0.031 C 
ATOM     49  C   UNL A   1      43.927  29.300  26.757  1.00  0.00     0.029 A 
ATOM     50  N   UNL A   1      43.585  31.107  28.025  1.00  0.00    -0.354 N 
ATOM     51  C   UNL A   1      43.778  25.537  28.178  1.00  0.00     0.074 A 
ATOM     52  C   UNL A   1      42.818  25.314  29.227  1.00  0.00     0.031 C 
ATOM     53  C   UNL A   1      44.561  30.326  26.168  1.00  0.00     0.029 A 
ATOM     54  C   UNL A   1      44.661  31.376  27.159  1.00  0.00     0.049 A 
ATOM     55  H   UNL A   1      43.045  31.773  28.508  1.00  0.00     0.167 HD
ATOM     56  C   UNL A   1      44.350  24.816  27.175  1.00  0.00     0.034 A 
ATOM     57  C   UNL A   1      45.793  31.996  27.591  1.00  0.00     0.034 A 
ATOM     58  C   UNL A   1      45.288  25.669  26.414  1.00  0.00     0.049 A 
ATOM     59  C   UNL A   1      46.986  31.096  27.406  1.00  0.00     0.074 A 
ATOM     60  C   UNL A   1      45.221  26.321  25.194  1.00  0.00     0.029 A 
ATOM     61  N   UNL A   1      46.389  26.206  27.081  1.00  0.00    -0.354 N 
ATOM     62  N   UNL A   1      46.873  29.835  27.092  1.00  0.00    -0.248 NA
ATOM     63  C   UNL A   1      48.380  31.509  27.493  1.00  0.00     0.031 C 
ATOM     64  C   UNL A   1      46.266  27.290  25.158  1.00  0.00     0.029 A 
ATOM     65  C   UNL A   1      46.994  27.207  26.336  1.00  0.00     0.049 A 
ATOM     66  H   UNL A   1      46.699  25.912  27.968  1.00  0.00     0.167 HD
ATOM     67  C   UNL A   1      48.091  29.240  27.013  1.00  0.00     0.074 A 
ATOM     68  C   UNL A   1      49.011  30.349  27.224  1.00  0.00     0.031 C 
ATOM     69  C   UNL A   1      48.196  27.886  26.832  1.00  0.00     0.034 A 
BRANCH  56  70
ATOM     70  C   UNL A   1      43.968  23.411  26.724  1.00  0.00     0.023 A 
ATOM     71  C   UNL A   1      44.948  22.698  25.994  1.00  0.00     0.012 A 
ATOM     72  C   UNL A   1      42.733  22.740  26.899  1.00  0.00     0.148 A 
ATOM     73  C   UNL A   1      44.715  21.432  25.443  1.00  0.00     0.002 A 
ATOM     74  C   UNL A   1      42.494  21.475  26.349  1.00  0.00     0.091 A 
ATOM     75  F   UNL A   1      41.759  23.298  27.614  1.00  0.00    -0.205 F 
ATOM     76  C   UNL A   1      43.484  20.821  25.614  1.00  0.00     0.022 A 
BRANCH  74  77
ATOM     77  S   UNL A   1      40.914  20.616  26.513  1.00  0.00     0.127 S 
ATOM     78  O   UNL A   1      40.799  20.460  27.964  1.00  0.00    -0.237 OA
ATOM     79  O   UNL A   1      39.974  21.573  25.932  1.00  0.00    -0.237 OA
ATOM     80  O   UNL A   1      41.044  19.359  25.785  1.00  0.00    -0.744 OA
ENDBRANCH  74  77
ENDBRANCH  56  70
BRANCH  57  81
ATOM     81  C   UNL A   1      45.503  32.973  28.688  1.00  0.00     0.023 A 
ATOM     82  C   UNL A   1      44.546  33.980  28.385  1.00  0.00     0.012 A 
ATOM     83  C   UNL A   1      45.718  32.632  30.034  1.00  0.00     0.148 A 
ATOM     84  C   UNL A   1      43.711  34.501  29.378  1.00  0.00     0.002 A 
ATOM     85  C   UNL A   1      44.870  33.149  31.017  1.00  0.00     0.091 A 
ATOM     86  F   UNL A   1      46.689  31.757  30.325  1.00  0.00    -0.205 F 
ATOM     87  C   UNL A   1      43.841  34.046  30.683  1.00  0.00     0.022 A 
BRANCH  85  88
ATOM     88  S   UNL A   1      44.945  32.589  32.726  1.00  0.00     0.127 S 
ATOM     89  O   UNL A   1      46.205  33.175  33.174  1.00  0.00    -0.237 OA
ATOM     90  O   UNL A   1      43.748  33.197  33.312  1.00  0.00    -0.237 OA
ATOM     91  O   UNL A   1      44.904  31.136  32.658  1.00  0.00    -0.744 OA
ENDBRANCH  85  88
ENDBRANCH  57  81
BRANCH  69  92
ATOM     92  C   UNL A   1      49.445  27.071  27.115  1.00  0.00     0.023 A 
ATOM     93  C   UNL A   1      50.124  26.364  26.105  1.00  0.00     0.012 A 
ATOM     94  C   UNL A   1      50.077  27.112  28.385  1.00  0.00     0.148 A 
ATOM     95  C   UNL A   1      51.323  25.687  26.345  1.00  0.00     0.002 A 
ATOM     96  C   UNL A   1      51.335  26.554  28.582  1.00  0.00     0.091 A 
ATOM     97  F   UNL A   1      49.458  27.672  29.433  1.00  0.00    -0.205 F 
ATOM     98  C   UNL A   1      51.945  25.807  27.576  1.00  0.00     0.022 A 
BRANCH  96  99
ATOM     99  S   UNL A   1      52.292  26.906  30.063  1.00  0.00     0.127 S 
ATOM    100  O   UNL A   1      52.306  28.366  30.068  1.00  0.00    -0.237 OA
ATOM    101  O   UNL A   1      51.468  26.299  31.110  1.00  0.00    -0.237 OA
ATOM    102  O   UNL A   1      53.576  26.251  29.858  1.00  0.00    -0.744 OA
ENDBRANCH  96  99
ENDBRANCH  69  92
ENDBRANCH  43  44
ENDBRANCH  36  38
ENDBRANCH  35  36
ENDBRANCH  34  35
ENDBRANCH  33  34
ENDBRANCH  32  33
ENDBRANCH   1  32
TORSDOF 22
ENDMDL
