MODEL 1
REMARK VINA RESULT:     -10.8      0.000      0.000
REMARK SMILES C#CC[N@H+](CC(=O)OCCOCCOC(=O)c1ccc(-c2c3nc(c(-c4cccc(S(=O)(=O)[O-])c4F)c4ccc([nH]4)c(-c4cccc(S(=O)(=O)[O-])c4F)c4nc(c(-c5cccc(S(=O)(=O)[O-])c5F)c5ccc2[nH]5)C=C4)C=C3)cc1)[C@H](C)c1cc(C)ccc1C
REMARK SMILES IDX 11 1 10 2 9 3 8 4 6 5 7 6 5 7 4 8 3 10 2 11 1 12 80 13 81 14
REMARK SMILES IDX 82 15 83 16 88 17 84 18 87 19 89 20 85 21 86 22 12 23 13 24
REMARK SMILES IDX 14 25 15 26 16 27 17 28 18 29 79 30 19 31 78 32 20 33 21 34
REMARK SMILES IDX 22 35 72 36 23 37 77 38 71 39 73 40 24 41 76 42 70 43 69 44
REMARK SMILES IDX 25 46 57 47 37 48 56 49 38 50 41 51 55 52 74 53 39 54 40 55
REMARK SMILES IDX 54 57 75 58 42 59 26 60 27 61 35 62 28 63 30 64 36 65 29 66
REMARK SMILES IDX 31 67 32 68 33 69 34 70 58 71 59 72 67 73 60 74 62 75 68 76
REMARK SMILES IDX 61 77 63 78 64 79 65 80 66 81 43 82 44 83 52 84 45 85 47 86
REMARK SMILES IDX 53 87 46 88 48 89 49 90 50 91 51 92
REMARK H PARENT 4 9 73 45 41 56
REMARK Flexibility Score: inf
ROOT
ATOM      1  O   UNL A   1      35.348  21.100  26.110  1.00  0.00    -0.374 OA
ENDROOT
BRANCH   1   2
ATOM      2  C   UNL A   1      33.975  20.869  26.415  1.00  0.00     0.202 C 
BRANCH   2   3
ATOM      3  C   UNL A   1      33.231  21.961  27.184  1.00  0.00     0.261 C 
BRANCH   3   4
ATOM      4  O   UNL A   1      31.902  22.141  26.675  1.00  0.00    -0.459 OA
BRANCH   4   5
ATOM      5  C   UNL A   1      31.396  23.392  26.737  1.00  0.00     0.361 C 
ATOM      6  O   UNL A   1      30.351  23.683  27.315  1.00  0.00    -0.245 OA
BRANCH   5   7
ATOM      7  C   UNL A   1      32.184  24.438  25.962  1.00  0.00     0.387 C 
BRANCH   7   8
ATOM      8  N   UNL A   1      32.583  24.214  24.518  1.00  0.00    -0.310 N 
ATOM      9  H   UNL A   1      32.821  23.242  24.323  1.00  0.00     0.349 HD
BRANCH   8  10
ATOM     10  C   UNL A   1      31.434  24.522  23.630  1.00  0.00     0.354 C 
BRANCH  10  11
ATOM     11  C   UNL A   1      30.580  25.654  24.015  1.00  0.00    -0.047 C 
ATOM     12  C   UNL A   1      29.889  26.602  24.289  1.00  0.00     0.010 C 
ENDBRANCH  10  11
ENDBRANCH   8  10
BRANCH   8  13
ATOM     13  C   UNL A   1      33.822  25.057  24.255  1.00  0.00     0.213 C 
ATOM     14  C   UNL A   1      35.100  24.441  24.888  1.00  0.00     0.081 C 
BRANCH  13  15
ATOM     15  C   UNL A   1      33.689  26.586  24.468  1.00  0.00     0.012 A 
ATOM     16  C   UNL A   1      33.681  27.127  25.776  1.00  0.00     0.013 A 
ATOM     17  C   UNL A   1      33.572  27.506  23.399  1.00  0.00    -0.042 A 
ATOM     18  C   UNL A   1      33.489  28.493  26.035  1.00  0.00    -0.051 A 
ATOM     19  C   UNL A   1      33.355  28.875  23.667  1.00  0.00     0.004 A 
ATOM     20  C   UNL A   1      33.521  27.100  21.956  1.00  0.00     0.045 C 
ATOM     21  C   UNL A   1      33.474  28.985  27.452  1.00  0.00     0.044 C 
ATOM     22  C   UNL A   1      33.311  29.365  24.968  1.00  0.00     0.004 A 
ENDBRANCH  13  15
ENDBRANCH   8  13
ENDBRANCH   7   8
ENDBRANCH   5   7
ENDBRANCH   4   5
ENDBRANCH   3   4
ENDBRANCH   2   3
ENDBRANCH   1   2
BRANCH   1  23
ATOM     23  C   UNL A   1      35.907  20.447  24.971  1.00  0.00     0.202 C 
BRANCH  23  24
ATOM     24  C   UNL A   1      37.412  20.159  24.966  1.00  0.00     0.261 C 
BRANCH  24  25
ATOM     25  O   UNL A   1      38.223  21.325  25.185  1.00  0.00    -0.460 OA
BRANCH  25  26
ATOM     26  C   UNL A   1      39.278  21.117  26.009  1.00  0.00     0.338 C 
ATOM     27  O   UNL A   1      39.947  20.099  26.100  1.00  0.00    -0.246 OA
BRANCH  26  28
ATOM     28  C   UNL A   1      39.681  22.369  26.674  1.00  0.00     0.060 A 
ATOM     29  C   UNL A   1      39.037  23.544  26.266  1.00  0.00     0.016 A 
ATOM     30  C   UNL A   1      40.743  22.418  27.577  1.00  0.00     0.016 A 
ATOM     31  C   UNL A   1      39.489  24.781  26.715  1.00  0.00     0.010 A 
ATOM     32  C   UNL A   1      41.197  23.665  28.025  1.00  0.00     0.010 A 
ATOM     33  C   UNL A   1      40.601  24.854  27.563  1.00  0.00    -0.014 A 
BRANCH  33  34
ATOM     34  C   UNL A   1      41.199  26.179  27.861  1.00  0.00     0.031 A 
ATOM     35  C   UNL A   1      42.604  26.478  27.409  1.00  0.00     0.074 A 
ATOM     36  C   UNL A   1      40.485  27.122  28.502  1.00  0.00     0.049 A 
ATOM     37  N   UNL A   1      43.315  27.562  27.580  1.00  0.00    -0.248 NA
ATOM     38  C   UNL A   1      43.302  25.413  26.670  1.00  0.00     0.031 C 
ATOM     39  C   UNL A   1      39.110  26.962  28.975  1.00  0.00     0.029 A 
ATOM     40  N   UNL A   1      40.826  28.396  28.884  1.00  0.00    -0.354 N 
ATOM     41  C   UNL A   1      44.553  27.301  27.005  1.00  0.00     0.074 A 
ATOM     42  C   UNL A   1      44.500  25.950  26.489  1.00  0.00     0.031 C 
ATOM     43  C   UNL A   1      38.732  28.086  29.606  1.00  0.00     0.029 A 
ATOM     44  C   UNL A   1      39.849  29.029  29.615  1.00  0.00     0.049 A 
ATOM     45  H   UNL A   1      41.688  28.815  28.657  1.00  0.00     0.167 HD
ATOM     46  C   UNL A   1      45.634  28.112  26.911  1.00  0.00     0.034 A 
ATOM     47  C   UNL A   1      39.863  30.219  30.248  1.00  0.00     0.034 A 
ATOM     48  C   UNL A   1      45.679  29.459  27.417  1.00  0.00     0.049 A 
ATOM     49  C   UNL A   1      41.090  31.087  30.159  1.00  0.00     0.074 A 
ATOM     50  C   UNL A   1      46.710  30.378  27.321  1.00  0.00     0.029 A 
ATOM     51  N   UNL A   1      44.664  30.072  28.132  1.00  0.00    -0.354 N 
ATOM     52  N   UNL A   1      42.215  30.865  29.524  1.00  0.00    -0.248 NA
ATOM     53  C   UNL A   1      41.039  32.384  30.850  1.00  0.00     0.031 C 
ATOM     54  C   UNL A   1      46.340  31.525  28.030  1.00  0.00     0.029 A 
ATOM     55  C   UNL A   1      45.052  31.347  28.508  1.00  0.00     0.049 A 
ATOM     56  H   UNL A   1      43.793  29.663  28.342  1.00  0.00     0.167 HD
ATOM     57  C   UNL A   1      42.986  32.009  29.703  1.00  0.00     0.074 A 
ATOM     58  C   UNL A   1      42.193  32.928  30.491  1.00  0.00     0.031 C 
ATOM     59  C   UNL A   1      44.241  32.272  29.258  1.00  0.00     0.034 A 
BRANCH  46  60
ATOM     60  C   UNL A   1      46.868  27.567  26.238  1.00  0.00     0.023 A 
ATOM     61  C   UNL A   1      47.739  26.710  26.938  1.00  0.00     0.012 A 
ATOM     62  C   UNL A   1      47.130  27.860  24.884  1.00  0.00     0.148 A 
ATOM     63  C   UNL A   1      48.870  26.182  26.315  1.00  0.00     0.002 A 
ATOM     64  C   UNL A   1      48.229  27.289  24.254  1.00  0.00     0.091 A 
ATOM     65  F   UNL A   1      46.299  28.691  24.238  1.00  0.00    -0.205 F 
ATOM     66  C   UNL A   1      49.108  26.461  24.972  1.00  0.00     0.022 A 
BRANCH  64  67
ATOM     67  S   UNL A   1      48.574  27.521  22.507  1.00  0.00     0.127 S 
ATOM     68  O   UNL A   1      47.395  28.269  22.071  1.00  0.00    -0.237 OA
ATOM     69  O   UNL A   1      49.812  28.301  22.542  1.00  0.00    -0.237 OA
ATOM     70  O   UNL A   1      48.709  26.188  21.939  1.00  0.00    -0.744 OA
ENDBRANCH  64  67
ENDBRANCH  46  60
BRANCH  47  71
ATOM     71  C   UNL A   1      38.671  30.664  31.023  1.00  0.00     0.023 A 
ATOM     72  C   UNL A   1      38.607  30.431  32.410  1.00  0.00     0.012 A 
ATOM     73  C   UNL A   1      37.598  31.321  30.386  1.00  0.00     0.148 A 
ATOM     74  C   UNL A   1      37.481  30.808  33.143  1.00  0.00     0.002 A 
ATOM     75  C   UNL A   1      36.509  31.749  31.132  1.00  0.00     0.091 A 
ATOM     76  F   UNL A   1      37.675  31.523  29.063  1.00  0.00    -0.205 F 
ATOM     77  C   UNL A   1      36.437  31.476  32.506  1.00  0.00     0.022 A 
BRANCH  75  78
ATOM     78  S   UNL A   1      35.179  32.726  30.421  1.00  0.00     0.127 S 
ATOM     79  O   UNL A   1      34.252  32.831  31.544  1.00  0.00    -0.237 OA
ATOM     80  O   UNL A   1      35.873  33.966  30.075  1.00  0.00    -0.237 OA
ATOM     81  O   UNL A   1      34.697  31.966  29.276  1.00  0.00    -0.744 OA
ENDBRANCH  75  78
ENDBRANCH  47  71
BRANCH  59  82
ATOM     82  C   UNL A   1      44.824  33.631  29.560  1.00  0.00     0.023 A 
ATOM     83  C   UNL A   1      45.606  33.832  30.714  1.00  0.00     0.012 A 
ATOM     84  C   UNL A   1      44.644  34.695  28.653  1.00  0.00     0.148 A 
ATOM     85  C   UNL A   1      46.164  35.082  30.983  1.00  0.00     0.002 A 
ATOM     86  C   UNL A   1      45.250  35.921  28.898  1.00  0.00     0.091 A 
ATOM     87  F   UNL A   1      43.886  34.489  27.568  1.00  0.00    -0.205 F 
ATOM     88  C   UNL A   1      45.997  36.122  30.070  1.00  0.00     0.022 A 
BRANCH  86  89
ATOM     89  S   UNL A   1      45.173  37.286  27.734  1.00  0.00     0.127 S 
ATOM     90  O   UNL A   1      43.732  37.460  27.573  1.00  0.00    -0.237 OA
ATOM     91  O   UNL A   1      45.839  38.359  28.475  1.00  0.00    -0.237 OA
ATOM     92  O   UNL A   1      45.883  36.842  26.541  1.00  0.00    -0.744 OA
ENDBRANCH  86  89
ENDBRANCH  59  82
ENDBRANCH  33  34
ENDBRANCH  26  28
ENDBRANCH  25  26
ENDBRANCH  24  25
ENDBRANCH  23  24
ENDBRANCH   1  23
TORSDOF 22
ENDMDL
MODEL 2
REMARK VINA RESULT:     -10.2      1.531      2.263
REMARK SMILES C#CC[N@H+](CC(=O)OCCOCCOC(=O)c1ccc(-c2c3nc(c(-c4cccc(S(=O)(=O)[O-])c4F)c4ccc([nH]4)c(-c4cccc(S(=O)(=O)[O-])c4F)c4nc(c(-c5cccc(S(=O)(=O)[O-])c5F)c5ccc2[nH]5)C=C4)C=C3)cc1)[C@H](C)c1cc(C)ccc1C
REMARK SMILES IDX 11 1 10 2 9 3 8 4 6 5 7 6 5 7 4 8 3 10 2 11 1 12 80 13 81 14
REMARK SMILES IDX 82 15 83 16 88 17 84 18 87 19 89 20 85 21 86 22 12 23 13 24
REMARK SMILES IDX 14 25 15 26 16 27 17 28 18 29 79 30 19 31 78 32 20 33 21 34
REMARK SMILES IDX 22 35 72 36 23 37 77 38 71 39 73 40 24 41 76 42 70 43 69 44
REMARK SMILES IDX 25 46 57 47 37 48 56 49 38 50 41 51 55 52 74 53 39 54 40 55
REMARK SMILES IDX 54 57 75 58 42 59 26 60 27 61 35 62 28 63 30 64 36 65 29 66
REMARK SMILES IDX 31 67 32 68 33 69 34 70 58 71 59 72 67 73 60 74 62 75 68 76
REMARK SMILES IDX 61 77 63 78 64 79 65 80 66 81 43 82 44 83 52 84 45 85 47 86
REMARK SMILES IDX 53 87 46 88 48 89 49 90 50 91 51 92
REMARK H PARENT 4 9 73 45 41 56
REMARK Flexibility Score: inf
ROOT
ATOM      1  O   UNL A   1      34.744  20.638  24.867  1.00  0.00    -0.374 OA
ENDROOT
BRANCH   1   2
ATOM      2  C   UNL A   1      33.444  20.957  24.379  1.00  0.00     0.202 C 
BRANCH   2   3
ATOM      3  C   UNL A   1      32.277  20.858  25.362  1.00  0.00     0.261 C 
BRANCH   3   4
ATOM      4  O   UNL A   1      31.414  22.000  25.260  1.00  0.00    -0.459 OA
BRANCH   4   5
ATOM      5  C   UNL A   1      31.544  22.943  26.218  1.00  0.00     0.361 C 
ATOM      6  O   UNL A   1      32.234  22.808  27.227  1.00  0.00    -0.245 OA
BRANCH   5   7
ATOM      7  C   UNL A   1      30.699  24.190  26.003  1.00  0.00     0.387 C 
BRANCH   7   8
ATOM      8  N   UNL A   1      31.297  25.457  25.428  1.00  0.00    -0.310 N 
ATOM      9  H   UNL A   1      30.963  26.297  25.900  1.00  0.00     0.349 HD
BRANCH   8  10
ATOM     10  C   UNL A   1      32.767  25.452  25.631  1.00  0.00     0.354 C 
BRANCH  10  11
ATOM     11  C   UNL A   1      33.395  26.735  25.978  1.00  0.00    -0.047 C 
ATOM     12  C   UNL A   1      33.921  27.768  26.305  1.00  0.00     0.010 C 
ENDBRANCH  10  11
ENDBRANCH   8  10
BRANCH   8  13
ATOM     13  C   UNL A   1      30.865  25.541  23.972  1.00  0.00     0.213 C 
ATOM     14  C   UNL A   1      31.862  24.827  23.018  1.00  0.00     0.081 C 
BRANCH  13  15
ATOM     15  C   UNL A   1      30.384  26.922  23.460  1.00  0.00     0.012 A 
ATOM     16  C   UNL A   1      29.018  27.281  23.549  1.00  0.00     0.013 A 
ATOM     17  C   UNL A   1      31.258  27.878  22.888  1.00  0.00    -0.042 A 
ATOM     18  C   UNL A   1      28.511  28.485  23.034  1.00  0.00    -0.051 A 
ATOM     19  C   UNL A   1      30.737  29.076  22.351  1.00  0.00     0.004 A 
ATOM     20  C   UNL A   1      32.724  27.644  22.680  1.00  0.00     0.045 C 
ATOM     21  C   UNL A   1      27.046  28.783  23.152  1.00  0.00     0.044 C 
ATOM     22  C   UNL A   1      29.381  29.377  22.419  1.00  0.00     0.004 A 
ENDBRANCH  13  15
ENDBRANCH   8  13
ENDBRANCH   7   8
ENDBRANCH   5   7
ENDBRANCH   4   5
ENDBRANCH   3   4
ENDBRANCH   2   3
ENDBRANCH   1   2
BRANCH   1  23
ATOM     23  C   UNL A   1      35.833  21.478  24.490  1.00  0.00     0.202 C 
BRANCH  23  24
ATOM     24  C   UNL A   1      37.258  20.968  24.727  1.00  0.00     0.261 C 
BRANCH  24  25
ATOM     25  O   UNL A   1      37.735  21.187  26.065  1.00  0.00    -0.460 OA
BRANCH  25  26
ATOM     26  C   UNL A   1      39.086  21.227  26.169  1.00  0.00     0.338 C 
ATOM     27  O   UNL A   1      39.883  20.448  25.671  1.00  0.00    -0.246 OA
BRANCH  26  28
ATOM     28  C   UNL A   1      39.527  22.480  26.809  1.00  0.00     0.060 A 
ATOM     29  C   UNL A   1      38.853  23.653  26.446  1.00  0.00     0.016 A 
ATOM     30  C   UNL A   1      40.644  22.532  27.641  1.00  0.00     0.016 A 
ATOM     31  C   UNL A   1      39.328  24.891  26.867  1.00  0.00     0.010 A 
ATOM     32  C   UNL A   1      41.122  23.780  28.060  1.00  0.00     0.010 A 
ATOM     33  C   UNL A   1      40.492  24.967  27.641  1.00  0.00    -0.014 A 
BRANCH  33  34
ATOM     34  C   UNL A   1      41.104  26.294  27.901  1.00  0.00     0.031 A 
ATOM     35  C   UNL A   1      42.483  26.592  27.377  1.00  0.00     0.074 A 
ATOM     36  C   UNL A   1      40.422  27.239  28.575  1.00  0.00     0.049 A 
ATOM     37  N   UNL A   1      43.200  27.678  27.506  1.00  0.00    -0.248 NA
ATOM     38  C   UNL A   1      43.143  25.525  26.607  1.00  0.00     0.031 C 
ATOM     39  C   UNL A   1      39.074  27.079  29.119  1.00  0.00     0.029 A 
ATOM     40  N   UNL A   1      40.781  28.515  28.934  1.00  0.00    -0.354 N 
ATOM     41  C   UNL A   1      44.408  27.416  26.869  1.00  0.00     0.074 A 
ATOM     42  C   UNL A   1      44.329  26.063  26.361  1.00  0.00     0.031 C 
ATOM     43  C   UNL A   1      38.728  28.206  29.764  1.00  0.00     0.029 A 
ATOM     44  C   UNL A   1      39.842  29.149  29.711  1.00  0.00     0.049 A 
ATOM     45  H   UNL A   1      41.630  28.934  28.661  1.00  0.00     0.167 HD
ATOM     46  C   UNL A   1      45.481  28.227  26.715  1.00  0.00     0.034 A 
ATOM     47  C   UNL A   1      39.888  30.343  30.338  1.00  0.00     0.034 A 
ATOM     48  C   UNL A   1      45.550  29.576  27.212  1.00  0.00     0.049 A 
ATOM     49  C   UNL A   1      41.107  31.211  30.182  1.00  0.00     0.074 A 
ATOM     50  C   UNL A   1      46.574  30.496  27.060  1.00  0.00     0.029 A 
ATOM     51  N   UNL A   1      44.572  30.192  27.977  1.00  0.00    -0.354 N 
ATOM     52  N   UNL A   1      42.199  30.988  29.490  1.00  0.00    -0.248 NA
ATOM     53  C   UNL A   1      41.090  32.511  30.869  1.00  0.00     0.031 C 
ATOM     54  C   UNL A   1      46.240  31.646  27.782  1.00  0.00     0.029 A 
ATOM     55  C   UNL A   1      44.978  31.468  28.327  1.00  0.00     0.049 A 
ATOM     56  H   UNL A   1      43.715  29.782  28.234  1.00  0.00     0.167 HD
ATOM     57  C   UNL A   1      42.977  32.133  29.624  1.00  0.00     0.074 A 
ATOM     58  C   UNL A   1      42.224  33.055  30.449  1.00  0.00     0.031 C 
ATOM     59  C   UNL A   1      44.206  32.396  29.114  1.00  0.00     0.034 A 
BRANCH  46  60
ATOM     60  C   UNL A   1      46.679  27.681  25.981  1.00  0.00     0.023 A 
ATOM     61  C   UNL A   1      46.826  27.902  24.598  1.00  0.00     0.012 A 
ATOM     62  C   UNL A   1      47.694  26.998  26.682  1.00  0.00     0.148 A 
ATOM     63  C   UNL A   1      47.944  27.422  23.916  1.00  0.00     0.002 A 
ATOM     64  C   UNL A   1      48.829  26.568  26.007  1.00  0.00     0.091 A 
ATOM     65  F   UNL A   1      47.529  26.782  27.995  1.00  0.00    -0.205 F 
ATOM     66  C   UNL A   1      48.950  26.766  24.622  1.00  0.00     0.022 A 
BRANCH  64  67
ATOM     67  S   UNL A   1      50.216  25.788  26.841  1.00  0.00     0.127 S 
ATOM     68  O   UNL A   1      49.637  24.504  27.235  1.00  0.00    -0.237 OA
ATOM     69  O   UNL A   1      51.209  25.705  25.769  1.00  0.00    -0.237 OA
ATOM     70  O   UNL A   1      50.576  26.670  27.941  1.00  0.00    -0.744 OA
ENDBRANCH  64  67
ENDBRANCH  46  60
BRANCH  47  71
ATOM     71  C   UNL A   1      38.737  30.790  31.172  1.00  0.00     0.023 A 
ATOM     72  C   UNL A   1      38.780  30.633  32.570  1.00  0.00     0.012 A 
ATOM     73  C   UNL A   1      37.598  31.372  30.580  1.00  0.00     0.148 A 
ATOM     74  C   UNL A   1      37.694  31.013  33.361  1.00  0.00     0.002 A 
ATOM     75  C   UNL A   1      36.548  31.805  31.377  1.00  0.00     0.091 A 
ATOM     76  F   UNL A   1      37.573  31.501  29.246  1.00  0.00    -0.205 F 
ATOM     77  C   UNL A   1      36.583  31.607  32.767  1.00  0.00     0.022 A 
BRANCH  75  78
ATOM     78  S   UNL A   1      35.135  32.693  30.714  1.00  0.00     0.127 S 
ATOM     79  O   UNL A   1      34.164  32.563  31.796  1.00  0.00    -0.237 OA
ATOM     80  O   UNL A   1      35.686  34.036  30.535  1.00  0.00    -0.237 OA
ATOM     81  O   UNL A   1      34.788  32.016  29.472  1.00  0.00    -0.744 OA
ENDBRANCH  75  78
ENDBRANCH  47  71
BRANCH  59  82
ATOM     82  C   UNL A   1      44.802  33.756  29.379  1.00  0.00     0.023 A 
ATOM     83  C   UNL A   1      45.617  33.971  30.508  1.00  0.00     0.012 A 
ATOM     84  C   UNL A   1      44.600  34.809  28.463  1.00  0.00     0.148 A 
ATOM     85  C   UNL A   1      46.187  35.223  30.743  1.00  0.00     0.002 A 
ATOM     86  C   UNL A   1      45.218  36.035  28.673  1.00  0.00     0.091 A 
ATOM     87  F   UNL A   1      43.810  34.590  27.403  1.00  0.00    -0.205 F 
ATOM     88  C   UNL A   1      45.998  36.250  29.820  1.00  0.00     0.022 A 
BRANCH  86  89
ATOM     89  S   UNL A   1      45.112  37.384  27.492  1.00  0.00     0.127 S 
ATOM     90  O   UNL A   1      45.585  38.515  28.288  1.00  0.00    -0.237 OA
ATOM     91  O   UNL A   1      46.034  36.947  26.443  1.00  0.00    -0.237 OA
ATOM     92  O   UNL A   1      43.716  37.455  27.081  1.00  0.00    -0.744 OA
ENDBRANCH  86  89
ENDBRANCH  59  82
ENDBRANCH  33  34
ENDBRANCH  26  28
ENDBRANCH  25  26
ENDBRANCH  24  25
ENDBRANCH  23  24
ENDBRANCH   1  23
TORSDOF 22
ENDMDL
MODEL 3
REMARK VINA RESULT:      -9.9      5.300     10.427
REMARK SMILES C#CC[N@H+](CC(=O)OCCOCCOC(=O)c1ccc(-c2c3nc(c(-c4cccc(S(=O)(=O)[O-])c4F)c4ccc([nH]4)c(-c4cccc(S(=O)(=O)[O-])c4F)c4nc(c(-c5cccc(S(=O)(=O)[O-])c5F)c5ccc2[nH]5)C=C4)C=C3)cc1)[C@H](C)c1cc(C)ccc1C
REMARK SMILES IDX 11 1 10 2 9 3 8 4 6 5 7 6 5 7 4 8 3 10 2 11 1 12 80 13 81 14
REMARK SMILES IDX 82 15 83 16 88 17 84 18 87 19 89 20 85 21 86 22 12 23 13 24
REMARK SMILES IDX 14 25 15 26 16 27 17 28 18 29 79 30 19 31 78 32 20 33 21 34
REMARK SMILES IDX 22 35 72 36 23 37 77 38 71 39 73 40 24 41 76 42 70 43 69 44
REMARK SMILES IDX 25 46 57 47 37 48 56 49 38 50 41 51 55 52 74 53 39 54 40 55
REMARK SMILES IDX 54 57 75 58 42 59 26 60 27 61 35 62 28 63 30 64 36 65 29 66
REMARK SMILES IDX 31 67 32 68 33 69 34 70 58 71 59 72 67 73 60 74 62 75 68 76
REMARK SMILES IDX 61 77 63 78 64 79 65 80 66 81 43 82 44 83 52 84 45 85 47 86
REMARK SMILES IDX 53 87 46 88 48 89 49 90 50 91 51 92
REMARK H PARENT 4 9 73 45 41 56
REMARK Flexibility Score: inf
ROOT
ATOM      1  O   UNL A   1      31.172  28.430  25.455  1.00  0.00    -0.374 OA
ENDROOT
BRANCH   1   2
ATOM      2  C   UNL A   1      31.864  27.203  25.239  1.00  0.00     0.202 C 
BRANCH   2   3
ATOM      3  C   UNL A   1      33.290  27.284  24.695  1.00  0.00     0.261 C 
BRANCH   3   4
ATOM      4  O   UNL A   1      34.075  26.163  25.127  1.00  0.00    -0.459 OA
BRANCH   4   5
ATOM      5  C   UNL A   1      34.077  25.081  24.318  1.00  0.00     0.361 C 
ATOM      6  O   UNL A   1      33.585  25.063  23.191  1.00  0.00    -0.245 OA
BRANCH   5   7
ATOM      7  C   UNL A   1      34.677  23.826  24.936  1.00  0.00     0.387 C 
BRANCH   7   8
ATOM      8  N   UNL A   1      34.681  22.506  24.193  1.00  0.00    -0.310 N 
ATOM      9  H   UNL A   1      34.323  22.591  23.242  1.00  0.00     0.349 HD
BRANCH   8  10
ATOM     10  C   UNL A   1      36.077  22.022  24.044  1.00  0.00     0.354 C 
BRANCH  10  11
ATOM     11  C   UNL A   1      37.041  22.449  25.067  1.00  0.00    -0.047 C 
ATOM     12  C   UNL A   1      37.861  22.812  25.871  1.00  0.00     0.010 C 
ENDBRANCH  10  11
ENDBRANCH   8  10
BRANCH   8  13
ATOM     13  C   UNL A   1      33.766  21.557  24.950  1.00  0.00     0.213 C 
ATOM     14  C   UNL A   1      34.138  21.452  26.455  1.00  0.00     0.081 C 
BRANCH  13  15
ATOM     15  C   UNL A   1      33.459  20.194  24.282  1.00  0.00     0.012 A 
ATOM     16  C   UNL A   1      34.069  19.010  24.763  1.00  0.00     0.013 A 
ATOM     17  C   UNL A   1      32.577  20.054  23.183  1.00  0.00    -0.042 A 
ATOM     18  C   UNL A   1      33.890  17.758  24.153  1.00  0.00    -0.051 A 
ATOM     19  C   UNL A   1      32.421  18.797  22.559  1.00  0.00     0.004 A 
ATOM     20  C   UNL A   1      31.882  21.208  22.525  1.00  0.00     0.045 C 
ATOM     21  C   UNL A   1      34.586  16.554  24.712  1.00  0.00     0.044 C 
ATOM     22  C   UNL A   1      33.070  17.662  23.035  1.00  0.00     0.004 A 
ENDBRANCH  13  15
ENDBRANCH   8  13
ENDBRANCH   7   8
ENDBRANCH   5   7
ENDBRANCH   4   5
ENDBRANCH   3   4
ENDBRANCH   2   3
ENDBRANCH   1   2
BRANCH   1  23
ATOM     23  C   UNL A   1      31.925  29.642  25.446  1.00  0.00     0.202 C 
BRANCH  23  24
ATOM     24  C   UNL A   1      31.795  30.585  26.646  1.00  0.00     0.261 C 
BRANCH  24  25
ATOM     25  O   UNL A   1      32.902  30.512  27.559  1.00  0.00    -0.460 OA
BRANCH  25  26
ATOM     26  C   UNL A   1      33.759  31.559  27.472  1.00  0.00     0.338 C 
ATOM     27  O   UNL A   1      33.478  32.715  27.200  1.00  0.00    -0.246 OA
BRANCH  26  28
ATOM     28  C   UNL A   1      35.099  31.183  27.959  1.00  0.00     0.060 A 
ATOM     29  C   UNL A   1      35.314  29.832  28.257  1.00  0.00     0.016 A 
ATOM     30  C   UNL A   1      36.078  32.136  28.237  1.00  0.00     0.016 A 
ATOM     31  C   UNL A   1      36.488  29.433  28.889  1.00  0.00     0.010 A 
ATOM     32  C   UNL A   1      37.257  31.732  28.876  1.00  0.00     0.010 A 
ATOM     33  C   UNL A   1      37.450  30.387  29.244  1.00  0.00    -0.014 A 
BRANCH  33  34
ATOM     34  C   UNL A   1      38.591  29.981  30.101  1.00  0.00     0.031 A 
ATOM     35  C   UNL A   1      38.731  30.570  31.479  1.00  0.00     0.074 A 
ATOM     36  C   UNL A   1      39.481  29.069  29.667  1.00  0.00     0.049 A 
ATOM     37  N   UNL A   1      39.657  30.362  32.378  1.00  0.00    -0.248 NA
ATOM     38  C   UNL A   1      37.690  31.522  31.900  1.00  0.00     0.031 C 
ATOM     39  C   UNL A   1      39.445  28.413  28.360  1.00  0.00     0.029 A 
ATOM     40  N   UNL A   1      40.600  28.553  30.272  1.00  0.00    -0.354 N 
ATOM     41  C   UNL A   1      39.336  31.181  33.454  1.00  0.00     0.074 A 
ATOM     42  C   UNL A   1      38.133  31.898  33.092  1.00  0.00     0.031 C 
ATOM     43  C   UNL A   1      40.508  27.599  28.252  1.00  0.00     0.029 A 
ATOM     44  C   UNL A   1      41.318  27.705  29.464  1.00  0.00     0.049 A 
ATOM     45  H   UNL A   1      40.862  28.771  31.197  1.00  0.00     0.167 HD
ATOM     46  C   UNL A   1      39.981  31.320  34.637  1.00  0.00     0.034 A 
ATOM     47  C   UNL A   1      42.510  27.108  29.664  1.00  0.00     0.034 A 
ATOM     48  C   UNL A   1      41.172  30.597  34.998  1.00  0.00     0.049 A 
ATOM     49  C   UNL A   1      43.225  27.308  30.973  1.00  0.00     0.074 A 
ATOM     50  C   UNL A   1      41.867  30.630  36.195  1.00  0.00     0.029 A 
ATOM     51  N   UNL A   1      41.859  29.732  34.162  1.00  0.00    -0.354 N 
ATOM     52  N   UNL A   1      42.854  28.006  32.020  1.00  0.00    -0.248 NA
ATOM     53  C   UNL A   1      44.509  26.612  31.143  1.00  0.00     0.031 C 
ATOM     54  C   UNL A   1      43.006  29.830  36.061  1.00  0.00     0.029 A 
ATOM     55  C   UNL A   1      42.984  29.245  34.805  1.00  0.00     0.049 A 
ATOM     56  H   UNL A   1      41.587  29.497  33.245  1.00  0.00     0.167 HD
ATOM     57  C   UNL A   1      43.836  27.800  32.984  1.00  0.00     0.074 A 
ATOM     58  C   UNL A   1      44.808  26.898  32.402  1.00  0.00     0.031 C 
ATOM     59  C   UNL A   1      43.926  28.315  34.235  1.00  0.00     0.034 A 
BRANCH  46  60
ATOM     60  C   UNL A   1      39.416  32.298  35.637  1.00  0.00     0.023 A 
ATOM     61  C   UNL A   1      38.400  31.897  36.526  1.00  0.00     0.012 A 
ATOM     62  C   UNL A   1      39.943  33.602  35.734  1.00  0.00     0.148 A 
ATOM     63  C   UNL A   1      37.890  32.788  37.471  1.00  0.00     0.002 A 
ATOM     64  C   UNL A   1      39.467  34.467  36.711  1.00  0.00     0.091 A 
ATOM     65  F   UNL A   1      40.898  33.971  34.869  1.00  0.00    -0.205 F 
ATOM     66  C   UNL A   1      38.431  34.067  37.571  1.00  0.00     0.022 A 
BRANCH  64  67
ATOM     67  S   UNL A   1      40.155  36.105  36.975  1.00  0.00     0.127 S 
ATOM     68  O   UNL A   1      39.832  36.766  35.710  1.00  0.00    -0.237 OA
ATOM     69  O   UNL A   1      39.383  36.579  38.124  1.00  0.00    -0.237 OA
ATOM     70  O   UNL A   1      41.575  35.912  37.230  1.00  0.00    -0.744 OA
ENDBRANCH  64  67
ENDBRANCH  46  60
BRANCH  47  71
ATOM     71  C   UNL A   1      43.106  26.258  28.594  1.00  0.00     0.023 A 
ATOM     72  C   UNL A   1      42.678  24.927  28.435  1.00  0.00     0.012 A 
ATOM     73  C   UNL A   1      44.097  26.770  27.733  1.00  0.00     0.148 A 
ATOM     74  C   UNL A   1      43.254  24.107  27.462  1.00  0.00     0.002 A 
ATOM     75  C   UNL A   1      44.620  25.970  26.727  1.00  0.00     0.091 A 
ATOM     76  F   UNL A   1      44.497  28.038  27.909  1.00  0.00    -0.205 F 
ATOM     77  C   UNL A   1      44.217  24.631  26.602  1.00  0.00     0.022 A 
BRANCH  75  78
ATOM     78  S   UNL A   1      45.769  26.596  25.497  1.00  0.00     0.127 S 
ATOM     79  O   UNL A   1      45.010  27.695  24.909  1.00  0.00    -0.237 OA
ATOM     80  O   UNL A   1      46.903  27.001  26.328  1.00  0.00    -0.237 OA
ATOM     81  O   UNL A   1      46.047  25.476  24.607  1.00  0.00    -0.744 OA
ENDBRANCH  75  78
ENDBRANCH  47  71
BRANCH  59  82
ATOM     82  C   UNL A   1      45.086  27.877  35.094  1.00  0.00     0.023 A 
ATOM     83  C   UNL A   1      46.280  28.624  35.117  1.00  0.00     0.012 A 
ATOM     84  C   UNL A   1      44.961  26.751  35.933  1.00  0.00     0.148 A 
ATOM     85  C   UNL A   1      47.346  28.233  35.928  1.00  0.00     0.002 A 
ATOM     86  C   UNL A   1      46.004  26.401  36.780  1.00  0.00     0.091 A 
ATOM     87  F   UNL A   1      43.823  26.044  35.888  1.00  0.00    -0.205 F 
ATOM     88  C   UNL A   1      47.204  27.130  36.768  1.00  0.00     0.022 A 
BRANCH  86  89
ATOM     89  S   UNL A   1      45.877  25.058  37.966  1.00  0.00     0.127 S 
ATOM     90  O   UNL A   1      44.721  25.469  38.760  1.00  0.00    -0.237 OA
ATOM     91  O   UNL A   1      45.643  23.903  37.098  1.00  0.00    -0.237 OA
ATOM     92  O   UNL A   1      47.145  25.029  38.683  1.00  0.00    -0.744 OA
ENDBRANCH  86  89
ENDBRANCH  59  82
ENDBRANCH  33  34
ENDBRANCH  26  28
ENDBRANCH  25  26
ENDBRANCH  24  25
ENDBRANCH  23  24
ENDBRANCH   1  23
TORSDOF 22
ENDMDL
