MODEL 1
REMARK VINA RESULT:      -9.9      0.000      0.000
REMARK SMILES C[C@H](Cc1ccco1)[NH2+]Cc1cc(C(=O)OCCOCCOC(=O)c2ccc(-c3c4nc(c(-c5cccc(S(=O)(=O)[O-])c5F)c5ccc([nH]5)c(-c5cccc(S(=O)(=O)[O-])c5F)c5nc(c(-c6cccc(S(=O)(=O)[O-])c6F)c6ccc3[nH]6)C=C5)C=C4)cc2)cs1
REMARK SMILES IDX 18 1 17 2 16 3 14 4 15 5 13 6 11 7 12 8 89 9 88 10 10 11
REMARK SMILES IDX 9 12 2 15 1 16 3 17 4 18 5 19 8 20 6 21 7 22 19 23 20 24
REMARK SMILES IDX 21 25 22 26 23 27 24 28 25 29 26 30 87 31 27 32 86 33 28 34
REMARK SMILES IDX 29 35 30 36 80 37 31 38 85 39 79 40 81 41 32 42 84 43 78 44
REMARK SMILES IDX 77 45 33 47 65 48 45 49 64 50 46 51 49 52 63 53 82 54 47 55
REMARK SMILES IDX 48 56 62 58 83 59 50 60 34 61 35 62 43 63 36 64 38 65 44 66
REMARK SMILES IDX 37 67 39 68 40 69 41 70 42 71 66 72 67 73 75 74 68 75 70 76
REMARK SMILES IDX 76 77 69 78 71 79 72 80 73 81 74 82 51 83 52 84 60 85 53 86
REMARK SMILES IDX 55 87 61 88 54 89 56 90 57 91 58 92 59 93
REMARK H PARENT 9 13 9 14 81 46 49 57
REMARK Flexibility Score: inf
ROOT
ATOM      1  C   UNL A   1      31.166  29.654  24.433  1.00  0.00     0.202 C 
ENDROOT
BRANCH   1   2
ATOM      2  C   UNL A   1      31.434  28.278  25.052  1.00  0.00     0.261 C 
BRANCH   2   3
ATOM      3  O   UNL A   1      31.301  27.255  24.054  1.00  0.00    -0.460 OA
BRANCH   3   4
ATOM      4  C   UNL A   1      30.191  26.473  24.155  1.00  0.00     0.339 C 
ATOM      5  O   UNL A   1      29.053  26.824  23.866  1.00  0.00    -0.246 OA
BRANCH   4   6
ATOM      6  C   UNL A   1      30.521  25.106  24.543  1.00  0.00     0.071 A 
ATOM      7  C   UNL A   1      31.331  22.914  24.395  1.00  0.00     0.060 A 
ATOM      8  C   UNL A   1      30.929  24.031  23.684  1.00  0.00     0.037 A 
ATOM      9  S   UNL A   1      30.865  23.033  26.040  1.00  0.00    -0.142 S 
ATOM     10  C   UNL A   1      30.437  24.674  25.853  1.00  0.00     0.081 A 
BRANCH   7  11
ATOM     11  C   UNL A   1      32.118  21.729  23.918  1.00  0.00     0.308 C 
BRANCH  11  12
ATOM     12  N   UNL A   1      33.502  21.761  24.373  1.00  0.00    -0.339 N 
ATOM     13  H   UNL A   1      34.086  21.498  23.579  1.00  0.00     0.346 HD
ATOM     14  H   UNL A   1      33.624  22.709  24.729  1.00  0.00     0.346 HD
BRANCH  12  15
ATOM     15  C   UNL A   1      33.896  20.903  25.503  1.00  0.00     0.187 C 
ATOM     16  C   UNL A   1      34.321  21.575  26.816  1.00  0.00     0.075 C 
BRANCH  15  17
ATOM     17  C   UNL A   1      34.955  19.860  25.066  1.00  0.00     0.140 C 
BRANCH  17  18
ATOM     18  C   UNL A   1      34.447  18.616  24.415  1.00  0.00     0.109 A 
ATOM     19  C   UNL A   1      34.914  17.335  24.191  1.00  0.00     0.046 A 
ATOM     20  O   UNL A   1      33.175  18.720  23.936  1.00  0.00    -0.469 OA
ATOM     21  C   UNL A   1      33.875  16.635  23.526  1.00  0.00     0.042 A 
ATOM     22  C   UNL A   1      32.833  17.522  23.402  1.00  0.00     0.195 A 
ENDBRANCH  17  18
ENDBRANCH  15  17
ENDBRANCH  12  15
ENDBRANCH  11  12
ENDBRANCH   7  11
ENDBRANCH   4   6
ENDBRANCH   3   4
ENDBRANCH   2   3
ENDBRANCH   1   2
BRANCH   1  23
ATOM     23  O   UNL A   1      30.837  30.677  25.377  1.00  0.00    -0.374 OA
BRANCH  23  24
ATOM     24  C   UNL A   1      31.815  30.946  26.385  1.00  0.00     0.202 C 
BRANCH  24  25
ATOM     25  C   UNL A   1      31.728  32.329  27.035  1.00  0.00     0.261 C 
BRANCH  25  26
ATOM     26  O   UNL A   1      32.945  33.066  26.833  1.00  0.00    -0.460 OA
BRANCH  26  27
ATOM     27  C   UNL A   1      33.447  33.661  27.941  1.00  0.00     0.338 C 
ATOM     28  O   UNL A   1      32.931  34.550  28.596  1.00  0.00    -0.246 OA
BRANCH  27  29
ATOM     29  C   UNL A   1      34.660  32.942  28.378  1.00  0.00     0.060 A 
ATOM     30  C   UNL A   1      34.493  31.653  28.899  1.00  0.00     0.016 A 
ATOM     31  C   UNL A   1      35.931  33.520  28.308  1.00  0.00     0.016 A 
ATOM     32  C   UNL A   1      35.591  30.949  29.389  1.00  0.00     0.010 A 
ATOM     33  C   UNL A   1      37.030  32.815  28.809  1.00  0.00     0.010 A 
ATOM     34  C   UNL A   1      36.861  31.539  29.375  1.00  0.00    -0.014 A 
BRANCH  34  35
ATOM     35  C   UNL A   1      37.998  30.867  30.045  1.00  0.00     0.031 A 
ATOM     36  C   UNL A   1      38.360  31.263  31.448  1.00  0.00     0.074 A 
ATOM     37  C   UNL A   1      38.715  29.931  29.398  1.00  0.00     0.049 A 
ATOM     38  N   UNL A   1      39.348  30.847  32.195  1.00  0.00    -0.248 NA
ATOM     39  C   UNL A   1      37.494  32.263  32.096  1.00  0.00     0.031 C 
ATOM     40  C   UNL A   1      38.456  29.462  28.037  1.00  0.00     0.029 A 
ATOM     41  N   UNL A   1      39.827  29.231  29.792  1.00  0.00    -0.354 N 
ATOM     42  C   UNL A   1      39.241  31.549  33.389  1.00  0.00     0.074 A 
ATOM     43  C   UNL A   1      38.095  32.423  33.266  1.00  0.00     0.031 C 
ATOM     44  C   UNL A   1      39.406  28.575  27.696  1.00  0.00     0.029 A 
ATOM     45  C   UNL A   1      40.352  28.435  28.802  1.00  0.00     0.049 A 
ATOM     46  H   UNL A   1      40.211  29.293  30.696  1.00  0.00     0.167 HD
ATOM     47  C   UNL A   1      40.018  31.460  34.495  1.00  0.00     0.034 A 
ATOM     48  C   UNL A   1      41.483  27.702  28.782  1.00  0.00     0.034 A 
ATOM     49  C   UNL A   1      41.145  30.578  34.622  1.00  0.00     0.049 A 
ATOM     50  C   UNL A   1      42.357  27.659  30.008  1.00  0.00     0.074 A 
ATOM     51  C   UNL A   1      41.958  30.375  35.724  1.00  0.00     0.029 A 
ATOM     52  N   UNL A   1      41.630  29.764  33.611  1.00  0.00    -0.354 N 
ATOM     53  N   UNL A   1      42.169  28.225  31.175  1.00  0.00    -0.248 NA
ATOM     54  C   UNL A   1      43.587  26.856  29.921  1.00  0.00     0.031 C 
ATOM     55  C   UNL A   1      42.949  29.453  35.370  1.00  0.00     0.029 A 
ATOM     56  C   UNL A   1      42.743  29.071  34.053  1.00  0.00     0.049 A 
ATOM     57  H   UNL A   1      41.241  29.690  32.710  1.00  0.00     0.167 HD
ATOM     58  C   UNL A   1      43.238  27.825  31.971  1.00  0.00     0.074 A 
ATOM     59  C   UNL A   1      44.060  26.952  31.157  1.00  0.00     0.031 C 
ATOM     60  C   UNL A   1      43.522  28.163  33.252  1.00  0.00     0.034 A 
BRANCH  47  61
ATOM     61  C   UNL A   1      39.653  32.322  35.673  1.00  0.00     0.023 A 
ATOM     62  C   UNL A   1      40.212  33.610  35.788  1.00  0.00     0.012 A 
ATOM     63  C   UNL A   1      38.718  31.883  36.630  1.00  0.00     0.148 A 
ATOM     64  C   UNL A   1      39.863  34.441  36.852  1.00  0.00     0.002 A 
ATOM     65  C   UNL A   1      38.349  32.732  37.668  1.00  0.00     0.091 A 
ATOM     66  F   UNL A   1      38.220  30.644  36.516  1.00  0.00    -0.205 F 
ATOM     67  C   UNL A   1      38.926  34.006  37.784  1.00  0.00     0.022 A 
BRANCH  65  68
ATOM     68  S   UNL A   1      37.099  32.285  38.878  1.00  0.00     0.127 S 
ATOM     69  O   UNL A   1      37.572  32.995  40.065  1.00  0.00    -0.237 OA
ATOM     70  O   UNL A   1      35.880  32.836  38.284  1.00  0.00    -0.237 OA
ATOM     71  O   UNL A   1      37.126  30.832  38.962  1.00  0.00    -0.744 OA
ENDBRANCH  65  68
ENDBRANCH  47  61
BRANCH  48  72
ATOM     72  C   UNL A   1      41.845  26.929  27.561  1.00  0.00     0.023 A 
ATOM     73  C   UNL A   1      42.400  27.598  26.453  1.00  0.00     0.012 A 
ATOM     74  C   UNL A   1      41.664  25.535  27.503  1.00  0.00     0.148 A 
ATOM     75  C   UNL A   1      42.749  26.893  25.300  1.00  0.00     0.002 A 
ATOM     76  C   UNL A   1      42.066  24.832  26.373  1.00  0.00     0.091 A 
ATOM     77  F   UNL A   1      41.115  24.921  28.560  1.00  0.00    -0.205 F 
ATOM     78  C   UNL A   1      42.593  25.510  25.265  1.00  0.00     0.022 A 
BRANCH  76  79
ATOM     79  S   UNL A   1      42.041  23.039  26.300  1.00  0.00     0.127 S 
ATOM     80  O   UNL A   1      42.852  22.678  27.459  1.00  0.00    -0.237 OA
ATOM     81  O   UNL A   1      40.610  22.757  26.428  1.00  0.00    -0.237 OA
ATOM     82  O   UNL A   1      42.600  22.698  24.999  1.00  0.00    -0.744 OA
ENDBRANCH  76  79
ENDBRANCH  48  72
BRANCH  60  83
ATOM     83  C   UNL A   1      44.761  27.574  33.875  1.00  0.00     0.023 A 
ATOM     84  C   UNL A   1      44.682  26.335  34.539  1.00  0.00     0.012 A 
ATOM     85  C   UNL A   1      46.013  28.201  33.723  1.00  0.00     0.148 A 
ATOM     86  C   UNL A   1      45.829  25.739  35.064  1.00  0.00     0.002 A 
ATOM     87  C   UNL A   1      47.157  27.581  34.210  1.00  0.00     0.091 A 
ATOM     88  F   UNL A   1      46.062  29.390  33.103  1.00  0.00    -0.205 F 
ATOM     89  C   UNL A   1      47.066  26.354  34.888  1.00  0.00     0.022 A 
BRANCH  87  90
ATOM     90  S   UNL A   1      48.803  28.254  33.951  1.00  0.00     0.127 S 
ATOM     91  O   UNL A   1      48.712  28.744  32.578  1.00  0.00    -0.237 OA
ATOM     92  O   UNL A   1      48.874  29.301  34.970  1.00  0.00    -0.237 OA
ATOM     93  O   UNL A   1      49.726  27.146  34.160  1.00  0.00    -0.744 OA
ENDBRANCH  87  90
ENDBRANCH  60  83
ENDBRANCH  34  35
ENDBRANCH  27  29
ENDBRANCH  26  27
ENDBRANCH  25  26
ENDBRANCH  24  25
ENDBRANCH  23  24
ENDBRANCH   1  23
TORSDOF 22
ENDMDL
MODEL 2
REMARK VINA RESULT:      -9.8      2.638      8.039
REMARK SMILES C[C@H](Cc1ccco1)[NH2+]Cc1cc(C(=O)OCCOCCOC(=O)c2ccc(-c3c4nc(c(-c5cccc(S(=O)(=O)[O-])c5F)c5ccc([nH]5)c(-c5cccc(S(=O)(=O)[O-])c5F)c5nc(c(-c6cccc(S(=O)(=O)[O-])c6F)c6ccc3[nH]6)C=C5)C=C4)cc2)cs1
REMARK SMILES IDX 18 1 17 2 16 3 14 4 15 5 13 6 11 7 12 8 89 9 88 10 10 11
REMARK SMILES IDX 9 12 2 15 1 16 3 17 4 18 5 19 8 20 6 21 7 22 19 23 20 24
REMARK SMILES IDX 21 25 22 26 23 27 24 28 25 29 26 30 87 31 27 32 86 33 28 34
REMARK SMILES IDX 29 35 30 36 80 37 31 38 85 39 79 40 81 41 32 42 84 43 78 44
REMARK SMILES IDX 77 45 33 47 65 48 45 49 64 50 46 51 49 52 63 53 82 54 47 55
REMARK SMILES IDX 48 56 62 58 83 59 50 60 34 61 35 62 43 63 36 64 38 65 44 66
REMARK SMILES IDX 37 67 39 68 40 69 41 70 42 71 66 72 67 73 75 74 68 75 70 76
REMARK SMILES IDX 76 77 69 78 71 79 72 80 73 81 74 82 51 83 52 84 60 85 53 86
REMARK SMILES IDX 55 87 61 88 54 89 56 90 57 91 58 92 59 93
REMARK H PARENT 9 13 9 14 81 46 49 57
REMARK Flexibility Score: inf
ROOT
ATOM      1  C   UNL A   1      31.319  29.916  24.609  1.00  0.00     0.202 C 
ENDROOT
BRANCH   1   2
ATOM      2  C   UNL A   1      31.451  28.492  25.159  1.00  0.00     0.261 C 
BRANCH   2   3
ATOM      3  O   UNL A   1      31.275  27.537  24.102  1.00  0.00    -0.460 OA
BRANCH   3   4
ATOM      4  C   UNL A   1      30.164  26.756  24.192  1.00  0.00     0.339 C 
ATOM      5  O   UNL A   1      29.034  27.098  23.861  1.00  0.00    -0.246 OA
BRANCH   4   6
ATOM      6  C   UNL A   1      30.483  25.400  24.624  1.00  0.00     0.071 A 
ATOM      7  C   UNL A   1      31.258  23.193  24.542  1.00  0.00     0.060 A 
ATOM      8  C   UNL A   1      30.856  24.288  23.798  1.00  0.00     0.037 A 
ATOM      9  S   UNL A   1      30.832  23.381  26.192  1.00  0.00    -0.142 S 
ATOM     10  C   UNL A   1      30.423  25.020  25.952  1.00  0.00     0.081 A 
BRANCH   7  11
ATOM     11  C   UNL A   1      32.017  21.978  24.093  1.00  0.00     0.308 C 
BRANCH  11  12
ATOM     12  N   UNL A   1      33.401  21.987  24.550  1.00  0.00    -0.339 N 
ATOM     13  H   UNL A   1      33.990  21.844  23.730  1.00  0.00     0.346 HD
ATOM     14  H   UNL A   1      33.499  22.884  25.026  1.00  0.00     0.346 HD
BRANCH  12  15
ATOM     15  C   UNL A   1      33.819  21.001  25.560  1.00  0.00     0.187 C 
ATOM     16  C   UNL A   1      34.352  21.515  26.905  1.00  0.00     0.075 C 
BRANCH  15  17
ATOM     17  C   UNL A   1      34.798  19.965  24.955  1.00  0.00     0.140 C 
BRANCH  17  18
ATOM     18  C   UNL A   1      34.197  18.723  24.385  1.00  0.00     0.109 A 
ATOM     19  C   UNL A   1      33.068  18.393  23.660  1.00  0.00     0.046 A 
ATOM     20  O   UNL A   1      34.950  17.603  24.576  1.00  0.00    -0.469 OA
ATOM     21  C   UNL A   1      33.135  16.997  23.417  1.00  0.00     0.042 A 
ATOM     22  C   UNL A   1      34.306  16.564  23.989  1.00  0.00     0.195 A 
ENDBRANCH  17  18
ENDBRANCH  15  17
ENDBRANCH  12  15
ENDBRANCH  11  12
ENDBRANCH   7  11
ENDBRANCH   4   6
ENDBRANCH   3   4
ENDBRANCH   2   3
ENDBRANCH   1   2
BRANCH   1  23
ATOM     23  O   UNL A   1      31.007  30.907  25.593  1.00  0.00    -0.374 OA
BRANCH  23  24
ATOM     24  C   UNL A   1      32.022  31.172  26.566  1.00  0.00     0.202 C 
BRANCH  24  25
ATOM     25  C   UNL A   1      31.951  32.548  27.232  1.00  0.00     0.261 C 
BRANCH  25  26
ATOM     26  O   UNL A   1      33.257  33.143  27.316  1.00  0.00    -0.460 OA
BRANCH  26  27
ATOM     27  C   UNL A   1      33.413  34.046  28.313  1.00  0.00     0.338 C 
ATOM     28  O   UNL A   1      32.682  34.986  28.575  1.00  0.00    -0.246 OA
BRANCH  27  29
ATOM     29  C   UNL A   1      34.525  33.626  29.188  1.00  0.00     0.060 A 
ATOM     30  C   UNL A   1      35.797  34.137  28.903  1.00  0.00     0.016 A 
ATOM     31  C   UNL A   1      34.340  32.733  30.247  1.00  0.00     0.016 A 
ATOM     32  C   UNL A   1      36.898  33.728  29.652  1.00  0.00     0.010 A 
ATOM     33  C   UNL A   1      35.448  32.316  30.991  1.00  0.00     0.010 A 
ATOM     34  C   UNL A   1      36.734  32.791  30.680  1.00  0.00    -0.014 A 
BRANCH  34  35
ATOM     35  C   UNL A   1      37.920  32.226  31.365  1.00  0.00     0.031 A 
ATOM     36  C   UNL A   1      38.640  31.063  30.746  1.00  0.00     0.074 A 
ATOM     37  C   UNL A   1      38.333  32.732  32.541  1.00  0.00     0.049 A 
ATOM     38  N   UNL A   1      39.658  30.383  31.203  1.00  0.00    -0.248 NA
ATOM     39  C   UNL A   1      38.147  30.604  29.436  1.00  0.00     0.031 C 
ATOM     40  C   UNL A   1      37.717  33.861  33.237  1.00  0.00     0.029 A 
ATOM     41  N   UNL A   1      39.351  32.338  33.372  1.00  0.00    -0.354 N 
ATOM     42  C   UNL A   1      39.913  29.401  30.255  1.00  0.00     0.074 A 
ATOM     43  C   UNL A   1      38.939  29.568  29.198  1.00  0.00     0.031 C 
ATOM     44  C   UNL A   1      38.349  34.047  34.408  1.00  0.00     0.029 A 
ATOM     45  C   UNL A   1      39.394  33.035  34.555  1.00  0.00     0.049 A 
ATOM     46  H   UNL A   1      39.989  31.624  33.141  1.00  0.00     0.167 HD
ATOM     47  C   UNL A   1      40.882  28.455  30.256  1.00  0.00     0.034 A 
ATOM     48  C   UNL A   1      40.169  32.857  35.644  1.00  0.00     0.034 A 
ATOM     49  C   UNL A   1      41.860  28.302  31.298  1.00  0.00     0.049 A 
ATOM     50  C   UNL A   1      41.207  31.766  35.641  1.00  0.00     0.074 A 
ATOM     51  C   UNL A   1      42.918  27.411  31.361  1.00  0.00     0.029 A 
ATOM     52  N   UNL A   1      41.893  29.045  32.467  1.00  0.00    -0.354 N 
ATOM     53  N   UNL A   1      41.524  30.931  34.680  1.00  0.00    -0.248 NA
ATOM     54  C   UNL A   1      42.011  31.608  36.862  1.00  0.00     0.031 C 
ATOM     55  C   UNL A   1      43.576  27.601  32.580  1.00  0.00     0.029 A 
ATOM     56  C   UNL A   1      42.939  28.622  33.269  1.00  0.00     0.049 A 
ATOM     57  H   UNL A   1      41.264  29.767  32.695  1.00  0.00     0.167 HD
ATOM     58  C   UNL A   1      42.580  30.169  35.169  1.00  0.00     0.074 A 
ATOM     59  C   UNL A   1      42.864  30.656  36.504  1.00  0.00     0.031 C 
ATOM     60  C   UNL A   1      43.245  29.150  34.573  1.00  0.00     0.034 A 
BRANCH  47  61
ATOM     61  C   UNL A   1      40.953  27.528  29.073  1.00  0.00     0.023 A 
ATOM     62  C   UNL A   1      40.123  26.390  29.035  1.00  0.00     0.012 A 
ATOM     63  C   UNL A   1      41.792  27.813  27.979  1.00  0.00     0.148 A 
ATOM     64  C   UNL A   1      40.145  25.535  27.935  1.00  0.00     0.002 A 
ATOM     65  C   UNL A   1      41.781  26.974  26.869  1.00  0.00     0.091 A 
ATOM     66  F   UNL A   1      42.593  28.885  28.048  1.00  0.00    -0.205 F 
ATOM     67  C   UNL A   1      40.965  25.831  26.850  1.00  0.00     0.022 A 
BRANCH  65  68
ATOM     68  S   UNL A   1      42.753  27.312  25.397  1.00  0.00     0.127 S 
ATOM     69  O   UNL A   1      42.492  26.120  24.592  1.00  0.00    -0.237 OA
ATOM     70  O   UNL A   1      42.131  28.537  24.890  1.00  0.00    -0.237 OA
ATOM     71  O   UNL A   1      44.125  27.475  25.853  1.00  0.00    -0.744 OA
ENDBRANCH  65  68
ENDBRANCH  47  61
BRANCH  48  72
ATOM     72  C   UNL A   1      40.006  33.750  36.825  1.00  0.00     0.023 A 
ATOM     73  C   UNL A   1      38.886  33.597  37.663  1.00  0.00     0.012 A 
ATOM     74  C   UNL A   1      40.967  34.731  37.133  1.00  0.00     0.148 A 
ATOM     75  C   UNL A   1      38.714  34.421  38.777  1.00  0.00     0.002 A 
ATOM     76  C   UNL A   1      40.819  35.510  38.274  1.00  0.00     0.091 A 
ATOM     77  F   UNL A   1      42.015  34.875  36.310  1.00  0.00    -0.205 F 
ATOM     78  C   UNL A   1      39.686  35.368  39.088  1.00  0.00     0.022 A 
BRANCH  76  79
ATOM     79  S   UNL A   1      42.091  36.646  38.831  1.00  0.00     0.127 S 
ATOM     80  O   UNL A   1      41.467  37.244  40.008  1.00  0.00    -0.237 OA
ATOM     81  O   UNL A   1      43.202  35.735  39.110  1.00  0.00    -0.237 OA
ATOM     82  O   UNL A   1      42.325  37.544  37.708  1.00  0.00    -0.744 OA
ENDBRANCH  76  79
ENDBRANCH  48  72
BRANCH  60  83
ATOM     83  C   UNL A   1      44.363  28.496  35.342  1.00  0.00     0.023 A 
ATOM     84  C   UNL A   1      45.683  28.958  35.175  1.00  0.00     0.012 A 
ATOM     85  C   UNL A   1      44.095  27.492  36.292  1.00  0.00     0.148 A 
ATOM     86  C   UNL A   1      46.724  28.414  35.927  1.00  0.00     0.002 A 
ATOM     87  C   UNL A   1      45.130  26.985  37.069  1.00  0.00     0.091 A 
ATOM     88  F   UNL A   1      42.833  27.054  36.422  1.00  0.00    -0.205 F 
ATOM     89  C   UNL A   1      46.446  27.438  36.882  1.00  0.00     0.022 A 
BRANCH  87  90
ATOM     90  S   UNL A   1      44.853  25.792  38.384  1.00  0.00     0.127 S 
ATOM     91  O   UNL A   1      43.905  26.504  39.238  1.00  0.00    -0.237 OA
ATOM     92  O   UNL A   1      44.286  24.655  37.658  1.00  0.00    -0.237 OA
ATOM     93  O   UNL A   1      46.160  25.538  38.977  1.00  0.00    -0.744 OA
ENDBRANCH  87  90
ENDBRANCH  60  83
ENDBRANCH  34  35
ENDBRANCH  27  29
ENDBRANCH  26  27
ENDBRANCH  25  26
ENDBRANCH  24  25
ENDBRANCH  23  24
ENDBRANCH   1  23
TORSDOF 22
ENDMDL
MODEL 3
REMARK VINA RESULT:      -9.8      5.670      9.554
REMARK SMILES C[C@H](Cc1ccco1)[NH2+]Cc1cc(C(=O)OCCOCCOC(=O)c2ccc(-c3c4nc(c(-c5cccc(S(=O)(=O)[O-])c5F)c5ccc([nH]5)c(-c5cccc(S(=O)(=O)[O-])c5F)c5nc(c(-c6cccc(S(=O)(=O)[O-])c6F)c6ccc3[nH]6)C=C5)C=C4)cc2)cs1
REMARK SMILES IDX 18 1 17 2 16 3 14 4 15 5 13 6 11 7 12 8 89 9 88 10 10 11
REMARK SMILES IDX 9 12 2 15 1 16 3 17 4 18 5 19 8 20 6 21 7 22 19 23 20 24
REMARK SMILES IDX 21 25 22 26 23 27 24 28 25 29 26 30 87 31 27 32 86 33 28 34
REMARK SMILES IDX 29 35 30 36 80 37 31 38 85 39 79 40 81 41 32 42 84 43 78 44
REMARK SMILES IDX 77 45 33 47 65 48 45 49 64 50 46 51 49 52 63 53 82 54 47 55
REMARK SMILES IDX 48 56 62 58 83 59 50 60 34 61 35 62 43 63 36 64 38 65 44 66
REMARK SMILES IDX 37 67 39 68 40 69 41 70 42 71 66 72 67 73 75 74 68 75 70 76
REMARK SMILES IDX 76 77 69 78 71 79 72 80 73 81 74 82 51 83 52 84 60 85 53 86
REMARK SMILES IDX 55 87 61 88 54 89 56 90 57 91 58 92 59 93
REMARK H PARENT 9 13 9 14 81 46 49 57
REMARK Flexibility Score: inf
ROOT
ATOM      1  C   UNL A   1      37.559  21.587  25.419  1.00  0.00     0.202 C 
ENDROOT
BRANCH   1   2
ATOM      2  C   UNL A   1      36.090  21.993  25.571  1.00  0.00     0.261 C 
BRANCH   2   3
ATOM      3  O   UNL A   1      35.407  21.854  24.316  1.00  0.00    -0.460 OA
BRANCH   3   4
ATOM      4  C   UNL A   1      35.465  22.934  23.490  1.00  0.00     0.339 C 
ATOM      5  O   UNL A   1      36.466  23.311  22.891  1.00  0.00    -0.246 OA
BRANCH   4   6
ATOM      6  C   UNL A   1      34.154  23.543  23.296  1.00  0.00     0.071 A 
ATOM      7  C   UNL A   1      32.493  24.965  22.459  1.00  0.00     0.060 A 
ATOM      8  C   UNL A   1      33.854  24.765  22.607  1.00  0.00     0.037 A 
ATOM      9  S   UNL A   1      31.603  23.895  23.460  1.00  0.00    -0.142 S 
ATOM     10  C   UNL A   1      33.001  22.985  23.818  1.00  0.00     0.081 A 
BRANCH   7  11
ATOM     11  C   UNL A   1      31.776  25.912  21.542  1.00  0.00     0.308 C 
BRANCH  11  12
ATOM     12  N   UNL A   1      30.893  26.822  22.263  1.00  0.00    -0.339 N 
ATOM     13  H   UNL A   1      30.384  27.363  21.564  1.00  0.00     0.346 HD
ATOM     14  H   UNL A   1      30.334  26.208  22.854  1.00  0.00     0.346 HD
BRANCH  12  15
ATOM     15  C   UNL A   1      31.486  27.783  23.208  1.00  0.00     0.187 C 
ATOM     16  C   UNL A   1      31.072  27.706  24.684  1.00  0.00     0.075 C 
BRANCH  15  17
ATOM     17  C   UNL A   1      31.346  29.235  22.686  1.00  0.00     0.140 C 
BRANCH  17  18
ATOM     18  C   UNL A   1      29.960  29.780  22.575  1.00  0.00     0.109 A 
ATOM     19  C   UNL A   1      29.023  30.325  23.432  1.00  0.00     0.046 A 
ATOM     20  O   UNL A   1      29.469  29.796  21.304  1.00  0.00    -0.469 OA
ATOM     21  C   UNL A   1      27.900  30.672  22.636  1.00  0.00     0.042 A 
ATOM     22  C   UNL A   1      28.227  30.337  21.345  1.00  0.00     0.195 A 
ENDBRANCH  17  18
ENDBRANCH  15  17
ENDBRANCH  12  15
ENDBRANCH  11  12
ENDBRANCH   7  11
ENDBRANCH   4   6
ENDBRANCH   3   4
ENDBRANCH   2   3
ENDBRANCH   1   2
BRANCH   1  23
ATOM     23  O   UNL A   1      37.762  20.232  25.009  1.00  0.00    -0.374 OA
BRANCH  23  24
ATOM     24  C   UNL A   1      39.005  19.635  25.392  1.00  0.00     0.202 C 
BRANCH  24  25
ATOM     25  C   UNL A   1      39.945  20.534  26.199  1.00  0.00     0.261 C 
BRANCH  25  26
ATOM     26  O   UNL A   1      41.056  19.781  26.712  1.00  0.00    -0.460 OA
BRANCH  26  27
ATOM     27  C   UNL A   1      42.202  19.890  25.998  1.00  0.00     0.338 C 
ATOM     28  O   UNL A   1      42.594  19.142  25.119  1.00  0.00    -0.246 OA
BRANCH  27  29
ATOM     29  C   UNL A   1      42.852  21.179  26.305  1.00  0.00     0.060 A 
ATOM     30  C   UNL A   1      42.979  21.532  27.654  1.00  0.00     0.016 A 
ATOM     31  C   UNL A   1      43.306  22.039  25.301  1.00  0.00     0.016 A 
ATOM     32  C   UNL A   1      43.525  22.764  28.006  1.00  0.00     0.010 A 
ATOM     33  C   UNL A   1      43.844  23.280  25.656  1.00  0.00     0.010 A 
ATOM     34  C   UNL A   1      43.931  23.658  27.008  1.00  0.00    -0.014 A 
BRANCH  34  35
ATOM     35  C   UNL A   1      44.353  25.031  27.369  1.00  0.00     0.031 A 
ATOM     36  C   UNL A   1      43.326  26.006  27.871  1.00  0.00     0.074 A 
ATOM     37  C   UNL A   1      45.636  25.410  27.226  1.00  0.00     0.049 A 
ATOM     38  N   UNL A   1      43.468  27.266  28.186  1.00  0.00    -0.248 NA
ATOM     39  C   UNL A   1      41.956  25.492  28.039  1.00  0.00     0.031 C 
ATOM     40  C   UNL A   1      46.721  24.552  26.753  1.00  0.00     0.029 A 
ATOM     41  N   UNL A   1      46.234  26.627  27.437  1.00  0.00    -0.354 N 
ATOM     42  C   UNL A   1      42.206  27.705  28.565  1.00  0.00     0.074 A 
ATOM     43  C   UNL A   1      41.308  26.578  28.434  1.00  0.00     0.031 C 
ATOM     44  C   UNL A   1      47.848  25.281  26.675  1.00  0.00     0.029 A 
ATOM     45  C   UNL A   1      47.557  26.659  27.067  1.00  0.00     0.049 A 
ATOM     46  H   UNL A   1      45.760  27.402  27.816  1.00  0.00     0.167 HD
ATOM     47  C   UNL A   1      41.832  28.932  28.998  1.00  0.00     0.034 A 
ATOM     48  C   UNL A   1      48.425  27.689  27.023  1.00  0.00     0.034 A 
ATOM     49  C   UNL A   1      42.729  30.045  29.144  1.00  0.00     0.049 A 
ATOM     50  C   UNL A   1      47.971  29.056  27.464  1.00  0.00     0.074 A 
ATOM     51  C   UNL A   1      42.456  31.312  29.631  1.00  0.00     0.029 A 
ATOM     52  N   UNL A   1      44.068  30.033  28.790  1.00  0.00    -0.354 N 
ATOM     53  N   UNL A   1      46.808  29.424  27.945  1.00  0.00    -0.248 NA
ATOM     54  C   UNL A   1      48.956  30.145  27.377  1.00  0.00     0.031 C 
ATOM     55  C   UNL A   1      43.627  32.073  29.550  1.00  0.00     0.029 A 
ATOM     56  C   UNL A   1      44.633  31.275  29.028  1.00  0.00     0.049 A 
ATOM     57  H   UNL A   1      44.548  29.257  28.422  1.00  0.00     0.167 HD
ATOM     58  C   UNL A   1      46.930  30.776  28.246  1.00  0.00     0.074 A 
ATOM     59  C   UNL A   1      48.287  31.159  27.911  1.00  0.00     0.031 C 
ATOM     60  C   UNL A   1      45.999  31.628  28.740  1.00  0.00     0.034 A 
BRANCH  47  61
ATOM     61  C   UNL A   1      40.389  29.127  29.379  1.00  0.00     0.023 A 
ATOM     62  C   UNL A   1      39.440  29.404  28.375  1.00  0.00     0.012 A 
ATOM     63  C   UNL A   1      39.965  28.979  30.713  1.00  0.00     0.148 A 
ATOM     64  C   UNL A   1      38.092  29.554  28.697  1.00  0.00     0.002 A 
ATOM     65  C   UNL A   1      38.614  29.095  31.020  1.00  0.00     0.091 A 
ATOM     66  F   UNL A   1      40.889  28.743  31.655  1.00  0.00    -0.205 F 
ATOM     67  C   UNL A   1      37.679  29.390  30.016  1.00  0.00     0.022 A 
BRANCH  65  68
ATOM     68  S   UNL A   1      37.979  28.833  32.680  1.00  0.00     0.127 S 
ATOM     69  O   UNL A   1      36.613  29.339  32.555  1.00  0.00    -0.237 OA
ATOM     70  O   UNL A   1      38.078  27.380  32.825  1.00  0.00    -0.237 OA
ATOM     71  O   UNL A   1      38.852  29.589  33.565  1.00  0.00    -0.744 OA
ENDBRANCH  65  68
ENDBRANCH  47  61
BRANCH  48  72
ATOM     72  C   UNL A   1      49.823  27.463  26.561  1.00  0.00     0.023 A 
ATOM     73  C   UNL A   1      50.795  27.021  27.477  1.00  0.00     0.012 A 
ATOM     74  C   UNL A   1      50.185  27.660  25.215  1.00  0.00     0.148 A 
ATOM     75  C   UNL A   1      52.110  26.800  27.066  1.00  0.00     0.002 A 
ATOM     76  C   UNL A   1      51.482  27.384  24.801  1.00  0.00     0.091 A 
ATOM     77  F   UNL A   1      49.249  28.102  24.363  1.00  0.00    -0.205 F 
ATOM     78  C   UNL A   1      52.450  26.969  25.727  1.00  0.00     0.022 A 
BRANCH  76  79
ATOM     79  S   UNL A   1      51.968  27.431  23.074  1.00  0.00     0.127 S 
ATOM     80  O   UNL A   1      53.129  26.547  23.063  1.00  0.00    -0.237 OA
ATOM     81  O   UNL A   1      50.773  26.900  22.415  1.00  0.00    -0.237 OA
ATOM     82  O   UNL A   1      52.231  28.835  22.786  1.00  0.00    -0.744 OA
ENDBRANCH  76  79
ENDBRANCH  48  72
BRANCH  60  83
ATOM     83  C   UNL A   1      46.409  33.059  28.974  1.00  0.00     0.023 A 
ATOM     84  C   UNL A   1      47.133  33.392  30.136  1.00  0.00     0.012 A 
ATOM     85  C   UNL A   1      46.160  34.049  28.005  1.00  0.00     0.148 A 
ATOM     86  C   UNL A   1      47.582  34.696  30.340  1.00  0.00     0.002 A 
ATOM     87  C   UNL A   1      46.648  35.336  28.194  1.00  0.00     0.091 A 
ATOM     88  F   UNL A   1      45.453  33.714  26.915  1.00  0.00    -0.205 F 
ATOM     89  C   UNL A   1      47.352  35.664  29.365  1.00  0.00     0.022 A 
BRANCH  87  90
ATOM     90  S   UNL A   1      46.478  36.625  26.953  1.00  0.00     0.127 S 
ATOM     91  O   UNL A   1      47.097  37.767  27.622  1.00  0.00    -0.237 OA
ATOM     92  O   UNL A   1      47.250  36.082  25.835  1.00  0.00    -0.237 OA
ATOM     93  O   UNL A   1      45.050  36.749  26.696  1.00  0.00    -0.744 OA
ENDBRANCH  87  90
ENDBRANCH  60  83
ENDBRANCH  34  35
ENDBRANCH  27  29
ENDBRANCH  26  27
ENDBRANCH  25  26
ENDBRANCH  24  25
ENDBRANCH  23  24
ENDBRANCH   1  23
TORSDOF 22
ENDMDL
