MODEL 1
REMARK VINA RESULT:      -8.4      0.000      0.000
REMARK SMILES CCc1ncc(C[N@H+]2CCC[C@@H](c3cccc(C(=O)OCCOCCOC(=O)c4ccc(-c5c6nc(c(-c7cccc(S(=O)(=O)[O-])c7F)c7ccc([nH]7)c(-c7cccc(S(=O)(=O)[O-])c7F)c7nc(c(-c8cccc(S(=O)(=O)[O-])c8F)c8ccc5[nH]8)C=C7)C=C6)cc4)c3)C2)cn1
REMARK SMILES IDX 22 1 21 2 20 3 18 4 19 5 17 6 13 7 14 8 92 9 15 10 16 11
REMARK SMILES IDX 12 12 8 13 9 14 93 15 10 17 11 18 7 19 6 20 3 21 4 22 95 23
REMARK SMILES IDX 5 24 94 25 2 26 1 27 23 28 24 29 25 30 26 31 27 32 28 33
REMARK SMILES IDX 29 34 30 35 91 36 31 37 90 38 32 39 33 40 34 41 84 42 35 43
REMARK SMILES IDX 89 44 83 45 85 46 36 47 88 48 82 49 81 50 37 52 69 53 49 54
REMARK SMILES IDX 68 55 50 56 53 57 67 58 86 59 51 60 52 61 66 63 87 64 54 65
REMARK SMILES IDX 38 66 39 67 47 68 40 69 42 70 48 71 41 72 43 73 44 74 45 75
REMARK SMILES IDX 46 76 70 77 71 78 79 79 72 80 74 81 80 82 73 83 75 84 76 85
REMARK SMILES IDX 77 86 78 87 55 88 56 89 64 90 57 91 59 92 65 93 58 94 60 95
REMARK SMILES IDX 61 96 62 97 63 98
REMARK H PARENT 8 16 85 51 53 62
REMARK Flexibility Score: inf
ROOT
ATOM      1  C   UNL A   1      34.289  34.442  32.844  1.00  0.00     0.202 C 
ENDROOT
BRANCH   1   2
ATOM      2  C   UNL A   1      35.465  35.393  32.591  1.00  0.00     0.261 C 
BRANCH   2   3
ATOM      3  O   UNL A   1      36.619  34.997  33.351  1.00  0.00    -0.460 OA
BRANCH   3   4
ATOM      4  C   UNL A   1      37.143  33.796  33.017  1.00  0.00     0.338 C 
ATOM      5  O   UNL A   1      36.874  32.709  33.512  1.00  0.00    -0.246 OA
BRANCH   4   6
ATOM      6  C   UNL A   1      37.945  33.932  31.782  1.00  0.00     0.060 A 
ATOM      7  C   UNL A   1      40.031  34.284  30.582  1.00  0.00    -0.038 A 
ATOM      8  C   UNL A   1      39.318  34.150  29.373  1.00  0.00     0.004 A 
ATOM      9  C   UNL A   1      39.321  34.203  31.794  1.00  0.00     0.020 A 
ATOM     10  C   UNL A   1      37.946  33.912  29.366  1.00  0.00     0.001 A 
ATOM     11  C   UNL A   1      37.263  33.785  30.569  1.00  0.00     0.016 A 
BRANCH   7  12
ATOM     12  C   UNL A   1      41.561  34.271  30.600  1.00  0.00     0.074 C 
ATOM     13  N   UNL A   1      43.409  32.606  30.035  1.00  0.00    -0.331 N 
ATOM     14  C   UNL A   1      43.972  33.553  29.070  1.00  0.00     0.262 C 
ATOM     15  C   UNL A   1      41.974  32.826  30.241  1.00  0.00     0.270 C 
ATOM     16  H   UNL A   1      43.880  32.801  30.920  1.00  0.00     0.348 HD
ATOM     17  C   UNL A   1      43.725  34.997  29.512  1.00  0.00     0.062 C 
ATOM     18  C   UNL A   1      42.231  35.286  29.656  1.00  0.00     0.020 C 
BRANCH  13  19
ATOM     19  C   UNL A   1      43.713  31.193  29.726  1.00  0.00     0.302 C 
BRANCH  19  20
ATOM     20  C   UNL A   1      45.047  30.682  30.196  1.00  0.00     0.043 A 
ATOM     21  C   UNL A   1      47.546  30.019  31.045  1.00  0.00     0.127 A 
ATOM     22  N   UNL A   1      46.609  30.263  31.982  1.00  0.00    -0.241 NA
ATOM     23  N   UNL A   1      47.315  30.011  29.721  1.00  0.00    -0.241 NA
ATOM     24  C   UNL A   1      45.379  30.583  31.531  1.00  0.00     0.124 A 
ATOM     25  C   UNL A   1      46.067  30.340  29.329  1.00  0.00     0.124 A 
BRANCH  21  26
ATOM     26  C   UNL A   1      48.953  29.762  31.512  1.00  0.00     0.074 C 
ATOM     27  C   UNL A   1      49.670  28.740  30.641  1.00  0.00     0.012 C 
ENDBRANCH  21  26
ENDBRANCH  19  20
ENDBRANCH  13  19
ENDBRANCH   7  12
ENDBRANCH   4   6
ENDBRANCH   3   4
ENDBRANCH   2   3
ENDBRANCH   1   2
BRANCH   1  28
ATOM     28  O   UNL A   1      33.669  33.868  31.690  1.00  0.00    -0.374 OA
BRANCH  28  29
ATOM     29  C   UNL A   1      33.843  34.552  30.449  1.00  0.00     0.202 C 
BRANCH  29  30
ATOM     30  C   UNL A   1      34.049  33.693  29.196  1.00  0.00     0.261 C 
BRANCH  30  31
ATOM     31  O   UNL A   1      34.381  32.331  29.512  1.00  0.00    -0.460 OA
BRANCH  31  32
ATOM     32  C   UNL A   1      34.617  31.548  28.433  1.00  0.00     0.338 C 
ATOM     33  O   UNL A   1      34.026  31.573  27.361  1.00  0.00    -0.246 OA
BRANCH  32  34
ATOM     34  C   UNL A   1      35.835  30.744  28.641  1.00  0.00     0.060 A 
ATOM     35  C   UNL A   1      35.879  29.937  29.784  1.00  0.00     0.016 A 
ATOM     36  C   UNL A   1      36.937  30.827  27.786  1.00  0.00     0.016 A 
ATOM     37  C   UNL A   1      37.048  29.256  30.111  1.00  0.00     0.010 A 
ATOM     38  C   UNL A   1      38.113  30.143  28.120  1.00  0.00     0.010 A 
ATOM     39  C   UNL A   1      38.187  29.390  29.305  1.00  0.00    -0.014 A 
BRANCH  39  40
ATOM     40  C   UNL A   1      39.475  28.833  29.784  1.00  0.00     0.031 A 
ATOM     41  C   UNL A   1      40.114  29.407  31.021  1.00  0.00     0.074 A 
ATOM     42  C   UNL A   1      40.051  27.797  29.148  1.00  0.00     0.049 A 
ATOM     43  N   UNL A   1      41.201  29.027  31.642  1.00  0.00    -0.248 NA
ATOM     44  C   UNL A   1      39.440  30.560  31.641  1.00  0.00     0.031 C 
ATOM     45  C   UNL A   1      39.537  27.163  27.935  1.00  0.00     0.029 A 
ATOM     46  N   UNL A   1      41.202  27.106  29.429  1.00  0.00    -0.354 N 
ATOM     47  C   UNL A   1      41.356  29.905  32.709  1.00  0.00     0.074 A 
ATOM     48  C   UNL A   1      40.261  30.849  32.640  1.00  0.00     0.031 C 
ATOM     49  C   UNL A   1      40.378  26.182  27.566  1.00  0.00     0.029 A 
ATOM     50  C   UNL A   1      41.496  26.130  28.506  1.00  0.00     0.049 A 
ATOM     51  H   UNL A   1      41.763  27.290  30.215  1.00  0.00     0.167 HD
ATOM     52  C   UNL A   1      42.309  29.913  33.671  1.00  0.00     0.034 A 
ATOM     53  C   UNL A   1      42.551  25.297  28.425  1.00  0.00     0.034 A 
ATOM     54  C   UNL A   1      43.384  28.961  33.751  1.00  0.00     0.049 A 
ATOM     55  C   UNL A   1      43.600  25.328  29.506  1.00  0.00     0.074 A 
ATOM     56  C   UNL A   1      44.368  28.852  34.719  1.00  0.00     0.029 A 
ATOM     57  N   UNL A   1      43.630  27.962  32.821  1.00  0.00    -0.354 N 
ATOM     58  N   UNL A   1      43.656  26.074  30.582  1.00  0.00    -0.248 NA
ATOM     59  C   UNL A   1      44.710  24.372  29.381  1.00  0.00     0.031 C 
ATOM     60  C   UNL A   1      45.224  27.806  34.359  1.00  0.00     0.029 A 
ATOM     61  C   UNL A   1      44.756  27.241  33.183  1.00  0.00     0.049 A 
ATOM     62  H   UNL A   1      43.084  27.791  32.020  1.00  0.00     0.167 HD
ATOM     63  C   UNL A   1      44.785  25.657  31.279  1.00  0.00     0.074 A 
ATOM     64  C   UNL A   1      45.368  24.573  30.516  1.00  0.00     0.031 C 
ATOM     65  C   UNL A   1      45.302  26.136  32.438  1.00  0.00     0.034 A 
BRANCH  52  66
ATOM     66  C   UNL A   1      42.217  30.972  34.738  1.00  0.00     0.023 A 
ATOM     67  C   UNL A   1      41.576  30.680  35.959  1.00  0.00     0.012 A 
ATOM     68  C   UNL A   1      42.813  32.236  34.555  1.00  0.00     0.148 A 
ATOM     69  C   UNL A   1      41.503  31.639  36.971  1.00  0.00     0.002 A 
ATOM     70  C   UNL A   1      42.775  33.169  35.584  1.00  0.00     0.091 A 
ATOM     71  F   UNL A   1      43.398  32.503  33.379  1.00  0.00    -0.205 F 
ATOM     72  C   UNL A   1      42.111  32.877  36.787  1.00  0.00     0.022 A 
BRANCH  70  73
ATOM     73  S   UNL A   1      43.595  34.764  35.475  1.00  0.00     0.127 S 
ATOM     74  O   UNL A   1      43.083  35.273  34.203  1.00  0.00    -0.237 OA
ATOM     75  O   UNL A   1      43.082  35.456  36.658  1.00  0.00    -0.237 OA
ATOM     76  O   UNL A   1      45.023  34.485  35.506  1.00  0.00    -0.744 OA
ENDBRANCH  70  73
ENDBRANCH  52  66
BRANCH  53  77
ATOM     77  C   UNL A   1      42.648  24.328  27.297  1.00  0.00     0.023 A 
ATOM     78  C   UNL A   1      43.298  24.705  26.105  1.00  0.00     0.012 A 
ATOM     79  C   UNL A   1      42.113  23.030  27.406  1.00  0.00     0.148 A 
ATOM     80  C   UNL A   1      43.384  23.817  25.031  1.00  0.00     0.002 A 
ATOM     81  C   UNL A   1      42.253  22.131  26.355  1.00  0.00     0.091 A 
ATOM     82  F   UNL A   1      41.483  22.696  28.541  1.00  0.00    -0.205 F 
ATOM     83  C   UNL A   1      42.872  22.529  25.160  1.00  0.00     0.022 A 
BRANCH  81  84
ATOM     84  S   UNL A   1      41.742  20.415  26.484  1.00  0.00     0.127 S 
ATOM     85  O   UNL A   1      40.294  20.521  26.324  1.00  0.00    -0.237 OA
ATOM     86  O   UNL A   1      42.446  19.806  25.353  1.00  0.00    -0.237 OA
ATOM     87  O   UNL A   1      42.204  19.964  27.789  1.00  0.00    -0.744 OA
ENDBRANCH  81  84
ENDBRANCH  53  77
BRANCH  65  88
ATOM     88  C   UNL A   1      46.548  25.474  32.972  1.00  0.00     0.023 A 
ATOM     89  C   UNL A   1      47.816  25.970  32.610  1.00  0.00     0.012 A 
ATOM     90  C   UNL A   1      46.462  24.393  33.872  1.00  0.00     0.148 A 
ATOM     91  C   UNL A   1      48.979  25.373  33.099  1.00  0.00     0.002 A 
ATOM     92  C   UNL A   1      47.624  23.837  34.396  1.00  0.00     0.091 A 
ATOM     93  F   UNL A   1      45.248  23.921  34.193  1.00  0.00    -0.205 F 
ATOM     94  C   UNL A   1      48.882  24.316  33.999  1.00  0.00     0.022 A 
BRANCH  92  95
ATOM     95  S   UNL A   1      47.590  22.535  35.634  1.00  0.00     0.127 S 
ATOM     96  O   UNL A   1      49.008  22.201  35.755  1.00  0.00    -0.237 OA
ATOM     97  O   UNL A   1      47.025  23.224  36.795  1.00  0.00    -0.237 OA
ATOM     98  O   UNL A   1      46.742  21.485  35.086  1.00  0.00    -0.744 OA
ENDBRANCH  92  95
ENDBRANCH  65  88
ENDBRANCH  39  40
ENDBRANCH  32  34
ENDBRANCH  31  32
ENDBRANCH  30  31
ENDBRANCH  29  30
ENDBRANCH  28  29
ENDBRANCH   1  28
TORSDOF 21
ENDMDL
MODEL 2
REMARK VINA RESULT:      -8.2      1.743      2.117
REMARK SMILES CCc1ncc(C[N@H+]2CCC[C@@H](c3cccc(C(=O)OCCOCCOC(=O)c4ccc(-c5c6nc(c(-c7cccc(S(=O)(=O)[O-])c7F)c7ccc([nH]7)c(-c7cccc(S(=O)(=O)[O-])c7F)c7nc(c(-c8cccc(S(=O)(=O)[O-])c8F)c8ccc5[nH]8)C=C7)C=C6)cc4)c3)C2)cn1
REMARK SMILES IDX 22 1 21 2 20 3 18 4 19 5 17 6 13 7 14 8 92 9 15 10 16 11
REMARK SMILES IDX 12 12 8 13 9 14 93 15 10 17 11 18 7 19 6 20 3 21 4 22 95 23
REMARK SMILES IDX 5 24 94 25 2 26 1 27 23 28 24 29 25 30 26 31 27 32 28 33
REMARK SMILES IDX 29 34 30 35 91 36 31 37 90 38 32 39 33 40 34 41 84 42 35 43
REMARK SMILES IDX 89 44 83 45 85 46 36 47 88 48 82 49 81 50 37 52 69 53 49 54
REMARK SMILES IDX 68 55 50 56 53 57 67 58 86 59 51 60 52 61 66 63 87 64 54 65
REMARK SMILES IDX 38 66 39 67 47 68 40 69 42 70 48 71 41 72 43 73 44 74 45 75
REMARK SMILES IDX 46 76 70 77 71 78 79 79 72 80 74 81 80 82 73 83 75 84 76 85
REMARK SMILES IDX 77 86 78 87 55 88 56 89 64 90 57 91 59 92 65 93 58 94 60 95
REMARK SMILES IDX 61 96 62 97 63 98
REMARK H PARENT 8 16 85 51 53 62
REMARK Flexibility Score: inf
ROOT
ATOM      1  C   UNL A   1      34.684  34.342  32.912  1.00  0.00     0.202 C 
ENDROOT
BRANCH   1   2
ATOM      2  C   UNL A   1      35.911  35.211  32.609  1.00  0.00     0.261 C 
BRANCH   2   3
ATOM      3  O   UNL A   1      36.986  34.915  33.515  1.00  0.00    -0.460 OA
BRANCH   3   4
ATOM      4  C   UNL A   1      37.601  33.728  33.311  1.00  0.00     0.338 C 
ATOM      5  O   UNL A   1      37.434  32.691  33.940  1.00  0.00    -0.246 OA
BRANCH   4   6
ATOM      6  C   UNL A   1      38.362  33.776  32.044  1.00  0.00     0.060 A 
ATOM      7  C   UNL A   1      40.409  34.025  30.754  1.00  0.00    -0.038 A 
ATOM      8  C   UNL A   1      39.654  33.826  29.581  1.00  0.00     0.004 A 
ATOM      9  C   UNL A   1      39.740  34.028  31.992  1.00  0.00     0.020 A 
ATOM     10  C   UNL A   1      38.280  33.607  29.635  1.00  0.00     0.001 A 
ATOM     11  C   UNL A   1      37.637  33.564  30.865  1.00  0.00     0.016 A 
BRANCH   7  12
ATOM     12  C   UNL A   1      41.938  33.991  30.721  1.00  0.00     0.074 C 
ATOM     13  N   UNL A   1      43.761  34.151  28.944  1.00  0.00    -0.331 N 
ATOM     14  C   UNL A   1      44.345  35.299  29.640  1.00  0.00     0.262 C 
ATOM     15  C   UNL A   1      42.329  34.012  29.227  1.00  0.00     0.270 C 
ATOM     16  H   UNL A   1      44.231  33.329  29.326  1.00  0.00     0.348 HD
ATOM     17  C   UNL A   1      44.120  35.196  31.151  1.00  0.00     0.062 C 
ATOM     18  C   UNL A   1      42.630  35.133  31.487  1.00  0.00     0.020 C 
BRANCH  13  19
ATOM     19  C   UNL A   1      44.043  34.132  27.493  1.00  0.00     0.302 C 
BRANCH  19  20
ATOM     20  C   UNL A   1      44.786  32.931  26.976  1.00  0.00     0.043 A 
ATOM     21  C   UNL A   1      46.174  30.689  26.304  1.00  0.00     0.127 A 
ATOM     22  N   UNL A   1      44.837  30.583  26.436  1.00  0.00    -0.241 NA
ATOM     23  N   UNL A   1      46.861  31.840  26.410  1.00  0.00    -0.241 NA
ATOM     24  C   UNL A   1      44.176  31.712  26.764  1.00  0.00     0.124 A 
ATOM     25  C   UNL A   1      46.147  32.935  26.741  1.00  0.00     0.124 A 
BRANCH  21  26
ATOM     26  C   UNL A   1      46.954  29.429  26.041  1.00  0.00     0.074 C 
ATOM     27  C   UNL A   1      47.096  28.570  27.290  1.00  0.00     0.012 C 
ENDBRANCH  21  26
ENDBRANCH  19  20
ENDBRANCH  13  19
ENDBRANCH   7  12
ENDBRANCH   4   6
ENDBRANCH   3   4
ENDBRANCH   2   3
ENDBRANCH   1   2
BRANCH   1  28
ATOM     28  O   UNL A   1      34.033  33.739  31.790  1.00  0.00    -0.374 OA
BRANCH  28  29
ATOM     29  C   UNL A   1      34.101  34.435  30.546  1.00  0.00     0.202 C 
BRANCH  29  30
ATOM     30  C   UNL A   1      34.226  33.588  29.274  1.00  0.00     0.261 C 
BRANCH  30  31
ATOM     31  O   UNL A   1      34.472  32.202  29.557  1.00  0.00    -0.460 OA
BRANCH  31  32
ATOM     32  C   UNL A   1      34.719  31.442  28.464  1.00  0.00     0.338 C 
ATOM     33  O   UNL A   1      34.136  31.488  27.389  1.00  0.00    -0.246 OA
BRANCH  32  34
ATOM     34  C   UNL A   1      35.936  30.635  28.666  1.00  0.00     0.060 A 
ATOM     35  C   UNL A   1      36.008  29.870  29.836  1.00  0.00     0.016 A 
ATOM     36  C   UNL A   1      37.013  30.677  27.776  1.00  0.00     0.016 A 
ATOM     37  C   UNL A   1      37.181  29.191  30.153  1.00  0.00     0.010 A 
ATOM     38  C   UNL A   1      38.193  29.995  28.100  1.00  0.00     0.010 A 
ATOM     39  C   UNL A   1      38.297  29.285  29.309  1.00  0.00    -0.014 A 
BRANCH  39  40
ATOM     40  C   UNL A   1      39.594  28.735  29.771  1.00  0.00     0.031 A 
ATOM     41  C   UNL A   1      40.258  29.327  30.985  1.00  0.00     0.074 A 
ATOM     42  C   UNL A   1      40.156  27.689  29.138  1.00  0.00     0.049 A 
ATOM     43  N   UNL A   1      41.358  28.956  31.589  1.00  0.00    -0.248 NA
ATOM     44  C   UNL A   1      39.598  30.490  31.601  1.00  0.00     0.031 C 
ATOM     45  C   UNL A   1      39.616  27.036  27.946  1.00  0.00     0.029 A 
ATOM     46  N   UNL A   1      41.312  27.001  29.406  1.00  0.00    -0.354 N 
ATOM     47  C   UNL A   1      41.535  29.850  32.639  1.00  0.00     0.074 A 
ATOM     48  C   UNL A   1      40.439  30.794  32.578  1.00  0.00     0.031 C 
ATOM     49  C   UNL A   1      40.450  26.050  27.575  1.00  0.00     0.029 A 
ATOM     50  C   UNL A   1      41.586  26.011  28.493  1.00  0.00     0.049 A 
ATOM     51  H   UNL A   1      41.889  27.197  30.178  1.00  0.00     0.167 HD
ATOM     52  C   UNL A   1      42.508  29.872  33.581  1.00  0.00     0.034 A 
ATOM     53  C   UNL A   1      42.640  25.175  28.402  1.00  0.00     0.034 A 
ATOM     54  C   UNL A   1      43.584  28.920  33.653  1.00  0.00     0.049 A 
ATOM     55  C   UNL A   1      43.710  25.222  29.461  1.00  0.00     0.074 A 
ATOM     56  C   UNL A   1      44.587  28.826  34.602  1.00  0.00     0.029 A 
ATOM     57  N   UNL A   1      43.810  27.907  32.733  1.00  0.00    -0.354 N 
ATOM     58  N   UNL A   1      43.789  25.985  30.524  1.00  0.00    -0.248 NA
ATOM     59  C   UNL A   1      44.818  24.264  29.328  1.00  0.00     0.031 C 
ATOM     60  C   UNL A   1      45.436  27.774  34.240  1.00  0.00     0.029 A 
ATOM     61  C   UNL A   1      44.943  27.191  33.083  1.00  0.00     0.049 A 
ATOM     62  H   UNL A   1      43.247  27.724  31.947  1.00  0.00     0.167 HD
ATOM     63  C   UNL A   1      44.932  25.578  31.204  1.00  0.00     0.074 A 
ATOM     64  C   UNL A   1      45.498  24.482  30.445  1.00  0.00     0.031 C 
ATOM     65  C   UNL A   1      45.473  26.074  32.345  1.00  0.00     0.034 A 
BRANCH  52  66
ATOM     66  C   UNL A   1      42.438  30.948  34.633  1.00  0.00     0.023 A 
ATOM     67  C   UNL A   1      41.764  30.697  35.846  1.00  0.00     0.012 A 
ATOM     68  C   UNL A   1      43.087  32.184  34.446  1.00  0.00     0.148 A 
ATOM     69  C   UNL A   1      41.711  31.670  36.844  1.00  0.00     0.002 A 
ATOM     70  C   UNL A   1      43.067  33.132  35.463  1.00  0.00     0.091 A 
ATOM     71  F   UNL A   1      43.703  32.413  33.278  1.00  0.00    -0.205 F 
ATOM     72  C   UNL A   1      42.371  32.881  36.657  1.00  0.00     0.022 A 
BRANCH  70  73
ATOM     73  S   UNL A   1      43.951  34.692  35.349  1.00  0.00     0.127 S 
ATOM     74  O   UNL A   1      45.080  34.330  34.494  1.00  0.00    -0.237 OA
ATOM     75  O   UNL A   1      42.960  35.562  34.714  1.00  0.00    -0.237 OA
ATOM     76  O   UNL A   1      44.295  35.060  36.715  1.00  0.00    -0.744 OA
ENDBRANCH  70  73
ENDBRANCH  52  66
BRANCH  53  77
ATOM     77  C   UNL A   1      42.712  24.189  27.287  1.00  0.00     0.023 A 
ATOM     78  C   UNL A   1      43.404  24.520  26.105  1.00  0.00     0.012 A 
ATOM     79  C   UNL A   1      42.113  22.920  27.400  1.00  0.00     0.148 A 
ATOM     80  C   UNL A   1      43.469  23.616  25.044  1.00  0.00     0.002 A 
ATOM     81  C   UNL A   1      42.231  22.003  26.362  1.00  0.00     0.091 A 
ATOM     82  F   UNL A   1      41.445  22.631  28.526  1.00  0.00    -0.205 F 
ATOM     83  C   UNL A   1      42.894  22.356  25.176  1.00  0.00     0.022 A 
BRANCH  81  84
ATOM     84  S   UNL A   1      41.636  20.314  26.500  1.00  0.00     0.127 S 
ATOM     85  O   UNL A   1      40.188  20.502  26.448  1.00  0.00    -0.237 OA
ATOM     86  O   UNL A   1      42.221  19.692  25.311  1.00  0.00    -0.237 OA
ATOM     87  O   UNL A   1      42.166  19.812  27.760  1.00  0.00    -0.744 OA
ENDBRANCH  81  84
ENDBRANCH  53  77
BRANCH  65  88
ATOM     88  C   UNL A   1      46.730  25.420  32.862  1.00  0.00     0.023 A 
ATOM     89  C   UNL A   1      46.650  24.469  33.900  1.00  0.00     0.012 A 
ATOM     90  C   UNL A   1      47.983  25.710  32.287  1.00  0.00     0.148 A 
ATOM     91  C   UNL A   1      47.802  23.850  34.386  1.00  0.00     0.002 A 
ATOM     92  C   UNL A   1      49.120  25.050  32.742  1.00  0.00     0.091 A 
ATOM     93  F   UNL A   1      48.045  26.630  31.314  1.00  0.00    -0.205 F 
ATOM     94  C   UNL A   1      49.033  24.132  33.801  1.00  0.00     0.022 A 
BRANCH  92  95
ATOM     95  S   UNL A   1      50.732  25.282  31.981  1.00  0.00     0.127 S 
ATOM     96  O   UNL A   1      51.031  26.669  32.334  1.00  0.00    -0.237 OA
ATOM     97  O   UNL A   1      51.549  24.286  32.676  1.00  0.00    -0.237 OA
ATOM     98  O   UNL A   1      50.543  25.021  30.561  1.00  0.00    -0.744 OA
ENDBRANCH  92  95
ENDBRANCH  65  88
ENDBRANCH  39  40
ENDBRANCH  32  34
ENDBRANCH  31  32
ENDBRANCH  30  31
ENDBRANCH  29  30
ENDBRANCH  28  29
ENDBRANCH   1  28
TORSDOF 21
ENDMDL
MODEL 3
REMARK VINA RESULT:      -8.1      1.617      3.286
REMARK SMILES CCc1ncc(C[N@H+]2CCC[C@@H](c3cccc(C(=O)OCCOCCOC(=O)c4ccc(-c5c6nc(c(-c7cccc(S(=O)(=O)[O-])c7F)c7ccc([nH]7)c(-c7cccc(S(=O)(=O)[O-])c7F)c7nc(c(-c8cccc(S(=O)(=O)[O-])c8F)c8ccc5[nH]8)C=C7)C=C6)cc4)c3)C2)cn1
REMARK SMILES IDX 22 1 21 2 20 3 18 4 19 5 17 6 13 7 14 8 92 9 15 10 16 11
REMARK SMILES IDX 12 12 8 13 9 14 93 15 10 17 11 18 7 19 6 20 3 21 4 22 95 23
REMARK SMILES IDX 5 24 94 25 2 26 1 27 23 28 24 29 25 30 26 31 27 32 28 33
REMARK SMILES IDX 29 34 30 35 91 36 31 37 90 38 32 39 33 40 34 41 84 42 35 43
REMARK SMILES IDX 89 44 83 45 85 46 36 47 88 48 82 49 81 50 37 52 69 53 49 54
REMARK SMILES IDX 68 55 50 56 53 57 67 58 86 59 51 60 52 61 66 63 87 64 54 65
REMARK SMILES IDX 38 66 39 67 47 68 40 69 42 70 48 71 41 72 43 73 44 74 45 75
REMARK SMILES IDX 46 76 70 77 71 78 79 79 72 80 74 81 80 82 73 83 75 84 76 85
REMARK SMILES IDX 77 86 78 87 55 88 56 89 64 90 57 91 59 92 65 93 58 94 60 95
REMARK SMILES IDX 61 96 62 97 63 98
REMARK H PARENT 8 16 85 51 53 62
REMARK Flexibility Score: inf
ROOT
ATOM      1  C   UNL A   1      34.168  34.439  32.876  1.00  0.00     0.202 C 
ENDROOT
BRANCH   1   2
ATOM      2  C   UNL A   1      35.373  35.376  32.730  1.00  0.00     0.261 C 
BRANCH   2   3
ATOM      3  O   UNL A   1      36.442  34.980  33.604  1.00  0.00    -0.460 OA
BRANCH   3   4
ATOM      4  C   UNL A   1      36.960  33.755  33.361  1.00  0.00     0.338 C 
ATOM      5  O   UNL A   1      36.588  32.688  33.833  1.00  0.00    -0.246 OA
BRANCH   4   6
ATOM      6  C   UNL A   1      37.922  33.838  32.241  1.00  0.00     0.060 A 
ATOM      7  C   UNL A   1      40.137  34.218  31.311  1.00  0.00    -0.038 A 
ATOM      8  C   UNL A   1      39.611  33.941  30.033  1.00  0.00     0.004 A 
ATOM      9  C   UNL A   1      39.267  34.192  32.417  1.00  0.00     0.020 A 
ATOM     10  C   UNL A   1      38.267  33.620  29.859  1.00  0.00     0.001 A 
ATOM     11  C   UNL A   1      37.427  33.550  30.963  1.00  0.00     0.016 A 
BRANCH   7  12
ATOM     12  C   UNL A   1      41.648  34.299  31.540  1.00  0.00     0.074 C 
ATOM     13  N   UNL A   1      43.672  35.189  30.268  1.00  0.00    -0.331 N 
ATOM     14  C   UNL A   1      44.004  36.059  31.398  1.00  0.00     0.262 C 
ATOM     15  C   UNL A   1      42.243  34.866  30.231  1.00  0.00     0.270 C 
ATOM     16  H   UNL A   1      44.180  34.319  30.432  1.00  0.00     0.348 HD
ATOM     17  C   UNL A   1      43.580  35.422  32.724  1.00  0.00     0.062 C 
ATOM     18  C   UNL A   1      42.077  35.147  32.751  1.00  0.00     0.020 C 
BRANCH  13  19
ATOM     19  C   UNL A   1      44.159  35.696  28.967  1.00  0.00     0.302 C 
BRANCH  19  20
ATOM     20  C   UNL A   1      43.335  36.778  28.325  1.00  0.00     0.043 A 
ATOM     21  C   UNL A   1      42.020  38.725  26.954  1.00  0.00     0.127 A 
ATOM     22  N   UNL A   1      41.629  37.450  26.762  1.00  0.00    -0.241 NA
ATOM     23  N   UNL A   1      42.966  39.109  27.829  1.00  0.00    -0.241 NA
ATOM     24  C   UNL A   1      42.295  36.508  27.460  1.00  0.00     0.124 A 
ATOM     25  C   UNL A   1      43.598  38.122  28.497  1.00  0.00     0.124 A 
BRANCH  21  26
ATOM     26  C   UNL A   1      41.369  39.791  26.114  1.00  0.00     0.074 C 
ATOM     27  C   UNL A   1      42.174  41.084  26.101  1.00  0.00     0.012 C 
ENDBRANCH  21  26
ENDBRANCH  19  20
ENDBRANCH  13  19
ENDBRANCH   7  12
ENDBRANCH   4   6
ENDBRANCH   3   4
ENDBRANCH   2   3
ENDBRANCH   1   2
BRANCH   1  28
ATOM     28  O   UNL A   1      33.636  33.884  31.669  1.00  0.00    -0.374 OA
BRANCH  28  29
ATOM     29  C   UNL A   1      33.931  34.570  30.453  1.00  0.00     0.202 C 
BRANCH  29  30
ATOM     30  C   UNL A   1      34.232  33.713  29.218  1.00  0.00     0.261 C 
BRANCH  30  31
ATOM     31  O   UNL A   1      34.459  32.334  29.548  1.00  0.00    -0.460 OA
BRANCH  31  32
ATOM     32  C   UNL A   1      34.685  31.532  28.481  1.00  0.00     0.338 C 
ATOM     33  O   UNL A   1      34.083  31.536  27.416  1.00  0.00    -0.246 OA
BRANCH  32  34
ATOM     34  C   UNL A   1      35.908  30.734  28.690  1.00  0.00     0.060 A 
ATOM     35  C   UNL A   1      35.934  29.888  29.804  1.00  0.00     0.016 A 
ATOM     36  C   UNL A   1      37.028  30.859  27.865  1.00  0.00     0.016 A 
ATOM     37  C   UNL A   1      37.102  29.208  30.135  1.00  0.00     0.010 A 
ATOM     38  C   UNL A   1      38.203  30.176  28.202  1.00  0.00     0.010 A 
ATOM     39  C   UNL A   1      38.259  29.382  29.362  1.00  0.00    -0.014 A 
BRANCH  39  40
ATOM     40  C   UNL A   1      39.541  28.822  29.852  1.00  0.00     0.031 A 
ATOM     41  C   UNL A   1      40.161  29.382  31.105  1.00  0.00     0.074 A 
ATOM     42  C   UNL A   1      40.128  27.796  29.211  1.00  0.00     0.049 A 
ATOM     43  N   UNL A   1      41.240  28.997  31.737  1.00  0.00    -0.248 NA
ATOM     44  C   UNL A   1      39.476  30.526  31.730  1.00  0.00     0.031 C 
ATOM     45  C   UNL A   1      39.633  27.176  27.984  1.00  0.00     0.029 A 
ATOM     46  N   UNL A   1      41.277  27.103  29.499  1.00  0.00    -0.354 N 
ATOM     47  C   UNL A   1      41.378  29.862  32.816  1.00  0.00     0.074 A 
ATOM     48  C   UNL A   1      40.282  30.804  32.744  1.00  0.00     0.031 C 
ATOM     49  C   UNL A   1      40.482  26.202  27.614  1.00  0.00     0.029 A 
ATOM     50  C   UNL A   1      41.586  26.140  28.569  1.00  0.00     0.049 A 
ATOM     51  H   UNL A   1      41.826  27.279  30.296  1.00  0.00     0.167 HD
ATOM     52  C   UNL A   1      42.318  29.860  33.792  1.00  0.00     0.034 A 
ATOM     53  C   UNL A   1      42.645  25.310  28.491  1.00  0.00     0.034 A 
ATOM     54  C   UNL A   1      43.394  28.909  33.874  1.00  0.00     0.049 A 
ATOM     55  C   UNL A   1      43.678  25.330  29.587  1.00  0.00     0.074 A 
ATOM     56  C   UNL A   1      44.364  28.791  34.854  1.00  0.00     0.029 A 
ATOM     57  N   UNL A   1      43.655  27.923  32.935  1.00  0.00    -0.354 N 
ATOM     58  N   UNL A   1      43.717  26.063  30.673  1.00  0.00    -0.248 NA
ATOM     59  C   UNL A   1      44.793  24.379  29.466  1.00  0.00     0.031 C 
ATOM     60  C   UNL A   1      45.228  27.752  34.493  1.00  0.00     0.029 A 
ATOM     61  C   UNL A   1      44.778  27.200  33.304  1.00  0.00     0.049 A 
ATOM     62  H   UNL A   1      43.121  27.760  32.125  1.00  0.00     0.167 HD
ATOM     63  C   UNL A   1      44.838  25.640  31.381  1.00  0.00     0.074 A 
ATOM     64  C   UNL A   1      45.434  24.567  30.612  1.00  0.00     0.031 C 
ATOM     65  C   UNL A   1      45.337  26.106  32.553  1.00  0.00     0.034 A 
BRANCH  52  66
ATOM     66  C   UNL A   1      42.208  30.906  34.870  1.00  0.00     0.023 A 
ATOM     67  C   UNL A   1      41.191  30.804  35.841  1.00  0.00     0.012 A 
ATOM     68  C   UNL A   1      43.144  31.955  34.957  1.00  0.00     0.148 A 
ATOM     69  C   UNL A   1      41.089  31.747  36.865  1.00  0.00     0.002 A 
ATOM     70  C   UNL A   1      43.061  32.865  36.004  1.00  0.00     0.091 A 
ATOM     71  F   UNL A   1      44.089  32.049  34.012  1.00  0.00    -0.205 F 
ATOM     72  C   UNL A   1      42.029  32.769  36.952  1.00  0.00     0.022 A 
BRANCH  70  73
ATOM     73  S   UNL A   1      44.270  34.173  36.248  1.00  0.00     0.127 S 
ATOM     74  O   UNL A   1      45.239  33.879  35.194  1.00  0.00    -0.237 OA
ATOM     75  O   UNL A   1      43.470  35.378  36.022  1.00  0.00    -0.237 OA
ATOM     76  O   UNL A   1      44.761  34.017  37.610  1.00  0.00    -0.744 OA
ENDBRANCH  70  73
ENDBRANCH  52  66
BRANCH  53  77
ATOM     77  C   UNL A   1      42.759  24.356  27.353  1.00  0.00     0.023 A 
ATOM     78  C   UNL A   1      43.445  24.741  26.184  1.00  0.00     0.012 A 
ATOM     79  C   UNL A   1      42.206  23.063  27.429  1.00  0.00     0.148 A 
ATOM     80  C   UNL A   1      43.549  23.868  25.100  1.00  0.00     0.002 A 
ATOM     81  C   UNL A   1      42.363  22.178  26.370  1.00  0.00     0.091 A 
ATOM     82  F   UNL A   1      41.542  22.722  28.543  1.00  0.00    -0.205 F 
ATOM     83  C   UNL A   1      43.019  22.585  25.197  1.00  0.00     0.022 A 
BRANCH  81  84
ATOM     84  S   UNL A   1      41.829  20.466  26.461  1.00  0.00     0.127 S 
ATOM     85  O   UNL A   1      40.379  20.598  26.336  1.00  0.00    -0.237 OA
ATOM     86  O   UNL A   1      42.498  19.880  25.299  1.00  0.00    -0.237 OA
ATOM     87  O   UNL A   1      42.311  19.971  27.743  1.00  0.00    -0.744 OA
ENDBRANCH  81  84
ENDBRANCH  53  77
BRANCH  65  88
ATOM     88  C   UNL A   1      46.578  25.440  33.096  1.00  0.00     0.023 A 
ATOM     89  C   UNL A   1      47.848  25.968  32.791  1.00  0.00     0.012 A 
ATOM     90  C   UNL A   1      46.482  24.322  33.948  1.00  0.00     0.148 A 
ATOM     91  C   UNL A   1      49.005  25.368  33.289  1.00  0.00     0.002 A 
ATOM     92  C   UNL A   1      47.637  23.762  34.483  1.00  0.00     0.091 A 
ATOM     93  F   UNL A   1      45.267  23.820  34.215  1.00  0.00    -0.205 F 
ATOM     94  C   UNL A   1      48.898  24.274  34.143  1.00  0.00     0.022 A 
BRANCH  92  95
ATOM     95  S   UNL A   1      47.587  22.410  35.667  1.00  0.00     0.127 S 
ATOM     96  O   UNL A   1      46.745  22.969  36.723  1.00  0.00    -0.237 OA
ATOM     97  O   UNL A   1      46.961  21.340  34.890  1.00  0.00    -0.237 OA
ATOM     98  O   UNL A   1      48.972  22.154  36.038  1.00  0.00    -0.744 OA
ENDBRANCH  92  95
ENDBRANCH  65  88
ENDBRANCH  39  40
ENDBRANCH  32  34
ENDBRANCH  31  32
ENDBRANCH  30  31
ENDBRANCH  29  30
ENDBRANCH  28  29
ENDBRANCH   1  28
TORSDOF 21
ENDMDL
