MODEL 1
REMARK VINA RESULT:     -10.9      0.000      0.000
REMARK SMILES Cc1nc([C@]2(C)CCCO2)nc(C)c1C(=O)OCCOCCOC(=O)c1ccc(-c2c3nc(c(-c4cccc(S(=O)(=O)[O-])c4F)c4ccc([nH]4)c(-c4cccc(S(=O)(=O)[O-])c4F)c4nc(c(-c5cccc(S(=O)(=O)[O-])c5F)c5ccc2[nH]5)C=C4)C=C3)cc1
REMARK SMILES IDX 21 1 20 2 19 3 18 4 17 5 15 6 16 7 14 8 1 9 2 10 3 11 4 12
REMARK SMILES IDX 12 13 11 14 13 15 5 16 7 17 10 18 6 19 8 20 9 21 22 22 23 23
REMARK SMILES IDX 24 24 25 25 26 26 27 27 88 28 28 29 87 30 29 31 30 32 31 33
REMARK SMILES IDX 81 34 32 35 86 36 80 37 82 38 33 39 85 40 79 41 78 42 34 44
REMARK SMILES IDX 66 45 46 46 65 47 47 48 50 49 64 50 83 51 48 52 49 53 63 55
REMARK SMILES IDX 84 56 51 57 35 58 36 59 44 60 37 61 39 62 45 63 38 64 40 65
REMARK SMILES IDX 41 66 42 67 43 68 67 69 68 70 76 71 69 72 71 73 77 74 70 75
REMARK SMILES IDX 72 76 73 77 74 78 75 79 52 80 53 81 61 82 54 83 56 84 62 85
REMARK SMILES IDX 55 86 57 87 58 88 59 89 60 90
REMARK H PARENT 82 43 50 54
REMARK Flexibility Score: inf
ROOT
ATOM      1  C   UNL A   1      36.243  19.419  24.928  1.00  0.00     0.202 C 
ENDROOT
BRANCH   1   2
ATOM      2  O   UNL A   1      35.078  20.244  24.952  1.00  0.00    -0.374 OA
BRANCH   2   3
ATOM      3  C   UNL A   1      33.806  19.613  24.789  1.00  0.00     0.202 C 
BRANCH   3   4
ATOM      4  C   UNL A   1      32.613  20.522  24.493  1.00  0.00     0.261 C 
BRANCH   4   5
ATOM      5  O   UNL A   1      32.885  21.868  24.911  1.00  0.00    -0.460 OA
BRANCH   5   6
ATOM      6  C   UNL A   1      33.217  22.724  23.921  1.00  0.00     0.341 C 
ATOM      7  O   UNL A   1      33.426  22.432  22.750  1.00  0.00    -0.246 OA
BRANCH   6   8
ATOM      8  C   UNL A   1      33.173  24.119  24.387  1.00  0.00     0.102 A 
ATOM      9  C   UNL A   1      35.493  24.073  25.430  1.00  0.00     0.068 C 
ATOM     10  C   UNL A   1      34.242  24.773  24.980  1.00  0.00     0.056 A 
ATOM     11  N   UNL A   1      34.207  26.104  25.240  1.00  0.00    -0.234 NA
ATOM     12  C   UNL A   1      33.092  26.793  24.924  1.00  0.00     0.160 A 
ATOM     13  C   UNL A   1      32.021  24.877  24.195  1.00  0.00     0.056 A 
ATOM     14  N   UNL A   1      31.981  26.206  24.443  1.00  0.00    -0.234 NA
ATOM     15  C   UNL A   1      30.692  24.274  23.835  1.00  0.00     0.068 C 
BRANCH  12  16
ATOM     16  C   UNL A   1      33.110  28.325  25.057  1.00  0.00     0.125 C 
ATOM     17  C   UNL A   1      34.100  28.787  26.128  1.00  0.00     0.046 C 
ATOM     18  O   UNL A   1      31.827  28.822  25.503  1.00  0.00    -0.367 OA
ATOM     19  C   UNL A   1      33.421  28.998  23.713  1.00  0.00     0.051 C 
ATOM     20  C   UNL A   1      33.288  28.744  27.402  1.00  0.00     0.032 C 
ATOM     21  C   UNL A   1      31.861  28.954  26.932  1.00  0.00     0.161 C 
ENDBRANCH  12  16
ENDBRANCH   6   8
ENDBRANCH   5   6
ENDBRANCH   4   5
ENDBRANCH   3   4
ENDBRANCH   2   3
ENDBRANCH   1   2
BRANCH   1  22
ATOM     22  C   UNL A   1      37.594  20.070  24.609  1.00  0.00     0.261 C 
BRANCH  22  23
ATOM     23  O   UNL A   1      37.983  21.067  25.565  1.00  0.00    -0.460 OA
BRANCH  23  24
ATOM     24  C   UNL A   1      39.217  20.885  26.093  1.00  0.00     0.338 C 
ATOM     25  O   UNL A   1      39.924  19.892  25.992  1.00  0.00    -0.246 OA
BRANCH  24  26
ATOM     26  C   UNL A   1      39.707  22.150  26.666  1.00  0.00     0.060 A 
ATOM     27  C   UNL A   1      39.165  23.341  26.166  1.00  0.00     0.016 A 
ATOM     28  C   UNL A   1      40.725  22.174  27.620  1.00  0.00     0.016 A 
ATOM     29  C   UNL A   1      39.673  24.566  26.585  1.00  0.00     0.010 A 
ATOM     30  C   UNL A   1      41.240  23.407  28.032  1.00  0.00     0.010 A 
ATOM     31  C   UNL A   1      40.741  24.605  27.489  1.00  0.00    -0.014 A 
BRANCH  31  32
ATOM     32  C   UNL A   1      41.424  25.892  27.757  1.00  0.00     0.031 A 
ATOM     33  C   UNL A   1      40.691  26.962  28.517  1.00  0.00     0.074 A 
ATOM     34  C   UNL A   1      42.684  26.098  27.334  1.00  0.00     0.049 A 
ATOM     35  N   UNL A   1      41.082  28.170  28.827  1.00  0.00    -0.248 NA
ATOM     36  C   UNL A   1      39.337  26.628  28.990  1.00  0.00     0.031 C 
ATOM     37  C   UNL A   1      43.495  25.131  26.595  1.00  0.00     0.029 A 
ATOM     38  N   UNL A   1      43.491  27.203  27.443  1.00  0.00    -0.354 N 
ATOM     39  C   UNL A   1      40.016  28.752  29.504  1.00  0.00     0.074 A 
ATOM     40  C   UNL A   1      38.956  27.767  29.548  1.00  0.00     0.031 C 
ATOM     41  C   UNL A   1      44.675  25.698  26.286  1.00  0.00     0.029 A 
ATOM     42  C   UNL A   1      44.689  27.073  26.782  1.00  0.00     0.049 A 
ATOM     43  H   UNL A   1      43.236  28.009  27.947  1.00  0.00     0.167 HD
ATOM     44  C   UNL A   1      39.932  29.987  30.051  1.00  0.00     0.034 A 
ATOM     45  C   UNL A   1      45.672  27.972  26.576  1.00  0.00     0.034 A 
ATOM     46  C   UNL A   1      40.995  30.955  30.018  1.00  0.00     0.049 A 
ATOM     47  C   UNL A   1      45.542  29.349  27.172  1.00  0.00     0.074 A 
ATOM     48  C   UNL A   1      41.023  32.219  30.579  1.00  0.00     0.029 A 
ATOM     49  N   UNL A   1      42.211  30.773  29.379  1.00  0.00    -0.354 N 
ATOM     50  N   UNL A   1      44.574  29.846  27.903  1.00  0.00    -0.248 NA
ATOM     51  C   UNL A   1      46.657  30.280  26.945  1.00  0.00     0.031 C 
ATOM     52  C   UNL A   1      42.245  32.814  30.252  1.00  0.00     0.029 A 
ATOM     53  C   UNL A   1      42.994  31.906  29.521  1.00  0.00     0.049 A 
ATOM     54  H   UNL A   1      42.479  29.959  28.896  1.00  0.00     0.167 HD
ATOM     55  C   UNL A   1      44.978  31.130  28.254  1.00  0.00     0.074 A 
ATOM     56  C   UNL A   1      46.290  31.327  27.673  1.00  0.00     0.031 C 
ATOM     57  C   UNL A   1      44.320  32.066  28.982  1.00  0.00     0.034 A 
BRANCH  44  58
ATOM     58  C   UNL A   1      38.654  30.356  30.756  1.00  0.00     0.023 A 
ATOM     59  C   UNL A   1      38.488  30.034  32.119  1.00  0.00     0.012 A 
ATOM     60  C   UNL A   1      37.646  31.080  30.090  1.00  0.00     0.148 A 
ATOM     61  C   UNL A   1      37.329  30.401  32.799  1.00  0.00     0.002 A 
ATOM     62  C   UNL A   1      36.512  31.482  30.786  1.00  0.00     0.091 A 
ATOM     63  F   UNL A   1      37.812  31.358  28.789  1.00  0.00    -0.205 F 
ATOM     64  C   UNL A   1      36.347  31.133  32.138  1.00  0.00     0.022 A 
BRANCH  62  65
ATOM     65  S   UNL A   1      35.227  32.495  30.048  1.00  0.00     0.127 S 
ATOM     66  O   UNL A   1      34.748  31.627  28.973  1.00  0.00    -0.237 OA
ATOM     67  O   UNL A   1      34.291  32.662  31.159  1.00  0.00    -0.237 OA
ATOM     68  O   UNL A   1      35.881  33.721  29.613  1.00  0.00    -0.744 OA
ENDBRANCH  62  65
ENDBRANCH  44  58
BRANCH  45  69
ATOM     69  C   UNL A   1      46.874  27.595  25.781  1.00  0.00     0.023 A 
ATOM     70  C   UNL A   1      46.902  27.837  24.395  1.00  0.00     0.012 A 
ATOM     71  C   UNL A   1      47.993  26.999  26.396  1.00  0.00     0.148 A 
ATOM     72  C   UNL A   1      48.007  27.461  23.630  1.00  0.00     0.002 A 
ATOM     73  C   UNL A   1      49.113  26.681  25.639  1.00  0.00     0.091 A 
ATOM     74  F   UNL A   1      47.942  26.760  27.715  1.00  0.00    -0.205 F 
ATOM     75  C   UNL A   1      49.114  26.892  24.251  1.00  0.00     0.022 A 
BRANCH  73  76
ATOM     76  S   UNL A   1      50.632  26.070  26.377  1.00  0.00     0.127 S 
ATOM     77  O   UNL A   1      51.488  25.902  25.205  1.00  0.00    -0.237 OA
ATOM     78  O   UNL A   1      51.004  27.175  27.260  1.00  0.00    -0.237 OA
ATOM     79  O   UNL A   1      50.264  24.844  27.074  1.00  0.00    -0.744 OA
ENDBRANCH  73  76
ENDBRANCH  45  69
BRANCH  57  80
ATOM     80  C   UNL A   1      45.021  33.377  29.236  1.00  0.00     0.023 A 
ATOM     81  C   UNL A   1      45.919  33.500  30.315  1.00  0.00     0.012 A 
ATOM     82  C   UNL A   1      44.843  34.464  28.356  1.00  0.00     0.148 A 
ATOM     83  C   UNL A   1      46.601  34.695  30.535  1.00  0.00     0.002 A 
ATOM     84  C   UNL A   1      45.566  35.634  28.552  1.00  0.00     0.091 A 
ATOM     85  F   UNL A   1      43.972  34.332  27.345  1.00  0.00    -0.205 F 
ATOM     86  C   UNL A   1      46.434  35.757  29.648  1.00  0.00     0.022 A 
BRANCH  84  87
ATOM     87  S   UNL A   1      45.490  37.016  27.408  1.00  0.00     0.127 S 
ATOM     88  O   UNL A   1      44.073  37.031  27.051  1.00  0.00    -0.237 OA
ATOM     89  O   UNL A   1      45.920  38.136  28.247  1.00  0.00    -0.237 OA
ATOM     90  O   UNL A   1      46.404  36.690  26.320  1.00  0.00    -0.744 OA
ENDBRANCH  84  87
ENDBRANCH  57  80
ENDBRANCH  31  32
ENDBRANCH  24  26
ENDBRANCH  23  24
ENDBRANCH  22  23
ENDBRANCH   1  22
TORSDOF 18
ENDMDL
MODEL 2
REMARK VINA RESULT:     -10.8      4.832     10.101
REMARK SMILES Cc1nc([C@]2(C)CCCO2)nc(C)c1C(=O)OCCOCCOC(=O)c1ccc(-c2c3nc(c(-c4cccc(S(=O)(=O)[O-])c4F)c4ccc([nH]4)c(-c4cccc(S(=O)(=O)[O-])c4F)c4nc(c(-c5cccc(S(=O)(=O)[O-])c5F)c5ccc2[nH]5)C=C4)C=C3)cc1
REMARK SMILES IDX 21 1 20 2 19 3 18 4 17 5 15 6 16 7 14 8 1 9 2 10 3 11 4 12
REMARK SMILES IDX 12 13 11 14 13 15 5 16 7 17 10 18 6 19 8 20 9 21 22 22 23 23
REMARK SMILES IDX 24 24 25 25 26 26 27 27 88 28 28 29 87 30 29 31 30 32 31 33
REMARK SMILES IDX 81 34 32 35 86 36 80 37 82 38 33 39 85 40 79 41 78 42 34 44
REMARK SMILES IDX 66 45 46 46 65 47 47 48 50 49 64 50 83 51 48 52 49 53 63 55
REMARK SMILES IDX 84 56 51 57 35 58 36 59 44 60 37 61 39 62 45 63 38 64 40 65
REMARK SMILES IDX 41 66 42 67 43 68 67 69 68 70 76 71 69 72 71 73 77 74 70 75
REMARK SMILES IDX 72 76 73 77 74 78 75 79 52 80 53 81 61 82 54 83 56 84 62 85
REMARK SMILES IDX 55 86 57 87 58 88 59 89 60 90
REMARK H PARENT 82 43 50 54
REMARK Flexibility Score: inf
ROOT
ATOM      1  C   UNL A   1      31.555  29.666  24.924  1.00  0.00     0.202 C 
ENDROOT
BRANCH   1   2
ATOM      2  O   UNL A   1      30.796  29.708  23.715  1.00  0.00    -0.374 OA
BRANCH   2   3
ATOM      3  C   UNL A   1      30.063  28.540  23.344  1.00  0.00     0.202 C 
BRANCH   3   4
ATOM      4  C   UNL A   1      30.837  27.222  23.291  1.00  0.00     0.261 C 
BRANCH   4   5
ATOM      5  O   UNL A   1      30.093  26.171  23.927  1.00  0.00    -0.460 OA
BRANCH   5   6
ATOM      6  C   UNL A   1      30.506  25.842  25.169  1.00  0.00     0.341 C 
ATOM      7  O   UNL A   1      29.887  26.021  26.211  1.00  0.00    -0.246 OA
BRANCH   6   8
ATOM      8  C   UNL A   1      31.774  25.097  25.128  1.00  0.00     0.102 A 
ATOM      9  C   UNL A   1      33.120  26.892  26.328  1.00  0.00     0.068 C 
ATOM     10  C   UNL A   1      32.942  25.519  25.745  1.00  0.00     0.056 A 
ATOM     11  N   UNL A   1      34.037  24.722  25.819  1.00  0.00    -0.234 NA
ATOM     12  C   UNL A   1      33.979  23.495  25.260  1.00  0.00     0.160 A 
ATOM     13  C   UNL A   1      31.833  23.866  24.481  1.00  0.00     0.056 A 
ATOM     14  N   UNL A   1      32.917  23.060  24.557  1.00  0.00    -0.234 NA
ATOM     15  C   UNL A   1      30.771  23.385  23.533  1.00  0.00     0.068 C 
BRANCH  12  16
ATOM     16  C   UNL A   1      35.150  22.525  25.489  1.00  0.00     0.125 C 
ATOM     17  C   UNL A   1      36.414  23.262  25.937  1.00  0.00     0.046 C 
ATOM     18  O   UNL A   1      35.526  21.866  24.258  1.00  0.00    -0.367 OA
ATOM     19  C   UNL A   1      34.780  21.432  26.501  1.00  0.00     0.051 C 
ATOM     20  C   UNL A   1      37.073  23.658  24.636  1.00  0.00     0.032 C 
ATOM     21  C   UNL A   1      36.594  22.607  23.652  1.00  0.00     0.161 C 
ENDBRANCH  12  16
ENDBRANCH   6   8
ENDBRANCH   5   6
ENDBRANCH   4   5
ENDBRANCH   3   4
ENDBRANCH   2   3
ENDBRANCH   1   2
BRANCH   1  22
ATOM     22  C   UNL A   1      31.423  30.830  25.912  1.00  0.00     0.261 C 
BRANCH  22  23
ATOM     23  O   UNL A   1      32.326  30.735  27.024  1.00  0.00    -0.460 OA
BRANCH  23  24
ATOM     24  C   UNL A   1      33.051  31.855  27.254  1.00  0.00     0.338 C 
ATOM     25  O   UNL A   1      32.649  33.011  27.242  1.00  0.00    -0.246 OA
BRANCH  24  26
ATOM     26  C   UNL A   1      34.397  31.492  27.729  1.00  0.00     0.060 A 
ATOM     27  C   UNL A   1      34.651  30.137  27.980  1.00  0.00     0.016 A 
ATOM     28  C   UNL A   1      35.365  32.461  27.993  1.00  0.00     0.016 A 
ATOM     29  C   UNL A   1      35.863  29.749  28.540  1.00  0.00     0.010 A 
ATOM     30  C   UNL A   1      36.579  32.069  28.565  1.00  0.00     0.010 A 
ATOM     31  C   UNL A   1      36.818  30.718  28.874  1.00  0.00    -0.014 A 
BRANCH  31  32
ATOM     32  C   UNL A   1      38.004  30.329  29.672  1.00  0.00     0.031 A 
ATOM     33  C   UNL A   1      38.979  29.340  29.096  1.00  0.00     0.074 A 
ATOM     34  C   UNL A   1      38.209  30.857  30.892  1.00  0.00     0.049 A 
ATOM     35  N   UNL A   1      40.057  28.833  29.634  1.00  0.00    -0.248 NA
ATOM     36  C   UNL A   1      38.703  28.857  27.733  1.00  0.00     0.031 C 
ATOM     37  C   UNL A   1      37.337  31.829  31.549  1.00  0.00     0.029 A 
ATOM     38  N   UNL A   1      39.208  30.627  31.806  1.00  0.00    -0.354 N 
ATOM     39  C   UNL A   1      40.572  27.950  28.692  1.00  0.00     0.074 A 
ATOM     40  C   UNL A   1      39.680  27.982  27.552  1.00  0.00     0.031 C 
ATOM     41  C   UNL A   1      37.819  32.088  32.777  1.00  0.00     0.029 A 
ATOM     42  C   UNL A   1      39.017  31.280  33.000  1.00  0.00     0.049 A 
ATOM     43  H   UNL A   1      39.985  30.051  31.623  1.00  0.00     0.167 HD
ATOM     44  C   UNL A   1      41.693  27.195  28.762  1.00  0.00     0.034 A 
ATOM     45  C   UNL A   1      39.714  31.210  34.151  1.00  0.00     0.034 A 
ATOM     46  C   UNL A   1      42.583  27.180  29.891  1.00  0.00     0.049 A 
ATOM     47  C   UNL A   1      40.942  30.339  34.213  1.00  0.00     0.074 A 
ATOM     48  C   UNL A   1      43.766  26.479  30.043  1.00  0.00     0.029 A 
ATOM     49  N   UNL A   1      42.383  27.888  31.066  1.00  0.00    -0.354 N 
ATOM     50  N   UNL A   1      41.477  29.596  33.275  1.00  0.00    -0.248 NA
ATOM     51  C   UNL A   1      41.684  30.325  35.483  1.00  0.00     0.031 C 
ATOM     52  C   UNL A   1      44.265  26.740  31.323  1.00  0.00     0.029 A 
ATOM     53  C   UNL A   1      43.415  27.633  31.953  1.00  0.00     0.049 A 
ATOM     54  H   UNL A   1      41.621  28.484  31.243  1.00  0.00     0.167 HD
ATOM     55  C   UNL A   1      42.634  29.057  33.826  1.00  0.00     0.074 A 
ATOM     56  C   UNL A   1      42.735  29.577  35.174  1.00  0.00     0.031 C 
ATOM     57  C   UNL A   1      43.529  28.200  33.272  1.00  0.00     0.034 A 
BRANCH  44  58
ATOM     58  C   UNL A   1      42.035  26.335  27.574  1.00  0.00     0.023 A 
ATOM     59  C   UNL A   1      42.753  26.889  26.494  1.00  0.00     0.012 A 
ATOM     60  C   UNL A   1      41.706  24.966  27.556  1.00  0.00     0.148 A 
ATOM     61  C   UNL A   1      43.112  26.101  25.402  1.00  0.00     0.002 A 
ATOM     62  C   UNL A   1      42.107  24.176  26.485  1.00  0.00     0.091 A 
ATOM     63  F   UNL A   1      41.006  24.463  28.582  1.00  0.00    -0.205 F 
ATOM     64  C   UNL A   1      42.800  24.744  25.402  1.00  0.00     0.022 A 
BRANCH  62  65
ATOM     65  S   UNL A   1      41.824  22.403  26.426  1.00  0.00     0.127 S 
ATOM     66  O   UNL A   1      42.556  22.029  25.217  1.00  0.00    -0.237 OA
ATOM     67  O   UNL A   1      42.437  21.953  27.675  1.00  0.00    -0.237 OA
ATOM     68  O   UNL A   1      40.380  22.228  26.358  1.00  0.00    -0.744 OA
ENDBRANCH  62  65
ENDBRANCH  44  58
BRANCH  45  69
ATOM     69  C   UNL A   1      39.278  31.999  35.338  1.00  0.00     0.023 A 
ATOM     70  C   UNL A   1      38.389  31.429  36.269  1.00  0.00     0.012 A 
ATOM     71  C   UNL A   1      39.745  33.311  35.548  1.00  0.00     0.148 A 
ATOM     72  C   UNL A   1      37.944  32.165  37.368  1.00  0.00     0.002 A 
ATOM     73  C   UNL A   1      39.344  34.017  36.676  1.00  0.00     0.091 A 
ATOM     74  F   UNL A   1      40.578  33.842  34.642  1.00  0.00    -0.205 F 
ATOM     75  C   UNL A   1      38.428  33.453  37.577  1.00  0.00     0.022 A 
BRANCH  73  76
ATOM     76  S   UNL A   1      40.020  35.627  37.093  1.00  0.00     0.127 S 
ATOM     77  O   UNL A   1      39.644  36.422  35.926  1.00  0.00    -0.237 OA
ATOM     78  O   UNL A   1      39.294  35.951  38.320  1.00  0.00    -0.237 OA
ATOM     79  O   UNL A   1      41.450  35.416  37.281  1.00  0.00    -0.744 OA
ENDBRANCH  73  76
ENDBRANCH  45  69
BRANCH  57  80
ATOM     80  C   UNL A   1      44.723  27.802  34.101  1.00  0.00     0.023 A 
ATOM     81  C   UNL A   1      45.886  28.598  34.092  1.00  0.00     0.012 A 
ATOM     82  C   UNL A   1      44.663  26.675  34.946  1.00  0.00     0.148 A 
ATOM     83  C   UNL A   1      46.982  28.259  34.883  1.00  0.00     0.002 A 
ATOM     84  C   UNL A   1      45.739  26.375  35.771  1.00  0.00     0.091 A 
ATOM     85  F   UNL A   1      43.554  25.922  34.928  1.00  0.00    -0.205 F 
ATOM     86  C   UNL A   1      46.905  27.156  35.731  1.00  0.00     0.022 A 
BRANCH  84  87
ATOM     87  S   UNL A   1      45.693  25.033  36.965  1.00  0.00     0.127 S 
ATOM     88  O   UNL A   1      44.524  25.389  37.767  1.00  0.00    -0.237 OA
ATOM     89  O   UNL A   1      45.510  23.862  36.107  1.00  0.00    -0.237 OA
ATOM     90  O   UNL A   1      46.969  25.075  37.668  1.00  0.00    -0.744 OA
ENDBRANCH  84  87
ENDBRANCH  57  80
ENDBRANCH  31  32
ENDBRANCH  24  26
ENDBRANCH  23  24
ENDBRANCH  22  23
ENDBRANCH   1  22
TORSDOF 18
ENDMDL
MODEL 3
REMARK VINA RESULT:     -10.7      1.413      7.832
REMARK SMILES Cc1nc([C@]2(C)CCCO2)nc(C)c1C(=O)OCCOCCOC(=O)c1ccc(-c2c3nc(c(-c4cccc(S(=O)(=O)[O-])c4F)c4ccc([nH]4)c(-c4cccc(S(=O)(=O)[O-])c4F)c4nc(c(-c5cccc(S(=O)(=O)[O-])c5F)c5ccc2[nH]5)C=C4)C=C3)cc1
REMARK SMILES IDX 21 1 20 2 19 3 18 4 17 5 15 6 16 7 14 8 1 9 2 10 3 11 4 12
REMARK SMILES IDX 12 13 11 14 13 15 5 16 7 17 10 18 6 19 8 20 9 21 22 22 23 23
REMARK SMILES IDX 24 24 25 25 26 26 27 27 88 28 28 29 87 30 29 31 30 32 31 33
REMARK SMILES IDX 81 34 32 35 86 36 80 37 82 38 33 39 85 40 79 41 78 42 34 44
REMARK SMILES IDX 66 45 46 46 65 47 47 48 50 49 64 50 83 51 48 52 49 53 63 55
REMARK SMILES IDX 84 56 51 57 35 58 36 59 44 60 37 61 39 62 45 63 38 64 40 65
REMARK SMILES IDX 41 66 42 67 43 68 67 69 68 70 76 71 69 72 71 73 77 74 70 75
REMARK SMILES IDX 72 76 73 77 74 78 75 79 52 80 53 81 61 82 54 83 56 84 62 85
REMARK SMILES IDX 55 86 57 87 58 88 59 89 60 90
REMARK H PARENT 82 43 50 54
REMARK Flexibility Score: inf
ROOT
ATOM      1  C   UNL A   1      36.641  19.999  24.968  1.00  0.00     0.202 C 
ENDROOT
BRANCH   1   2
ATOM      2  O   UNL A   1      35.434  20.659  25.348  1.00  0.00    -0.374 OA
BRANCH   2   3
ATOM      3  C   UNL A   1      34.252  20.380  24.595  1.00  0.00     0.202 C 
BRANCH   3   4
ATOM      4  C   UNL A   1      33.226  21.508  24.471  1.00  0.00     0.261 C 
BRANCH   4   5
ATOM      5  O   UNL A   1      33.411  22.229  23.244  1.00  0.00    -0.460 OA
BRANCH   5   6
ATOM      6  C   UNL A   1      34.399  23.149  23.260  1.00  0.00     0.341 C 
ATOM      7  O   UNL A   1      35.503  23.037  22.743  1.00  0.00    -0.246 OA
BRANCH   6   8
ATOM      8  C   UNL A   1      33.945  24.406  23.877  1.00  0.00     0.102 A 
ATOM      9  C   UNL A   1      32.592  25.163  21.861  1.00  0.00     0.068 C 
ATOM     10  C   UNL A   1      33.039  25.276  23.290  1.00  0.00     0.056 A 
ATOM     11  N   UNL A   1      32.527  26.334  23.967  1.00  0.00    -0.234 NA
ATOM     12  C   UNL A   1      32.930  26.542  25.238  1.00  0.00     0.160 A 
ATOM     13  C   UNL A   1      34.393  24.753  25.149  1.00  0.00     0.056 A 
ATOM     14  N   UNL A   1      33.881  25.801  25.834  1.00  0.00    -0.234 NA
ATOM     15  C   UNL A   1      35.570  24.095  25.813  1.00  0.00     0.068 C 
BRANCH  12  16
ATOM     16  C   UNL A   1      32.227  27.632  26.064  1.00  0.00     0.125 C 
ATOM     17  C   UNL A   1      31.781  28.805  25.188  1.00  0.00     0.046 C 
ATOM     18  O   UNL A   1      33.133  28.217  27.028  1.00  0.00    -0.367 OA
ATOM     19  C   UNL A   1      31.035  27.060  26.844  1.00  0.00     0.051 C 
ATOM     20  C   UNL A   1      32.997  29.700  25.150  1.00  0.00     0.032 C 
ATOM     21  C   UNL A   1      33.718  29.393  26.449  1.00  0.00     0.161 C 
ENDBRANCH  12  16
ENDBRANCH   6   8
ENDBRANCH   5   6
ENDBRANCH   4   5
ENDBRANCH   3   4
ENDBRANCH   2   3
ENDBRANCH   1   2
BRANCH   1  22
ATOM     22  C   UNL A   1      37.942  20.809  24.943  1.00  0.00     0.261 C 
BRANCH  22  23
ATOM     23  O   UNL A   1      38.283  21.373  26.218  1.00  0.00    -0.460 OA
BRANCH  23  24
ATOM     24  C   UNL A   1      39.613  21.442  26.462  1.00  0.00     0.338 C 
ATOM     25  O   UNL A   1      40.466  20.626  26.140  1.00  0.00    -0.246 OA
BRANCH  24  26
ATOM     26  C   UNL A   1      39.953  22.763  27.018  1.00  0.00     0.060 A 
ATOM     27  C   UNL A   1      39.284  23.877  26.494  1.00  0.00     0.016 A 
ATOM     28  C   UNL A   1      40.953  22.917  27.978  1.00  0.00     0.016 A 
ATOM     29  C   UNL A   1      39.646  25.158  26.896  1.00  0.00     0.010 A 
ATOM     30  C   UNL A   1      41.323  24.206  28.373  1.00  0.00     0.010 A 
ATOM     31  C   UNL A   1      40.696  25.331  27.807  1.00  0.00    -0.014 A 
BRANCH  31  32
ATOM     32  C   UNL A   1      41.227  26.691  28.058  1.00  0.00     0.031 A 
ATOM     33  C   UNL A   1      42.653  26.997  27.692  1.00  0.00     0.074 A 
ATOM     34  C   UNL A   1      40.444  27.641  28.600  1.00  0.00     0.049 A 
ATOM     35  N   UNL A   1      43.330  28.102  27.860  1.00  0.00    -0.248 NA
ATOM     36  C   UNL A   1      43.419  25.913  27.054  1.00  0.00     0.031 C 
ATOM     37  C   UNL A   1      39.046  27.462  28.988  1.00  0.00     0.029 A 
ATOM     38  N   UNL A   1      40.726  28.940  28.941  1.00  0.00    -0.354 N 
ATOM     39  C   UNL A   1      44.608  27.841  27.377  1.00  0.00     0.074 A 
ATOM     40  C   UNL A   1      44.615  26.468  26.922  1.00  0.00     0.031 C 
ATOM     41  C   UNL A   1      38.600  28.600  29.547  1.00  0.00     0.029 A 
ATOM     42  C   UNL A   1      39.688  29.575  29.579  1.00  0.00     0.049 A 
ATOM     43  H   UNL A   1      41.588  29.375  28.747  1.00  0.00     0.167 HD
ATOM     44  C   UNL A   1      45.673  28.673  27.306  1.00  0.00     0.034 A 
ATOM     45  C   UNL A   1      39.633  30.795  30.151  1.00  0.00     0.034 A 
ATOM     46  C   UNL A   1      45.655  30.042  27.746  1.00  0.00     0.049 A 
ATOM     47  C   UNL A   1      40.842  31.691  30.083  1.00  0.00     0.074 A 
ATOM     48  C   UNL A   1      46.671  30.979  27.679  1.00  0.00     0.029 A 
ATOM     49  N   UNL A   1      44.573  30.666  28.346  1.00  0.00    -0.354 N 
ATOM     50  N   UNL A   1      42.006  31.469  29.525  1.00  0.00    -0.248 NA
ATOM     51  C   UNL A   1      40.717  33.024  30.694  1.00  0.00     0.031 C 
ATOM     52  C   UNL A   1      46.212  32.162  28.268  1.00  0.00     0.029 A 
ATOM     53  C   UNL A   1      44.898  31.973  28.666  1.00  0.00     0.049 A 
ATOM     54  H   UNL A   1      43.702  30.243  28.520  1.00  0.00     0.167 HD
ATOM     55  C   UNL A   1      42.738  32.640  29.682  1.00  0.00     0.074 A 
ATOM     56  C   UNL A   1      41.877  33.580  30.370  1.00  0.00     0.031 C 
ATOM     57  C   UNL A   1      44.012  32.913  29.303  1.00  0.00     0.034 A 
BRANCH  44  58
ATOM     58  C   UNL A   1      46.945  28.134  26.708  1.00  0.00     0.023 A 
ATOM     59  C   UNL A   1      47.955  27.626  27.552  1.00  0.00     0.012 A 
ATOM     60  C   UNL A   1      47.114  28.067  25.311  1.00  0.00     0.148 A 
ATOM     61  C   UNL A   1      49.123  27.088  27.016  1.00  0.00     0.002 A 
ATOM     62  C   UNL A   1      48.262  27.488  24.784  1.00  0.00     0.091 A 
ATOM     63  F   UNL A   1      46.153  28.574  24.526  1.00  0.00    -0.205 F 
ATOM     64  C   UNL A   1      49.273  27.008  25.635  1.00  0.00     0.022 A 
BRANCH  62  65
ATOM     65  S   UNL A   1      48.515  27.266  23.020  1.00  0.00     0.127 S 
ATOM     66  O   UNL A   1      47.516  28.176  22.461  1.00  0.00    -0.237 OA
ATOM     67  O   UNL A   1      49.901  27.702  22.851  1.00  0.00    -0.237 OA
ATOM     68  O   UNL A   1      48.285  25.853  22.755  1.00  0.00    -0.744 OA
ENDBRANCH  62  65
ENDBRANCH  44  58
BRANCH  45  69
ATOM     69  C   UNL A   1      38.384  31.248  30.826  1.00  0.00     0.023 A 
ATOM     70  C   UNL A   1      38.254  31.117  32.221  1.00  0.00     0.012 A 
ATOM     71  C   UNL A   1      37.325  31.813  30.088  1.00  0.00     0.148 A 
ATOM     72  C   UNL A   1      37.079  31.505  32.866  1.00  0.00     0.002 A 
ATOM     73  C   UNL A   1      36.181  32.252  30.743  1.00  0.00     0.091 A 
ATOM     74  F   UNL A   1      37.460  31.914  28.758  1.00  0.00    -0.205 F 
ATOM     75  C   UNL A   1      36.047  32.081  32.130  1.00  0.00     0.022 A 
BRANCH  73  76
ATOM     76  S   UNL A   1      34.862  33.125  29.893  1.00  0.00     0.127 S 
ATOM     77  O   UNL A   1      34.288  32.068  29.065  1.00  0.00    -0.237 OA
ATOM     78  O   UNL A   1      34.021  33.562  31.008  1.00  0.00    -0.237 OA
ATOM     79  O   UNL A   1      35.512  34.212  29.172  1.00  0.00    -0.744 OA
ENDBRANCH  73  76
ENDBRANCH  45  69
BRANCH  57  80
ATOM     80  C   UNL A   1      44.544  34.296  29.577  1.00  0.00     0.023 A 
ATOM     81  C   UNL A   1      45.134  34.591  30.823  1.00  0.00     0.012 A 
ATOM     82  C   UNL A   1      44.526  35.282  28.570  1.00  0.00     0.148 A 
ATOM     83  C   UNL A   1      45.664  35.856  31.074  1.00  0.00     0.002 A 
ATOM     84  C   UNL A   1      45.104  36.523  28.809  1.00  0.00     0.091 A 
ATOM     85  F   UNL A   1      43.947  34.987  27.398  1.00  0.00    -0.205 F 
ATOM     86  C   UNL A   1      45.660  36.817  30.064  1.00  0.00     0.022 A 
BRANCH  84  87
ATOM     87  S   UNL A   1      45.232  37.787  27.540  1.00  0.00     0.127 S 
ATOM     88  O   UNL A   1      43.841  37.925  27.115  1.00  0.00    -0.237 OA
ATOM     89  O   UNL A   1      45.756  38.928  28.292  1.00  0.00    -0.237 OA
ATOM     90  O   UNL A   1      46.142  37.257  26.533  1.00  0.00    -0.744 OA
ENDBRANCH  84  87
ENDBRANCH  57  80
ENDBRANCH  31  32
ENDBRANCH  24  26
ENDBRANCH  23  24
ENDBRANCH  22  23
ENDBRANCH   1  22
TORSDOF 18
ENDMDL
