MODEL 1
REMARK VINA RESULT:     -11.8      0.000      0.000
REMARK SMILES CCOC(=O)C1=NN(c2ccc([N+](=O)[O-])cc2C(F)(F)F)[C@@](C)(C(=O)OCCOCCOC(=O)c2ccc(-c3c4nc(c(-c5cccc(S(=O)(=O)[O-])c5F)c5ccc([nH]5)c(-c5cccc(S(=O)(=O)[O-])c5F)c5nc(c(-c6cccc(S(=O)(=O)[O-])c6F)c6ccc3[nH]6)C=C5)C=C4)cc2)C1
REMARK SMILES IDX 29 1 28 2 27 3 26 4 24 5 25 6 22 7 6 8 7 9 98 10 8 11 23 12
REMARK SMILES IDX 4 13 5 14 3 15 2 16 1 17 9 18 10 19 17 20 11 21 16 22 12 23
REMARK SMILES IDX 18 24 19 25 20 26 21 27 13 28 14 29 15 30 30 31 31 32 32 33
REMARK SMILES IDX 33 34 34 35 35 36 36 37 97 38 37 39 96 40 38 41 39 42 40 43
REMARK SMILES IDX 90 44 41 45 95 46 89 47 91 48 42 49 94 50 88 51 87 52 43 54
REMARK SMILES IDX 75 55 55 56 74 57 56 58 59 59 73 60 92 61 57 62 58 63 72 65
REMARK SMILES IDX 93 66 60 67 44 68 45 69 53 70 46 71 48 72 54 73 47 74 49 75
REMARK SMILES IDX 50 76 51 77 52 78 76 79 77 80 85 81 78 82 80 83 86 84 79 85
REMARK SMILES IDX 81 86 82 87 83 88 84 89 61 90 62 91 70 92 63 93 65 94 71 95
REMARK SMILES IDX 64 96 66 97 67 98 68 99 69 100
REMARK H PARENT 91 53 59 64
REMARK Flexibility Score: inf
ROOT
ATOM      1  O   UNL A   1      35.194  22.986  26.389  1.00  0.00    -0.374 OA
ENDROOT
BRANCH   1   2
ATOM      2  C   UNL A   1      33.890  23.051  26.956  1.00  0.00     0.202 C 
BRANCH   2   3
ATOM      3  C   UNL A   1      32.963  24.168  26.465  1.00  0.00     0.261 C 
BRANCH   3   4
ATOM      4  O   UNL A   1      33.662  25.294  25.905  1.00  0.00    -0.461 OA
BRANCH   4   5
ATOM      5  C   UNL A   1      32.853  26.317  25.520  1.00  0.00     0.334 C 
ATOM      6  O   UNL A   1      31.950  26.771  26.222  1.00  0.00    -0.249 OA
BRANCH   5   7
ATOM      7  C   UNL A   1      33.085  26.813  24.081  1.00  0.00     0.163 C 
ATOM      8  C   UNL A   1      32.910  24.936  22.774  1.00  0.00     0.149 C 
ATOM      9  N   UNL A   1      31.763  25.519  22.604  1.00  0.00    -0.169 NA
ATOM     10  C   UNL A   1      33.988  25.765  23.391  1.00  0.00     0.108 C 
ATOM     11  N   UNL A   1      31.894  26.759  23.182  1.00  0.00    -0.247 N 
ATOM     12  C   UNL A   1      33.775  28.159  24.223  1.00  0.00     0.050 C 
BRANCH   8  13
ATOM     13  C   UNL A   1      33.169  23.502  22.419  1.00  0.00     0.354 C 
ATOM     14  O   UNL A   1      34.276  23.137  22.054  1.00  0.00    -0.245 OA
BRANCH  13  15
ATOM     15  O   UNL A   1      32.058  22.762  22.566  1.00  0.00    -0.461 OA
BRANCH  15  16
ATOM     16  C   UNL A   1      32.291  21.386  22.895  1.00  0.00     0.230 C 
ATOM     17  C   UNL A   1      32.129  21.154  24.387  1.00  0.00     0.049 C 
ENDBRANCH  15  16
ENDBRANCH  13  15
ENDBRANCH   8  13
BRANCH  11  18
ATOM     18  C   UNL A   1      30.871  27.671  22.962  1.00  0.00     0.073 A 
ATOM     19  C   UNL A   1      31.212  28.952  22.476  1.00  0.00     0.036 A 
ATOM     20  C   UNL A   1      29.523  27.473  23.333  1.00  0.00     0.088 A 
ATOM     21  C   UNL A   1      30.266  29.964  22.273  1.00  0.00     0.088 A 
ATOM     22  C   UNL A   1      28.549  28.466  23.048  1.00  0.00     0.101 A 
ATOM     23  C   UNL A   1      28.925  29.705  22.527  1.00  0.00     0.270 A 
BRANCH  20  24
ATOM     24  C   UNL A   1      29.042  26.304  24.158  1.00  0.00     0.418 C 
ATOM     25  F   UNL A   1      29.582  26.295  25.413  1.00  0.00    -0.166 F 
ATOM     26  F   UNL A   1      27.694  26.317  24.349  1.00  0.00    -0.166 F 
ATOM     27  F   UNL A   1      29.343  25.076  23.647  1.00  0.00    -0.166 F 
ENDBRANCH  20  24
BRANCH  23  28
ATOM     28  N   UNL A   1      27.924  30.764  22.336  1.00  0.00     0.062 N 
ATOM     29  O   UNL A   1      27.168  31.015  23.286  1.00  0.00    -0.258 OA
ATOM     30  O   UNL A   1      27.871  31.307  21.225  1.00  0.00    -0.258 OA
ENDBRANCH  23  28
ENDBRANCH  11  18
ENDBRANCH   5   7
ENDBRANCH   4   5
ENDBRANCH   3   4
ENDBRANCH   2   3
ENDBRANCH   1   2
BRANCH   1  31
ATOM     31  C   UNL A   1      35.362  22.169  25.229  1.00  0.00     0.202 C 
BRANCH  31  32
ATOM     32  C   UNL A   1      36.436  21.076  25.291  1.00  0.00     0.261 C 
BRANCH  32  33
ATOM     33  O   UNL A   1      37.736  21.582  24.941  1.00  0.00    -0.460 OA
BRANCH  33  34
ATOM     34  C   UNL A   1      38.749  21.199  25.751  1.00  0.00     0.338 C 
ATOM     35  O   UNL A   1      39.270  20.093  25.809  1.00  0.00    -0.246 OA
BRANCH  34  36
ATOM     36  C   UNL A   1      39.302  22.381  26.439  1.00  0.00     0.060 A 
ATOM     37  C   UNL A   1      38.760  23.636  26.131  1.00  0.00     0.016 A 
ATOM     38  C   UNL A   1      40.366  22.271  27.333  1.00  0.00     0.016 A 
ATOM     39  C   UNL A   1      39.323  24.792  26.668  1.00  0.00     0.010 A 
ATOM     40  C   UNL A   1      40.925  23.427  27.881  1.00  0.00     0.010 A 
ATOM     41  C   UNL A   1      40.437  24.694  27.510  1.00  0.00    -0.014 A 
BRANCH  41  42
ATOM     42  C   UNL A   1      41.232  25.901  27.837  1.00  0.00     0.031 A 
ATOM     43  C   UNL A   1      40.564  27.006  28.609  1.00  0.00     0.074 A 
ATOM     44  C   UNL A   1      42.510  26.026  27.439  1.00  0.00     0.049 A 
ATOM     45  N   UNL A   1      41.012  28.193  28.921  1.00  0.00    -0.248 NA
ATOM     46  C   UNL A   1      39.197  26.734  29.089  1.00  0.00     0.031 C 
ATOM     47  C   UNL A   1      43.273  25.012  26.715  1.00  0.00     0.029 A 
ATOM     48  N   UNL A   1      43.380  27.080  27.567  1.00  0.00    -0.354 N 
ATOM     49  C   UNL A   1      39.973  28.823  29.594  1.00  0.00     0.074 A 
ATOM     50  C   UNL A   1      38.867  27.892  29.638  1.00  0.00     0.031 C 
ATOM     51  C   UNL A   1      44.494  25.503  26.438  1.00  0.00     0.029 A 
ATOM     52  C   UNL A   1      44.582  26.877  26.932  1.00  0.00     0.049 A 
ATOM     53  H   UNL A   1      43.164  27.900  28.065  1.00  0.00     0.167 HD
ATOM     54  C   UNL A   1      39.944  30.062  30.140  1.00  0.00     0.034 A 
ATOM     55  C   UNL A   1      45.622  27.716  26.751  1.00  0.00     0.034 A 
ATOM     56  C   UNL A   1      41.051  30.976  30.109  1.00  0.00     0.049 A 
ATOM     57  C   UNL A   1      45.549  29.108  27.324  1.00  0.00     0.074 A 
ATOM     58  C   UNL A   1      41.139  32.242  30.659  1.00  0.00     0.029 A 
ATOM     59  N   UNL A   1      42.263  30.724  29.484  1.00  0.00    -0.354 N 
ATOM     60  N   UNL A   1      44.598  29.662  28.036  1.00  0.00    -0.248 NA
ATOM     61  C   UNL A   1      46.707  29.985  27.091  1.00  0.00     0.031 C 
ATOM     62  C   UNL A   1      42.399  32.764  30.347  1.00  0.00     0.029 A 
ATOM     63  C   UNL A   1      43.105  31.812  29.627  1.00  0.00     0.049 A 
ATOM     64  H   UNL A   1      42.490  29.892  29.009  1.00  0.00     0.167 HD
ATOM     65  C   UNL A   1      45.058  30.930  28.375  1.00  0.00     0.074 A 
ATOM     66  C   UNL A   1      46.378  31.061  27.793  1.00  0.00     0.031 C 
ATOM     67  C   UNL A   1      44.442  31.900  29.096  1.00  0.00     0.034 A 
BRANCH  54  68
ATOM     68  C   UNL A   1      38.673  30.483  30.832  1.00  0.00     0.023 A 
ATOM     69  C   UNL A   1      38.495  30.194  32.200  1.00  0.00     0.012 A 
ATOM     70  C   UNL A   1      37.662  31.172  30.135  1.00  0.00     0.148 A 
ATOM     71  C   UNL A   1      37.313  30.545  32.853  1.00  0.00     0.002 A 
ATOM     72  C   UNL A   1      36.506  31.559  30.804  1.00  0.00     0.091 A 
ATOM     73  F   UNL A   1      37.834  31.415  28.828  1.00  0.00    -0.205 F 
ATOM     74  C   UNL A   1      36.324  31.235  32.158  1.00  0.00     0.022 A 
BRANCH  72  75
ATOM     75  S   UNL A   1      35.212  32.518  30.008  1.00  0.00     0.127 S 
ATOM     76  O   UNL A   1      34.255  32.688  31.101  1.00  0.00    -0.237 OA
ATOM     77  O   UNL A   1      35.921  33.740  29.625  1.00  0.00    -0.237 OA
ATOM     78  O   UNL A   1      34.754  31.711  28.886  1.00  0.00    -0.744 OA
ENDBRANCH  72  75
ENDBRANCH  54  68
BRANCH  55  79
ATOM     79  C   UNL A   1      46.840  27.243  26.035  1.00  0.00     0.023 A 
ATOM     80  C   UNL A   1      46.941  27.445  24.645  1.00  0.00     0.012 A 
ATOM     81  C   UNL A   1      47.909  26.633  26.720  1.00  0.00     0.148 A 
ATOM     82  C   UNL A   1      48.076  27.031  23.947  1.00  0.00     0.002 A 
ATOM     83  C   UNL A   1      49.058  26.271  26.027  1.00  0.00     0.091 A 
ATOM     84  F   UNL A   1      47.788  26.437  28.041  1.00  0.00    -0.205 F 
ATOM     85  C   UNL A   1      49.137  26.454  24.638  1.00  0.00     0.022 A 
BRANCH  83  86
ATOM     86  S   UNL A   1      50.527  25.640  26.848  1.00  0.00     0.127 S 
ATOM     87  O   UNL A   1      50.025  24.413  27.461  1.00  0.00    -0.237 OA
ATOM     88  O   UNL A   1      51.436  25.437  25.719  1.00  0.00    -0.237 OA
ATOM     89  O   UNL A   1      50.942  26.685  27.773  1.00  0.00    -0.744 OA
ENDBRANCH  83  86
ENDBRANCH  55  79
BRANCH  67  90
ATOM     90  C   UNL A   1      45.202  33.174  29.359  1.00  0.00     0.023 A 
ATOM     91  C   UNL A   1      46.111  33.245  30.432  1.00  0.00     0.012 A 
ATOM     92  C   UNL A   1      45.089  34.266  28.474  1.00  0.00     0.148 A 
ATOM     93  C   UNL A   1      46.879  34.390  30.635  1.00  0.00     0.002 A 
ATOM     94  C   UNL A   1      45.891  35.385  28.654  1.00  0.00     0.091 A 
ATOM     95  F   UNL A   1      44.205  34.184  27.469  1.00  0.00    -0.205 F 
ATOM     96  C   UNL A   1      46.779  35.454  29.739  1.00  0.00     0.022 A 
BRANCH  94  97
ATOM     97  S   UNL A   1      45.903  36.759  27.496  1.00  0.00     0.127 S 
ATOM     98  O   UNL A   1      46.906  37.642  28.090  1.00  0.00    -0.237 OA
ATOM     99  O   UNL A   1      46.320  36.113  26.252  1.00  0.00    -0.237 OA
ATOM    100  O   UNL A   1      44.543  37.283  27.479  1.00  0.00    -0.744 OA
ENDBRANCH  94  97
ENDBRANCH  67  90
ENDBRANCH  41  42
ENDBRANCH  34  36
ENDBRANCH  33  34
ENDBRANCH  32  33
ENDBRANCH  31  32
ENDBRANCH   1  31
TORSDOF 23
ENDMDL
MODEL 2
REMARK VINA RESULT:     -11.7      2.412      8.529
REMARK SMILES CCOC(=O)C1=NN(c2ccc([N+](=O)[O-])cc2C(F)(F)F)[C@@](C)(C(=O)OCCOCCOC(=O)c2ccc(-c3c4nc(c(-c5cccc(S(=O)(=O)[O-])c5F)c5ccc([nH]5)c(-c5cccc(S(=O)(=O)[O-])c5F)c5nc(c(-c6cccc(S(=O)(=O)[O-])c6F)c6ccc3[nH]6)C=C5)C=C4)cc2)C1
REMARK SMILES IDX 29 1 28 2 27 3 26 4 24 5 25 6 22 7 6 8 7 9 98 10 8 11 23 12
REMARK SMILES IDX 4 13 5 14 3 15 2 16 1 17 9 18 10 19 17 20 11 21 16 22 12 23
REMARK SMILES IDX 18 24 19 25 20 26 21 27 13 28 14 29 15 30 30 31 31 32 32 33
REMARK SMILES IDX 33 34 34 35 35 36 36 37 97 38 37 39 96 40 38 41 39 42 40 43
REMARK SMILES IDX 90 44 41 45 95 46 89 47 91 48 42 49 94 50 88 51 87 52 43 54
REMARK SMILES IDX 75 55 55 56 74 57 56 58 59 59 73 60 92 61 57 62 58 63 72 65
REMARK SMILES IDX 93 66 60 67 44 68 45 69 53 70 46 71 48 72 54 73 47 74 49 75
REMARK SMILES IDX 50 76 51 77 52 78 76 79 77 80 85 81 78 82 80 83 86 84 79 85
REMARK SMILES IDX 81 86 82 87 83 88 84 89 61 90 62 91 70 92 63 93 65 94 71 95
REMARK SMILES IDX 64 96 66 97 67 98 68 99 69 100
REMARK H PARENT 91 53 59 64
REMARK Flexibility Score: inf
ROOT
ATOM      1  O   UNL A   1      37.736  21.351  24.433  1.00  0.00    -0.374 OA
ENDROOT
BRANCH   1   2
ATOM      2  C   UNL A   1      37.026  22.296  25.227  1.00  0.00     0.202 C 
BRANCH   2   3
ATOM      3  C   UNL A   1      36.306  23.433  24.495  1.00  0.00     0.261 C 
BRANCH   3   4
ATOM      4  O   UNL A   1      34.875  23.287  24.468  1.00  0.00    -0.461 OA
BRANCH   4   5
ATOM      5  C   UNL A   1      34.227  23.953  25.462  1.00  0.00     0.334 C 
ATOM      6  O   UNL A   1      34.386  25.152  25.692  1.00  0.00    -0.249 OA
BRANCH   5   7
ATOM      7  C   UNL A   1      33.342  23.068  26.357  1.00  0.00     0.163 C 
ATOM      8  C   UNL A   1      31.224  23.916  26.116  1.00  0.00     0.149 C 
ATOM      9  N   UNL A   1      31.206  22.863  25.357  1.00  0.00    -0.169 NA
ATOM     10  C   UNL A   1      32.357  24.015  27.083  1.00  0.00     0.108 C 
ATOM     11  N   UNL A   1      32.372  22.191  25.637  1.00  0.00    -0.247 N 
ATOM     12  C   UNL A   1      34.296  22.385  27.322  1.00  0.00     0.050 C 
BRANCH   8  13
ATOM     13  C   UNL A   1      30.203  25.011  26.033  1.00  0.00     0.354 C 
ATOM     14  O   UNL A   1      29.209  24.996  26.744  1.00  0.00    -0.245 OA
BRANCH  13  15
ATOM     15  O   UNL A   1      30.556  25.929  25.119  1.00  0.00    -0.461 OA
BRANCH  15  16
ATOM     16  C   UNL A   1      29.907  25.791  23.847  1.00  0.00     0.230 C 
ATOM     17  C   UNL A   1      28.684  26.687  23.766  1.00  0.00     0.049 C 
ENDBRANCH  15  16
ENDBRANCH  13  15
ENDBRANCH   8  13
BRANCH  11  18
ATOM     18  C   UNL A   1      32.511  20.916  25.106  1.00  0.00     0.073 A 
ATOM     19  C   UNL A   1      32.978  19.888  25.953  1.00  0.00     0.036 A 
ATOM     20  C   UNL A   1      32.367  20.594  23.739  1.00  0.00     0.088 A 
ATOM     21  C   UNL A   1      33.207  18.580  25.506  1.00  0.00     0.088 A 
ATOM     22  C   UNL A   1      32.515  19.251  23.301  1.00  0.00     0.101 A 
ATOM     23  C   UNL A   1      32.939  18.255  24.182  1.00  0.00     0.270 A 
BRANCH  20  24
ATOM     24  C   UNL A   1      32.194  21.621  22.647  1.00  0.00     0.418 C 
ATOM     25  F   UNL A   1      33.284  22.437  22.523  1.00  0.00    -0.166 F 
ATOM     26  F   UNL A   1      32.027  21.058  21.419  1.00  0.00    -0.166 F 
ATOM     27  F   UNL A   1      31.146  22.475  22.821  1.00  0.00    -0.166 F 
ENDBRANCH  20  24
BRANCH  23  28
ATOM     28  N   UNL A   1      33.192  16.892  23.696  1.00  0.00     0.062 N 
ATOM     29  O   UNL A   1      33.675  16.770  22.561  1.00  0.00    -0.258 OA
ATOM     30  O   UNL A   1      32.866  15.952  24.433  1.00  0.00    -0.258 OA
ENDBRANCH  23  28
ENDBRANCH  11  18
ENDBRANCH   5   7
ENDBRANCH   4   5
ENDBRANCH   3   4
ENDBRANCH   2   3
ENDBRANCH   1   2
BRANCH   1  31
ATOM     31  C   UNL A   1      37.727  19.992  24.871  1.00  0.00     0.202 C 
BRANCH  31  32
ATOM     32  C   UNL A   1      39.037  19.429  25.436  1.00  0.00     0.261 C 
BRANCH  32  33
ATOM     33  O   UNL A   1      39.461  20.138  26.614  1.00  0.00    -0.460 OA
BRANCH  33  34
ATOM     34  C   UNL A   1      40.768  20.483  26.649  1.00  0.00     0.338 C 
ATOM     35  O   UNL A   1      41.711  19.850  26.193  1.00  0.00    -0.246 OA
BRANCH  34  36
ATOM     36  C   UNL A   1      40.898  21.866  27.148  1.00  0.00     0.060 A 
ATOM     37  C   UNL A   1      40.135  22.864  26.527  1.00  0.00     0.016 A 
ATOM     38  C   UNL A   1      41.789  22.190  28.171  1.00  0.00     0.016 A 
ATOM     39  C   UNL A   1      40.307  24.200  26.886  1.00  0.00     0.010 A 
ATOM     40  C   UNL A   1      41.954  23.526  28.539  1.00  0.00     0.010 A 
ATOM     41  C   UNL A   1      41.251  24.540  27.862  1.00  0.00    -0.014 A 
BRANCH  41  42
ATOM     42  C   UNL A   1      41.669  25.951  28.035  1.00  0.00     0.031 A 
ATOM     43  C   UNL A   1      43.049  26.343  27.581  1.00  0.00     0.074 A 
ATOM     44  C   UNL A   1      40.855  26.859  28.601  1.00  0.00     0.049 A 
ATOM     45  N   UNL A   1      43.679  27.480  27.719  1.00  0.00    -0.248 NA
ATOM     46  C   UNL A   1      43.827  25.306  26.880  1.00  0.00     0.031 C 
ATOM     47  C   UNL A   1      39.489  26.605  29.049  1.00  0.00     0.029 A 
ATOM     48  N   UNL A   1      41.080  28.174  28.920  1.00  0.00    -0.354 N 
ATOM     49  C   UNL A   1      44.938  27.283  27.163  1.00  0.00     0.074 A 
ATOM     50  C   UNL A   1      44.986  25.916  26.693  1.00  0.00     0.031 C 
ATOM     51  C   UNL A   1      39.002  27.725  29.612  1.00  0.00     0.029 A 
ATOM     52  C   UNL A   1      40.036  28.759  29.595  1.00  0.00     0.049 A 
ATOM     53  H   UNL A   1      41.908  28.652  28.687  1.00  0.00     0.167 HD
ATOM     54  C   UNL A   1      45.958  28.164  27.041  1.00  0.00     0.034 A 
ATOM     55  C   UNL A   1      39.940  29.981  30.157  1.00  0.00     0.034 A 
ATOM     56  C   UNL A   1      45.897  29.527  27.493  1.00  0.00     0.049 A 
ATOM     57  C   UNL A   1      41.106  30.930  30.053  1.00  0.00     0.074 A 
ATOM     58  C   UNL A   1      46.861  30.512  27.390  1.00  0.00     0.029 A 
ATOM     59  N   UNL A   1      44.812  30.092  28.144  1.00  0.00    -0.354 N 
ATOM     60  N   UNL A   1      42.257  30.764  29.446  1.00  0.00    -0.248 NA
ATOM     61  C   UNL A   1      40.951  32.247  30.689  1.00  0.00     0.031 C 
ATOM     62  C   UNL A   1      46.366  31.670  27.999  1.00  0.00     0.029 A 
ATOM     63  C   UNL A   1      45.082  31.412  28.457  1.00  0.00     0.049 A 
ATOM     64  H   UNL A   1      43.972  29.623  28.354  1.00  0.00     0.167 HD
ATOM     65  C   UNL A   1      42.943  31.966  29.586  1.00  0.00     0.074 A 
ATOM     66  C   UNL A   1      42.076  32.855  30.332  1.00  0.00     0.031 C 
ATOM     67  C   UNL A   1      44.180  32.302  29.143  1.00  0.00     0.034 A 
BRANCH  54  68
ATOM     68  C   UNL A   1      47.217  27.676  26.372  1.00  0.00     0.023 A 
ATOM     69  C   UNL A   1      48.233  27.080  27.147  1.00  0.00     0.012 A 
ATOM     70  C   UNL A   1      47.391  27.793  24.979  1.00  0.00     0.148 A 
ATOM     71  C   UNL A   1      49.420  26.650  26.554  1.00  0.00     0.002 A 
ATOM     72  C   UNL A   1      48.558  27.321  24.389  1.00  0.00     0.091 A 
ATOM     73  F   UNL A   1      46.428  28.386  24.260  1.00  0.00    -0.205 F 
ATOM     74  C   UNL A   1      49.578  26.762  25.176  1.00  0.00     0.022 A 
BRANCH  72  75
ATOM     75  S   UNL A   1      48.816  27.353  22.612  1.00  0.00     0.127 S 
ATOM     76  O   UNL A   1      50.252  27.610  22.526  1.00  0.00    -0.237 OA
ATOM     77  O   UNL A   1      48.414  26.003  22.214  1.00  0.00    -0.237 OA
ATOM     78  O   UNL A   1      47.953  28.411  22.106  1.00  0.00    -0.744 OA
ENDBRANCH  72  75
ENDBRANCH  54  68
BRANCH  55  79
ATOM     79  C   UNL A   1      38.673  30.393  30.824  1.00  0.00     0.023 A 
ATOM     80  C   UNL A   1      38.507  30.136  32.199  1.00  0.00     0.012 A 
ATOM     81  C   UNL A   1      37.653  31.065  30.123  1.00  0.00     0.148 A 
ATOM     82  C   UNL A   1      37.340  30.524  32.859  1.00  0.00     0.002 A 
ATOM     83  C   UNL A   1      36.517  31.496  30.798  1.00  0.00     0.091 A 
ATOM     84  F   UNL A   1      37.824  31.288  28.812  1.00  0.00    -0.205 F 
ATOM     85  C   UNL A   1      36.351  31.212  32.163  1.00  0.00     0.022 A 
BRANCH  83  86
ATOM     86  S   UNL A   1      35.248  32.501  30.018  1.00  0.00     0.127 S 
ATOM     87  O   UNL A   1      34.776  31.618  28.955  1.00  0.00    -0.237 OA
ATOM     88  O   UNL A   1      34.305  32.700  31.120  1.00  0.00    -0.237 OA
ATOM     89  O   UNL A   1      35.921  33.716  29.578  1.00  0.00    -0.744 OA
ENDBRANCH  83  86
ENDBRANCH  55  79
BRANCH  67  90
ATOM     90  C   UNL A   1      44.661  33.708  29.393  1.00  0.00     0.023 A 
ATOM     91  C   UNL A   1      45.357  34.014  30.578  1.00  0.00     0.012 A 
ATOM     92  C   UNL A   1      44.513  34.699  28.401  1.00  0.00     0.148 A 
ATOM     93  C   UNL A   1      45.878  35.291  30.783  1.00  0.00     0.002 A 
ATOM     94  C   UNL A   1      45.075  35.955  28.591  1.00  0.00     0.091 A 
ATOM     95  F   UNL A   1      43.831  34.391  27.288  1.00  0.00    -0.205 F 
ATOM     96  C   UNL A   1      45.749  36.257  29.785  1.00  0.00     0.022 A 
BRANCH  94  97
ATOM     97  S   UNL A   1      45.044  37.227  27.323  1.00  0.00     0.127 S 
ATOM     98  O   UNL A   1      45.920  36.653  26.303  1.00  0.00    -0.237 OA
ATOM     99  O   UNL A   1      43.628  37.268  26.958  1.00  0.00    -0.237 OA
ATOM    100  O   UNL A   1      45.540  38.441  27.959  1.00  0.00    -0.744 OA
ENDBRANCH  94  97
ENDBRANCH  67  90
ENDBRANCH  41  42
ENDBRANCH  34  36
ENDBRANCH  33  34
ENDBRANCH  32  33
ENDBRANCH  31  32
ENDBRANCH   1  31
TORSDOF 23
ENDMDL
MODEL 3
REMARK VINA RESULT:     -11.6      1.238      7.544
REMARK SMILES CCOC(=O)C1=NN(c2ccc([N+](=O)[O-])cc2C(F)(F)F)[C@@](C)(C(=O)OCCOCCOC(=O)c2ccc(-c3c4nc(c(-c5cccc(S(=O)(=O)[O-])c5F)c5ccc([nH]5)c(-c5cccc(S(=O)(=O)[O-])c5F)c5nc(c(-c6cccc(S(=O)(=O)[O-])c6F)c6ccc3[nH]6)C=C5)C=C4)cc2)C1
REMARK SMILES IDX 29 1 28 2 27 3 26 4 24 5 25 6 22 7 6 8 7 9 98 10 8 11 23 12
REMARK SMILES IDX 4 13 5 14 3 15 2 16 1 17 9 18 10 19 17 20 11 21 16 22 12 23
REMARK SMILES IDX 18 24 19 25 20 26 21 27 13 28 14 29 15 30 30 31 31 32 32 33
REMARK SMILES IDX 33 34 34 35 35 36 36 37 97 38 37 39 96 40 38 41 39 42 40 43
REMARK SMILES IDX 90 44 41 45 95 46 89 47 91 48 42 49 94 50 88 51 87 52 43 54
REMARK SMILES IDX 75 55 55 56 74 57 56 58 59 59 73 60 92 61 57 62 58 63 72 65
REMARK SMILES IDX 93 66 60 67 44 68 45 69 53 70 46 71 48 72 54 73 47 74 49 75
REMARK SMILES IDX 50 76 51 77 52 78 76 79 77 80 85 81 78 82 80 83 86 84 79 85
REMARK SMILES IDX 81 86 82 87 83 88 84 89 61 90 62 91 70 92 63 93 65 94 71 95
REMARK SMILES IDX 64 96 66 97 67 98 68 99 69 100
REMARK H PARENT 91 53 59 64
REMARK Flexibility Score: inf
ROOT
ATOM      1  O   UNL A   1      35.538  22.040  26.420  1.00  0.00    -0.374 OA
ENDROOT
BRANCH   1   2
ATOM      2  C   UNL A   1      34.350  21.818  27.174  1.00  0.00     0.202 C 
BRANCH   2   3
ATOM      3  C   UNL A   1      33.142  22.707  26.864  1.00  0.00     0.261 C 
BRANCH   3   4
ATOM      4  O   UNL A   1      33.493  24.060  26.523  1.00  0.00    -0.461 OA
BRANCH   4   5
ATOM      5  C   UNL A   1      32.462  24.796  26.028  1.00  0.00     0.334 C 
ATOM      6  O   UNL A   1      31.293  24.655  26.386  1.00  0.00    -0.249 OA
BRANCH   5   7
ATOM      7  C   UNL A   1      32.850  25.768  24.899  1.00  0.00     0.163 C 
ATOM      8  C   UNL A   1      33.106  24.445  23.043  1.00  0.00     0.149 C 
ATOM      9  N   UNL A   1      31.936  24.978  22.863  1.00  0.00    -0.169 NA
ATOM     10  C   UNL A   1      33.968  25.078  24.084  1.00  0.00     0.108 C 
ATOM     11  N   UNL A   1      31.826  25.951  23.827  1.00  0.00    -0.247 N 
ATOM     12  C   UNL A   1      33.341  27.024  25.598  1.00  0.00     0.050 C 
BRANCH   8  13
ATOM     13  C   UNL A   1      33.588  23.239  22.293  1.00  0.00     0.354 C 
ATOM     14  O   UNL A   1      33.743  23.274  21.082  1.00  0.00    -0.245 OA
BRANCH  13  15
ATOM     15  O   UNL A   1      33.800  22.208  23.127  1.00  0.00    -0.461 OA
BRANCH  15  16
ATOM     16  C   UNL A   1      32.625  21.461  23.473  1.00  0.00     0.230 C 
ATOM     17  C   UNL A   1      31.909  20.976  22.226  1.00  0.00     0.049 C 
ENDBRANCH  15  16
ENDBRANCH  13  15
ENDBRANCH   8  13
BRANCH  11  18
ATOM     18  C   UNL A   1      30.745  26.817  23.732  1.00  0.00     0.073 A 
ATOM     19  C   UNL A   1      29.451  26.292  23.938  1.00  0.00     0.036 A 
ATOM     20  C   UNL A   1      30.823  28.157  23.294  1.00  0.00     0.088 A 
ATOM     21  C   UNL A   1      28.289  27.064  23.812  1.00  0.00     0.088 A 
ATOM     22  C   UNL A   1      29.655  28.963  23.249  1.00  0.00     0.101 A 
ATOM     23  C   UNL A   1      28.398  28.413  23.500  1.00  0.00     0.270 A 
BRANCH  20  24
ATOM     24  C   UNL A   1      32.072  28.783  22.721  1.00  0.00     0.418 C 
ATOM     25  F   UNL A   1      31.792  29.768  21.816  1.00  0.00    -0.166 F 
ATOM     26  F   UNL A   1      32.843  29.379  23.672  1.00  0.00    -0.166 F 
ATOM     27  F   UNL A   1      32.890  27.923  22.050  1.00  0.00    -0.166 F 
ENDBRANCH  20  24
BRANCH  23  28
ATOM     28  N   UNL A   1      27.186  29.231  23.346  1.00  0.00     0.062 N 
ATOM     29  O   UNL A   1      27.236  30.407  23.732  1.00  0.00    -0.258 OA
ATOM     30  O   UNL A   1      26.180  28.678  22.882  1.00  0.00    -0.258 OA
ENDBRANCH  23  28
ENDBRANCH  11  18
ENDBRANCH   5   7
ENDBRANCH   4   5
ENDBRANCH   3   4
ENDBRANCH   2   3
ENDBRANCH   1   2
BRANCH   1  31
ATOM     31  C   UNL A   1      35.810  21.136  25.348  1.00  0.00     0.202 C 
BRANCH  31  32
ATOM     32  C   UNL A   1      37.175  20.437  25.350  1.00  0.00     0.261 C 
BRANCH  32  33
ATOM     33  O   UNL A   1      38.257  21.374  25.203  1.00  0.00    -0.460 OA
BRANCH  33  34
ATOM     34  C   UNL A   1      39.292  21.209  26.059  1.00  0.00     0.338 C 
ATOM     35  O   UNL A   1      39.979  20.206  26.201  1.00  0.00    -0.246 OA
BRANCH  34  36
ATOM     36  C   UNL A   1      39.629  22.505  26.678  1.00  0.00     0.060 A 
ATOM     37  C   UNL A   1      38.882  23.629  26.301  1.00  0.00     0.016 A 
ATOM     38  C   UNL A   1      40.691  22.629  27.573  1.00  0.00     0.016 A 
ATOM     39  C   UNL A   1      39.235  24.892  26.771  1.00  0.00     0.010 A 
ATOM     40  C   UNL A   1      41.039  23.893  28.053  1.00  0.00     0.010 A 
ATOM     41  C   UNL A   1      40.344  25.034  27.614  1.00  0.00    -0.014 A 
BRANCH  41  42
ATOM     42  C   UNL A   1      40.918  26.376  27.870  1.00  0.00     0.031 A 
ATOM     43  C   UNL A   1      42.322  26.649  27.402  1.00  0.00     0.074 A 
ATOM     44  C   UNL A   1      40.222  27.324  28.520  1.00  0.00     0.049 A 
ATOM     45  N   UNL A   1      43.076  27.698  27.599  1.00  0.00    -0.248 NA
ATOM     46  C   UNL A   1      42.966  25.586  26.609  1.00  0.00     0.031 C 
ATOM     47  C   UNL A   1      38.846  27.188  28.991  1.00  0.00     0.029 A 
ATOM     48  N   UNL A   1      40.597  28.582  28.922  1.00  0.00    -0.354 N 
ATOM     49  C   UNL A   1      44.293  27.406  26.993  1.00  0.00     0.074 A 
ATOM     50  C   UNL A   1      44.180  26.079  26.430  1.00  0.00     0.031 C 
ATOM     51  C   UNL A   1      38.498  28.312  29.644  1.00  0.00     0.029 A 
ATOM     52  C   UNL A   1      39.639  29.226  29.666  1.00  0.00     0.049 A 
ATOM     53  H   UNL A   1      41.466  28.983  28.697  1.00  0.00     0.167 HD
ATOM     54  C   UNL A   1      45.401  28.179  26.901  1.00  0.00     0.034 A 
ATOM     55  C   UNL A   1      39.690  30.408  30.313  1.00  0.00     0.034 A 
ATOM     56  C   UNL A   1      45.500  29.504  27.446  1.00  0.00     0.049 A 
ATOM     57  C   UNL A   1      40.951  31.231  30.239  1.00  0.00     0.074 A 
ATOM     58  C   UNL A   1      46.564  30.385  27.382  1.00  0.00     0.029 A 
ATOM     59  N   UNL A   1      44.499  30.135  28.167  1.00  0.00    -0.354 N 
ATOM     60  N   UNL A   1      42.062  30.985  29.588  1.00  0.00    -0.248 NA
ATOM     61  C   UNL A   1      40.955  32.509  30.968  1.00  0.00     0.031 C 
ATOM     62  C   UNL A   1      46.212  31.543  28.083  1.00  0.00     0.029 A 
ATOM     63  C   UNL A   1      44.919  31.393  28.561  1.00  0.00     0.049 A 
ATOM     64  H   UNL A   1      43.617  29.746  28.369  1.00  0.00     0.167 HD
ATOM     65  C   UNL A   1      42.879  32.093  29.789  1.00  0.00     0.074 A 
ATOM     66  C   UNL A   1      42.132  33.015  30.620  1.00  0.00     0.031 C 
ATOM     67  C   UNL A   1      44.135  32.324  29.333  1.00  0.00     0.034 A 
BRANCH  54  68
ATOM     68  C   UNL A   1      46.583  27.606  26.163  1.00  0.00     0.023 A 
ATOM     69  C   UNL A   1      46.668  27.747  24.763  1.00  0.00     0.012 A 
ATOM     70  C   UNL A   1      47.615  26.940  26.853  1.00  0.00     0.148 A 
ATOM     71  C   UNL A   1      47.737  27.197  24.056  1.00  0.00     0.002 A 
ATOM     72  C   UNL A   1      48.700  26.433  26.146  1.00  0.00     0.091 A 
ATOM     73  F   UNL A   1      47.506  26.789  28.181  1.00  0.00    -0.205 F 
ATOM     74  C   UNL A   1      48.756  26.548  24.748  1.00  0.00     0.022 A 
BRANCH  72  75
ATOM     75  S   UNL A   1      50.096  25.650  26.963  1.00  0.00     0.127 S 
ATOM     76  O   UNL A   1      50.392  26.609  28.025  1.00  0.00    -0.237 OA
ATOM     77  O   UNL A   1      49.518  24.387  27.426  1.00  0.00    -0.237 OA
ATOM     78  O   UNL A   1      51.121  25.503  25.939  1.00  0.00    -0.744 OA
ENDBRANCH  72  75
ENDBRANCH  54  68
BRANCH  55  79
ATOM     79  C   UNL A   1      38.491  30.906  31.044  1.00  0.00     0.023 A 
ATOM     80  C   UNL A   1      38.434  30.764  32.445  1.00  0.00     0.012 A 
ATOM     81  C   UNL A   1      37.430  31.547  30.375  1.00  0.00     0.148 A 
ATOM     82  C   UNL A   1      37.334  31.235  33.163  1.00  0.00     0.002 A 
ATOM     83  C   UNL A   1      36.363  32.061  31.103  1.00  0.00     0.091 A 
ATOM     84  F   UNL A   1      37.497  31.660  29.041  1.00  0.00    -0.205 F 
ATOM     85  C   UNL A   1      36.305  31.892  32.495  1.00  0.00     0.022 A 
BRANCH  83  86
ATOM     86  S   UNL A   1      35.054  33.035  30.348  1.00  0.00     0.127 S 
ATOM     87  O   UNL A   1      35.793  34.186  29.837  1.00  0.00    -0.237 OA
ATOM     88  O   UNL A   1      34.553  32.118  29.323  1.00  0.00    -0.237 OA
ATOM     89  O   UNL A   1      34.106  33.317  31.416  1.00  0.00    -0.744 OA
ENDBRANCH  83  86
ENDBRANCH  55  79
BRANCH  67  90
ATOM     90  C   UNL A   1      44.773  33.648  29.664  1.00  0.00     0.023 A 
ATOM     91  C   UNL A   1      45.572  33.778  30.817  1.00  0.00     0.012 A 
ATOM     92  C   UNL A   1      44.664  34.735  28.772  1.00  0.00     0.148 A 
ATOM     93  C   UNL A   1      46.233  34.975  31.089  1.00  0.00     0.002 A 
ATOM     94  C   UNL A   1      45.363  35.908  29.025  1.00  0.00     0.091 A 
ATOM     95  F   UNL A   1      43.884  34.596  27.690  1.00  0.00    -0.205 F 
ATOM     96  C   UNL A   1      46.140  36.034  30.188  1.00  0.00     0.022 A 
BRANCH  94  97
ATOM     97  S   UNL A   1      45.382  37.287  27.873  1.00  0.00     0.127 S 
ATOM     98  O   UNL A   1      46.443  38.125  28.428  1.00  0.00    -0.237 OA
ATOM     99  O   UNL A   1      45.721  36.631  26.610  1.00  0.00    -0.237 OA
ATOM    100  O   UNL A   1      44.044  37.864  27.914  1.00  0.00    -0.744 OA
ENDBRANCH  94  97
ENDBRANCH  67  90
ENDBRANCH  41  42
ENDBRANCH  34  36
ENDBRANCH  33  34
ENDBRANCH  32  33
ENDBRANCH  31  32
ENDBRANCH   1  31
TORSDOF 23
ENDMDL
