MODEL 1
REMARK VINA RESULT:     -11.0      0.000      0.000
REMARK SMILES O=C(OCCOCCOC(=O)[C@]1(CCc2ccccc2)C[C@H]2CC[C@@H]1O2)c1ccc(-c2c3nc(c(-c4cccc(S(=O)(=O)[O-])c4F)c4ccc([nH]4)c(-c4cccc(S(=O)(=O)[O-])c4F)c4nc(c(-c5cccc(S(=O)(=O)[O-])c5F)c5ccc2[nH]5)C=C4)C=C3)cc1
REMARK SMILES IDX 6 1 5 2 4 3 3 4 2 5 1 6 27 7 28 8 89 9 29 10 88 11 30 12
REMARK SMILES IDX 31 13 32 14 82 15 33 16 87 17 81 18 83 19 34 20 86 21 80 22
REMARK SMILES IDX 79 23 35 25 67 26 47 27 66 28 48 29 51 30 65 31 84 32 49 33
REMARK SMILES IDX 50 34 64 36 85 37 52 38 36 39 37 40 45 41 38 42 40 43 46 44
REMARK SMILES IDX 39 45 41 46 42 47 43 48 44 49 68 50 69 51 77 52 70 53 72 54
REMARK SMILES IDX 78 55 71 56 73 57 74 58 75 59 76 60 53 61 54 62 62 63 55 64
REMARK SMILES IDX 57 65 63 66 56 67 58 68 59 69 60 70 61 71 7 72 8 73 9 74
REMARK SMILES IDX 10 75 11 76 12 77 21 78 25 79 22 80 24 81 26 82 23 83 13 84
REMARK SMILES IDX 14 85 15 86 16 87 20 88 17 89 19 90 18 91
REMARK H PARENT 83 24 51 35
REMARK Flexibility Score: inf
ROOT
ATOM      1  O   UNL A   1      33.109  30.750  27.349  1.00  0.00    -0.374 OA
ENDROOT
BRANCH   1   2
ATOM      2  C   UNL A   1      31.918  31.487  27.081  1.00  0.00     0.202 C 
BRANCH   2   3
ATOM      3  C   UNL A   1      32.100  32.972  26.756  1.00  0.00     0.261 C 
BRANCH   3   4
ATOM      4  O   UNL A   1      32.152  33.762  27.948  1.00  0.00    -0.460 OA
BRANCH   4   5
ATOM      5  C   UNL A   1      33.229  34.425  28.437  1.00  0.00     0.338 C 
ATOM      6  O   UNL A   1      33.214  35.654  28.418  1.00  0.00    -0.246 OA
BRANCH   5   7
ATOM      7  C   UNL A   1      34.423  33.739  29.020  1.00  0.00     0.060 A 
ATOM      8  C   UNL A   1      34.373  32.594  29.811  1.00  0.00     0.016 A 
ATOM      9  C   UNL A   1      35.692  34.238  28.683  1.00  0.00     0.016 A 
ATOM     10  C   UNL A   1      35.508  31.972  30.275  1.00  0.00     0.010 A 
ATOM     11  C   UNL A   1      36.858  33.602  29.131  1.00  0.00     0.010 A 
ATOM     12  C   UNL A   1      36.756  32.460  29.929  1.00  0.00    -0.014 A 
BRANCH  12  13
ATOM     13  C   UNL A   1      37.886  31.769  30.563  1.00  0.00     0.031 A 
ATOM     14  C   UNL A   1      38.108  31.985  32.023  1.00  0.00     0.074 A 
ATOM     15  C   UNL A   1      38.501  30.780  29.888  1.00  0.00     0.049 A 
ATOM     16  N   UNL A   1      39.005  31.455  32.802  1.00  0.00    -0.248 NA
ATOM     17  C   UNL A   1      37.169  32.894  32.708  1.00  0.00     0.031 C 
ATOM     18  C   UNL A   1      38.198  30.386  28.506  1.00  0.00     0.029 A 
ATOM     19  N   UNL A   1      39.463  29.891  30.282  1.00  0.00    -0.354 N 
ATOM     20  C   UNL A   1      38.788  32.016  34.052  1.00  0.00     0.074 A 
ATOM     21  C   UNL A   1      37.643  32.891  33.943  1.00  0.00     0.031 C 
ATOM     22  C   UNL A   1      38.947  29.322  28.178  1.00  0.00     0.029 A 
ATOM     23  C   UNL A   1      39.838  29.015  29.290  1.00  0.00     0.049 A 
ATOM     24  H   UNL A   1      39.849  29.879  31.187  1.00  0.00     0.167 HD
ATOM     25  C   UNL A   1      39.508  31.827  35.178  1.00  0.00     0.034 A 
ATOM     26  C   UNL A   1      40.829  28.104  29.280  1.00  0.00     0.034 A 
ATOM     27  C   UNL A   1      40.637  30.943  35.246  1.00  0.00     0.049 A 
ATOM     28  C   UNL A   1      41.663  27.976  30.526  1.00  0.00     0.074 A 
ATOM     29  C   UNL A   1      41.513  30.739  36.294  1.00  0.00     0.029 A 
ATOM     30  N   UNL A   1      41.044  30.115  34.209  1.00  0.00    -0.354 N 
ATOM     31  N   UNL A   1      41.499  28.556  31.692  1.00  0.00    -0.248 NA
ATOM     32  C   UNL A   1      42.820  27.076  30.459  1.00  0.00     0.031 C 
ATOM     33  C   UNL A   1      42.467  29.805  35.880  1.00  0.00     0.029 A 
ATOM     34  C   UNL A   1      42.163  29.398  34.589  1.00  0.00     0.049 A 
ATOM     35  H   UNL A   1      40.602  30.049  33.333  1.00  0.00     0.167 HD
ATOM     36  C   UNL A   1      42.525  28.088  32.500  1.00  0.00     0.074 A 
ATOM     37  C   UNL A   1      43.276  27.137  31.702  1.00  0.00     0.031 C 
ATOM     38  C   UNL A   1      42.849  28.430  33.772  1.00  0.00     0.034 A 
BRANCH  25  39
ATOM     39  C   UNL A   1      39.135  32.648  36.378  1.00  0.00     0.023 A 
ATOM     40  C   UNL A   1      39.641  33.954  36.537  1.00  0.00     0.012 A 
ATOM     41  C   UNL A   1      38.280  32.110  37.359  1.00  0.00     0.148 A 
ATOM     42  C   UNL A   1      39.317  34.702  37.669  1.00  0.00     0.002 A 
ATOM     43  C   UNL A   1      37.929  32.876  38.461  1.00  0.00     0.091 A 
ATOM     44  F   UNL A   1      37.842  30.853  37.200  1.00  0.00    -0.205 F 
ATOM     45  C   UNL A   1      38.455  34.167  38.625  1.00  0.00     0.022 A 
BRANCH  43  46
ATOM     46  S   UNL A   1      36.783  32.297  39.717  1.00  0.00     0.127 S 
ATOM     47  O   UNL A   1      36.789  33.416  40.659  1.00  0.00    -0.237 OA
ATOM     48  O   UNL A   1      35.547  32.149  38.951  1.00  0.00    -0.237 OA
ATOM     49  O   UNL A   1      37.340  31.054  40.232  1.00  0.00    -0.744 OA
ENDBRANCH  43  46
ENDBRANCH  25  39
BRANCH  26  50
ATOM     50  C   UNL A   1      41.130  27.306  28.055  1.00  0.00     0.023 A 
ATOM     51  C   UNL A   1      41.640  27.939  26.905  1.00  0.00     0.012 A 
ATOM     52  C   UNL A   1      40.883  25.919  28.013  1.00  0.00     0.148 A 
ATOM     53  C   UNL A   1      41.856  27.216  25.729  1.00  0.00     0.002 A 
ATOM     54  C   UNL A   1      41.166  25.193  26.862  1.00  0.00     0.091 A 
ATOM     55  F   UNL A   1      40.363  25.330  29.099  1.00  0.00    -0.205 F 
ATOM     56  C   UNL A   1      41.629  25.842  25.711  1.00  0.00     0.022 A 
BRANCH  54  57
ATOM     57  S   UNL A   1      41.030  23.402  26.813  1.00  0.00     0.127 S 
ATOM     58  O   UNL A   1      41.799  23.010  27.990  1.00  0.00    -0.237 OA
ATOM     59  O   UNL A   1      39.583  23.201  26.925  1.00  0.00    -0.237 OA
ATOM     60  O   UNL A   1      41.586  23.009  25.525  1.00  0.00    -0.744 OA
ENDBRANCH  54  57
ENDBRANCH  26  50
BRANCH  38  61
ATOM     61  C   UNL A   1      44.046  27.750  34.375  1.00  0.00     0.023 A 
ATOM     62  C   UNL A   1      45.314  28.356  34.285  1.00  0.00     0.012 A 
ATOM     63  C   UNL A   1      43.896  26.545  35.086  1.00  0.00     0.148 A 
ATOM     64  C   UNL A   1      46.427  27.748  34.863  1.00  0.00     0.002 A 
ATOM     65  C   UNL A   1      44.999  25.976  35.707  1.00  0.00     0.091 A 
ATOM     66  F   UNL A   1      42.682  25.979  35.140  1.00  0.00    -0.205 F 
ATOM     67  C   UNL A   1      46.267  26.567  35.582  1.00  0.00     0.022 A 
BRANCH  65  68
ATOM     68  S   UNL A   1      44.864  24.516  36.743  1.00  0.00     0.127 S 
ATOM     69  O   UNL A   1      44.183  25.050  37.921  1.00  0.00    -0.237 OA
ATOM     70  O   UNL A   1      44.048  23.626  35.916  1.00  0.00    -0.237 OA
ATOM     71  O   UNL A   1      46.227  24.053  36.963  1.00  0.00    -0.744 OA
ENDBRANCH  65  68
ENDBRANCH  38  61
ENDBRANCH  12  13
ENDBRANCH   5   7
ENDBRANCH   4   5
ENDBRANCH   3   4
ENDBRANCH   2   3
ENDBRANCH   1   2
BRANCH   1  72
ATOM     72  C   UNL A   1      33.262  29.512  26.653  1.00  0.00     0.202 C 
BRANCH  72  73
ATOM     73  C   UNL A   1      32.147  28.568  27.083  1.00  0.00     0.261 C 
BRANCH  73  74
ATOM     74  O   UNL A   1      31.573  28.076  25.865  1.00  0.00    -0.463 OA
BRANCH  74  75
ATOM     75  C   UNL A   1      31.147  26.788  25.847  1.00  0.00     0.314 C 
ATOM     76  O   UNL A   1      30.657  26.217  26.809  1.00  0.00    -0.252 OA
BRANCH  75  77
ATOM     77  C   UNL A   1      31.424  26.109  24.493  1.00  0.00     0.097 C 
ATOM     78  C   UNL A   1      32.039  24.720  24.782  1.00  0.00     0.053 C 
ATOM     79  C   UNL A   1      32.648  26.820  23.835  1.00  0.00     0.136 C 
ATOM     80  C   UNL A   1      33.499  24.904  24.360  1.00  0.00     0.120 C 
ATOM     81  C   UNL A   1      33.065  26.275  22.472  1.00  0.00     0.036 C 
ATOM     82  O   UNL A   1      33.734  26.295  24.645  1.00  0.00    -0.374 OA
ATOM     83  C   UNL A   1      33.624  24.903  22.839  1.00  0.00     0.035 C 
BRANCH  77  84
ATOM     84  C   UNL A   1      30.199  26.037  23.538  1.00  0.00     0.026 C 
BRANCH  84  85
ATOM     85  C   UNL A   1      28.941  26.897  23.774  1.00  0.00     0.037 C 
BRANCH  85  86
ATOM     86  C   UNL A   1      28.856  28.263  23.137  1.00  0.00    -0.048 A 
ATOM     87  C   UNL A   1      27.627  28.930  23.082  1.00  0.00     0.004 A 
ATOM     88  C   UNL A   1      29.957  28.856  22.500  1.00  0.00     0.004 A 
ATOM     89  C   UNL A   1      27.506  30.187  22.488  1.00  0.00     0.000 A 
ATOM     90  C   UNL A   1      29.824  30.094  21.855  1.00  0.00     0.000 A 
ATOM     91  C   UNL A   1      28.605  30.769  21.870  1.00  0.00     0.000 A 
ENDBRANCH  85  86
ENDBRANCH  84  85
ENDBRANCH  77  84
ENDBRANCH  75  77
ENDBRANCH  74  75
ENDBRANCH  73  74
ENDBRANCH  72  73
ENDBRANCH   1  72
TORSDOF 20
ENDMDL
MODEL 2
REMARK VINA RESULT:     -11.0      5.925     11.693
REMARK SMILES O=C(OCCOCCOC(=O)[C@]1(CCc2ccccc2)C[C@H]2CC[C@@H]1O2)c1ccc(-c2c3nc(c(-c4cccc(S(=O)(=O)[O-])c4F)c4ccc([nH]4)c(-c4cccc(S(=O)(=O)[O-])c4F)c4nc(c(-c5cccc(S(=O)(=O)[O-])c5F)c5ccc2[nH]5)C=C4)C=C3)cc1
REMARK SMILES IDX 6 1 5 2 4 3 3 4 2 5 1 6 27 7 28 8 89 9 29 10 88 11 30 12
REMARK SMILES IDX 31 13 32 14 82 15 33 16 87 17 81 18 83 19 34 20 86 21 80 22
REMARK SMILES IDX 79 23 35 25 67 26 47 27 66 28 48 29 51 30 65 31 84 32 49 33
REMARK SMILES IDX 50 34 64 36 85 37 52 38 36 39 37 40 45 41 38 42 40 43 46 44
REMARK SMILES IDX 39 45 41 46 42 47 43 48 44 49 68 50 69 51 77 52 70 53 72 54
REMARK SMILES IDX 78 55 71 56 73 57 74 58 75 59 76 60 53 61 54 62 62 63 55 64
REMARK SMILES IDX 57 65 63 66 56 67 58 68 59 69 60 70 61 71 7 72 8 73 9 74
REMARK SMILES IDX 10 75 11 76 12 77 21 78 25 79 22 80 24 81 26 82 23 83 13 84
REMARK SMILES IDX 14 85 15 86 16 87 20 88 17 89 19 90 18 91
REMARK H PARENT 83 24 51 35
REMARK Flexibility Score: inf
ROOT
ATOM      1  O   UNL A   1      36.561  20.339  24.773  1.00  0.00    -0.374 OA
ENDROOT
BRANCH   1   2
ATOM      2  C   UNL A   1      37.716  19.536  25.003  1.00  0.00     0.202 C 
BRANCH   2   3
ATOM      3  C   UNL A   1      38.874  20.211  25.743  1.00  0.00     0.261 C 
BRANCH   3   4
ATOM      4  O   UNL A   1      40.040  19.381  25.749  1.00  0.00    -0.460 OA
BRANCH   4   5
ATOM      5  C   UNL A   1      41.282  19.728  26.168  1.00  0.00     0.338 C 
ATOM      6  O   UNL A   1      42.141  18.851  26.235  1.00  0.00    -0.246 OA
BRANCH   5   7
ATOM      7  C   UNL A   1      41.667  21.127  26.531  1.00  0.00     0.060 A 
ATOM      8  C   UNL A   1      41.709  22.195  25.638  1.00  0.00     0.016 A 
ATOM      9  C   UNL A   1      41.930  21.402  27.883  1.00  0.00     0.016 A 
ATOM     10  C   UNL A   1      42.017  23.474  26.038  1.00  0.00     0.010 A 
ATOM     11  C   UNL A   1      42.224  22.705  28.308  1.00  0.00     0.010 A 
ATOM     12  C   UNL A   1      42.263  23.743  27.374  1.00  0.00    -0.014 A 
BRANCH  12  13
ATOM     13  C   UNL A   1      42.672  25.123  27.660  1.00  0.00     0.031 A 
ATOM     14  C   UNL A   1      43.962  25.604  27.082  1.00  0.00     0.074 A 
ATOM     15  C   UNL A   1      41.771  25.969  28.191  1.00  0.00     0.049 A 
ATOM     16  N   UNL A   1      44.506  26.783  27.161  1.00  0.00    -0.248 NA
ATOM     17  C   UNL A   1      44.727  24.635  26.273  1.00  0.00     0.031 C 
ATOM     18  C   UNL A   1      40.411  25.603  28.606  1.00  0.00     0.029 A 
ATOM     19  N   UNL A   1      41.834  27.317  28.419  1.00  0.00    -0.354 N 
ATOM     20  C   UNL A   1      45.708  26.683  26.476  1.00  0.00     0.074 A 
ATOM     21  C   UNL A   1      45.795  25.343  25.943  1.00  0.00     0.031 C 
ATOM     22  C   UNL A   1      39.766  26.703  29.020  1.00  0.00     0.029 A 
ATOM     23  C   UNL A   1      40.688  27.831  28.979  1.00  0.00     0.049 A 
ATOM     24  H   UNL A   1      42.623  27.864  28.204  1.00  0.00     0.167 HD
ATOM     25  C   UNL A   1      46.659  27.631  26.335  1.00  0.00     0.034 A 
ATOM     26  C   UNL A   1      40.444  29.069  29.451  1.00  0.00     0.034 A 
ATOM     27  C   UNL A   1      46.531  28.954  26.876  1.00  0.00     0.049 A 
ATOM     28  C   UNL A   1      41.556  30.078  29.348  1.00  0.00     0.074 A 
ATOM     29  C   UNL A   1      47.462  29.974  26.893  1.00  0.00     0.029 A 
ATOM     30  N   UNL A   1      45.389  29.436  27.501  1.00  0.00    -0.354 N 
ATOM     31  N   UNL A   1      42.722  29.965  28.757  1.00  0.00    -0.248 NA
ATOM     32  C   UNL A   1      41.325  31.382  29.982  1.00  0.00     0.031 C 
ATOM     33  C   UNL A   1      46.890  31.066  27.554  1.00  0.00     0.029 A 
ATOM     34  C   UNL A   1      45.590  30.739  27.913  1.00  0.00     0.049 A 
ATOM     35  H   UNL A   1      44.559  28.924  27.632  1.00  0.00     0.167 HD
ATOM     36  C   UNL A   1      43.362  31.183  28.939  1.00  0.00     0.074 A 
ATOM     37  C   UNL A   1      42.431  32.035  29.653  1.00  0.00     0.031 C 
ATOM     38  C   UNL A   1      44.615  31.561  28.584  1.00  0.00     0.034 A 
BRANCH  25  39
ATOM     39  C   UNL A   1      47.929  27.232  25.642  1.00  0.00     0.023 A 
ATOM     40  C   UNL A   1      48.990  26.655  26.368  1.00  0.00     0.012 A 
ATOM     41  C   UNL A   1      48.069  27.442  24.256  1.00  0.00     0.148 A 
ATOM     42  C   UNL A   1      50.181  26.314  25.726  1.00  0.00     0.002 A 
ATOM     43  C   UNL A   1      49.240  27.061  23.618  1.00  0.00     0.091 A 
ATOM     44  F   UNL A   1      47.058  28.024  23.597  1.00  0.00    -0.205 F 
ATOM     45  C   UNL A   1      50.302  26.509  24.352  1.00  0.00     0.022 A 
BRANCH  43  46
ATOM     46  S   UNL A   1      49.471  27.220  21.844  1.00  0.00     0.127 S 
ATOM     47  O   UNL A   1      48.399  26.369  21.329  1.00  0.00    -0.237 OA
ATOM     48  O   UNL A   1      49.266  28.653  21.641  1.00  0.00    -0.237 OA
ATOM     49  O   UNL A   1      50.821  26.747  21.567  1.00  0.00    -0.744 OA
ENDBRANCH  43  46
ENDBRANCH  25  39
BRANCH  26  50
ATOM     50  C   UNL A   1      39.147  29.401  30.110  1.00  0.00     0.023 A 
ATOM     51  C   UNL A   1      38.839  28.867  31.376  1.00  0.00     0.012 A 
ATOM     52  C   UNL A   1      38.197  30.223  29.471  1.00  0.00     0.148 A 
ATOM     53  C   UNL A   1      37.598  29.110  31.971  1.00  0.00     0.002 A 
ATOM     54  C   UNL A   1      36.993  30.518  30.098  1.00  0.00     0.091 A 
ATOM     55  F   UNL A   1      38.482  30.697  28.250  1.00  0.00    -0.205 F 
ATOM     56  C   UNL A   1      36.680  29.945  31.337  1.00  0.00     0.022 A 
BRANCH  54  57
ATOM     57  S   UNL A   1      35.824  31.693  29.404  1.00  0.00     0.127 S 
ATOM     58  O   UNL A   1      36.696  32.810  29.051  1.00  0.00    -0.237 OA
ATOM     59  O   UNL A   1      35.281  30.950  28.266  1.00  0.00    -0.237 OA
ATOM     60  O   UNL A   1      34.857  31.947  30.464  1.00  0.00    -0.744 OA
ENDBRANCH  54  57
ENDBRANCH  26  50
BRANCH  38  61
ATOM     61  C   UNL A   1      45.030  32.961  28.942  1.00  0.00     0.023 A 
ATOM     62  C   UNL A   1      45.652  33.211  30.181  1.00  0.00     0.012 A 
ATOM     63  C   UNL A   1      44.859  34.011  28.021  1.00  0.00     0.148 A 
ATOM     64  C   UNL A   1      46.064  34.499  30.514  1.00  0.00     0.002 A 
ATOM     65  C   UNL A   1      45.324  35.280  28.338  1.00  0.00     0.091 A 
ATOM     66  F   UNL A   1      44.247  33.750  26.858  1.00  0.00    -0.205 F 
ATOM     67  C   UNL A   1      45.911  35.529  29.589  1.00  0.00     0.022 A 
BRANCH  65  68
ATOM     68  S   UNL A   1      45.267  36.637  27.165  1.00  0.00     0.127 S 
ATOM     69  O   UNL A   1      46.006  36.082  26.032  1.00  0.00    -0.237 OA
ATOM     70  O   UNL A   1      43.829  36.790  26.939  1.00  0.00    -0.237 OA
ATOM     71  O   UNL A   1      45.896  37.769  27.830  1.00  0.00    -0.744 OA
ENDBRANCH  65  68
ENDBRANCH  38  61
ENDBRANCH  12  13
ENDBRANCH   5   7
ENDBRANCH   4   5
ENDBRANCH   3   4
ENDBRANCH   2   3
ENDBRANCH   1   2
BRANCH   1  72
ATOM     72  C   UNL A   1      36.668  21.722  25.117  1.00  0.00     0.202 C 
BRANCH  72  73
ATOM     73  C   UNL A   1      36.254  22.558  23.914  1.00  0.00     0.261 C 
BRANCH  73  74
ATOM     74  O   UNL A   1      35.110  23.307  24.347  1.00  0.00    -0.463 OA
BRANCH  74  75
ATOM     75  C   UNL A   1      33.964  23.169  23.635  1.00  0.00     0.314 C 
ATOM     76  O   UNL A   1      33.884  23.343  22.429  1.00  0.00    -0.252 OA
BRANCH  75  77
ATOM     77  C   UNL A   1      32.761  22.845  24.539  1.00  0.00     0.097 C 
ATOM     78  C   UNL A   1      31.511  23.504  23.911  1.00  0.00     0.053 C 
ATOM     79  C   UNL A   1      32.891  23.690  25.844  1.00  0.00     0.136 C 
ATOM     80  C   UNL A   1      31.217  24.656  24.876  1.00  0.00     0.120 C 
ATOM     81  C   UNL A   1      31.777  23.490  26.867  1.00  0.00     0.036 C 
ATOM     82  O   UNL A   1      32.529  25.008  25.350  1.00  0.00    -0.374 OA
ATOM     83  C   UNL A   1      30.584  24.132  26.162  1.00  0.00     0.035 C 
BRANCH  77  84
ATOM     84  C   UNL A   1      32.557  21.331  24.834  1.00  0.00     0.026 C 
BRANCH  84  85
ATOM     85  C   UNL A   1      32.729  20.265  23.732  1.00  0.00     0.037 C 
BRANCH  85  86
ATOM     86  C   UNL A   1      32.988  18.832  24.132  1.00  0.00    -0.048 A 
ATOM     87  C   UNL A   1      33.429  17.912  23.175  1.00  0.00     0.004 A 
ATOM     88  C   UNL A   1      32.707  18.358  25.423  1.00  0.00     0.004 A 
ATOM     89  C   UNL A   1      33.664  16.576  23.503  1.00  0.00     0.000 A 
ATOM     90  C   UNL A   1      32.892  17.005  25.740  1.00  0.00     0.000 A 
ATOM     91  C   UNL A   1      33.393  16.120  24.786  1.00  0.00     0.000 A 
ENDBRANCH  85  86
ENDBRANCH  84  85
ENDBRANCH  77  84
ENDBRANCH  75  77
ENDBRANCH  74  75
ENDBRANCH  73  74
ENDBRANCH  72  73
ENDBRANCH   1  72
TORSDOF 20
ENDMDL
MODEL 3
REMARK VINA RESULT:     -10.8      1.451      3.094
REMARK SMILES O=C(OCCOCCOC(=O)[C@]1(CCc2ccccc2)C[C@H]2CC[C@@H]1O2)c1ccc(-c2c3nc(c(-c4cccc(S(=O)(=O)[O-])c4F)c4ccc([nH]4)c(-c4cccc(S(=O)(=O)[O-])c4F)c4nc(c(-c5cccc(S(=O)(=O)[O-])c5F)c5ccc2[nH]5)C=C4)C=C3)cc1
REMARK SMILES IDX 6 1 5 2 4 3 3 4 2 5 1 6 27 7 28 8 89 9 29 10 88 11 30 12
REMARK SMILES IDX 31 13 32 14 82 15 33 16 87 17 81 18 83 19 34 20 86 21 80 22
REMARK SMILES IDX 79 23 35 25 67 26 47 27 66 28 48 29 51 30 65 31 84 32 49 33
REMARK SMILES IDX 50 34 64 36 85 37 52 38 36 39 37 40 45 41 38 42 40 43 46 44
REMARK SMILES IDX 39 45 41 46 42 47 43 48 44 49 68 50 69 51 77 52 70 53 72 54
REMARK SMILES IDX 78 55 71 56 73 57 74 58 75 59 76 60 53 61 54 62 62 63 55 64
REMARK SMILES IDX 57 65 63 66 56 67 58 68 59 69 60 70 61 71 7 72 8 73 9 74
REMARK SMILES IDX 10 75 11 76 12 77 21 78 25 79 22 80 24 81 26 82 23 83 13 84
REMARK SMILES IDX 14 85 15 86 16 87 20 88 17 89 19 90 18 91
REMARK H PARENT 83 24 51 35
REMARK Flexibility Score: inf
ROOT
ATOM      1  O   UNL A   1      31.356  30.407  25.355  1.00  0.00    -0.374 OA
ENDROOT
BRANCH   1   2
ATOM      2  C   UNL A   1      31.214  31.585  26.144  1.00  0.00     0.202 C 
BRANCH   2   3
ATOM      3  C   UNL A   1      32.433  31.996  26.974  1.00  0.00     0.261 C 
BRANCH   3   4
ATOM      4  O   UNL A   1      32.340  33.362  27.392  1.00  0.00    -0.460 OA
BRANCH   4   5
ATOM      5  C   UNL A   1      33.167  34.006  28.252  1.00  0.00     0.338 C 
ATOM      6  O   UNL A   1      32.881  35.155  28.584  1.00  0.00    -0.246 OA
BRANCH   5   7
ATOM      7  C   UNL A   1      34.394  33.384  28.835  1.00  0.00     0.060 A 
ATOM      8  C   UNL A   1      34.393  32.337  29.753  1.00  0.00     0.016 A 
ATOM      9  C   UNL A   1      35.640  33.834  28.368  1.00  0.00     0.016 A 
ATOM     10  C   UNL A   1      35.555  31.764  30.215  1.00  0.00     0.010 A 
ATOM     11  C   UNL A   1      36.831  33.246  28.814  1.00  0.00     0.010 A 
ATOM     12  C   UNL A   1      36.780  32.203  29.741  1.00  0.00    -0.014 A 
BRANCH  12  13
ATOM     13  C   UNL A   1      37.946  31.581  30.379  1.00  0.00     0.031 A 
ATOM     14  C   UNL A   1      38.171  31.843  31.832  1.00  0.00     0.074 A 
ATOM     15  C   UNL A   1      38.602  30.606  29.722  1.00  0.00     0.049 A 
ATOM     16  N   UNL A   1      39.100  31.376  32.614  1.00  0.00    -0.248 NA
ATOM     17  C   UNL A   1      37.197  32.724  32.504  1.00  0.00     0.031 C 
ATOM     18  C   UNL A   1      38.305  30.164  28.354  1.00  0.00     0.029 A 
ATOM     19  N   UNL A   1      39.607  29.772  30.129  1.00  0.00    -0.354 N 
ATOM     20  C   UNL A   1      38.869  31.957  33.852  1.00  0.00     0.074 A 
ATOM     21  C   UNL A   1      37.683  32.774  33.734  1.00  0.00     0.031 C 
ATOM     22  C   UNL A   1      39.100  29.129  28.045  1.00  0.00     0.029 A 
ATOM     23  C   UNL A   1      40.014  28.891  29.154  1.00  0.00     0.049 A 
ATOM     24  H   UNL A   1      40.002  29.802  31.030  1.00  0.00     0.167 HD
ATOM     25  C   UNL A   1      39.606  31.830  34.975  1.00  0.00     0.034 A 
ATOM     26  C   UNL A   1      41.048  28.027  29.156  1.00  0.00     0.034 A 
ATOM     27  C   UNL A   1      40.777  31.002  35.053  1.00  0.00     0.049 A 
ATOM     28  C   UNL A   1      41.898  27.970  30.396  1.00  0.00     0.074 A 
ATOM     29  C   UNL A   1      41.671  30.865  36.096  1.00  0.00     0.029 A 
ATOM     30  N   UNL A   1      41.213  30.168  34.032  1.00  0.00    -0.354 N 
ATOM     31  N   UNL A   1      41.717  28.570  31.550  1.00  0.00    -0.248 NA
ATOM     32  C   UNL A   1      43.095  27.124  30.339  1.00  0.00     0.031 C 
ATOM     33  C   UNL A   1      42.664  29.966  35.695  1.00  0.00     0.029 A 
ATOM     34  C   UNL A   1      42.367  29.514  34.418  1.00  0.00     0.049 A 
ATOM     35  H   UNL A   1      40.766  30.059  33.162  1.00  0.00     0.167 HD
ATOM     36  C   UNL A   1      42.772  28.171  32.358  1.00  0.00     0.074 A 
ATOM     37  C   UNL A   1      43.559  27.236  31.576  1.00  0.00     0.031 C 
ATOM     38  C   UNL A   1      43.091  28.559  33.617  1.00  0.00     0.034 A 
BRANCH  25  39
ATOM     39  C   UNL A   1      39.207  32.662  36.159  1.00  0.00     0.023 A 
ATOM     40  C   UNL A   1      39.667  33.987  36.290  1.00  0.00     0.012 A 
ATOM     41  C   UNL A   1      38.371  32.114  37.151  1.00  0.00     0.148 A 
ATOM     42  C   UNL A   1      39.318  34.747  37.407  1.00  0.00     0.002 A 
ATOM     43  C   UNL A   1      37.994  32.890  38.238  1.00  0.00     0.091 A 
ATOM     44  F   UNL A   1      37.977  30.840  37.019  1.00  0.00    -0.205 F 
ATOM     45  C   UNL A   1      38.476  34.202  38.375  1.00  0.00     0.022 A 
BRANCH  43  46
ATOM     46  S   UNL A   1      36.870  32.299  39.507  1.00  0.00     0.127 S 
ATOM     47  O   UNL A   1      37.107  33.261  40.583  1.00  0.00    -0.237 OA
ATOM     48  O   UNL A   1      35.573  32.430  38.845  1.00  0.00    -0.237 OA
ATOM     49  O   UNL A   1      37.274  30.931  39.802  1.00  0.00    -0.744 OA
ENDBRANCH  43  46
ENDBRANCH  25  39
BRANCH  26  50
ATOM     50  C   UNL A   1      41.375  27.215  27.948  1.00  0.00     0.023 A 
ATOM     51  C   UNL A   1      41.874  27.839  26.788  1.00  0.00     0.012 A 
ATOM     52  C   UNL A   1      41.163  25.821  27.931  1.00  0.00     0.148 A 
ATOM     53  C   UNL A   1      42.113  27.099  25.627  1.00  0.00     0.002 A 
ATOM     54  C   UNL A   1      41.469  25.081  26.796  1.00  0.00     0.091 A 
ATOM     55  F   UNL A   1      40.652  25.240  29.026  1.00  0.00    -0.205 F 
ATOM     56  C   UNL A   1      41.922  25.719  25.634  1.00  0.00     0.022 A 
BRANCH  54  57
ATOM     57  S   UNL A   1      41.378  23.287  26.780  1.00  0.00     0.127 S 
ATOM     58  O   UNL A   1      41.912  22.971  25.458  1.00  0.00    -0.237 OA
ATOM     59  O   UNL A   1      42.249  22.925  27.900  1.00  0.00    -0.237 OA
ATOM     60  O   UNL A   1      39.972  22.970  26.994  1.00  0.00    -0.744 OA
ENDBRANCH  54  57
ENDBRANCH  26  50
BRANCH  38  61
ATOM     61  C   UNL A   1      44.324  27.951  34.225  1.00  0.00     0.023 A 
ATOM     62  C   UNL A   1      45.567  28.598  34.080  1.00  0.00     0.012 A 
ATOM     63  C   UNL A   1      44.234  26.775  34.992  1.00  0.00     0.148 A 
ATOM     64  C   UNL A   1      46.713  28.058  34.660  1.00  0.00     0.002 A 
ATOM     65  C   UNL A   1      45.369  26.276  35.614  1.00  0.00     0.091 A 
ATOM     66  F   UNL A   1      43.043  26.170  35.098  1.00  0.00    -0.205 F 
ATOM     67  C   UNL A   1      46.612  26.905  35.435  1.00  0.00     0.022 A 
BRANCH  65  68
ATOM     68  S   UNL A   1      45.309  24.861  36.718  1.00  0.00     0.127 S 
ATOM     69  O   UNL A   1      43.985  25.011  37.320  1.00  0.00    -0.237 OA
ATOM     70  O   UNL A   1      45.434  23.738  35.787  1.00  0.00    -0.237 OA
ATOM     71  O   UNL A   1      46.433  25.016  37.630  1.00  0.00    -0.744 OA
ENDBRANCH  65  68
ENDBRANCH  38  61
ENDBRANCH  12  13
ENDBRANCH   5   7
ENDBRANCH   4   5
ENDBRANCH   3   4
ENDBRANCH   2   3
ENDBRANCH   1   2
BRANCH   1  72
ATOM     72  C   UNL A   1      31.425  29.169  26.066  1.00  0.00     0.202 C 
BRANCH  72  73
ATOM     73  C   UNL A   1      32.184  28.159  25.216  1.00  0.00     0.261 C 
BRANCH  73  74
ATOM     74  O   UNL A   1      31.199  27.211  24.783  1.00  0.00    -0.463 OA
BRANCH  74  75
ATOM     75  C   UNL A   1      31.032  26.093  25.534  1.00  0.00     0.314 C 
ATOM     76  O   UNL A   1      30.223  25.996  26.443  1.00  0.00    -0.252 OA
BRANCH  75  77
ATOM     77  C   UNL A   1      32.036  24.989  25.154  1.00  0.00     0.097 C 
ATOM     78  C   UNL A   1      32.391  25.173  23.660  1.00  0.00     0.053 C 
ATOM     79  C   UNL A   1      31.267  23.633  25.089  1.00  0.00     0.136 C 
ATOM     80  C   UNL A   1      31.685  23.986  22.998  1.00  0.00     0.120 C 
ATOM     81  C   UNL A   1      32.115  22.417  24.727  1.00  0.00     0.036 C 
ATOM     82  O   UNL A   1      30.536  23.795  23.844  1.00  0.00    -0.374 OA
ATOM     83  C   UNL A   1      32.448  22.691  23.263  1.00  0.00     0.035 C 
BRANCH  77  84
ATOM     84  C   UNL A   1      33.295  24.912  26.065  1.00  0.00     0.026 C 
BRANCH  84  85
ATOM     85  C   UNL A   1      34.714  25.112  25.497  1.00  0.00     0.037 C 
BRANCH  85  86
ATOM     86  C   UNL A   1      35.527  23.899  25.111  1.00  0.00    -0.048 A 
ATOM     87  C   UNL A   1      35.958  23.741  23.790  1.00  0.00     0.004 A 
ATOM     88  C   UNL A   1      35.788  22.860  26.018  1.00  0.00     0.004 A 
ATOM     89  C   UNL A   1      36.697  22.627  23.392  1.00  0.00     0.000 A 
ATOM     90  C   UNL A   1      36.484  21.715  25.607  1.00  0.00     0.000 A 
ATOM     91  C   UNL A   1      36.959  21.609  24.300  1.00  0.00     0.000 A 
ENDBRANCH  85  86
ENDBRANCH  84  85
ENDBRANCH  77  84
ENDBRANCH  75  77
ENDBRANCH  74  75
ENDBRANCH  73  74
ENDBRANCH  72  73
ENDBRANCH   1  72
TORSDOF 20
ENDMDL
