MODEL 1
REMARK VINA RESULT:     -11.8      0.000      0.000
REMARK SMILES CC1=C(C)C[C@H](C(=O)OCCOCCOC(=O)c2ccc(-c3c4nc(c(-c5cccc(S(=O)(=O)[O-])c5F)c5ccc([nH]5)c(-c5cccc(S(=O)(=O)[O-])c5F)c5nc(c(-c6cccc(S(=O)(=O)[O-])c6F)c6ccc3[nH]6)C=C5)C=C4)cc2)[C@@H](C(=O)N[C@@H](C)CCc2ccccc2)C1
REMARK SMILES IDX 11 1 10 2 9 3 7 4 8 5 6 6 1 7 2 8 3 9 95 10 4 11 5 12 81 13
REMARK SMILES IDX 82 14 83 15 84 16 85 18 86 19 87 20 88 21 89 22 90 23 94 24
REMARK SMILES IDX 91 25 93 26 92 27 12 28 13 29 14 30 15 31 16 32 17 33 18 34
REMARK SMILES IDX 19 35 80 36 20 37 79 38 21 39 22 40 23 41 73 42 24 43 78 44
REMARK SMILES IDX 72 45 74 46 25 47 77 48 71 49 70 50 26 52 58 53 38 54 57 55
REMARK SMILES IDX 39 56 42 57 56 58 75 59 40 60 41 61 55 63 76 64 43 65 27 66
REMARK SMILES IDX 28 67 36 68 29 69 31 70 37 71 30 72 32 73 33 74 34 75 35 76
REMARK SMILES IDX 59 77 60 78 68 79 61 80 63 81 69 82 62 83 64 84 65 85 66 86
REMARK SMILES IDX 67 87 44 88 45 89 53 90 46 91 48 92 54 93 47 94 49 95 50 96
REMARK SMILES IDX 51 97 52 98
REMARK H PARENT 84 17 74 51 42 62
REMARK Flexibility Score: inf
ROOT
ATOM      1  C   UNL A   1      32.342  29.595  26.736  1.00  0.00     0.202 C 
ENDROOT
BRANCH   1   2
ATOM      2  C   UNL A   1      33.221  28.603  25.967  1.00  0.00     0.261 C 
BRANCH   2   3
ATOM      3  O   UNL A   1      33.327  27.363  26.685  1.00  0.00    -0.463 OA
BRANCH   3   4
ATOM      4  C   UNL A   1      32.259  26.528  26.621  1.00  0.00     0.310 C 
ATOM      5  O   UNL A   1      31.150  26.773  27.079  1.00  0.00    -0.252 OA
BRANCH   4   6
ATOM      6  C   UNL A   1      32.603  25.202  25.955  1.00  0.00     0.116 C 
ATOM      7  C   UNL A   1      35.127  21.548  26.466  1.00  0.00     0.039 C 
ATOM      8  C   UNL A   1      34.365  22.837  26.281  1.00  0.00    -0.074 C 
ATOM      9  C   UNL A   1      34.790  23.851  25.507  1.00  0.00    -0.073 C 
ATOM     10  C   UNL A   1      33.113  22.922  27.108  1.00  0.00     0.045 C 
ATOM     11  C   UNL A   1      36.093  23.845  24.746  1.00  0.00     0.039 C 
ATOM     12  C   UNL A   1      34.040  25.148  25.413  1.00  0.00     0.046 C 
ATOM     13  C   UNL A   1      32.177  24.119  26.948  1.00  0.00     0.097 C 
BRANCH  13  14
ATOM     14  C   UNL A   1      30.793  23.609  26.544  1.00  0.00     0.224 C 
ATOM     15  O   UNL A   1      29.953  23.265  27.379  1.00  0.00    -0.275 OA
ATOM     16  N   UNL A   1      30.425  23.561  25.233  1.00  0.00    -0.353 N 
ATOM     17  H   UNL A   1      29.515  23.223  25.075  1.00  0.00     0.163 HD
BRANCH  16  18
ATOM     18  C   UNL A   1      31.156  23.929  24.024  1.00  0.00     0.079 C 
ATOM     19  C   UNL A   1      31.467  22.668  23.217  1.00  0.00     0.031 C 
BRANCH  18  20
ATOM     20  C   UNL A   1      30.338  24.919  23.175  1.00  0.00     0.029 C 
BRANCH  20  21
ATOM     21  C   UNL A   1      29.432  25.860  23.986  1.00  0.00     0.037 C 
BRANCH  21  22
ATOM     22  C   UNL A   1      29.430  27.331  23.631  1.00  0.00    -0.048 A 
ATOM     23  C   UNL A   1      28.222  27.909  23.198  1.00  0.00     0.004 A 
ATOM     24  C   UNL A   1      30.562  28.153  23.710  1.00  0.00     0.004 A 
ATOM     25  C   UNL A   1      28.136  29.277  22.926  1.00  0.00     0.000 A 
ATOM     26  C   UNL A   1      30.473  29.522  23.447  1.00  0.00     0.000 A 
ATOM     27  C   UNL A   1      29.259  30.086  23.066  1.00  0.00     0.000 A 
ENDBRANCH  21  22
ENDBRANCH  20  21
ENDBRANCH  18  20
ENDBRANCH  16  18
ENDBRANCH  13  14
ENDBRANCH   4   6
ENDBRANCH   3   4
ENDBRANCH   2   3
ENDBRANCH   1   2
BRANCH   1  28
ATOM     28  O   UNL A   1      32.624  30.984  26.551  1.00  0.00    -0.374 OA
BRANCH  28  29
ATOM     29  C   UNL A   1      31.527  31.895  26.573  1.00  0.00     0.202 C 
BRANCH  29  30
ATOM     30  C   UNL A   1      31.762  33.278  27.196  1.00  0.00     0.261 C 
BRANCH  30  31
ATOM     31  O   UNL A   1      33.148  33.663  27.215  1.00  0.00    -0.460 OA
BRANCH  31  32
ATOM     32  C   UNL A   1      33.652  33.871  28.452  1.00  0.00     0.338 C 
ATOM     33  O   UNL A   1      33.119  34.496  29.367  1.00  0.00    -0.246 OA
BRANCH  32  34
ATOM     34  C   UNL A   1      34.881  33.089  28.658  1.00  0.00     0.060 A 
ATOM     35  C   UNL A   1      34.732  31.782  29.143  1.00  0.00     0.016 A 
ATOM     36  C   UNL A   1      36.153  33.637  28.477  1.00  0.00     0.016 A 
ATOM     37  C   UNL A   1      35.851  31.042  29.512  1.00  0.00     0.010 A 
ATOM     38  C   UNL A   1      37.277  32.893  28.858  1.00  0.00     0.010 A 
ATOM     39  C   UNL A   1      37.127  31.611  29.419  1.00  0.00    -0.014 A 
BRANCH  39  40
ATOM     40  C   UNL A   1      38.272  30.921  30.063  1.00  0.00     0.031 A 
ATOM     41  C   UNL A   1      38.636  31.276  31.480  1.00  0.00     0.074 A 
ATOM     42  C   UNL A   1      38.957  29.965  29.410  1.00  0.00     0.049 A 
ATOM     43  N   UNL A   1      39.585  30.791  32.237  1.00  0.00    -0.248 NA
ATOM     44  C   UNL A   1      37.820  32.315  32.130  1.00  0.00     0.031 C 
ATOM     45  C   UNL A   1      38.696  29.524  28.041  1.00  0.00     0.029 A 
ATOM     46  N   UNL A   1      40.028  29.205  29.812  1.00  0.00    -0.354 N 
ATOM     47  C   UNL A   1      39.500  31.481  33.440  1.00  0.00     0.074 A 
ATOM     48  C   UNL A   1      38.415  32.429  33.309  1.00  0.00     0.031 C 
ATOM     49  C   UNL A   1      39.599  28.588  27.707  1.00  0.00     0.029 A 
ATOM     50  C   UNL A   1      40.514  28.378  28.828  1.00  0.00     0.049 A 
ATOM     51  H   UNL A   1      40.411  29.249  30.718  1.00  0.00     0.167 HD
ATOM     52  C   UNL A   1      40.246  31.330  34.560  1.00  0.00     0.034 A 
ATOM     53  C   UNL A   1      41.587  27.561  28.826  1.00  0.00     0.034 A 
ATOM     54  C   UNL A   1      41.308  30.372  34.701  1.00  0.00     0.049 A 
ATOM     55  C   UNL A   1      42.415  27.427  30.077  1.00  0.00     0.074 A 
ATOM     56  C   UNL A   1      42.088  30.109  35.813  1.00  0.00     0.029 A 
ATOM     57  N   UNL A   1      41.750  29.527  33.694  1.00  0.00    -0.354 N 
ATOM     58  N   UNL A   1      42.246  27.998  31.246  1.00  0.00    -0.248 NA
ATOM     59  C   UNL A   1      43.563  26.510  30.022  1.00  0.00     0.031 C 
ATOM     60  C   UNL A   1      43.019  29.123  35.471  1.00  0.00     0.029 A 
ATOM     61  C   UNL A   1      42.801  28.752  34.154  1.00  0.00     0.049 A 
ATOM     62  H   UNL A   1      41.372  29.485  32.786  1.00  0.00     0.167 HD
ATOM     63  C   UNL A   1      43.240  27.483  32.072  1.00  0.00     0.074 A 
ATOM     64  C   UNL A   1      43.995  26.539  31.275  1.00  0.00     0.031 C 
ATOM     65  C   UNL A   1      43.511  27.776  33.368  1.00  0.00     0.034 A 
BRANCH  52  66
ATOM     66  C   UNL A   1      39.921  32.208  35.740  1.00  0.00     0.023 A 
ATOM     67  C   UNL A   1      40.598  33.433  35.906  1.00  0.00     0.012 A 
ATOM     68  C   UNL A   1      38.908  31.847  36.650  1.00  0.00     0.148 A 
ATOM     69  C   UNL A   1      40.292  34.272  36.977  1.00  0.00     0.002 A 
ATOM     70  C   UNL A   1      38.579  32.708  37.690  1.00  0.00     0.091 A 
ATOM     71  F   UNL A   1      38.293  30.667  36.487  1.00  0.00    -0.205 F 
ATOM     72  C   UNL A   1      39.277  33.916  37.861  1.00  0.00     0.022 A 
BRANCH  70  73
ATOM     73  S   UNL A   1      37.236  32.373  38.835  1.00  0.00     0.127 S 
ATOM     74  O   UNL A   1      37.327  30.922  38.979  1.00  0.00    -0.237 OA
ATOM     75  O   UNL A   1      37.643  33.131  40.018  1.00  0.00    -0.237 OA
ATOM     76  O   UNL A   1      36.026  32.863  38.187  1.00  0.00    -0.744 OA
ENDBRANCH  70  73
ENDBRANCH  52  66
BRANCH  53  77
ATOM     77  C   UNL A   1      41.921  26.780  27.602  1.00  0.00     0.023 A 
ATOM     78  C   UNL A   1      42.526  27.425  26.505  1.00  0.00     0.012 A 
ATOM     79  C   UNL A   1      41.662  25.397  27.527  1.00  0.00     0.148 A 
ATOM     80  C   UNL A   1      42.839  26.713  25.347  1.00  0.00     0.002 A 
ATOM     81  C   UNL A   1      42.030  24.684  26.394  1.00  0.00     0.091 A 
ATOM     82  F   UNL A   1      41.067  24.806  28.573  1.00  0.00    -0.205 F 
ATOM     83  C   UNL A   1      42.602  25.342  25.295  1.00  0.00     0.022 A 
BRANCH  81  84
ATOM     84  S   UNL A   1      41.893  22.896  26.300  1.00  0.00     0.127 S 
ATOM     85  O   UNL A   1      42.499  22.616  25.001  1.00  0.00    -0.237 OA
ATOM     86  O   UNL A   1      42.684  22.471  27.456  1.00  0.00    -0.237 OA
ATOM     87  O   UNL A   1      40.469  22.605  26.414  1.00  0.00    -0.744 OA
ENDBRANCH  81  84
ENDBRANCH  53  77
BRANCH  65  88
ATOM     88  C   UNL A   1      44.653  27.047  34.029  1.00  0.00     0.023 A 
ATOM     89  C   UNL A   1      45.966  27.535  33.898  1.00  0.00     0.012 A 
ATOM     90  C   UNL A   1      44.411  25.924  34.847  1.00  0.00     0.148 A 
ATOM     91  C   UNL A   1      47.027  26.901  34.544  1.00  0.00     0.002 A 
ATOM     92  C   UNL A   1      45.467  25.326  35.526  1.00  0.00     0.091 A 
ATOM     93  F   UNL A   1      43.156  25.463  34.947  1.00  0.00    -0.205 F 
ATOM     94  C   UNL A   1      46.776  25.805  35.366  1.00  0.00     0.022 A 
BRANCH  92  95
ATOM     95  S   UNL A   1      45.223  23.972  36.682  1.00  0.00     0.127 S 
ATOM     96  O   UNL A   1      46.575  23.780  37.205  1.00  0.00    -0.237 OA
ATOM     97  O   UNL A   1      44.275  24.543  37.637  1.00  0.00    -0.237 OA
ATOM     98  O   UNL A   1      44.694  22.864  35.895  1.00  0.00    -0.744 OA
ENDBRANCH  92  95
ENDBRANCH  65  88
ENDBRANCH  39  40
ENDBRANCH  32  34
ENDBRANCH  31  32
ENDBRANCH  30  31
ENDBRANCH  29  30
ENDBRANCH  28  29
ENDBRANCH   1  28
TORSDOF 22
ENDMDL
MODEL 2
REMARK VINA RESULT:     -11.6      2.969      4.737
REMARK SMILES CC1=C(C)C[C@H](C(=O)OCCOCCOC(=O)c2ccc(-c3c4nc(c(-c5cccc(S(=O)(=O)[O-])c5F)c5ccc([nH]5)c(-c5cccc(S(=O)(=O)[O-])c5F)c5nc(c(-c6cccc(S(=O)(=O)[O-])c6F)c6ccc3[nH]6)C=C5)C=C4)cc2)[C@@H](C(=O)N[C@@H](C)CCc2ccccc2)C1
REMARK SMILES IDX 11 1 10 2 9 3 7 4 8 5 6 6 1 7 2 8 3 9 95 10 4 11 5 12 81 13
REMARK SMILES IDX 82 14 83 15 84 16 85 18 86 19 87 20 88 21 89 22 90 23 94 24
REMARK SMILES IDX 91 25 93 26 92 27 12 28 13 29 14 30 15 31 16 32 17 33 18 34
REMARK SMILES IDX 19 35 80 36 20 37 79 38 21 39 22 40 23 41 73 42 24 43 78 44
REMARK SMILES IDX 72 45 74 46 25 47 77 48 71 49 70 50 26 52 58 53 38 54 57 55
REMARK SMILES IDX 39 56 42 57 56 58 75 59 40 60 41 61 55 63 76 64 43 65 27 66
REMARK SMILES IDX 28 67 36 68 29 69 31 70 37 71 30 72 32 73 33 74 34 75 35 76
REMARK SMILES IDX 59 77 60 78 68 79 61 80 63 81 69 82 62 83 64 84 65 85 66 86
REMARK SMILES IDX 67 87 44 88 45 89 53 90 46 91 48 92 54 93 47 94 49 95 50 96
REMARK SMILES IDX 51 97 52 98
REMARK H PARENT 84 17 74 51 42 62
REMARK Flexibility Score: inf
ROOT
ATOM      1  C   UNL A   1      30.877  28.189  23.917  1.00  0.00     0.202 C 
ENDROOT
BRANCH   1   2
ATOM      2  C   UNL A   1      31.722  27.720  22.728  1.00  0.00     0.261 C 
BRANCH   2   3
ATOM      3  O   UNL A   1      32.591  26.645  23.120  1.00  0.00    -0.463 OA
BRANCH   3   4
ATOM      4  C   UNL A   1      32.047  25.402  23.153  1.00  0.00     0.310 C 
ATOM      5  O   UNL A   1      30.964  25.098  22.669  1.00  0.00    -0.252 OA
BRANCH   4   6
ATOM      6  C   UNL A   1      32.917  24.413  23.918  1.00  0.00     0.116 C 
ATOM      7  C   UNL A   1      36.940  23.989  25.819  1.00  0.00     0.039 C 
ATOM      8  C   UNL A   1      35.631  24.138  25.083  1.00  0.00    -0.074 C 
ATOM      9  C   UNL A   1      35.419  23.677  23.838  1.00  0.00    -0.073 C 
ATOM     10  C   UNL A   1      34.599  24.923  25.841  1.00  0.00     0.045 C 
ATOM     11  C   UNL A   1      36.464  22.977  23.005  1.00  0.00     0.039 C 
ATOM     12  C   UNL A   1      34.127  23.916  23.112  1.00  0.00     0.046 C 
ATOM     13  C   UNL A   1      33.187  25.066  25.275  1.00  0.00     0.097 C 
BRANCH  13  14
ATOM     14  C   UNL A   1      32.191  24.502  26.291  1.00  0.00     0.224 C 
ATOM     15  O   UNL A   1      31.333  25.207  26.825  1.00  0.00    -0.275 OA
ATOM     16  N   UNL A   1      32.195  23.177  26.605  1.00  0.00    -0.353 N 
ATOM     17  H   UNL A   1      31.515  22.910  27.264  1.00  0.00     0.163 HD
BRANCH  16  18
ATOM     18  C   UNL A   1      33.040  22.086  26.127  1.00  0.00     0.079 C 
ATOM     19  C   UNL A   1      33.759  21.445  27.315  1.00  0.00     0.031 C 
BRANCH  18  20
ATOM     20  C   UNL A   1      32.198  21.035  25.381  1.00  0.00     0.029 C 
BRANCH  20  21
ATOM     21  C   UNL A   1      32.951  20.284  24.271  1.00  0.00     0.037 C 
BRANCH  21  22
ATOM     22  C   UNL A   1      33.110  18.785  24.403  1.00  0.00    -0.048 A 
ATOM     23  C   UNL A   1      32.738  18.181  25.618  1.00  0.00     0.004 A 
ATOM     24  C   UNL A   1      33.605  17.961  23.383  1.00  0.00     0.004 A 
ATOM     25  C   UNL A   1      32.791  16.794  25.778  1.00  0.00     0.000 A 
ATOM     26  C   UNL A   1      33.649  16.574  23.540  1.00  0.00     0.000 A 
ATOM     27  C   UNL A   1      33.232  15.989  24.732  1.00  0.00     0.000 A 
ENDBRANCH  21  22
ENDBRANCH  20  21
ENDBRANCH  18  20
ENDBRANCH  16  18
ENDBRANCH  13  14
ENDBRANCH   4   6
ENDBRANCH   3   4
ENDBRANCH   2   3
ENDBRANCH   1   2
BRANCH   1  28
ATOM     28  O   UNL A   1      31.337  29.345  24.619  1.00  0.00    -0.374 OA
BRANCH  28  29
ATOM     29  C   UNL A   1      31.876  29.161  25.926  1.00  0.00     0.202 C 
BRANCH  29  30
ATOM     30  C   UNL A   1      33.367  28.814  26.039  1.00  0.00     0.261 C 
BRANCH  30  31
ATOM     31  O   UNL A   1      33.889  28.986  27.368  1.00  0.00    -0.460 OA
BRANCH  31  32
ATOM     32  C   UNL A   1      34.495  30.177  27.578  1.00  0.00     0.338 C 
ATOM     33  O   UNL A   1      34.014  31.291  27.385  1.00  0.00    -0.246 OA
BRANCH  32  34
ATOM     34  C   UNL A   1      35.787  29.996  28.260  1.00  0.00     0.060 A 
ATOM     35  C   UNL A   1      36.945  30.169  27.490  1.00  0.00     0.016 A 
ATOM     36  C   UNL A   1      35.876  29.575  29.589  1.00  0.00     0.016 A 
ATOM     37  C   UNL A   1      38.192  29.859  28.023  1.00  0.00     0.010 A 
ATOM     38  C   UNL A   1      37.132  29.255  30.120  1.00  0.00     0.010 A 
ATOM     39  C   UNL A   1      38.288  29.352  29.325  1.00  0.00    -0.014 A 
BRANCH  39  40
ATOM     40  C   UNL A   1      39.578  28.776  29.780  1.00  0.00     0.031 A 
ATOM     41  C   UNL A   1      40.259  29.371  30.983  1.00  0.00     0.074 A 
ATOM     42  C   UNL A   1      40.119  27.715  29.154  1.00  0.00     0.049 A 
ATOM     43  N   UNL A   1      41.379  29.019  31.559  1.00  0.00    -0.248 NA
ATOM     44  C   UNL A   1      39.589  30.515  31.623  1.00  0.00     0.031 C 
ATOM     45  C   UNL A   1      39.551  27.043  27.987  1.00  0.00     0.029 A 
ATOM     46  N   UNL A   1      41.280  27.029  29.409  1.00  0.00    -0.354 N 
ATOM     47  C   UNL A   1      41.562  29.910  32.609  1.00  0.00     0.074 A 
ATOM     48  C   UNL A   1      40.445  30.829  32.585  1.00  0.00     0.031 C 
ATOM     49  C   UNL A   1      40.380  26.055  27.609  1.00  0.00     0.029 A 
ATOM     50  C   UNL A   1      41.544  26.038  28.494  1.00  0.00     0.049 A 
ATOM     51  H   UNL A   1      41.868  27.227  30.173  1.00  0.00     0.167 HD
ATOM     52  C   UNL A   1      42.560  29.952  33.523  1.00  0.00     0.034 A 
ATOM     53  C   UNL A   1      42.613  25.224  28.372  1.00  0.00     0.034 A 
ATOM     54  C   UNL A   1      43.657  29.024  33.565  1.00  0.00     0.049 A 
ATOM     55  C   UNL A   1      43.722  25.305  29.388  1.00  0.00     0.074 A 
ATOM     56  C   UNL A   1      44.691  28.953  34.483  1.00  0.00     0.029 A 
ATOM     57  N   UNL A   1      43.874  28.012  32.641  1.00  0.00    -0.354 N 
ATOM     58  N   UNL A   1      43.819  26.074  30.447  1.00  0.00    -0.248 NA
ATOM     59  C   UNL A   1      44.854  24.383  29.214  1.00  0.00     0.031 C 
ATOM     60  C   UNL A   1      45.546  27.915  34.100  1.00  0.00     0.029 A 
ATOM     61  C   UNL A   1      45.031  27.321  32.958  1.00  0.00     0.049 A 
ATOM     62  H   UNL A   1      43.290  27.815  31.874  1.00  0.00     0.167 HD
ATOM     63  C   UNL A   1      45.000  25.703  31.083  1.00  0.00     0.074 A 
ATOM     64  C   UNL A   1      45.574  24.628  30.300  1.00  0.00     0.031 C 
ATOM     65  C   UNL A   1      45.564  26.217  32.204  1.00  0.00     0.034 A 
BRANCH  52  66
ATOM     66  C   UNL A   1      42.498  31.025  34.577  1.00  0.00     0.023 A 
ATOM     67  C   UNL A   1      41.902  30.747  35.823  1.00  0.00     0.012 A 
ATOM     68  C   UNL A   1      43.081  32.289  34.355  1.00  0.00     0.148 A 
ATOM     69  C   UNL A   1      41.859  31.719  36.822  1.00  0.00     0.002 A 
ATOM     70  C   UNL A   1      43.072  33.238  35.370  1.00  0.00     0.091 A 
ATOM     71  F   UNL A   1      43.622  32.541  33.155  1.00  0.00    -0.205 F 
ATOM     72  C   UNL A   1      42.453  32.958  36.600  1.00  0.00     0.022 A 
BRANCH  70  73
ATOM     73  S   UNL A   1      43.877  34.835  35.207  1.00  0.00     0.127 S 
ATOM     74  O   UNL A   1      42.916  35.568  34.385  1.00  0.00    -0.237 OA
ATOM     75  O   UNL A   1      43.958  35.284  36.598  1.00  0.00    -0.237 OA
ATOM     76  O   UNL A   1      45.165  34.572  34.579  1.00  0.00    -0.744 OA
ENDBRANCH  70  73
ENDBRANCH  52  66
BRANCH  53  77
ATOM     77  C   UNL A   1      42.670  24.238  27.257  1.00  0.00     0.023 A 
ATOM     78  C   UNL A   1      43.344  24.570  26.065  1.00  0.00     0.012 A 
ATOM     79  C   UNL A   1      42.077  22.966  27.378  1.00  0.00     0.148 A 
ATOM     80  C   UNL A   1      43.402  23.663  25.006  1.00  0.00     0.002 A 
ATOM     81  C   UNL A   1      42.189  22.048  26.343  1.00  0.00     0.091 A 
ATOM     82  F   UNL A   1      41.422  22.677  28.512  1.00  0.00    -0.205 F 
ATOM     83  C   UNL A   1      42.835  22.400  25.148  1.00  0.00     0.022 A 
BRANCH  81  84
ATOM     84  S   UNL A   1      41.614  20.353  26.497  1.00  0.00     0.127 S 
ATOM     85  O   UNL A   1      42.293  19.916  27.714  1.00  0.00    -0.237 OA
ATOM     86  O   UNL A   1      40.167  20.537  26.629  1.00  0.00    -0.237 OA
ATOM     87  O   UNL A   1      42.020  19.686  25.267  1.00  0.00    -0.744 OA
ENDBRANCH  81  84
ENDBRANCH  53  77
BRANCH  65  88
ATOM     88  C   UNL A   1      46.856  25.605  32.683  1.00  0.00     0.023 A 
ATOM     89  C   UNL A   1      48.086  26.119  32.229  1.00  0.00     0.012 A 
ATOM     90  C   UNL A   1      46.850  24.575  33.645  1.00  0.00     0.148 A 
ATOM     91  C   UNL A   1      49.290  25.597  32.701  1.00  0.00     0.002 A 
ATOM     92  C   UNL A   1      48.054  24.093  34.147  1.00  0.00     0.091 A 
ATOM     93  F   UNL A   1      45.670  24.087  34.054  1.00  0.00    -0.205 F 
ATOM     94  C   UNL A   1      49.274  24.594  33.667  1.00  0.00     0.022 A 
BRANCH  92  95
ATOM     95  S   UNL A   1      48.128  22.871  35.462  1.00  0.00     0.127 S 
ATOM     96  O   UNL A   1      47.301  21.796  34.916  1.00  0.00    -0.237 OA
ATOM     97  O   UNL A   1      49.557  22.568  35.526  1.00  0.00    -0.237 OA
ATOM     98  O   UNL A   1      47.596  23.528  36.649  1.00  0.00    -0.744 OA
ENDBRANCH  92  95
ENDBRANCH  65  88
ENDBRANCH  39  40
ENDBRANCH  32  34
ENDBRANCH  31  32
ENDBRANCH  30  31
ENDBRANCH  29  30
ENDBRANCH  28  29
ENDBRANCH   1  28
TORSDOF 22
ENDMDL
MODEL 3
REMARK VINA RESULT:     -11.4      5.058     10.560
REMARK SMILES CC1=C(C)C[C@H](C(=O)OCCOCCOC(=O)c2ccc(-c3c4nc(c(-c5cccc(S(=O)(=O)[O-])c5F)c5ccc([nH]5)c(-c5cccc(S(=O)(=O)[O-])c5F)c5nc(c(-c6cccc(S(=O)(=O)[O-])c6F)c6ccc3[nH]6)C=C5)C=C4)cc2)[C@@H](C(=O)N[C@@H](C)CCc2ccccc2)C1
REMARK SMILES IDX 11 1 10 2 9 3 7 4 8 5 6 6 1 7 2 8 3 9 95 10 4 11 5 12 81 13
REMARK SMILES IDX 82 14 83 15 84 16 85 18 86 19 87 20 88 21 89 22 90 23 94 24
REMARK SMILES IDX 91 25 93 26 92 27 12 28 13 29 14 30 15 31 16 32 17 33 18 34
REMARK SMILES IDX 19 35 80 36 20 37 79 38 21 39 22 40 23 41 73 42 24 43 78 44
REMARK SMILES IDX 72 45 74 46 25 47 77 48 71 49 70 50 26 52 58 53 38 54 57 55
REMARK SMILES IDX 39 56 42 57 56 58 75 59 40 60 41 61 55 63 76 64 43 65 27 66
REMARK SMILES IDX 28 67 36 68 29 69 31 70 37 71 30 72 32 73 33 74 34 75 35 76
REMARK SMILES IDX 59 77 60 78 68 79 61 80 63 81 69 82 62 83 64 84 65 85 66 86
REMARK SMILES IDX 67 87 44 88 45 89 53 90 46 91 48 92 54 93 47 94 49 95 50 96
REMARK SMILES IDX 51 97 52 98
REMARK H PARENT 84 17 74 51 42 62
REMARK Flexibility Score: inf
ROOT
ATOM      1  C   UNL A   1      35.362  21.924  26.487  1.00  0.00     0.202 C 
ENDROOT
BRANCH   1   2
ATOM      2  C   UNL A   1      34.383  22.878  27.179  1.00  0.00     0.261 C 
BRANCH   2   3
ATOM      3  O   UNL A   1      33.814  23.794  26.230  1.00  0.00    -0.463 OA
BRANCH   3   4
ATOM      4  C   UNL A   1      32.557  24.235  26.486  1.00  0.00     0.310 C 
ATOM      5  O   UNL A   1      31.749  23.668  27.212  1.00  0.00    -0.252 OA
BRANCH   4   6
ATOM      6  C   UNL A   1      32.225  25.508  25.718  1.00  0.00     0.116 C 
ATOM      7  C   UNL A   1      34.028  28.547  22.980  1.00  0.00     0.039 C 
ATOM      8  C   UNL A   1      33.485  27.557  23.981  1.00  0.00    -0.074 C 
ATOM      9  C   UNL A   1      33.406  27.797  25.301  1.00  0.00    -0.073 C 
ATOM     10  C   UNL A   1      33.107  26.234  23.376  1.00  0.00     0.045 C 
ATOM     11  C   UNL A   1      33.874  29.072  25.958  1.00  0.00     0.039 C 
ATOM     12  C   UNL A   1      32.932  26.755  26.272  1.00  0.00     0.046 C 
ATOM     13  C   UNL A   1      32.439  25.166  24.242  1.00  0.00     0.097 C 
BRANCH  13  14
ATOM     14  C   UNL A   1      31.085  24.810  23.626  1.00  0.00     0.224 C 
ATOM     15  O   UNL A   1      30.147  25.610  23.602  1.00  0.00    -0.275 OA
ATOM     16  N   UNL A   1      30.888  23.598  23.037  1.00  0.00    -0.353 N 
ATOM     17  H   UNL A   1      29.986  23.465  22.665  1.00  0.00     0.163 HD
BRANCH  16  18
ATOM     18  C   UNL A   1      31.790  22.464  22.863  1.00  0.00     0.079 C 
ATOM     19  C   UNL A   1      33.208  22.979  22.610  1.00  0.00     0.031 C 
BRANCH  18  20
ATOM     20  C   UNL A   1      31.764  21.554  24.105  1.00  0.00     0.029 C 
BRANCH  20  21
ATOM     21  C   UNL A   1      33.113  20.902  24.448  1.00  0.00     0.037 C 
BRANCH  21  22
ATOM     22  C   UNL A   1      33.334  19.461  24.041  1.00  0.00    -0.048 A 
ATOM     23  C   UNL A   1      34.407  18.762  24.624  1.00  0.00     0.004 A 
ATOM     24  C   UNL A   1      32.529  18.780  23.117  1.00  0.00     0.004 A 
ATOM     25  C   UNL A   1      34.619  17.409  24.347  1.00  0.00     0.000 A 
ATOM     26  C   UNL A   1      32.737  17.426  22.848  1.00  0.00     0.000 A 
ATOM     27  C   UNL A   1      33.774  16.737  23.470  1.00  0.00     0.000 A 
ENDBRANCH  21  22
ENDBRANCH  20  21
ENDBRANCH  18  20
ENDBRANCH  16  18
ENDBRANCH  13  14
ENDBRANCH   4   6
ENDBRANCH   3   4
ENDBRANCH   2   3
ENDBRANCH   1   2
BRANCH   1  28
ATOM     28  O   UNL A   1      35.935  22.369  25.256  1.00  0.00    -0.374 OA
BRANCH  28  29
ATOM     29  C   UNL A   1      37.016  21.615  24.713  1.00  0.00     0.202 C 
BRANCH  29  30
ATOM     30  C   UNL A   1      37.903  20.835  25.692  1.00  0.00     0.261 C 
BRANCH  30  31
ATOM     31  O   UNL A   1      39.300  20.885  25.354  1.00  0.00    -0.460 OA
BRANCH  31  32
ATOM     32  C   UNL A   1      40.134  20.768  26.412  1.00  0.00     0.338 C 
ATOM     33  O   UNL A   1      40.749  19.761  26.756  1.00  0.00    -0.246 OA
BRANCH  32  34
ATOM     34  C   UNL A   1      40.378  22.078  27.037  1.00  0.00     0.060 A 
ATOM     35  C   UNL A   1      39.734  23.186  26.469  1.00  0.00     0.016 A 
ATOM     36  C   UNL A   1      41.284  22.246  28.087  1.00  0.00     0.016 A 
ATOM     37  C   UNL A   1      40.041  24.472  26.903  1.00  0.00     0.010 A 
ATOM     38  C   UNL A   1      41.597  23.542  28.516  1.00  0.00     0.010 A 
ATOM     39  C   UNL A   1      41.011  24.660  27.895  1.00  0.00    -0.014 A 
BRANCH  39  40
ATOM     40  C   UNL A   1      41.520  26.030  28.153  1.00  0.00     0.031 A 
ATOM     41  C   UNL A   1      42.929  26.375  27.751  1.00  0.00     0.074 A 
ATOM     42  C   UNL A   1      40.728  26.968  28.705  1.00  0.00     0.049 A 
ATOM     43  N   UNL A   1      43.570  27.508  27.869  1.00  0.00    -0.248 NA
ATOM     44  C   UNL A   1      43.720  25.298  27.132  1.00  0.00     0.031 C 
ATOM     45  C   UNL A   1      39.343  26.762  29.126  1.00  0.00     0.029 A 
ATOM     46  N   UNL A   1      40.986  28.279  29.018  1.00  0.00    -0.354 N 
ATOM     47  C   UNL A   1      44.845  27.277  27.367  1.00  0.00     0.074 A 
ATOM     48  C   UNL A   1      44.892  25.891  26.954  1.00  0.00     0.031 C 
ATOM     49  C   UNL A   1      38.881  27.901  29.669  1.00  0.00     0.029 A 
ATOM     50  C   UNL A   1      39.941  28.909  29.651  1.00  0.00     0.049 A 
ATOM     51  H   UNL A   1      41.838  28.726  28.811  1.00  0.00     0.167 HD
ATOM     52  C   UNL A   1      45.879  28.142  27.244  1.00  0.00     0.034 A 
ATOM     53  C   UNL A   1      39.857  30.148  30.175  1.00  0.00     0.034 A 
ATOM     54  C   UNL A   1      45.825  29.526  27.629  1.00  0.00     0.049 A 
ATOM     55  C   UNL A   1      41.029  31.085  30.046  1.00  0.00     0.074 A 
ATOM     56  C   UNL A   1      46.805  30.494  27.497  1.00  0.00     0.029 A 
ATOM     57  N   UNL A   1      44.739  30.136  28.236  1.00  0.00    -0.354 N 
ATOM     58  N   UNL A   1      42.185  30.887  29.458  1.00  0.00    -0.248 NA
ATOM     59  C   UNL A   1      40.875  32.430  30.621  1.00  0.00     0.031 C 
ATOM     60  C   UNL A   1      46.319  31.685  28.048  1.00  0.00     0.029 A 
ATOM     61  C   UNL A   1      45.027  31.465  28.498  1.00  0.00     0.049 A 
ATOM     62  H   UNL A   1      43.887  29.691  28.449  1.00  0.00     0.167 HD
ATOM     63  C   UNL A   1      42.879  32.089  29.561  1.00  0.00     0.074 A 
ATOM     64  C   UNL A   1      42.005  33.016  30.250  1.00  0.00     0.031 C 
ATOM     65  C   UNL A   1      44.130  32.393  29.135  1.00  0.00     0.034 A 
BRANCH  52  66
ATOM     66  C   UNL A   1      47.157  27.622  26.639  1.00  0.00     0.023 A 
ATOM     67  C   UNL A   1      48.125  27.018  27.465  1.00  0.00     0.012 A 
ATOM     68  C   UNL A   1      47.372  27.682  25.248  1.00  0.00     0.148 A 
ATOM     69  C   UNL A   1      49.302  26.507  26.920  1.00  0.00     0.002 A 
ATOM     70  C   UNL A   1      48.529  27.132  24.707  1.00  0.00     0.091 A 
ATOM     71  F   UNL A   1      46.450  28.282  24.483  1.00  0.00    -0.205 F 
ATOM     72  C   UNL A   1      49.499  26.553  25.543  1.00  0.00     0.022 A 
BRANCH  70  73
ATOM     73  S   UNL A   1      48.837  27.076  22.939  1.00  0.00     0.127 S 
ATOM     74  O   UNL A   1      50.297  27.148  22.891  1.00  0.00    -0.237 OA
ATOM     75  O   UNL A   1      48.279  25.775  22.569  1.00  0.00    -0.237 OA
ATOM     76  O   UNL A   1      48.136  28.221  22.373  1.00  0.00    -0.744 OA
ENDBRANCH  70  73
ENDBRANCH  52  66
BRANCH  53  77
ATOM     77  C   UNL A   1      38.600  30.586  30.845  1.00  0.00     0.023 A 
ATOM     78  C   UNL A   1      38.438  30.378  32.229  1.00  0.00     0.012 A 
ATOM     79  C   UNL A   1      37.574  31.225  30.122  1.00  0.00     0.148 A 
ATOM     80  C   UNL A   1      37.265  30.773  32.874  1.00  0.00     0.002 A 
ATOM     81  C   UNL A   1      36.435  31.668  30.781  1.00  0.00     0.091 A 
ATOM     82  F   UNL A   1      37.738  31.394  28.802  1.00  0.00    -0.205 F 
ATOM     83  C   UNL A   1      36.269  31.428  32.153  1.00  0.00     0.022 A 
BRANCH  81  84
ATOM     84  S   UNL A   1      35.170  32.644  29.959  1.00  0.00     0.127 S 
ATOM     85  O   UNL A   1      34.255  32.937  31.059  1.00  0.00    -0.237 OA
ATOM     86  O   UNL A   1      35.941  33.790  29.474  1.00  0.00    -0.237 OA
ATOM     87  O   UNL A   1      34.641  31.791  28.902  1.00  0.00    -0.744 OA
ENDBRANCH  81  84
ENDBRANCH  53  77
BRANCH  65  88
ATOM     88  C   UNL A   1      44.629  33.796  29.368  1.00  0.00     0.023 A 
ATOM     89  C   UNL A   1      45.253  34.126  30.586  1.00  0.00     0.012 A 
ATOM     90  C   UNL A   1      44.553  34.765  28.347  1.00  0.00     0.148 A 
ATOM     91  C   UNL A   1      45.765  35.406  30.798  1.00  0.00     0.002 A 
ATOM     92  C   UNL A   1      45.108  36.024  28.547  1.00  0.00     0.091 A 
ATOM     93  F   UNL A   1      43.940  34.438  27.199  1.00  0.00    -0.205 F 
ATOM     94  C   UNL A   1      45.703  36.350  29.775  1.00  0.00     0.022 A 
BRANCH  92  95
ATOM     95  S   UNL A   1      45.160  37.269  27.253  1.00  0.00     0.127 S 
ATOM     96  O   UNL A   1      43.747  37.382  26.891  1.00  0.00    -0.237 OA
ATOM     97  O   UNL A   1      45.703  38.430  27.958  1.00  0.00    -0.237 OA
ATOM     98  O   UNL A   1      46.030  36.732  26.215  1.00  0.00    -0.744 OA
ENDBRANCH  92  95
ENDBRANCH  65  88
ENDBRANCH  39  40
ENDBRANCH  32  34
ENDBRANCH  31  32
ENDBRANCH  30  31
ENDBRANCH  29  30
ENDBRANCH  28  29
ENDBRANCH   1  28
TORSDOF 22
ENDMDL
