MODEL 1
REMARK VINA RESULT:     -10.3      0.000      0.000
REMARK SMILES CC(C)CSc1cc2c(cc1Cl)C=C(C(=O)OCCOCCOC(=O)c1ccc(-c3c4nc(c(-c5cccc(S(=O)(=O)[O-])c5F)c5ccc([nH]5)c(-c5cccc(S(=O)(=O)[O-])c5F)c5nc(c(-c6cccc(S(=O)(=O)[O-])c6F)c6ccc3[nH]6)C=C5)C=C4)cc1)[C@@H](C(F)(F)F)O2
REMARK SMILES IDX 20 1 19 2 18 3 17 4 15 5 16 6 14 7 6 8 7 9 11 10 8 11 10 12
REMARK SMILES IDX 12 13 9 14 94 15 13 16 89 17 5 18 4 19 2 20 1 21 3 22 90 23
REMARK SMILES IDX 91 24 92 25 93 26 21 27 22 28 23 29 24 30 25 31 26 32 27 33
REMARK SMILES IDX 88 34 28 35 87 36 29 37 30 38 31 39 81 40 32 41 86 42 80 43
REMARK SMILES IDX 82 44 33 45 85 46 79 47 78 48 34 50 66 51 46 52 65 53 47 54
REMARK SMILES IDX 50 55 64 56 83 57 48 58 49 59 63 61 84 62 51 63 35 64 36 65
REMARK SMILES IDX 44 66 37 67 39 68 45 69 38 70 40 71 41 72 42 73 43 74 67 75
REMARK SMILES IDX 68 76 76 77 69 78 71 79 77 80 70 81 72 82 73 83 74 84 75 85
REMARK SMILES IDX 52 86 53 87 61 88 54 89 56 90 62 91 55 92 57 93 58 94 59 95
REMARK SMILES IDX 60 96
REMARK H PARENT 82 49 50 60
REMARK Flexibility Score: inf
ROOT
ATOM      1  O   UNL A   1      35.839  23.007  25.958  1.00  0.00    -0.374 OA
ENDROOT
BRANCH   1   2
ATOM      2  C   UNL A   1      35.197  21.760  26.221  1.00  0.00     0.202 C 
BRANCH   2   3
ATOM      3  C   UNL A   1      34.755  20.921  25.017  1.00  0.00     0.261 C 
BRANCH   3   4
ATOM      4  O   UNL A   1      34.347  21.747  23.918  1.00  0.00    -0.460 OA
BRANCH   4   5
ATOM      5  C   UNL A   1      33.051  21.608  23.557  1.00  0.00     0.338 C 
ATOM      6  O   UNL A   1      32.447  20.565  23.366  1.00  0.00    -0.246 OA
BRANCH   5   7
ATOM      7  C   UNL A   1      32.396  22.931  23.564  1.00  0.00     0.087 C 
ATOM      8  C   UNL A   1      31.549  27.841  23.550  1.00  0.00     0.030 A 
ATOM      9  C   UNL A   1      30.740  26.725  23.794  1.00  0.00     0.063 A 
ATOM     10  C   UNL A   1      32.796  27.657  22.930  1.00  0.00     0.055 A 
ATOM     11  C   UNL A   1      31.239  25.439  23.595  1.00  0.00     0.129 A 
ATOM     12  C   UNL A   1      33.262  26.367  22.660  1.00  0.00     0.033 A 
ATOM     13  Cl  UNL A   1      33.832  28.978  22.512  1.00  0.00    -0.083 Cl
ATOM     14  C   UNL A   1      32.506  25.257  23.046  1.00  0.00     0.019 A 
ATOM     15  O   UNL A   1      30.439  24.407  24.001  1.00  0.00    -0.475 OA
ATOM     16  C   UNL A   1      33.059  23.919  22.946  1.00  0.00     0.027 C 
ATOM     17  C   UNL A   1      31.068  23.116  24.248  1.00  0.00     0.316 C 
BRANCH   8  18
ATOM     18  S   UNL A   1      30.958  29.419  24.149  1.00  0.00    -0.124 SA
BRANCH  18  19
ATOM     19  C   UNL A   1      32.086  29.663  25.589  1.00  0.00     0.078 C 
BRANCH  19  20
ATOM     20  C   UNL A   1      32.419  28.362  26.352  1.00  0.00    -0.007 C 
ATOM     21  C   UNL A   1      33.901  28.240  26.713  1.00  0.00     0.008 C 
ATOM     22  C   UNL A   1      31.623  28.294  27.662  1.00  0.00     0.008 C 
ENDBRANCH  19  20
ENDBRANCH  18  19
ENDBRANCH   8  18
BRANCH  17  23
ATOM     23  C   UNL A   1      31.168  22.862  25.760  1.00  0.00     0.430 C 
ATOM     24  F   UNL A   1      32.100  23.656  26.336  1.00  0.00    -0.167 F 
ATOM     25  F   UNL A   1      29.994  23.112  26.384  1.00  0.00    -0.167 F 
ATOM     26  F   UNL A   1      31.507  21.580  26.033  1.00  0.00    -0.167 F 
ENDBRANCH  17  23
ENDBRANCH   5   7
ENDBRANCH   4   5
ENDBRANCH   3   4
ENDBRANCH   2   3
ENDBRANCH   1   2
BRANCH   1  27
ATOM     27  C   UNL A   1      37.154  22.994  25.408  1.00  0.00     0.202 C 
BRANCH  27  28
ATOM     28  C   UNL A   1      38.121  21.876  25.824  1.00  0.00     0.261 C 
BRANCH  28  29
ATOM     29  O   UNL A   1      39.498  22.277  25.769  1.00  0.00    -0.460 OA
BRANCH  29  30
ATOM     30  C   UNL A   1      40.147  22.239  26.962  1.00  0.00     0.338 C 
ATOM     31  O   UNL A   1      40.436  21.245  27.609  1.00  0.00    -0.246 OA
BRANCH  30  32
ATOM     32  C   UNL A   1      40.650  23.588  27.279  1.00  0.00     0.060 A 
ATOM     33  C   UNL A   1      40.337  24.682  26.471  1.00  0.00     0.016 A 
ATOM     34  C   UNL A   1      41.430  23.751  28.431  1.00  0.00     0.016 A 
ATOM     35  C   UNL A   1      40.792  25.951  26.838  1.00  0.00     0.010 A 
ATOM     36  C   UNL A   1      41.884  25.019  28.794  1.00  0.00     0.010 A 
ATOM     37  C   UNL A   1      41.553  26.131  28.009  1.00  0.00    -0.014 A 
BRANCH  37  38
ATOM     38  C   UNL A   1      41.881  27.500  28.475  1.00  0.00     0.031 A 
ATOM     39  C   UNL A   1      43.289  28.015  28.484  1.00  0.00     0.074 A 
ATOM     40  C   UNL A   1      40.878  28.277  28.926  1.00  0.00     0.049 A 
ATOM     41  N   UNL A   1      43.717  29.215  28.785  1.00  0.00    -0.248 NA
ATOM     42  C   UNL A   1      44.356  27.072  28.115  1.00  0.00     0.031 C 
ATOM     43  C   UNL A   1      39.477  27.861  29.030  1.00  0.00     0.029 A 
ATOM     44  N   UNL A   1      40.876  29.572  29.380  1.00  0.00    -0.354 N 
ATOM     45  C   UNL A   1      45.097  29.174  28.652  1.00  0.00     0.074 A 
ATOM     46  C   UNL A   1      45.441  27.823  28.259  1.00  0.00     0.031 C 
ATOM     47  C   UNL A   1      38.748  28.887  29.491  1.00  0.00     0.029 A 
ATOM     48  C   UNL A   1      39.630  30.026  29.738  1.00  0.00     0.049 A 
ATOM     49  H   UNL A   1      41.690  30.122  29.443  1.00  0.00     0.167 HD
ATOM     50  C   UNL A   1      45.990  30.178  28.820  1.00  0.00     0.034 A 
ATOM     51  C   UNL A   1      39.233  31.224  30.206  1.00  0.00     0.034 A 
ATOM     52  C   UNL A   1      45.642  31.521  29.198  1.00  0.00     0.049 A 
ATOM     53  C   UNL A   1      40.241  32.323  30.375  1.00  0.00     0.074 A 
ATOM     54  C   UNL A   1      46.476  32.619  29.321  1.00  0.00     0.029 A 
ATOM     55  N   UNL A   1      44.368  31.949  29.535  1.00  0.00    -0.354 N 
ATOM     56  N   UNL A   1      41.523  32.305  30.106  1.00  0.00    -0.248 NA
ATOM     57  C   UNL A   1      39.750  33.611  30.885  1.00  0.00     0.031 C 
ATOM     58  C   UNL A   1      45.712  33.704  29.757  1.00  0.00     0.029 A 
ATOM     59  C   UNL A   1      44.395  33.289  29.879  1.00  0.00     0.049 A 
ATOM     60  H   UNL A   1      43.562  31.384  29.528  1.00  0.00     0.167 HD
ATOM     61  C   UNL A   1      41.990  33.582  30.394  1.00  0.00     0.074 A 
ATOM     62  C   UNL A   1      40.851  34.352  30.848  1.00  0.00     0.031 C 
ATOM     63  C   UNL A   1      43.253  34.061  30.297  1.00  0.00     0.034 A 
BRANCH  50  64
ATOM     64  C   UNL A   1      47.440  29.890  28.545  1.00  0.00     0.023 A 
ATOM     65  C   UNL A   1      47.950  30.110  27.251  1.00  0.00     0.012 A 
ATOM     66  C   UNL A   1      48.316  29.522  29.585  1.00  0.00     0.148 A 
ATOM     67  C   UNL A   1      49.311  29.960  26.991  1.00  0.00     0.002 A 
ATOM     68  C   UNL A   1      49.676  29.401  29.325  1.00  0.00     0.091 A 
ATOM     69  F   UNL A   1      47.804  29.311  30.806  1.00  0.00    -0.205 F 
ATOM     70  C   UNL A   1      50.175  29.617  28.030  1.00  0.00     0.022 A 
BRANCH  68  71
ATOM     71  S   UNL A   1      50.880  29.011  30.599  1.00  0.00     0.127 S 
ATOM     72  O   UNL A   1      50.176  27.979  31.360  1.00  0.00    -0.237 OA
ATOM     73  O   UNL A   1      52.012  28.523  29.812  1.00  0.00    -0.237 OA
ATOM     74  O   UNL A   1      51.124  30.252  31.320  1.00  0.00    -0.744 OA
ENDBRANCH  68  71
ENDBRANCH  50  64
BRANCH  51  75
ATOM     75  C   UNL A   1      37.787  31.449  30.473  1.00  0.00     0.023 A 
ATOM     76  C   UNL A   1      37.307  31.343  31.791  1.00  0.00     0.012 A 
ATOM     77  C   UNL A   1      36.917  31.862  29.446  1.00  0.00     0.148 A 
ATOM     78  C   UNL A   1      35.977  31.645  32.085  1.00  0.00     0.002 A 
ATOM     79  C   UNL A   1      35.604  32.196  29.752  1.00  0.00     0.091 A 
ATOM     80  F   UNL A   1      37.407  31.959  28.203  1.00  0.00    -0.205 F 
ATOM     81  C   UNL A   1      35.130  32.081  31.069  1.00  0.00     0.022 A 
BRANCH  79  82
ATOM     82  S   UNL A   1      34.462  32.856  28.533  1.00  0.00     0.127 S 
ATOM     83  O   UNL A   1      35.356  33.634  27.677  1.00  0.00    -0.237 OA
ATOM     84  O   UNL A   1      33.939  31.632  27.926  1.00  0.00    -0.237 OA
ATOM     85  O   UNL A   1      33.485  33.633  29.282  1.00  0.00    -0.744 OA
ENDBRANCH  79  82
ENDBRANCH  51  75
BRANCH  63  86
ATOM     86  C   UNL A   1      43.501  35.495  30.677  1.00  0.00     0.023 A 
ATOM     87  C   UNL A   1      43.968  35.799  31.969  1.00  0.00     0.012 A 
ATOM     88  C   UNL A   1      43.403  36.519  29.713  1.00  0.00     0.148 A 
ATOM     89  C   UNL A   1      44.333  37.104  32.299  1.00  0.00     0.002 A 
ATOM     90  C   UNL A   1      43.800  37.809  30.038  1.00  0.00     0.091 A 
ATOM     91  F   UNL A   1      42.950  36.202  28.492  1.00  0.00    -0.205 F 
ATOM     92  C   UNL A   1      44.261  38.105  31.331  1.00  0.00     0.022 A 
BRANCH  90  93
ATOM     93  S   UNL A   1      43.810  39.152  28.844  1.00  0.00     0.127 S 
ATOM     94  O   UNL A   1      44.302  40.266  29.653  1.00  0.00    -0.237 OA
ATOM     95  O   UNL A   1      44.755  38.664  27.840  1.00  0.00    -0.237 OA
ATOM     96  O   UNL A   1      42.438  39.289  28.376  1.00  0.00    -0.744 OA
ENDBRANCH  90  93
ENDBRANCH  63  86
ENDBRANCH  37  38
ENDBRANCH  30  32
ENDBRANCH  29  30
ENDBRANCH  28  29
ENDBRANCH  27  28
ENDBRANCH   1  27
TORSDOF 21
ENDMDL
MODEL 2
REMARK VINA RESULT:     -10.3      2.031      2.333
REMARK SMILES CC(C)CSc1cc2c(cc1Cl)C=C(C(=O)OCCOCCOC(=O)c1ccc(-c3c4nc(c(-c5cccc(S(=O)(=O)[O-])c5F)c5ccc([nH]5)c(-c5cccc(S(=O)(=O)[O-])c5F)c5nc(c(-c6cccc(S(=O)(=O)[O-])c6F)c6ccc3[nH]6)C=C5)C=C4)cc1)[C@@H](C(F)(F)F)O2
REMARK SMILES IDX 20 1 19 2 18 3 17 4 15 5 16 6 14 7 6 8 7 9 11 10 8 11 10 12
REMARK SMILES IDX 12 13 9 14 94 15 13 16 89 17 5 18 4 19 2 20 1 21 3 22 90 23
REMARK SMILES IDX 91 24 92 25 93 26 21 27 22 28 23 29 24 30 25 31 26 32 27 33
REMARK SMILES IDX 88 34 28 35 87 36 29 37 30 38 31 39 81 40 32 41 86 42 80 43
REMARK SMILES IDX 82 44 33 45 85 46 79 47 78 48 34 50 66 51 46 52 65 53 47 54
REMARK SMILES IDX 50 55 64 56 83 57 48 58 49 59 63 61 84 62 51 63 35 64 36 65
REMARK SMILES IDX 44 66 37 67 39 68 45 69 38 70 40 71 41 72 42 73 43 74 67 75
REMARK SMILES IDX 68 76 76 77 69 78 71 79 77 80 70 81 72 82 73 83 74 84 75 85
REMARK SMILES IDX 52 86 53 87 61 88 54 89 56 90 62 91 55 92 57 93 58 94 59 95
REMARK SMILES IDX 60 96
REMARK H PARENT 82 49 50 60
REMARK Flexibility Score: inf
ROOT
ATOM      1  O   UNL A   1      35.013  22.266  26.225  1.00  0.00    -0.374 OA
ENDROOT
BRANCH   1   2
ATOM      2  C   UNL A   1      34.391  20.993  26.053  1.00  0.00     0.202 C 
BRANCH   2   3
ATOM      3  C   UNL A   1      33.814  20.666  24.672  1.00  0.00     0.261 C 
BRANCH   3   4
ATOM      4  O   UNL A   1      33.679  21.843  23.862  1.00  0.00    -0.460 OA
BRANCH   4   5
ATOM      5  C   UNL A   1      32.529  21.912  23.154  1.00  0.00     0.338 C 
ATOM      6  O   UNL A   1      31.951  20.995  22.595  1.00  0.00    -0.246 OA
BRANCH   5   7
ATOM      7  C   UNL A   1      31.965  23.273  23.270  1.00  0.00     0.087 C 
ATOM      8  C   UNL A   1      31.449  28.218  23.582  1.00  0.00     0.030 A 
ATOM      9  C   UNL A   1      30.580  27.143  23.802  1.00  0.00     0.063 A 
ATOM     10  C   UNL A   1      32.650  27.992  22.889  1.00  0.00     0.055 A 
ATOM     11  C   UNL A   1      30.982  25.842  23.504  1.00  0.00     0.129 A 
ATOM     12  C   UNL A   1      33.016  26.694  22.522  1.00  0.00     0.033 A 
ATOM     13  Cl  UNL A   1      33.751  29.267  22.495  1.00  0.00    -0.083 Cl
ATOM     14  C   UNL A   1      32.206  25.613  22.881  1.00  0.00     0.019 A 
ATOM     15  O   UNL A   1      30.134  24.841  23.890  1.00  0.00    -0.475 OA
ATOM     16  C   UNL A   1      32.663  24.251  22.677  1.00  0.00     0.027 C 
ATOM     17  C   UNL A   1      30.686  23.500  24.031  1.00  0.00     0.316 C 
BRANCH   8  18
ATOM     18  S   UNL A   1      30.994  29.791  24.300  1.00  0.00    -0.124 SA
BRANCH  18  19
ATOM     19  C   UNL A   1      32.230  29.894  25.666  1.00  0.00     0.078 C 
BRANCH  19  20
ATOM     20  C   UNL A   1      32.561  28.534  26.316  1.00  0.00    -0.007 C 
ATOM     21  C   UNL A   1      34.047  28.372  26.649  1.00  0.00     0.008 C 
ATOM     22  C   UNL A   1      31.780  28.364  27.625  1.00  0.00     0.008 C 
ENDBRANCH  19  20
ENDBRANCH  18  19
ENDBRANCH   8  18
BRANCH  17  23
ATOM     23  C   UNL A   1      30.840  23.148  25.519  1.00  0.00     0.430 C 
ATOM     24  F   UNL A   1      32.097  23.390  25.957  1.00  0.00    -0.167 F 
ATOM     25  F   UNL A   1      30.004  23.880  26.291  1.00  0.00    -0.167 F 
ATOM     26  F   UNL A   1      30.574  21.843  25.757  1.00  0.00    -0.167 F 
ENDBRANCH  17  23
ENDBRANCH   5   7
ENDBRANCH   4   5
ENDBRANCH   3   4
ENDBRANCH   2   3
ENDBRANCH   1   2
BRANCH   1  27
ATOM     27  C   UNL A   1      36.340  22.447  25.736  1.00  0.00     0.202 C 
BRANCH  27  28
ATOM     28  C   UNL A   1      37.310  21.257  25.767  1.00  0.00     0.261 C 
BRANCH  28  29
ATOM     29  O   UNL A   1      38.659  21.626  25.445  1.00  0.00    -0.460 OA
BRANCH  29  30
ATOM     30  C   UNL A   1      39.553  21.444  26.452  1.00  0.00     0.338 C 
ATOM     31  O   UNL A   1      39.901  20.381  26.941  1.00  0.00    -0.246 OA
BRANCH  30  32
ATOM     32  C   UNL A   1      40.216  22.728  26.744  1.00  0.00     0.060 A 
ATOM     33  C   UNL A   1      40.104  23.812  25.873  1.00  0.00     0.016 A 
ATOM     34  C   UNL A   1      40.941  22.843  27.937  1.00  0.00     0.016 A 
ATOM     35  C   UNL A   1      40.706  25.025  26.215  1.00  0.00     0.010 A 
ATOM     36  C   UNL A   1      41.541  24.055  28.276  1.00  0.00     0.010 A 
ATOM     37  C   UNL A   1      41.414  25.161  27.424  1.00  0.00    -0.014 A 
BRANCH  37  38
ATOM     38  C   UNL A   1      41.898  26.495  27.854  1.00  0.00     0.031 A 
ATOM     39  C   UNL A   1      43.313  26.934  27.624  1.00  0.00     0.074 A 
ATOM     40  C   UNL A   1      41.036  27.311  28.491  1.00  0.00     0.049 A 
ATOM     41  N   UNL A   1      43.856  28.098  27.870  1.00  0.00    -0.248 NA
ATOM     42  C   UNL A   1      44.241  25.946  27.053  1.00  0.00     0.031 C 
ATOM     43  C   UNL A   1      39.654  26.967  28.833  1.00  0.00     0.029 A 
ATOM     44  N   UNL A   1      41.190  28.589  28.965  1.00  0.00    -0.354 N 
ATOM     45  C   UNL A   1      45.187  27.988  27.493  1.00  0.00     0.074 A 
ATOM     46  C   UNL A   1      45.377  26.633  27.017  1.00  0.00     0.031 C 
ATOM     47  C   UNL A   1      39.078  28.017  29.437  1.00  0.00     0.029 A 
ATOM     48  C   UNL A   1      40.054  29.098  29.548  1.00  0.00     0.049 A 
ATOM     49  H   UNL A   1      42.032  29.093  28.894  1.00  0.00     0.167 HD
ATOM     50  C   UNL A   1      46.152  28.937  27.521  1.00  0.00     0.034 A 
ATOM     51  C   UNL A   1      39.816  30.301  30.103  1.00  0.00     0.034 A 
ATOM     52  C   UNL A   1      45.954  30.284  27.983  1.00  0.00     0.049 A 
ATOM     53  C   UNL A   1      40.901  31.339  30.113  1.00  0.00     0.074 A 
ATOM     54  C   UNL A   1      46.860  31.332  27.979  1.00  0.00     0.029 A 
ATOM     55  N   UNL A   1      44.786  30.770  28.548  1.00  0.00    -0.354 N 
ATOM     56  N   UNL A   1      42.112  31.260  29.621  1.00  0.00    -0.248 NA
ATOM     57  C   UNL A   1      40.582  32.635  30.729  1.00  0.00     0.031 C 
ATOM     58  C   UNL A   1      46.248  32.442  28.566  1.00  0.00     0.029 A 
ATOM     59  C   UNL A   1      44.951  32.095  28.910  1.00  0.00     0.049 A 
ATOM     60  H   UNL A   1      43.960  30.249  28.673  1.00  0.00     0.167 HD
ATOM     61  C   UNL A   1      42.696  32.500  29.849  1.00  0.00     0.074 A 
ATOM     62  C   UNL A   1      41.701  33.317  30.513  1.00  0.00     0.031 C 
ATOM     63  C   UNL A   1      43.948  32.914  29.539  1.00  0.00     0.034 A 
BRANCH  50  64
ATOM     64  C   UNL A   1      47.512  28.580  26.988  1.00  0.00     0.023 A 
ATOM     65  C   UNL A   1      48.607  28.541  27.874  1.00  0.00     0.012 A 
ATOM     66  C   UNL A   1      47.683  28.169  25.652  1.00  0.00     0.148 A 
ATOM     67  C   UNL A   1      49.857  28.107  27.436  1.00  0.00     0.002 A 
ATOM     68  C   UNL A   1      48.926  27.710  25.230  1.00  0.00     0.091 A 
ATOM     69  F   UNL A   1      46.627  28.222  24.828  1.00  0.00    -0.205 F 
ATOM     70  C   UNL A   1      50.013  27.681  26.118  1.00  0.00     0.022 A 
BRANCH  68  71
ATOM     71  S   UNL A   1      49.223  27.095  23.569  1.00  0.00     0.127 S 
ATOM     72  O   UNL A   1      48.350  25.921  23.531  1.00  0.00    -0.237 OA
ATOM     73  O   UNL A   1      48.773  28.215  22.742  1.00  0.00    -0.237 OA
ATOM     74  O   UNL A   1      50.648  26.808  23.491  1.00  0.00    -0.744 OA
ENDBRANCH  68  71
ENDBRANCH  50  64
BRANCH  51  75
ATOM     75  C   UNL A   1      38.455  30.595  30.626  1.00  0.00     0.023 A 
ATOM     76  C   UNL A   1      38.153  30.287  31.965  1.00  0.00     0.012 A 
ATOM     77  C   UNL A   1      37.503  31.264  29.834  1.00  0.00     0.148 A 
ATOM     78  C   UNL A   1      36.918  30.642  32.510  1.00  0.00     0.002 A 
ATOM     79  C   UNL A   1      36.291  31.647  30.393  1.00  0.00     0.091 A 
ATOM     80  F   UNL A   1      37.825  31.548  28.565  1.00  0.00    -0.205 F 
ATOM     81  C   UNL A   1      35.993  31.329  31.728  1.00  0.00     0.022 A 
BRANCH  79  82
ATOM     82  S   UNL A   1      35.073  32.616  29.498  1.00  0.00     0.127 S 
ATOM     83  O   UNL A   1      34.055  32.838  30.523  1.00  0.00    -0.237 OA
ATOM     84  O   UNL A   1      35.849  33.802  29.134  1.00  0.00    -0.237 OA
ATOM     85  O   UNL A   1      34.654  31.791  28.374  1.00  0.00    -0.744 OA
ENDBRANCH  79  82
ENDBRANCH  51  75
BRANCH  63  86
ATOM     86  C   UNL A   1      44.341  34.320  29.899  1.00  0.00     0.023 A 
ATOM     87  C   UNL A   1      44.940  34.576  31.147  1.00  0.00     0.012 A 
ATOM     88  C   UNL A   1      44.244  35.357  28.949  1.00  0.00     0.148 A 
ATOM     89  C   UNL A   1      45.435  35.844  31.447  1.00  0.00     0.002 A 
ATOM     90  C   UNL A   1      44.770  36.609  29.241  1.00  0.00     0.091 A 
ATOM     91  F   UNL A   1      43.665  35.088  27.770  1.00  0.00    -0.205 F 
ATOM     92  C   UNL A   1      45.362  36.855  30.490  1.00  0.00     0.022 A 
BRANCH  90  93
ATOM     93  S   UNL A   1      44.787  37.956  28.052  1.00  0.00     0.127 S 
ATOM     94  O   UNL A   1      43.364  38.275  27.944  1.00  0.00    -0.237 OA
ATOM     95  O   UNL A   1      45.588  38.966  28.744  1.00  0.00    -0.237 OA
ATOM     96  O   UNL A   1      45.392  37.421  26.841  1.00  0.00    -0.744 OA
ENDBRANCH  90  93
ENDBRANCH  63  86
ENDBRANCH  37  38
ENDBRANCH  30  32
ENDBRANCH  29  30
ENDBRANCH  28  29
ENDBRANCH  27  28
ENDBRANCH   1  27
TORSDOF 21
ENDMDL
MODEL 3
REMARK VINA RESULT:     -10.2      2.443      8.174
REMARK SMILES CC(C)CSc1cc2c(cc1Cl)C=C(C(=O)OCCOCCOC(=O)c1ccc(-c3c4nc(c(-c5cccc(S(=O)(=O)[O-])c5F)c5ccc([nH]5)c(-c5cccc(S(=O)(=O)[O-])c5F)c5nc(c(-c6cccc(S(=O)(=O)[O-])c6F)c6ccc3[nH]6)C=C5)C=C4)cc1)[C@@H](C(F)(F)F)O2
REMARK SMILES IDX 20 1 19 2 18 3 17 4 15 5 16 6 14 7 6 8 7 9 11 10 8 11 10 12
REMARK SMILES IDX 12 13 9 14 94 15 13 16 89 17 5 18 4 19 2 20 1 21 3 22 90 23
REMARK SMILES IDX 91 24 92 25 93 26 21 27 22 28 23 29 24 30 25 31 26 32 27 33
REMARK SMILES IDX 88 34 28 35 87 36 29 37 30 38 31 39 81 40 32 41 86 42 80 43
REMARK SMILES IDX 82 44 33 45 85 46 79 47 78 48 34 50 66 51 46 52 65 53 47 54
REMARK SMILES IDX 50 55 64 56 83 57 48 58 49 59 63 61 84 62 51 63 35 64 36 65
REMARK SMILES IDX 44 66 37 67 39 68 45 69 38 70 40 71 41 72 42 73 43 74 67 75
REMARK SMILES IDX 68 76 76 77 69 78 71 79 77 80 70 81 72 82 73 83 74 84 75 85
REMARK SMILES IDX 52 86 53 87 61 88 54 89 56 90 62 91 55 92 57 93 58 94 59 95
REMARK SMILES IDX 60 96
REMARK H PARENT 82 49 50 60
REMARK Flexibility Score: inf
ROOT
ATOM      1  O   UNL A   1      36.711  19.760  25.001  1.00  0.00    -0.374 OA
ENDROOT
BRANCH   1   2
ATOM      2  C   UNL A   1      35.757  20.820  24.974  1.00  0.00     0.202 C 
BRANCH   2   3
ATOM      3  C   UNL A   1      36.280  22.252  25.126  1.00  0.00     0.261 C 
BRANCH   3   4
ATOM      4  O   UNL A   1      35.396  23.207  24.524  1.00  0.00    -0.460 OA
BRANCH   4   5
ATOM      5  C   UNL A   1      34.514  23.776  25.377  1.00  0.00     0.338 C 
ATOM      6  O   UNL A   1      34.516  23.706  26.595  1.00  0.00    -0.246 OA
BRANCH   5   7
ATOM      7  C   UNL A   1      33.594  24.648  24.619  1.00  0.00     0.087 C 
ATOM      8  C   UNL A   1      30.447  28.285  23.316  1.00  0.00     0.030 A 
ATOM      9  C   UNL A   1      30.826  27.077  22.717  1.00  0.00     0.063 A 
ATOM     10  C   UNL A   1      31.229  28.799  24.364  1.00  0.00     0.055 A 
ATOM     11  C   UNL A   1      31.848  26.308  23.270  1.00  0.00     0.129 A 
ATOM     12  C   UNL A   1      32.303  28.060  24.868  1.00  0.00     0.033 A 
ATOM     13  Cl  UNL A   1      30.893  30.321  25.115  1.00  0.00    -0.083 Cl
ATOM     14  C   UNL A   1      32.576  26.789  24.356  1.00  0.00     0.019 A 
ATOM     15  O   UNL A   1      32.050  25.076  22.713  1.00  0.00    -0.475 OA
ATOM     16  C   UNL A   1      33.562  25.935  24.992  1.00  0.00     0.027 C 
ATOM     17  C   UNL A   1      32.751  24.077  23.510  1.00  0.00     0.316 C 
BRANCH   8  18
ATOM     18  S   UNL A   1      28.922  29.029  22.753  1.00  0.00    -0.124 SA
BRANCH  18  19
ATOM     19  C   UNL A   1      29.591  30.480  21.829  1.00  0.00     0.078 C 
BRANCH  19  20
ATOM     20  C   UNL A   1      28.773  31.775  22.020  1.00  0.00    -0.007 C 
ATOM     21  C   UNL A   1      28.025  32.206  20.756  1.00  0.00     0.008 C 
ATOM     22  C   UNL A   1      27.727  31.587  23.127  1.00  0.00     0.008 C 
ENDBRANCH  19  20
ENDBRANCH  18  19
ENDBRANCH   8  18
BRANCH  17  23
ATOM     23  C   UNL A   1      31.755  23.031  24.035  1.00  0.00     0.430 C 
ATOM     24  F   UNL A   1      30.950  23.549  24.992  1.00  0.00    -0.167 F 
ATOM     25  F   UNL A   1      30.952  22.572  23.048  1.00  0.00    -0.167 F 
ATOM     26  F   UNL A   1      32.386  21.962  24.574  1.00  0.00    -0.167 F 
ENDBRANCH  17  23
ENDBRANCH   5   7
ENDBRANCH   4   5
ENDBRANCH   3   4
ENDBRANCH   2   3
ENDBRANCH   1   2
BRANCH   1  27
ATOM     27  C   UNL A   1      38.098  20.091  24.956  1.00  0.00     0.202 C 
BRANCH  27  28
ATOM     28  C   UNL A   1      39.116  19.094  25.526  1.00  0.00     0.261 C 
BRANCH  28  29
ATOM     29  O   UNL A   1      39.899  19.642  26.597  1.00  0.00    -0.460 OA
BRANCH  29  30
ATOM     30  C   UNL A   1      41.241  19.622  26.387  1.00  0.00     0.338 C 
ATOM     31  O   UNL A   1      41.902  18.691  25.955  1.00  0.00    -0.246 OA
BRANCH  30  32
ATOM     32  C   UNL A   1      41.776  20.984  26.567  1.00  0.00     0.060 A 
ATOM     33  C   UNL A   1      41.905  21.856  25.485  1.00  0.00     0.016 A 
ATOM     34  C   UNL A   1      42.128  21.392  27.860  1.00  0.00     0.016 A 
ATOM     35  C   UNL A   1      42.369  23.154  25.709  1.00  0.00     0.010 A 
ATOM     36  C   UNL A   1      42.592  22.689  28.080  1.00  0.00     0.010 A 
ATOM     37  C   UNL A   1      42.700  23.585  27.009  1.00  0.00    -0.014 A 
BRANCH  37  38
ATOM     38  C   UNL A   1      43.025  25.011  27.256  1.00  0.00     0.031 A 
ATOM     39  C   UNL A   1      42.021  25.960  27.837  1.00  0.00     0.074 A 
ATOM     40  C   UNL A   1      44.251  25.452  26.917  1.00  0.00     0.049 A 
ATOM     41  N   UNL A   1      42.187  27.211  28.184  1.00  0.00    -0.248 NA
ATOM     42  C   UNL A   1      40.657  25.452  28.053  1.00  0.00     0.031 C 
ATOM     43  C   UNL A   1      45.289  24.639  26.281  1.00  0.00     0.029 A 
ATOM     44  N   UNL A   1      44.833  26.687  27.057  1.00  0.00    -0.354 N 
ATOM     45  C   UNL A   1      40.954  27.645  28.652  1.00  0.00     0.074 A 
ATOM     46  C   UNL A   1      40.041  26.529  28.528  1.00  0.00     0.031 C 
ATOM     47  C   UNL A   1      46.388  25.387  26.109  1.00  0.00     0.029 A 
ATOM     48  C   UNL A   1      46.128  26.738  26.600  1.00  0.00     0.049 A 
ATOM     49  H   UNL A   1      44.367  27.462  27.446  1.00  0.00     0.167 HD
ATOM     50  C   UNL A   1      40.626  28.857  29.159  1.00  0.00     0.034 A 
ATOM     51  C   UNL A   1      47.013  27.751  26.582  1.00  0.00     0.034 A 
ATOM     52  C   UNL A   1      41.540  29.959  29.292  1.00  0.00     0.049 A 
ATOM     53  C   UNL A   1      46.627  29.082  27.158  1.00  0.00     0.074 A 
ATOM     54  C   UNL A   1      41.309  31.199  29.861  1.00  0.00     0.029 A 
ATOM     55  N   UNL A   1      42.849  29.968  28.836  1.00  0.00    -0.354 N 
ATOM     56  N   UNL A   1      45.499  29.430  27.727  1.00  0.00    -0.248 NA
ATOM     57  C   UNL A   1      47.636  30.150  27.116  1.00  0.00     0.031 C 
ATOM     58  C   UNL A   1      42.468  31.967  29.726  1.00  0.00     0.029 A 
ATOM     59  C   UNL A   1      43.432  31.195  29.097  1.00  0.00     0.049 A 
ATOM     60  H   UNL A   1      43.298  29.212  28.393  1.00  0.00     0.167 HD
ATOM     61  C   UNL A   1      45.667  30.750  28.129  1.00  0.00     0.074 A 
ATOM     62  C   UNL A   1      47.010  31.136  27.748  1.00  0.00     0.031 C 
ATOM     63  C   UNL A   1      44.779  31.563  28.749  1.00  0.00     0.034 A 
BRANCH  50  64
ATOM     64  C   UNL A   1      39.224  29.056  29.666  1.00  0.00     0.023 A 
ATOM     65  C   UNL A   1      38.908  28.661  30.981  1.00  0.00     0.012 A 
ATOM     66  C   UNL A   1      38.263  29.736  28.894  1.00  0.00     0.148 A 
ATOM     67  C   UNL A   1      37.650  28.932  31.518  1.00  0.00     0.002 A 
ATOM     68  C   UNL A   1      37.021  30.028  29.446  1.00  0.00     0.091 A 
ATOM     69  F   UNL A   1      38.587  30.095  27.643  1.00  0.00    -0.205 F 
ATOM     70  C   UNL A   1      36.712  29.625  30.755  1.00  0.00     0.022 A 
BRANCH  68  71
ATOM     71  S   UNL A   1      35.759  30.956  28.568  1.00  0.00     0.127 S 
ATOM     72  O   UNL A   1      36.546  32.046  27.990  1.00  0.00    -0.237 OA
ATOM     73  O   UNL A   1      35.275  29.974  27.598  1.00  0.00    -0.237 OA
ATOM     74  O   UNL A   1      34.783  31.363  29.569  1.00  0.00    -0.744 OA
ENDBRANCH  68  71
ENDBRANCH  50  64
BRANCH  51  75
ATOM     75  C   UNL A   1      48.382  27.501  26.057  1.00  0.00     0.023 A 
ATOM     76  C   UNL A   1      48.611  27.575  24.671  1.00  0.00     0.012 A 
ATOM     77  C   UNL A   1      49.466  27.291  26.930  1.00  0.00     0.148 A 
ATOM     78  C   UNL A   1      49.902  27.442  24.159  1.00  0.00     0.002 A 
ATOM     79  C   UNL A   1      50.754  27.197  26.418  1.00  0.00     0.091 A 
ATOM     80  F   UNL A   1      49.216  27.233  28.245  1.00  0.00    -0.205 F 
ATOM     81  C   UNL A   1      50.973  27.264  25.032  1.00  0.00     0.022 A 
BRANCH  79  82
ATOM     82  S   UNL A   1      52.207  27.061  27.464  1.00  0.00     0.127 S 
ATOM     83  O   UNL A   1      52.202  28.352  28.150  1.00  0.00    -0.237 OA
ATOM     84  O   UNL A   1      51.860  25.915  28.304  1.00  0.00    -0.237 OA
ATOM     85  O   UNL A   1      53.328  26.840  26.561  1.00  0.00    -0.744 OA
ENDBRANCH  79  82
ENDBRANCH  51  75
BRANCH  63  86
ATOM     86  C   UNL A   1      45.210  32.967  29.076  1.00  0.00     0.023 A 
ATOM     87  C   UNL A   1      45.946  33.210  30.252  1.00  0.00     0.012 A 
ATOM     88  C   UNL A   1      45.006  34.013  28.154  1.00  0.00     0.148 A 
ATOM     89  C   UNL A   1      46.470  34.476  30.507  1.00  0.00     0.002 A 
ATOM     90  C   UNL A   1      45.561  35.262  28.398  1.00  0.00     0.091 A 
ATOM     91  F   UNL A   1      44.298  33.754  27.045  1.00  0.00    -0.205 F 
ATOM     92  C   UNL A   1      46.290  35.497  29.575  1.00  0.00     0.022 A 
BRANCH  90  93
ATOM     93  S   UNL A   1      45.443  36.622  27.229  1.00  0.00     0.127 S 
ATOM     94  O   UNL A   1      44.014  36.627  26.921  1.00  0.00    -0.237 OA
ATOM     95  O   UNL A   1      45.899  37.757  28.031  1.00  0.00    -0.237 OA
ATOM     96  O   UNL A   1      46.312  36.274  26.113  1.00  0.00    -0.744 OA
ENDBRANCH  90  93
ENDBRANCH  63  86
ENDBRANCH  37  38
ENDBRANCH  30  32
ENDBRANCH  29  30
ENDBRANCH  28  29
ENDBRANCH  27  28
ENDBRANCH   1  27
TORSDOF 21
ENDMDL
