MODEL 1
REMARK VINA RESULT:     -12.4      0.000      0.000
REMARK SMILES O=C(OCCOCCOC(=O)c1ccc(-c2c3nc(c(-c4cccc(S(=O)(=O)[O-])c4F)c4ccc([nH]4)c(-c4cccc(S(=O)(=O)[O-])c4F)c4nc(c(-c5cccc(S(=O)(=O)[O-])c5F)c5ccc2[nH]5)C=C4)C=C3)cc1)C1=Cc2cc(Cl)cc(Cl)c2O[C@@H]1C(F)(F)F
REMARK SMILES IDX 7 1 6 2 5 3 4 4 3 5 2 6 1 7 75 8 76 9 86 10 77 11 85 12
REMARK SMILES IDX 78 13 84 14 79 15 82 16 80 17 81 18 83 19 87 20 88 21 89 22
REMARK SMILES IDX 90 23 8 24 9 25 10 26 11 27 12 28 13 29 74 30 14 31 73 32
REMARK SMILES IDX 15 33 16 34 17 35 67 36 18 37 72 38 66 39 68 40 19 41 71 42
REMARK SMILES IDX 65 43 64 44 20 46 52 47 32 48 51 49 33 50 36 51 50 52 69 53
REMARK SMILES IDX 34 54 35 55 49 57 70 58 37 59 21 60 22 61 30 62 23 63 25 64
REMARK SMILES IDX 31 65 24 66 26 67 27 68 28 69 29 70 53 71 54 72 62 73 55 74
REMARK SMILES IDX 57 75 63 76 56 77 58 78 59 79 60 80 61 81 38 82 39 83 47 84
REMARK SMILES IDX 40 85 42 86 48 87 41 88 43 89 44 90 45 91 46 92
REMARK H PARENT 68 45 36 56
REMARK Flexibility Score: inf
ROOT
ATOM      1  C   UNL A   1      33.150  31.521  27.375  1.00  0.00     0.202 C 
ENDROOT
BRANCH   1   2
ATOM      2  O   UNL A   1      32.954  30.611  26.284  1.00  0.00    -0.374 OA
BRANCH   2   3
ATOM      3  C   UNL A   1      31.822  29.572  25.891  1.00  0.00     0.202 C 
BRANCH   3   4
ATOM      4  C   UNL A   1      31.364  27.550  26.535  1.00  0.00     0.261 C 
BRANCH   4   5
ATOM      5  O   UNL A   1      32.375  26.440  26.899  1.00  0.00    -0.460 OA
BRANCH   5   6
ATOM      6  C   UNL A   1      31.966  25.226  26.527  1.00  0.00     0.338 C 
ATOM      7  O   UNL A   1      31.444  24.351  27.170  1.00  0.00    -0.246 OA
BRANCH   6   8
ATOM      8  C   UNL A   1      32.668  25.223  25.265  1.00  0.00     0.087 C 
ATOM      9  C   UNL A   1      34.146  25.185  25.476  1.00  0.00     0.027 C 
ATOM     10  C   UNL A   1      31.635  23.805  24.443  1.00  0.00     0.316 C 
ATOM     11  C   UNL A   1      35.164  23.709  25.152  1.00  0.00     0.020 A 
ATOM     12  O   UNL A   1      32.690  22.221  24.158  1.00  0.00    -0.474 OA
ATOM     13  C   UNL A   1      36.472  23.695  25.559  1.00  0.00     0.032 A 
ATOM     14  C   UNL A   1      34.453  22.217  24.622  1.00  0.00     0.146 A 
ATOM     15  C   UNL A   1      37.082  22.426  25.563  1.00  0.00     0.043 A 
ATOM     16  C   UNL A   1      35.081  21.022  24.832  1.00  0.00     0.085 A 
ATOM     17  Cl  UNL A   1      38.749  22.368  26.046  1.00  0.00    -0.084 Cl
ATOM     18  C   UNL A   1      36.419  21.163  25.269  1.00  0.00     0.045 A 
ATOM     19  Cl  UNL A   1      34.251  19.541  24.917  1.00  0.00    -0.080 Cl
BRANCH  10  20
ATOM     20  C   UNL A   1      30.761  24.661  23.442  1.00  0.00     0.430 C 
ATOM     21  F   UNL A   1      31.430  25.255  22.440  1.00  0.00    -0.167 F 
ATOM     22  F   UNL A   1      29.903  23.794  22.822  1.00  0.00    -0.167 F 
ATOM     23  F   UNL A   1      29.947  25.567  24.032  1.00  0.00    -0.167 F 
ENDBRANCH  10  20
ENDBRANCH   6   8
ENDBRANCH   5   6
ENDBRANCH   4   5
ENDBRANCH   3   4
ENDBRANCH   2   3
ENDBRANCH   1   2
BRANCH   1  24
ATOM     24  C   UNL A   1      32.432  32.858  27.423  1.00  0.00     0.261 C 
BRANCH  24  25
ATOM     25  O   UNL A   1      33.312  33.950  27.578  1.00  0.00    -0.460 OA
BRANCH  25  26
ATOM     26  C   UNL A   1      33.368  34.446  28.831  1.00  0.00     0.338 C 
ATOM     27  O   UNL A   1      32.583  35.200  29.374  1.00  0.00    -0.246 OA
BRANCH  26  28
ATOM     28  C   UNL A   1      34.563  33.874  29.467  1.00  0.00     0.060 A 
ATOM     29  C   UNL A   1      34.384  32.946  30.495  1.00  0.00     0.016 A 
ATOM     30  C   UNL A   1      35.844  34.199  28.995  1.00  0.00     0.016 A 
ATOM     31  C   UNL A   1      35.492  32.292  31.022  1.00  0.00     0.010 A 
ATOM     32  C   UNL A   1      36.948  33.545  29.519  1.00  0.00     0.010 A 
ATOM     33  C   UNL A   1      36.771  32.595  30.536  1.00  0.00    -0.014 A 
BRANCH  33  34
ATOM     34  C   UNL A   1      37.963  32.103  31.242  1.00  0.00     0.031 A 
ATOM     35  C   UNL A   1      38.698  30.967  30.605  1.00  0.00     0.074 A 
ATOM     36  C   UNL A   1      38.326  32.596  32.437  1.00  0.00     0.049 A 
ATOM     37  N   UNL A   1      39.729  30.304  31.042  1.00  0.00    -0.248 NA
ATOM     38  C   UNL A   1      38.187  30.510  29.299  1.00  0.00     0.031 C 
ATOM     39  C   UNL A   1      37.656  33.685  33.142  1.00  0.00     0.029 A 
ATOM     40  N   UNL A   1      39.329  32.207  33.286  1.00  0.00    -0.354 N 
ATOM     41  C   UNL A   1      39.974  29.334  30.082  1.00  0.00     0.074 A 
ATOM     42  C   UNL A   1      38.978  29.483  29.047  1.00  0.00     0.031 C 
ATOM     43  C   UNL A   1      38.240  33.851  34.342  1.00  0.00     0.029 A 
ATOM     44  C   UNL A   1      39.302  32.859  34.496  1.00  0.00     0.049 A 
ATOM     45  H   UNL A   1      40.002  31.527  33.053  1.00  0.00     0.167 HD
ATOM     46  C   UNL A   1      40.949  28.399  30.068  1.00  0.00     0.034 A 
ATOM     47  C   UNL A   1      40.030  32.646  35.609  1.00  0.00     0.034 A 
ATOM     48  C   UNL A   1      41.904  28.240  31.124  1.00  0.00     0.049 A 
ATOM     49  C   UNL A   1      41.088  31.573  35.588  1.00  0.00     0.074 A 
ATOM     50  C   UNL A   1      42.963  27.358  31.197  1.00  0.00     0.029 A 
ATOM     51  N   UNL A   1      41.883  28.951  32.315  1.00  0.00    -0.354 N 
ATOM     52  N   UNL A   1      41.407  30.749  34.618  1.00  0.00    -0.248 NA
ATOM     53  C   UNL A   1      41.908  31.417  36.798  1.00  0.00     0.031 C 
ATOM     54  C   UNL A   1      43.544  27.489  32.460  1.00  0.00     0.029 A 
ATOM     55  C   UNL A   1      42.894  28.506  33.145  1.00  0.00     0.049 A 
ATOM     56  H   UNL A   1      41.243  29.666  32.537  1.00  0.00     0.167 HD
ATOM     57  C   UNL A   1      42.487  30.008  35.083  1.00  0.00     0.074 A 
ATOM     58  C   UNL A   1      42.771  30.483  36.422  1.00  0.00     0.031 C 
ATOM     59  C   UNL A   1      43.182  29.025  34.459  1.00  0.00     0.034 A 
BRANCH  46  60
ATOM     60  C   UNL A   1      40.984  27.469  28.890  1.00  0.00     0.023 A 
ATOM     61  C   UNL A   1      40.113  26.361  28.830  1.00  0.00     0.012 A 
ATOM     62  C   UNL A   1      41.900  27.687  27.845  1.00  0.00     0.148 A 
ATOM     63  C   UNL A   1      40.190  25.455  27.775  1.00  0.00     0.002 A 
ATOM     64  C   UNL A   1      41.932  26.813  26.768  1.00  0.00     0.091 A 
ATOM     65  F   UNL A   1      42.741  28.726  27.938  1.00  0.00    -0.205 F 
ATOM     66  C   UNL A   1      41.092  25.686  26.739  1.00  0.00     0.022 A 
BRANCH  64  67
ATOM     67  S   UNL A   1      43.002  27.070  25.351  1.00  0.00     0.127 S 
ATOM     68  O   UNL A   1      42.873  25.794  24.649  1.00  0.00    -0.237 OA
ATOM     69  O   UNL A   1      42.355  28.201  24.686  1.00  0.00    -0.237 OA
ATOM     70  O   UNL A   1      44.324  27.355  25.889  1.00  0.00    -0.744 OA
ENDBRANCH  64  67
ENDBRANCH  46  60
BRANCH  47  71
ATOM     71  C   UNL A   1      39.782  33.464  36.829  1.00  0.00     0.023 A 
ATOM     72  C   UNL A   1      40.285  34.777  36.912  1.00  0.00     0.012 A 
ATOM     73  C   UNL A   1      39.025  32.949  37.899  1.00  0.00     0.148 A 
ATOM     74  C   UNL A   1      40.063  35.551  38.052  1.00  0.00     0.002 A 
ATOM     75  C   UNL A   1      38.762  33.744  39.008  1.00  0.00     0.091 A 
ATOM     76  F   UNL A   1      38.563  31.695  37.802  1.00  0.00    -0.205 F 
ATOM     77  C   UNL A   1      39.295  35.039  39.094  1.00  0.00     0.022 A 
BRANCH  75  78
ATOM     78  S   UNL A   1      37.687  33.214  40.345  1.00  0.00     0.127 S 
ATOM     79  O   UNL A   1      38.382  32.024  40.834  1.00  0.00    -0.237 OA
ATOM     80  O   UNL A   1      37.739  34.369  41.242  1.00  0.00    -0.237 OA
ATOM     81  O   UNL A   1      36.385  32.975  39.739  1.00  0.00    -0.744 OA
ENDBRANCH  75  78
ENDBRANCH  47  71
BRANCH  59  82
ATOM     82  C   UNL A   1      44.363  28.426  35.176  1.00  0.00     0.023 A 
ATOM     83  C   UNL A   1      45.656  28.943  34.979  1.00  0.00     0.012 A 
ATOM     84  C   UNL A   1      44.152  27.429  36.151  1.00  0.00     0.148 A 
ATOM     85  C   UNL A   1      46.728  28.463  35.732  1.00  0.00     0.002 A 
ATOM     86  C   UNL A   1      45.212  26.999  36.936  1.00  0.00     0.091 A 
ATOM     87  F   UNL A   1      42.912  26.944  36.310  1.00  0.00    -0.205 F 
ATOM     88  C   UNL A   1      46.503  27.505  36.719  1.00  0.00     0.022 A 
BRANCH  86  89
ATOM     89  S   UNL A   1      44.995  25.853  38.302  1.00  0.00     0.127 S 
ATOM     90  O   UNL A   1      46.380  25.582  38.684  1.00  0.00    -0.237 OA
ATOM     91  O   UNL A   1      44.243  26.661  39.262  1.00  0.00    -0.237 OA
ATOM     92  O   UNL A   1      44.269  24.712  37.764  1.00  0.00    -0.744 OA
ENDBRANCH  86  89
ENDBRANCH  59  82
ENDBRANCH  33  34
ENDBRANCH  26  28
ENDBRANCH  25  26
ENDBRANCH  24  25
ENDBRANCH   1  24
TORSDOF 18
ENDMDL
MODEL 2
REMARK VINA RESULT:     -12.3      1.948      7.904
REMARK SMILES O=C(OCCOCCOC(=O)c1ccc(-c2c3nc(c(-c4cccc(S(=O)(=O)[O-])c4F)c4ccc([nH]4)c(-c4cccc(S(=O)(=O)[O-])c4F)c4nc(c(-c5cccc(S(=O)(=O)[O-])c5F)c5ccc2[nH]5)C=C4)C=C3)cc1)C1=Cc2cc(Cl)cc(Cl)c2O[C@@H]1C(F)(F)F
REMARK SMILES IDX 7 1 6 2 5 3 4 4 3 5 2 6 1 7 75 8 76 9 86 10 77 11 85 12
REMARK SMILES IDX 78 13 84 14 79 15 82 16 80 17 81 18 83 19 87 20 88 21 89 22
REMARK SMILES IDX 90 23 8 24 9 25 10 26 11 27 12 28 13 29 74 30 14 31 73 32
REMARK SMILES IDX 15 33 16 34 17 35 67 36 18 37 72 38 66 39 68 40 19 41 71 42
REMARK SMILES IDX 65 43 64 44 20 46 52 47 32 48 51 49 33 50 36 51 50 52 69 53
REMARK SMILES IDX 34 54 35 55 49 57 70 58 37 59 21 60 22 61 30 62 23 63 25 64
REMARK SMILES IDX 31 65 24 66 26 67 27 68 28 69 29 70 53 71 54 72 62 73 55 74
REMARK SMILES IDX 57 75 63 76 56 77 58 78 59 79 60 80 61 81 38 82 39 83 47 84
REMARK SMILES IDX 40 85 42 86 48 87 41 88 43 89 44 90 45 91 46 92
REMARK H PARENT 68 45 36 56
REMARK Flexibility Score: inf
ROOT
ATOM      1  C   UNL A   1      31.511  31.786  26.816  1.00  0.00     0.202 C 
ENDROOT
BRANCH   1   2
ATOM      2  O   UNL A   1      32.168  30.752  26.069  1.00  0.00    -0.374 OA
BRANCH   2   3
ATOM      3  C   UNL A   1      31.693  29.667  25.014  1.00  0.00     0.202 C 
BRANCH   3   4
ATOM      4  C   UNL A   1      32.484  28.995  23.108  1.00  0.00     0.261 C 
BRANCH   4   5
ATOM      5  O   UNL A   1      33.111  27.618  22.796  1.00  0.00    -0.460 OA
BRANCH   5   6
ATOM      6  C   UNL A   1      33.339  26.893  23.894  1.00  0.00     0.338 C 
ATOM      7  O   UNL A   1      33.945  27.171  24.897  1.00  0.00    -0.246 OA
BRANCH   6   8
ATOM      8  C   UNL A   1      32.940  25.632  23.312  1.00  0.00     0.087 C 
ATOM      9  C   UNL A   1      34.128  24.768  23.045  1.00  0.00     0.027 C 
ATOM     10  C   UNL A   1      31.550  25.228  24.600  1.00  0.00     0.316 C 
ATOM     11  C   UNL A   1      34.531  23.290  24.032  1.00  0.00     0.020 A 
ATOM     12  O   UNL A   1      32.000  23.706  25.689  1.00  0.00    -0.474 OA
ATOM     13  C   UNL A   1      35.739  22.671  23.849  1.00  0.00     0.032 A 
ATOM     14  C   UNL A   1      33.570  22.825  25.401  1.00  0.00     0.146 A 
ATOM     15  C   UNL A   1      36.099  21.754  24.856  1.00  0.00     0.043 A 
ATOM     16  C   UNL A   1      34.092  22.056  26.402  1.00  0.00     0.085 A 
ATOM     17  Cl  UNL A   1      37.611  20.927  24.647  1.00  0.00    -0.084 Cl
ATOM     18  C   UNL A   1      35.352  21.499  26.079  1.00  0.00     0.045 A 
ATOM     19  Cl  UNL A   1      33.483  22.062  27.989  1.00  0.00    -0.080 Cl
BRANCH  10  20
ATOM     20  C   UNL A   1      30.275  25.526  23.715  1.00  0.00     0.430 C 
ATOM     21  F   UNL A   1      30.453  26.393  22.702  1.00  0.00    -0.167 F 
ATOM     22  F   UNL A   1      29.926  24.350  23.109  1.00  0.00    -0.167 F 
ATOM     23  F   UNL A   1      29.170  25.880  24.412  1.00  0.00    -0.167 F 
ENDBRANCH  10  20
ENDBRANCH   6   8
ENDBRANCH   5   6
ENDBRANCH   4   5
ENDBRANCH   3   4
ENDBRANCH   2   3
ENDBRANCH   1   2
BRANCH   1  24
ATOM     24  C   UNL A   1      32.179  33.127  27.059  1.00  0.00     0.261 C 
BRANCH  24  25
ATOM     25  O   UNL A   1      33.130  33.087  28.101  1.00  0.00    -0.460 OA
BRANCH  25  26
ATOM     26  C   UNL A   1      34.286  33.724  27.824  1.00  0.00     0.338 C 
ATOM     27  O   UNL A   1      34.439  34.778  27.236  1.00  0.00    -0.246 OA
BRANCH  26  28
ATOM     28  C   UNL A   1      35.371  32.919  28.405  1.00  0.00     0.060 A 
ATOM     29  C   UNL A   1      35.101  31.589  28.736  1.00  0.00     0.016 A 
ATOM     30  C   UNL A   1      36.658  33.459  28.547  1.00  0.00     0.016 A 
ATOM     31  C   UNL A   1      36.141  30.770  29.163  1.00  0.00     0.010 A 
ATOM     32  C   UNL A   1      37.694  32.641  28.970  1.00  0.00     0.010 A 
ATOM     33  C   UNL A   1      37.433  31.299  29.282  1.00  0.00    -0.014 A 
BRANCH  33  34
ATOM     34  C   UNL A   1      38.485  30.526  29.959  1.00  0.00     0.031 A 
ATOM     35  C   UNL A   1      38.828  30.939  31.354  1.00  0.00     0.074 A 
ATOM     36  C   UNL A   1      39.157  29.549  29.328  1.00  0.00     0.049 A 
ATOM     37  N   UNL A   1      39.752  30.479  32.147  1.00  0.00    -0.248 NA
ATOM     38  C   UNL A   1      38.023  32.036  31.926  1.00  0.00     0.031 C 
ATOM     39  C   UNL A   1      38.906  29.095  27.962  1.00  0.00     0.029 A 
ATOM     40  N   UNL A   1      40.221  28.795  29.747  1.00  0.00    -0.354 N 
ATOM     41  C   UNL A   1      39.660  31.245  33.299  1.00  0.00     0.074 A 
ATOM     42  C   UNL A   1      38.603  32.209  33.100  1.00  0.00     0.031 C 
ATOM     43  C   UNL A   1      39.823  28.166  27.638  1.00  0.00     0.029 A 
ATOM     44  C   UNL A   1      40.739  27.987  28.762  1.00  0.00     0.049 A 
ATOM     45  H   UNL A   1      40.580  28.828  30.663  1.00  0.00     0.167 HD
ATOM     46  C   UNL A   1      40.398  31.150  34.427  1.00  0.00     0.034 A 
ATOM     47  C   UNL A   1      41.849  27.224  28.765  1.00  0.00     0.034 A 
ATOM     48  C   UNL A   1      41.470  30.214  34.592  1.00  0.00     0.049 A 
ATOM     49  C   UNL A   1      42.681  27.160  30.019  1.00  0.00     0.074 A 
ATOM     50  C   UNL A   1      42.255  29.997  35.706  1.00  0.00     0.029 A 
ATOM     51  N   UNL A   1      41.938  29.372  33.593  1.00  0.00    -0.354 N 
ATOM     52  N   UNL A   1      42.503  27.786  31.158  1.00  0.00    -0.248 NA
ATOM     53  C   UNL A   1      43.845  26.262  30.005  1.00  0.00     0.031 C 
ATOM     54  C   UNL A   1      43.242  29.070  35.361  1.00  0.00     0.029 A 
ATOM     55  C   UNL A   1      43.023  28.653  34.055  1.00  0.00     0.049 A 
ATOM     56  H   UNL A   1      41.553  29.298  32.689  1.00  0.00     0.167 HD
ATOM     57  C   UNL A   1      43.505  27.331  32.007  1.00  0.00     0.074 A 
ATOM     58  C   UNL A   1      44.285  26.371  31.252  1.00  0.00     0.031 C 
ATOM     59  C   UNL A   1      43.757  27.673  33.295  1.00  0.00     0.034 A 
BRANCH  46  60
ATOM     60  C   UNL A   1      40.078  32.114  35.533  1.00  0.00     0.023 A 
ATOM     61  C   UNL A   1      40.794  33.324  35.652  1.00  0.00     0.012 A 
ATOM     62  C   UNL A   1      39.074  31.808  36.469  1.00  0.00     0.148 A 
ATOM     63  C   UNL A   1      40.551  34.188  36.718  1.00  0.00     0.002 A 
ATOM     64  C   UNL A   1      38.798  32.701  37.494  1.00  0.00     0.091 A 
ATOM     65  F   UNL A   1      38.430  30.638  36.357  1.00  0.00    -0.205 F 
ATOM     66  C   UNL A   1      39.546  33.881  37.633  1.00  0.00     0.022 A 
BRANCH  64  67
ATOM     67  S   UNL A   1      37.472  32.432  38.673  1.00  0.00     0.127 S 
ATOM     68  O   UNL A   1      37.835  33.361  39.742  1.00  0.00    -0.237 OA
ATOM     69  O   UNL A   1      36.294  32.823  37.897  1.00  0.00    -0.237 OA
ATOM     70  O   UNL A   1      37.526  31.021  39.028  1.00  0.00    -0.744 OA
ENDBRANCH  64  67
ENDBRANCH  46  60
BRANCH  47  71
ATOM     71  C   UNL A   1      42.233  26.465  27.542  1.00  0.00     0.023 A 
ATOM     72  C   UNL A   1      42.889  27.120  26.482  1.00  0.00     0.012 A 
ATOM     73  C   UNL A   1      41.970  25.085  27.439  1.00  0.00     0.148 A 
ATOM     74  C   UNL A   1      43.249  26.420  25.329  1.00  0.00     0.002 A 
ATOM     75  C   UNL A   1      42.378  24.384  26.312  1.00  0.00     0.091 A 
ATOM     76  F   UNL A   1      41.338  24.484  28.456  1.00  0.00    -0.205 F 
ATOM     77  C   UNL A   1      43.003  25.053  25.247  1.00  0.00     0.022 A 
BRANCH  75  78
ATOM     78  S   UNL A   1      42.209  22.602  26.167  1.00  0.00     0.127 S 
ATOM     79  O   UNL A   1      42.885  22.138  27.377  1.00  0.00    -0.237 OA
ATOM     80  O   UNL A   1      40.755  22.441  26.174  1.00  0.00    -0.237 OA
ATOM     81  O   UNL A   1      42.853  22.241  24.912  1.00  0.00    -0.744 OA
ENDBRANCH  75  78
ENDBRANCH  47  71
BRANCH  59  82
ATOM     82  C   UNL A   1      44.881  26.970  34.010  1.00  0.00     0.023 A 
ATOM     83  C   UNL A   1      46.193  27.476  33.950  1.00  0.00     0.012 A 
ATOM     84  C   UNL A   1      44.594  25.876  34.851  1.00  0.00     0.148 A 
ATOM     85  C   UNL A   1      47.208  26.890  34.706  1.00  0.00     0.002 A 
ATOM     86  C   UNL A   1      45.596  25.336  35.644  1.00  0.00     0.091 A 
ATOM     87  F   UNL A   1      43.339  25.405  34.879  1.00  0.00    -0.205 F 
ATOM     88  C   UNL A   1      46.907  25.833  35.564  1.00  0.00     0.022 A 
BRANCH  86  89
ATOM     89  S   UNL A   1      45.277  24.050  36.856  1.00  0.00     0.127 S 
ATOM     90  O   UNL A   1      44.788  22.961  36.012  1.00  0.00    -0.237 OA
ATOM     91  O   UNL A   1      46.606  23.831  37.427  1.00  0.00    -0.237 OA
ATOM     92  O   UNL A   1      44.298  24.599  37.784  1.00  0.00    -0.744 OA
ENDBRANCH  86  89
ENDBRANCH  59  82
ENDBRANCH  33  34
ENDBRANCH  26  28
ENDBRANCH  25  26
ENDBRANCH  24  25
ENDBRANCH   1  24
TORSDOF 18
ENDMDL
MODEL 3
REMARK VINA RESULT:     -11.9      2.409      7.892
REMARK SMILES O=C(OCCOCCOC(=O)c1ccc(-c2c3nc(c(-c4cccc(S(=O)(=O)[O-])c4F)c4ccc([nH]4)c(-c4cccc(S(=O)(=O)[O-])c4F)c4nc(c(-c5cccc(S(=O)(=O)[O-])c5F)c5ccc2[nH]5)C=C4)C=C3)cc1)C1=Cc2cc(Cl)cc(Cl)c2O[C@@H]1C(F)(F)F
REMARK SMILES IDX 7 1 6 2 5 3 4 4 3 5 2 6 1 7 75 8 76 9 86 10 77 11 85 12
REMARK SMILES IDX 78 13 84 14 79 15 82 16 80 17 81 18 83 19 87 20 88 21 89 22
REMARK SMILES IDX 90 23 8 24 9 25 10 26 11 27 12 28 13 29 74 30 14 31 73 32
REMARK SMILES IDX 15 33 16 34 17 35 67 36 18 37 72 38 66 39 68 40 19 41 71 42
REMARK SMILES IDX 65 43 64 44 20 46 52 47 32 48 51 49 33 50 36 51 50 52 69 53
REMARK SMILES IDX 34 54 35 55 49 57 70 58 37 59 21 60 22 61 30 62 23 63 25 64
REMARK SMILES IDX 31 65 24 66 26 67 27 68 28 69 29 70 53 71 54 72 62 73 55 74
REMARK SMILES IDX 57 75 63 76 56 77 58 78 59 79 60 80 61 81 38 82 39 83 47 84
REMARK SMILES IDX 40 85 42 86 48 87 41 88 43 89 44 90 45 91 46 92
REMARK H PARENT 68 45 36 56
REMARK Flexibility Score: inf
ROOT
ATOM      1  C   UNL A   1      31.509  31.593  26.471  1.00  0.00     0.202 C 
ENDROOT
BRANCH   1   2
ATOM      2  O   UNL A   1      31.791  30.356  27.140  1.00  0.00    -0.374 OA
BRANCH   2   3
ATOM      3  C   UNL A   1      33.050  29.395  27.220  1.00  0.00     0.202 C 
BRANCH   3   4
ATOM      4  C   UNL A   1      33.449  27.395  26.476  1.00  0.00     0.261 C 
BRANCH   4   5
ATOM      5  O   UNL A   1      33.439  26.934  25.002  1.00  0.00    -0.460 OA
BRANCH   5   6
ATOM      6  C   UNL A   1      33.167  27.926  24.151  1.00  0.00     0.338 C 
ATOM      7  O   UNL A   1      33.286  29.117  24.283  1.00  0.00    -0.246 OA
BRANCH   6   8
ATOM      8  C   UNL A   1      32.392  27.117  23.239  1.00  0.00     0.087 C 
ATOM      9  C   UNL A   1      33.046  25.794  23.011  1.00  0.00     0.027 C 
ATOM     10  C   UNL A   1      30.686  27.365  24.123  1.00  0.00     0.316 C 
ATOM     11  C   UNL A   1      32.410  24.232  23.700  1.00  0.00     0.020 A 
ATOM     12  O   UNL A   1      30.040  25.731  24.909  1.00  0.00    -0.474 OA
ATOM     13  C   UNL A   1      33.175  23.099  23.611  1.00  0.00     0.032 A 
ATOM     14  C   UNL A   1      31.011  24.199  24.728  1.00  0.00     0.146 A 
ATOM     15  C   UNL A   1      32.764  22.035  24.437  1.00  0.00     0.043 A 
ATOM     16  C   UNL A   1      30.808  23.177  25.611  1.00  0.00     0.085 A 
ATOM     17  Cl  UNL A   1      33.691  20.571  24.333  1.00  0.00    -0.084 Cl
ATOM     18  C   UNL A   1      31.684  22.084  25.412  1.00  0.00     0.045 A 
ATOM     19  Cl  UNL A   1      29.868  23.341  27.018  1.00  0.00    -0.080 Cl
BRANCH  10  20
ATOM     20  C   UNL A   1      30.004  28.365  23.105  1.00  0.00     0.430 C 
ATOM     21  F   UNL A   1      30.087  28.027  21.807  1.00  0.00    -0.167 F 
ATOM     22  F   UNL A   1      28.664  28.361  23.381  1.00  0.00    -0.167 F 
ATOM     23  F   UNL A   1      30.369  29.659  23.252  1.00  0.00    -0.167 F 
ENDBRANCH  10  20
ENDBRANCH   6   8
ENDBRANCH   5   6
ENDBRANCH   4   5
ENDBRANCH   3   4
ENDBRANCH   2   3
ENDBRANCH   1   2
BRANCH   1  24
ATOM     24  C   UNL A   1      31.876  32.927  27.096  1.00  0.00     0.261 C 
BRANCH  24  25
ATOM     25  O   UNL A   1      33.250  33.229  26.981  1.00  0.00    -0.460 OA
BRANCH  25  26
ATOM     26  C   UNL A   1      33.752  33.938  28.012  1.00  0.00     0.338 C 
ATOM     27  O   UNL A   1      33.375  35.016  28.435  1.00  0.00    -0.246 OA
BRANCH  26  28
ATOM     28  C   UNL A   1      34.850  33.146  28.585  1.00  0.00     0.060 A 
ATOM     29  C   UNL A   1      34.534  31.944  29.221  1.00  0.00     0.016 A 
ATOM     30  C   UNL A   1      36.181  33.558  28.425  1.00  0.00     0.016 A 
ATOM     31  C   UNL A   1      35.562  31.113  29.654  1.00  0.00     0.010 A 
ATOM     32  C   UNL A   1      37.205  32.728  28.855  1.00  0.00     0.010 A 
ATOM     33  C   UNL A   1      36.894  31.508  29.473  1.00  0.00    -0.014 A 
BRANCH  33  34
ATOM     34  C   UNL A   1      37.978  30.769  30.137  1.00  0.00     0.031 A 
ATOM     35  C   UNL A   1      38.304  31.175  31.539  1.00  0.00     0.074 A 
ATOM     36  C   UNL A   1      38.689  29.833  29.490  1.00  0.00     0.049 A 
ATOM     37  N   UNL A   1      39.248  30.741  32.323  1.00  0.00    -0.248 NA
ATOM     38  C   UNL A   1      37.455  32.227  32.128  1.00  0.00     0.031 C 
ATOM     39  C   UNL A   1      38.457  29.390  28.117  1.00  0.00     0.029 A 
ATOM     40  N   UNL A   1      39.785  29.117  29.897  1.00  0.00    -0.354 N 
ATOM     41  C   UNL A   1      39.125  31.483  33.488  1.00  0.00     0.074 A 
ATOM     42  C   UNL A   1      38.028  32.405  33.305  1.00  0.00     0.031 C 
ATOM     43  C   UNL A   1      39.411  28.506  27.777  1.00  0.00     0.029 A 
ATOM     44  C   UNL A   1      40.335  28.348  28.898  1.00  0.00     0.049 A 
ATOM     45  H   UNL A   1      40.143  29.150  30.813  1.00  0.00     0.167 HD
ATOM     46  C   UNL A   1      39.867  31.402  34.614  1.00  0.00     0.034 A 
ATOM     47  C   UNL A   1      41.477  27.632  28.888  1.00  0.00     0.034 A 
ATOM     48  C   UNL A   1      40.977  30.508  34.763  1.00  0.00     0.049 A 
ATOM     49  C   UNL A   1      42.311  27.583  30.141  1.00  0.00     0.074 A 
ATOM     50  C   UNL A   1      41.773  30.307  35.873  1.00  0.00     0.029 A 
ATOM     51  N   UNL A   1      41.479  29.704  33.751  1.00  0.00    -0.354 N 
ATOM     52  N   UNL A   1      42.109  28.182  31.291  1.00  0.00    -0.248 NA
ATOM     53  C   UNL A   1      43.512  26.735  30.113  1.00  0.00     0.031 C 
ATOM     54  C   UNL A   1      42.797  29.428  35.513  1.00  0.00     0.029 A 
ATOM     55  C   UNL A   1      42.594  29.024  34.201  1.00  0.00     0.049 A 
ATOM     56  H   UNL A   1      41.097  29.628  32.846  1.00  0.00     0.167 HD
ATOM     57  C   UNL A   1      43.130  27.756  32.132  1.00  0.00     0.074 A 
ATOM     58  C   UNL A   1      43.949  26.842  31.361  1.00  0.00     0.031 C 
ATOM     59  C   UNL A   1      43.368  28.088  33.425  1.00  0.00     0.034 A 
BRANCH  46  60
ATOM     60  C   UNL A   1      39.508  32.333  35.736  1.00  0.00     0.023 A 
ATOM     61  C   UNL A   1      38.672  31.896  36.785  1.00  0.00     0.012 A 
ATOM     62  C   UNL A   1      39.991  33.654  35.740  1.00  0.00     0.148 A 
ATOM     63  C   UNL A   1      38.278  32.776  37.790  1.00  0.00     0.002 A 
ATOM     64  C   UNL A   1      39.641  34.508  36.775  1.00  0.00     0.091 A 
ATOM     65  F   UNL A   1      40.757  34.058  34.717  1.00  0.00    -0.205 F 
ATOM     66  C   UNL A   1      38.771  34.079  37.791  1.00  0.00     0.022 A 
BRANCH  64  67
ATOM     67  S   UNL A   1      40.289  36.176  36.906  1.00  0.00     0.127 S 
ATOM     68  O   UNL A   1      39.792  36.782  35.671  1.00  0.00    -0.237 OA
ATOM     69  O   UNL A   1      39.641  36.657  38.126  1.00  0.00    -0.237 OA
ATOM     70  O   UNL A   1      41.736  36.043  36.997  1.00  0.00    -0.744 OA
ENDBRANCH  64  67
ENDBRANCH  46  60
BRANCH  47  71
ATOM     71  C   UNL A   1      41.891  26.910  27.653  1.00  0.00     0.023 A 
ATOM     72  C   UNL A   1      42.486  27.616  26.590  1.00  0.00     0.012 A 
ATOM     73  C   UNL A   1      41.717  25.517  27.541  1.00  0.00     0.148 A 
ATOM     74  C   UNL A   1      42.874  26.950  25.425  1.00  0.00     0.002 A 
ATOM     75  C   UNL A   1      42.154  24.853  26.402  1.00  0.00     0.091 A 
ATOM     76  F   UNL A   1      41.142  24.867  28.562  1.00  0.00    -0.205 F 
ATOM     77  C   UNL A   1      42.716  25.570  25.335  1.00  0.00     0.022 A 
BRANCH  75  78
ATOM     78  S   UNL A   1      42.100  23.065  26.244  1.00  0.00     0.127 S 
ATOM     79  O   UNL A   1      40.664  22.801  26.312  1.00  0.00    -0.237 OA
ATOM     80  O   UNL A   1      42.701  22.866  24.925  1.00  0.00    -0.237 OA
ATOM     81  O   UNL A   1      42.886  22.543  27.353  1.00  0.00    -0.744 OA
ENDBRANCH  75  78
ENDBRANCH  47  71
BRANCH  59  82
ATOM     82  C   UNL A   1      44.522  27.422  34.127  1.00  0.00     0.023 A 
ATOM     83  C   UNL A   1      45.790  28.030  34.155  1.00  0.00     0.012 A 
ATOM     84  C   UNL A   1      44.296  26.247  34.874  1.00  0.00     0.148 A 
ATOM     85  C   UNL A   1      46.824  27.468  34.903  1.00  0.00     0.002 A 
ATOM     86  C   UNL A   1      45.313  25.727  35.663  1.00  0.00     0.091 A 
ATOM     87  F   UNL A   1      43.083  25.680  34.821  1.00  0.00    -0.205 F 
ATOM     88  C   UNL A   1      46.581  26.329  35.669  1.00  0.00     0.022 A 
BRANCH  86  89
ATOM     89  S   UNL A   1      45.059  24.332  36.764  1.00  0.00     0.127 S 
ATOM     90  O   UNL A   1      44.496  23.334  35.855  1.00  0.00    -0.237 OA
ATOM     91  O   UNL A   1      46.421  24.048  37.216  1.00  0.00    -0.237 OA
ATOM     92  O   UNL A   1      44.155  24.796  37.807  1.00  0.00    -0.744 OA
ENDBRANCH  86  89
ENDBRANCH  59  82
ENDBRANCH  33  34
ENDBRANCH  26  28
ENDBRANCH  25  26
ENDBRANCH  24  25
ENDBRANCH   1  24
TORSDOF 18
ENDMDL
