MODEL 1
REMARK VINA RESULT:     -10.9      0.000      0.000
REMARK SMILES Cc1cc(NC(=O)c2ccc(Br)nc2)sc1C(=O)OCCOCCOC(=O)c1ccc(-c2c3nc(c(-c4cccc(S(=O)(=O)[O-])c4F)c4ccc([nH]4)c(-c4cccc(S(=O)(=O)[O-])c4F)c4nc(c(-c5cccc(S(=O)(=O)[O-])c5F)c5ccc2[nH]5)C=C4)C=C3)cc1
REMARK SMILES IDX 23 1 22 2 21 3 20 4 19 5 17 6 18 7 16 8 1 9 2 10 3 11 4 12
REMARK SMILES IDX 15 13 5 14 6 15 7 17 8 18 9 19 14 20 10 21 13 22 11 23 12 24
REMARK SMILES IDX 24 25 25 26 26 27 27 28 28 29 29 30 90 31 30 32 89 33 31 34
REMARK SMILES IDX 32 35 33 36 83 37 34 38 88 39 82 40 84 41 35 42 87 43 81 44
REMARK SMILES IDX 80 45 36 47 68 48 48 49 67 50 49 51 52 52 66 53 85 54 50 55
REMARK SMILES IDX 51 56 65 58 86 59 53 60 37 61 38 62 46 63 39 64 41 65 47 66
REMARK SMILES IDX 40 67 42 68 43 69 44 70 45 71 69 72 70 73 78 74 71 75 73 76
REMARK SMILES IDX 79 77 72 78 74 79 75 80 76 81 77 82 54 83 55 84 63 85 56 86
REMARK SMILES IDX 58 87 64 88 57 89 59 90 60 91 61 92 62 93
REMARK H PARENT 5 16 84 46 52 57
REMARK Flexibility Score: inf
ROOT
ATOM      1  C   UNL A   1      35.854  21.094  25.416  1.00  0.00     0.202 C 
ENDROOT
BRANCH   1   2
ATOM      2  O   UNL A   1      35.131  21.625  24.305  1.00  0.00    -0.374 OA
BRANCH   2   3
ATOM      3  C   UNL A   1      35.306  23.021  24.037  1.00  0.00     0.202 C 
BRANCH   3   4
ATOM      4  C   UNL A   1      34.248  23.923  24.679  1.00  0.00     0.261 C 
BRANCH   4   5
ATOM      5  O   UNL A   1      33.070  23.146  24.942  1.00  0.00    -0.459 OA
BRANCH   5   6
ATOM      6  C   UNL A   1      32.121  23.122  23.970  1.00  0.00     0.348 C 
ATOM      7  O   UNL A   1      31.903  22.159  23.244  1.00  0.00    -0.245 OA
BRANCH   6   8
ATOM      8  C   UNL A   1      31.336  24.348  24.020  1.00  0.00     0.117 A 
ATOM      9  C   UNL A   1      30.336  24.401  26.419  1.00  0.00     0.046 C 
ATOM     10  C   UNL A   1      30.531  24.899  25.017  1.00  0.00    -0.023 A 
ATOM     11  C   UNL A   1      29.884  26.092  24.548  1.00  0.00     0.042 A 
ATOM     12  C   UNL A   1      30.335  26.481  23.314  1.00  0.00     0.096 A 
ATOM     13  S   UNL A   1      31.287  25.298  22.580  1.00  0.00    -0.111 S 
BRANCH  12  14
ATOM     14  N   UNL A   1      30.179  27.623  22.569  1.00  0.00    -0.313 N 
ATOM     15  C   UNL A   1      30.699  28.870  22.842  1.00  0.00     0.257 C 
ATOM     16  H   UNL A   1      29.638  27.543  21.749  1.00  0.00     0.171 HD
ATOM     17  O   UNL A   1      30.316  29.862  22.227  1.00  0.00    -0.269 OA
BRANCH  15  18
ATOM     18  C   UNL A   1      31.780  29.026  23.832  1.00  0.00     0.058 A 
ATOM     19  C   UNL A   1      33.071  28.532  23.618  1.00  0.00     0.018 A 
ATOM     20  C   UNL A   1      31.501  29.639  25.042  1.00  0.00     0.126 A 
ATOM     21  C   UNL A   1      33.995  28.575  24.659  1.00  0.00     0.037 A 
ATOM     22  N   UNL A   1      32.386  29.708  26.064  1.00  0.00    -0.249 NA
ATOM     23  C   UNL A   1      33.607  29.156  25.860  1.00  0.00     0.106 A 
ATOM     24  Br  UNL A   1      34.825  29.155  27.311  1.00  0.00    -0.029 Br
ENDBRANCH  15  18
ENDBRANCH  12  14
ENDBRANCH   6   8
ENDBRANCH   5   6
ENDBRANCH   4   5
ENDBRANCH   3   4
ENDBRANCH   2   3
ENDBRANCH   1   2
BRANCH   1  25
ATOM     25  C   UNL A   1      37.168  20.386  25.075  1.00  0.00     0.261 C 
BRANCH  25  26
ATOM     26  O   UNL A   1      38.273  21.307  25.053  1.00  0.00    -0.460 OA
BRANCH  26  27
ATOM     27  C   UNL A   1      39.227  21.066  25.986  1.00  0.00     0.338 C 
ATOM     28  O   UNL A   1      39.778  20.003  26.217  1.00  0.00    -0.246 OA
BRANCH  27  29
ATOM     29  C   UNL A   1      39.659  22.337  26.600  1.00  0.00     0.060 A 
ATOM     30  C   UNL A   1      39.054  23.512  26.136  1.00  0.00     0.016 A 
ATOM     31  C   UNL A   1      40.668  22.393  27.564  1.00  0.00     0.016 A 
ATOM     32  C   UNL A   1      39.493  24.752  26.595  1.00  0.00     0.010 A 
ATOM     33  C   UNL A   1      41.110  23.639  28.021  1.00  0.00     0.010 A 
ATOM     34  C   UNL A   1      40.549  24.824  27.513  1.00  0.00    -0.014 A 
BRANCH  34  35
ATOM     35  C   UNL A   1      41.145  26.142  27.842  1.00  0.00     0.031 A 
ATOM     36  C   UNL A   1      42.560  26.434  27.420  1.00  0.00     0.074 A 
ATOM     37  C   UNL A   1      40.433  27.069  28.508  1.00  0.00     0.049 A 
ATOM     38  N   UNL A   1      43.275  27.511  27.618  1.00  0.00    -0.248 NA
ATOM     39  C   UNL A   1      43.262  25.373  26.680  1.00  0.00     0.031 C 
ATOM     40  C   UNL A   1      39.057  26.902  28.971  1.00  0.00     0.029 A 
ATOM     41  N   UNL A   1      40.782  28.328  28.928  1.00  0.00    -0.354 N 
ATOM     42  C   UNL A   1      44.517  27.250  27.051  1.00  0.00     0.074 A 
ATOM     43  C   UNL A   1      44.463  25.907  26.515  1.00  0.00     0.031 C 
ATOM     44  C   UNL A   1      38.686  28.009  29.639  1.00  0.00     0.029 A 
ATOM     45  C   UNL A   1      39.805  28.949  29.668  1.00  0.00     0.049 A 
ATOM     46  H   UNL A   1      41.650  28.745  28.721  1.00  0.00     0.167 HD
ATOM     47  C   UNL A   1      45.598  28.060  26.967  1.00  0.00     0.034 A 
ATOM     48  C   UNL A   1      39.817  30.135  30.311  1.00  0.00     0.034 A 
ATOM     49  C   UNL A   1      45.644  29.402  27.481  1.00  0.00     0.049 A 
ATOM     50  C   UNL A   1      41.039  31.010  30.217  1.00  0.00     0.074 A 
ATOM     51  C   UNL A   1      46.678  30.320  27.399  1.00  0.00     0.029 A 
ATOM     52  N   UNL A   1      44.619  30.017  28.181  1.00  0.00    -0.354 N 
ATOM     53  N   UNL A   1      42.159  30.801  29.567  1.00  0.00    -0.248 NA
ATOM     54  C   UNL A   1      40.987  32.304  30.916  1.00  0.00     0.031 C 
ATOM     55  C   UNL A   1      46.284  31.482  28.071  1.00  0.00     0.029 A 
ATOM     56  C   UNL A   1      44.997  31.297  28.549  1.00  0.00     0.049 A 
ATOM     57  H   UNL A   1      43.749  29.604  28.387  1.00  0.00     0.167 HD
ATOM     58  C   UNL A   1      42.928  31.945  29.749  1.00  0.00     0.074 A 
ATOM     59  C   UNL A   1      42.138  32.854  30.553  1.00  0.00     0.031 C 
ATOM     60  C   UNL A   1      44.179  32.215  29.302  1.00  0.00     0.034 A 
BRANCH  47  61
ATOM     61  C   UNL A   1      46.818  27.526  26.263  1.00  0.00     0.023 A 
ATOM     62  C   UNL A   1      46.968  27.736  24.877  1.00  0.00     0.012 A 
ATOM     63  C   UNL A   1      47.838  26.869  26.978  1.00  0.00     0.148 A 
ATOM     64  C   UNL A   1      48.100  27.273  24.208  1.00  0.00     0.002 A 
ATOM     65  C   UNL A   1      48.983  26.449  26.311  1.00  0.00     0.091 A 
ATOM     66  F   UNL A   1      47.666  26.659  28.290  1.00  0.00    -0.205 F 
ATOM     67  C   UNL A   1      49.111  26.640  24.926  1.00  0.00     0.022 A 
BRANCH  65  68
ATOM     68  S   UNL A   1      50.373  25.690  27.161  1.00  0.00     0.127 S 
ATOM     69  O   UNL A   1      49.816  24.391  27.533  1.00  0.00    -0.237 OA
ATOM     70  O   UNL A   1      51.388  25.640  26.109  1.00  0.00    -0.237 OA
ATOM     71  O   UNL A   1      50.694  26.576  28.271  1.00  0.00    -0.744 OA
ENDBRANCH  65  68
ENDBRANCH  47  61
BRANCH  48  72
ATOM     72  C   UNL A   1      38.615  30.579  31.070  1.00  0.00     0.023 A 
ATOM     73  C   UNL A   1      38.527  30.316  32.450  1.00  0.00     0.012 A 
ATOM     74  C   UNL A   1      37.570  31.279  30.435  1.00  0.00     0.148 A 
ATOM     75  C   UNL A   1      37.406  30.718  33.180  1.00  0.00     0.002 A 
ATOM     76  C   UNL A   1      36.484  31.727  31.179  1.00  0.00     0.091 A 
ATOM     77  F   UNL A   1      37.664  31.502  29.117  1.00  0.00    -0.205 F 
ATOM     78  C   UNL A   1      36.392  31.432  32.548  1.00  0.00     0.022 A 
BRANCH  76  79
ATOM     79  S   UNL A   1      35.203  32.769  30.474  1.00  0.00     0.127 S 
ATOM     80  O   UNL A   1      34.256  32.871  31.581  1.00  0.00    -0.237 OA
ATOM     81  O   UNL A   1      35.941  33.998  30.178  1.00  0.00    -0.237 OA
ATOM     82  O   UNL A   1      34.727  32.061  29.293  1.00  0.00    -0.744 OA
ENDBRANCH  76  79
ENDBRANCH  48  72
BRANCH  60  83
ATOM     83  C   UNL A   1      44.772  33.559  29.638  1.00  0.00     0.023 A 
ATOM     84  C   UNL A   1      45.606  33.695  30.765  1.00  0.00     0.012 A 
ATOM     85  C   UNL A   1      44.566  34.668  28.792  1.00  0.00     0.148 A 
ATOM     86  C   UNL A   1      46.202  34.921  31.062  1.00  0.00     0.002 A 
ATOM     87  C   UNL A   1      45.201  35.873  29.069  1.00  0.00     0.091 A 
ATOM     88  F   UNL A   1      43.754  34.524  27.735  1.00  0.00    -0.205 F 
ATOM     89  C   UNL A   1      46.010  36.005  30.209  1.00  0.00     0.022 A 
BRANCH  87  90
ATOM     90  S   UNL A   1      45.086  37.294  27.974  1.00  0.00     0.127 S 
ATOM     91  O   UNL A   1      45.571  36.737  26.713  1.00  0.00    -0.237 OA
ATOM     92  O   UNL A   1      43.654  37.592  28.000  1.00  0.00    -0.237 OA
ATOM     93  O   UNL A   1      45.927  38.325  28.568  1.00  0.00    -0.744 OA
ENDBRANCH  87  90
ENDBRANCH  60  83
ENDBRANCH  34  35
ENDBRANCH  27  29
ENDBRANCH  26  27
ENDBRANCH  25  26
ENDBRANCH   1  25
TORSDOF 19
ENDMDL
MODEL 2
REMARK VINA RESULT:     -10.8      4.930     10.215
REMARK SMILES Cc1cc(NC(=O)c2ccc(Br)nc2)sc1C(=O)OCCOCCOC(=O)c1ccc(-c2c3nc(c(-c4cccc(S(=O)(=O)[O-])c4F)c4ccc([nH]4)c(-c4cccc(S(=O)(=O)[O-])c4F)c4nc(c(-c5cccc(S(=O)(=O)[O-])c5F)c5ccc2[nH]5)C=C4)C=C3)cc1
REMARK SMILES IDX 23 1 22 2 21 3 20 4 19 5 17 6 18 7 16 8 1 9 2 10 3 11 4 12
REMARK SMILES IDX 15 13 5 14 6 15 7 17 8 18 9 19 14 20 10 21 13 22 11 23 12 24
REMARK SMILES IDX 24 25 25 26 26 27 27 28 28 29 29 30 90 31 30 32 89 33 31 34
REMARK SMILES IDX 32 35 33 36 83 37 34 38 88 39 82 40 84 41 35 42 87 43 81 44
REMARK SMILES IDX 80 45 36 47 68 48 48 49 67 50 49 51 52 52 66 53 85 54 50 55
REMARK SMILES IDX 51 56 65 58 86 59 53 60 37 61 38 62 46 63 39 64 41 65 47 66
REMARK SMILES IDX 40 67 42 68 43 69 44 70 45 71 69 72 70 73 78 74 71 75 73 76
REMARK SMILES IDX 79 77 72 78 74 79 75 80 76 81 77 82 54 83 55 84 63 85 56 86
REMARK SMILES IDX 58 87 64 88 57 89 59 90 60 91 61 92 62 93
REMARK H PARENT 5 16 84 46 52 57
REMARK Flexibility Score: inf
ROOT
ATOM      1  C   UNL A   1      30.921  32.052  26.037  1.00  0.00     0.202 C 
ENDROOT
BRANCH   1   2
ATOM      2  O   UNL A   1      31.483  30.807  25.618  1.00  0.00    -0.374 OA
BRANCH   2   3
ATOM      3  C   UNL A   1      32.210  30.069  26.607  1.00  0.00     0.202 C 
BRANCH   3   4
ATOM      4  C   UNL A   1      33.616  29.646  26.171  1.00  0.00     0.261 C 
BRANCH   4   5
ATOM      5  O   UNL A   1      33.621  28.231  25.925  1.00  0.00    -0.459 OA
BRANCH   5   6
ATOM      6  C   UNL A   1      33.247  27.824  24.683  1.00  0.00     0.348 C 
ATOM      7  O   UNL A   1      33.892  28.042  23.664  1.00  0.00    -0.245 OA
BRANCH   6   8
ATOM      8  C   UNL A   1      32.055  26.991  24.778  1.00  0.00     0.117 A 
ATOM      9  C   UNL A   1      31.060  26.977  22.377  1.00  0.00     0.046 C 
ATOM     10  C   UNL A   1      31.081  26.649  23.841  1.00  0.00    -0.023 A 
ATOM     11  C   UNL A   1      30.040  25.868  24.449  1.00  0.00     0.042 A 
ATOM     12  C   UNL A   1      30.337  25.518  25.741  1.00  0.00     0.096 A 
ATOM     13  S   UNL A   1      31.681  26.347  26.335  1.00  0.00    -0.111 S 
BRANCH  12  14
ATOM     14  N   UNL A   1      29.776  24.639  26.633  1.00  0.00    -0.313 N 
ATOM     15  C   UNL A   1      30.118  23.318  26.822  1.00  0.00     0.257 C 
ATOM     16  H   UNL A   1      29.052  24.991  27.201  1.00  0.00     0.171 HD
ATOM     17  O   UNL A   1      29.406  22.570  27.489  1.00  0.00    -0.269 OA
BRANCH  15  18
ATOM     18  C   UNL A   1      31.386  22.791  26.284  1.00  0.00     0.058 A 
ATOM     19  C   UNL A   1      31.492  22.264  24.993  1.00  0.00     0.018 A 
ATOM     20  C   UNL A   1      32.505  22.770  27.100  1.00  0.00     0.126 A 
ATOM     21  C   UNL A   1      32.677  21.642  24.610  1.00  0.00     0.037 A 
ATOM     22  N   UNL A   1      33.674  22.186  26.744  1.00  0.00    -0.249 NA
ATOM     23  C   UNL A   1      33.729  21.615  25.517  1.00  0.00     0.106 A 
ATOM     24  Br  UNL A   1      35.322  20.707  25.041  1.00  0.00    -0.029 Br
ENDBRANCH  15  18
ENDBRANCH  12  14
ENDBRANCH   6   8
ENDBRANCH   5   6
ENDBRANCH   4   5
ENDBRANCH   3   4
ENDBRANCH   2   3
ENDBRANCH   1   2
BRANCH   1  25
ATOM     25  C   UNL A   1      31.606  32.718  27.234  1.00  0.00     0.261 C 
BRANCH  25  26
ATOM     26  O   UNL A   1      32.945  33.133  26.911  1.00  0.00    -0.460 OA
BRANCH  26  27
ATOM     27  C   UNL A   1      33.587  33.791  27.907  1.00  0.00     0.338 C 
ATOM     28  O   UNL A   1      33.188  34.765  28.523  1.00  0.00    -0.246 OA
BRANCH  27  29
ATOM     29  C   UNL A   1      34.807  33.052  28.290  1.00  0.00     0.060 A 
ATOM     30  C   UNL A   1      34.641  31.753  28.785  1.00  0.00     0.016 A 
ATOM     31  C   UNL A   1      36.078  33.628  28.222  1.00  0.00     0.016 A 
ATOM     32  C   UNL A   1      35.739  31.043  29.265  1.00  0.00     0.010 A 
ATOM     33  C   UNL A   1      37.179  32.915  28.708  1.00  0.00     0.010 A 
ATOM     34  C   UNL A   1      37.010  31.634  29.264  1.00  0.00    -0.014 A 
BRANCH  34  35
ATOM     35  C   UNL A   1      38.133  30.960  29.958  1.00  0.00     0.031 A 
ATOM     36  C   UNL A   1      38.467  31.354  31.371  1.00  0.00     0.074 A 
ATOM     37  C   UNL A   1      38.847  30.004  29.337  1.00  0.00     0.049 A 
ATOM     38  N   UNL A   1      39.414  30.903  32.153  1.00  0.00    -0.248 NA
ATOM     39  C   UNL A   1      37.625  32.395  31.983  1.00  0.00     0.031 C 
ATOM     40  C   UNL A   1      38.622  29.538  27.970  1.00  0.00     0.029 A 
ATOM     41  N   UNL A   1      39.923  29.270  29.771  1.00  0.00    -0.354 N 
ATOM     42  C   UNL A   1      39.299  31.620  33.338  1.00  0.00     0.074 A 
ATOM     43  C   UNL A   1      38.201  32.547  33.168  1.00  0.00     0.031 C 
ATOM     44  C   UNL A   1      39.552  28.615  27.666  1.00  0.00     0.029 A 
ATOM     45  C   UNL A   1      40.448  28.443  28.808  1.00  0.00     0.049 A 
ATOM     46  H   UNL A   1      40.285  29.332  30.685  1.00  0.00     0.167 HD
ATOM     47  C   UNL A   1      40.029  31.506  34.473  1.00  0.00     0.034 A 
ATOM     48  C   UNL A   1      41.539  27.650  28.837  1.00  0.00     0.034 A 
ATOM     49  C   UNL A   1      41.106  30.570  34.650  1.00  0.00     0.049 A 
ATOM     50  C   UNL A   1      42.345  27.554  30.106  1.00  0.00     0.074 A 
ATOM     51  C   UNL A   1      41.872  30.344  35.780  1.00  0.00     0.029 A 
ATOM     52  N   UNL A   1      41.579  29.713  33.669  1.00  0.00    -0.354 N 
ATOM     53  N   UNL A   1      42.145  28.144  31.260  1.00  0.00    -0.248 NA
ATOM     54  C   UNL A   1      43.508  26.654  30.089  1.00  0.00     0.031 C 
ATOM     55  C   UNL A   1      42.823  29.365  35.475  1.00  0.00     0.029 A 
ATOM     56  C   UNL A   1      42.634  28.965  34.162  1.00  0.00     0.049 A 
ATOM     57  H   UNL A   1      41.218  29.646  32.755  1.00  0.00     0.167 HD
ATOM     58  C   UNL A   1      43.131  27.662  32.114  1.00  0.00     0.074 A 
ATOM     59  C   UNL A   1      43.917  26.716  31.350  1.00  0.00     0.031 C 
ATOM     60  C   UNL A   1      43.374  27.984  33.408  1.00  0.00     0.034 A 
BRANCH  47  61
ATOM     61  C   UNL A   1      39.664  32.398  35.630  1.00  0.00     0.023 A 
ATOM     62  C   UNL A   1      38.900  31.878  36.694  1.00  0.00     0.012 A 
ATOM     63  C   UNL A   1      40.122  33.728  35.693  1.00  0.00     0.148 A 
ATOM     64  C   UNL A   1      38.572  32.677  37.789  1.00  0.00     0.002 A 
ATOM     65  C   UNL A   1      39.827  34.505  36.806  1.00  0.00     0.091 A 
ATOM     66  F   UNL A   1      40.827  34.211  34.660  1.00  0.00    -0.205 F 
ATOM     67  C   UNL A   1      39.043  33.985  37.849  1.00  0.00     0.022 A 
BRANCH  65  68
ATOM     68  S   UNL A   1      40.451  36.178  37.011  1.00  0.00     0.127 S 
ATOM     69  O   UNL A   1      41.895  35.960  36.973  1.00  0.00    -0.237 OA
ATOM     70  O   UNL A   1      39.905  36.857  35.836  1.00  0.00    -0.237 OA
ATOM     71  O   UNL A   1      39.921  36.648  38.284  1.00  0.00    -0.744 OA
ENDBRANCH  65  68
ENDBRANCH  47  61
BRANCH  48  72
ATOM     72  C   UNL A   1      41.910  26.854  27.634  1.00  0.00     0.023 A 
ATOM     73  C   UNL A   1      42.588  27.477  26.569  1.00  0.00     0.012 A 
ATOM     74  C   UNL A   1      41.613  25.480  27.549  1.00  0.00     0.148 A 
ATOM     75  C   UNL A   1      42.939  26.752  25.429  1.00  0.00     0.002 A 
ATOM     76  C   UNL A   1      42.017  24.751  26.437  1.00  0.00     0.091 A 
ATOM     77  F   UNL A   1      40.949  24.910  28.565  1.00  0.00    -0.205 F 
ATOM     78  C   UNL A   1      42.664  25.389  25.368  1.00  0.00     0.022 A 
BRANCH  76  79
ATOM     79  S   UNL A   1      41.826  22.968  26.337  1.00  0.00     0.127 S 
ATOM     80  O   UNL A   1      42.452  22.529  27.581  1.00  0.00    -0.237 OA
ATOM     81  O   UNL A   1      40.370  22.821  26.293  1.00  0.00    -0.237 OA
ATOM     82  O   UNL A   1      42.502  22.570  25.110  1.00  0.00    -0.744 OA
ENDBRANCH  76  79
ENDBRANCH  48  72
BRANCH  60  83
ATOM     83  C   UNL A   1      44.514  27.287  34.104  1.00  0.00     0.023 A 
ATOM     84  C   UNL A   1      45.801  27.859  34.085  1.00  0.00     0.012 A 
ATOM     85  C   UNL A   1      44.293  26.107  34.844  1.00  0.00     0.148 A 
ATOM     86  C   UNL A   1      46.857  27.253  34.765  1.00  0.00     0.002 A 
ATOM     87  C   UNL A   1      45.340  25.535  35.558  1.00  0.00     0.091 A 
ATOM     88  F   UNL A   1      43.066  25.567  34.835  1.00  0.00    -0.205 F 
ATOM     89  C   UNL A   1      46.624  26.099  35.511  1.00  0.00     0.022 A 
BRANCH  87  90
ATOM     90  S   UNL A   1      45.109  24.104  36.620  1.00  0.00     0.127 S 
ATOM     91  O   UNL A   1      44.167  23.303  35.840  1.00  0.00    -0.237 OA
ATOM     92  O   UNL A   1      46.462  23.551  36.696  1.00  0.00    -0.237 OA
ATOM     93  O   UNL A   1      44.598  24.621  37.882  1.00  0.00    -0.744 OA
ENDBRANCH  87  90
ENDBRANCH  60  83
ENDBRANCH  34  35
ENDBRANCH  27  29
ENDBRANCH  26  27
ENDBRANCH  25  26
ENDBRANCH   1  25
TORSDOF 19
ENDMDL
MODEL 3
REMARK VINA RESULT:     -10.8      5.059     10.463
REMARK SMILES Cc1cc(NC(=O)c2ccc(Br)nc2)sc1C(=O)OCCOCCOC(=O)c1ccc(-c2c3nc(c(-c4cccc(S(=O)(=O)[O-])c4F)c4ccc([nH]4)c(-c4cccc(S(=O)(=O)[O-])c4F)c4nc(c(-c5cccc(S(=O)(=O)[O-])c5F)c5ccc2[nH]5)C=C4)C=C3)cc1
REMARK SMILES IDX 23 1 22 2 21 3 20 4 19 5 17 6 18 7 16 8 1 9 2 10 3 11 4 12
REMARK SMILES IDX 15 13 5 14 6 15 7 17 8 18 9 19 14 20 10 21 13 22 11 23 12 24
REMARK SMILES IDX 24 25 25 26 26 27 27 28 28 29 29 30 90 31 30 32 89 33 31 34
REMARK SMILES IDX 32 35 33 36 83 37 34 38 88 39 82 40 84 41 35 42 87 43 81 44
REMARK SMILES IDX 80 45 36 47 68 48 48 49 67 50 49 51 52 52 66 53 85 54 50 55
REMARK SMILES IDX 51 56 65 58 86 59 53 60 37 61 38 62 46 63 39 64 41 65 47 66
REMARK SMILES IDX 40 67 42 68 43 69 44 70 45 71 69 72 70 73 78 74 71 75 73 76
REMARK SMILES IDX 79 77 72 78 74 79 75 80 76 81 77 82 54 83 55 84 63 85 56 86
REMARK SMILES IDX 58 87 64 88 57 89 59 90 60 91 61 92 62 93
REMARK H PARENT 5 16 84 46 52 57
REMARK Flexibility Score: inf
ROOT
ATOM      1  C   UNL A   1      32.359  31.820  27.131  1.00  0.00     0.202 C 
ENDROOT
BRANCH   1   2
ATOM      2  O   UNL A   1      31.295  31.157  26.447  1.00  0.00    -0.374 OA
BRANCH   2   3
ATOM      3  C   UNL A   1      31.671  30.121  25.532  1.00  0.00     0.202 C 
BRANCH   3   4
ATOM      4  C   UNL A   1      30.786  30.028  24.286  1.00  0.00     0.261 C 
BRANCH   4   5
ATOM      5  O   UNL A   1      31.380  29.104  23.360  1.00  0.00    -0.459 OA
BRANCH   5   6
ATOM      6  C   UNL A   1      30.534  28.284  22.684  1.00  0.00     0.348 C 
ATOM      7  O   UNL A   1      29.845  28.638  21.733  1.00  0.00    -0.245 OA
BRANCH   6   8
ATOM      8  C   UNL A   1      30.675  26.920  23.175  1.00  0.00     0.117 A 
ATOM      9  C   UNL A   1      32.012  25.681  21.322  1.00  0.00     0.046 C 
ATOM     10  C   UNL A   1      31.249  25.782  22.610  1.00  0.00    -0.023 A 
ATOM     11  C   UNL A   1      31.054  24.638  23.457  1.00  0.00     0.042 A 
ATOM     12  C   UNL A   1      30.504  24.972  24.667  1.00  0.00     0.096 A 
ATOM     13  S   UNL A   1      29.945  26.564  24.697  1.00  0.00    -0.111 S 
BRANCH  12  14
ATOM     14  N   UNL A   1      30.326  24.289  25.844  1.00  0.00    -0.313 N 
ATOM     15  C   UNL A   1      31.191  23.382  26.416  1.00  0.00     0.257 C 
ATOM     16  H   UNL A   1      29.489  24.467  26.333  1.00  0.00     0.171 HD
ATOM     17  O   UNL A   1      30.833  22.672  27.353  1.00  0.00    -0.269 OA
BRANCH  15  18
ATOM     18  C   UNL A   1      32.591  23.298  25.960  1.00  0.00     0.058 A 
ATOM     19  C   UNL A   1      33.503  24.342  26.141  1.00  0.00     0.018 A 
ATOM     20  C   UNL A   1      33.010  22.165  25.282  1.00  0.00     0.126 A 
ATOM     21  C   UNL A   1      34.759  24.256  25.546  1.00  0.00     0.037 A 
ATOM     22  N   UNL A   1      34.231  22.050  24.709  1.00  0.00    -0.249 NA
ATOM     23  C   UNL A   1      35.072  23.105  24.833  1.00  0.00     0.106 A 
ATOM     24  Br  UNL A   1      36.747  23.003  23.954  1.00  0.00    -0.029 Br
ENDBRANCH  15  18
ENDBRANCH  12  14
ENDBRANCH   6   8
ENDBRANCH   5   6
ENDBRANCH   4   5
ENDBRANCH   3   4
ENDBRANCH   2   3
ENDBRANCH   1   2
BRANCH   1  25
ATOM     25  C   UNL A   1      32.233  33.343  27.234  1.00  0.00     0.261 C 
BRANCH  25  26
ATOM     26  O   UNL A   1      32.617  33.817  28.538  1.00  0.00    -0.460 OA
BRANCH  26  27
ATOM     27  C   UNL A   1      33.769  34.529  28.563  1.00  0.00     0.338 C 
ATOM     28  O   UNL A   1      33.888  35.740  28.471  1.00  0.00    -0.246 OA
BRANCH  27  29
ATOM     29  C   UNL A   1      34.900  33.642  28.899  1.00  0.00     0.060 A 
ATOM     30  C   UNL A   1      34.636  32.561  29.750  1.00  0.00     0.016 A 
ATOM     31  C   UNL A   1      36.198  33.885  28.444  1.00  0.00     0.016 A 
ATOM     32  C   UNL A   1      35.678  31.750  30.192  1.00  0.00     0.010 A 
ATOM     33  C   UNL A   1      37.244  33.071  28.892  1.00  0.00     0.010 A 
ATOM     34  C   UNL A   1      36.994  32.023  29.795  1.00  0.00    -0.014 A 
BRANCH  34  35
ATOM     35  C   UNL A   1      38.118  31.288  30.426  1.00  0.00     0.031 A 
ATOM     36  C   UNL A   1      38.490  31.596  31.851  1.00  0.00     0.074 A 
ATOM     37  C   UNL A   1      38.798  30.354  29.737  1.00  0.00     0.049 A 
ATOM     38  N   UNL A   1      39.443  31.084  32.586  1.00  0.00    -0.248 NA
ATOM     39  C   UNL A   1      37.683  32.618  32.538  1.00  0.00     0.031 C 
ATOM     40  C   UNL A   1      38.534  29.969  28.352  1.00  0.00     0.029 A 
ATOM     41  N   UNL A   1      39.867  29.576  30.107  1.00  0.00    -0.354 N 
ATOM     42  C   UNL A   1      39.369  31.736  33.811  1.00  0.00     0.074 A 
ATOM     43  C   UNL A   1      38.287  32.693  33.716  1.00  0.00     0.031 C 
ATOM     44  C   UNL A   1      39.437  29.046  27.977  1.00  0.00     0.029 A 
ATOM     45  C   UNL A   1      40.353  28.793  29.088  1.00  0.00     0.049 A 
ATOM     46  H   UNL A   1      40.249  29.580  31.014  1.00  0.00     0.167 HD
ATOM     47  C   UNL A   1      40.120  31.544  34.921  1.00  0.00     0.034 A 
ATOM     48  C   UNL A   1      41.428  27.978  29.049  1.00  0.00     0.034 A 
ATOM     49  C   UNL A   1      41.180  30.579  35.022  1.00  0.00     0.049 A 
ATOM     50  C   UNL A   1      42.258  27.795  30.293  1.00  0.00     0.074 A 
ATOM     51  C   UNL A   1      41.965  30.275  36.121  1.00  0.00     0.029 A 
ATOM     52  N   UNL A   1      41.614  29.768  33.985  1.00  0.00    -0.354 N 
ATOM     53  N   UNL A   1      42.095  28.324  31.481  1.00  0.00    -0.248 NA
ATOM     54  C   UNL A   1      43.401  26.874  30.200  1.00  0.00     0.031 C 
ATOM     55  C   UNL A   1      42.888  29.296  35.741  1.00  0.00     0.029 A 
ATOM     56  C   UNL A   1      42.662  28.973  34.413  1.00  0.00     0.049 A 
ATOM     57  H   UNL A   1      41.232  29.759  33.077  1.00  0.00     0.167 HD
ATOM     58  C   UNL A   1      43.088  27.776  32.285  1.00  0.00     0.074 A 
ATOM     59  C   UNL A   1      43.837  26.857  31.453  1.00  0.00     0.031 C 
ATOM     60  C   UNL A   1      43.365  28.020  33.590  1.00  0.00     0.034 A 
BRANCH  47  61
ATOM     61  C   UNL A   1      39.798  32.378  36.133  1.00  0.00     0.023 A 
ATOM     62  C   UNL A   1      40.483  33.592  36.344  1.00  0.00     0.012 A 
ATOM     63  C   UNL A   1      38.784  31.991  37.031  1.00  0.00     0.148 A 
ATOM     64  C   UNL A   1      40.184  34.393  37.445  1.00  0.00     0.002 A 
ATOM     65  C   UNL A   1      38.463  32.816  38.102  1.00  0.00     0.091 A 
ATOM     66  F   UNL A   1      38.161  30.822  36.827  1.00  0.00    -0.205 F 
ATOM     67  C   UNL A   1      39.169  34.010  38.317  1.00  0.00     0.022 A 
BRANCH  65  68
ATOM     68  S   UNL A   1      37.121  32.446  39.239  1.00  0.00     0.127 S 
ATOM     69  O   UNL A   1      37.391  33.384  40.327  1.00  0.00    -0.237 OA
ATOM     70  O   UNL A   1      35.940  32.767  38.437  1.00  0.00    -0.237 OA
ATOM     71  O   UNL A   1      37.260  31.037  39.576  1.00  0.00    -0.744 OA
ENDBRANCH  65  68
ENDBRANCH  47  61
BRANCH  48  72
ATOM     72  C   UNL A   1      41.755  27.243  27.796  1.00  0.00     0.023 A 
ATOM     73  C   UNL A   1      42.290  27.943  26.698  1.00  0.00     0.012 A 
ATOM     74  C   UNL A   1      41.560  25.851  27.695  1.00  0.00     0.148 A 
ATOM     75  C   UNL A   1      42.599  27.275  25.511  1.00  0.00     0.002 A 
ATOM     76  C   UNL A   1      41.924  25.183  26.531  1.00  0.00     0.091 A 
ATOM     77  F   UNL A   1      41.032  25.206  28.745  1.00  0.00    -0.205 F 
ATOM     78  C   UNL A   1      42.426  25.896  25.432  1.00  0.00     0.022 A 
BRANCH  76  79
ATOM     79  S   UNL A   1      41.865  23.394  26.394  1.00  0.00     0.127 S 
ATOM     80  O   UNL A   1      40.427  23.139  26.402  1.00  0.00    -0.237 OA
ATOM     81  O   UNL A   1      42.526  23.166  25.108  1.00  0.00    -0.237 OA
ATOM     82  O   UNL A   1      42.606  22.888  27.542  1.00  0.00    -0.744 OA
ENDBRANCH  76  79
ENDBRANCH  48  72
BRANCH  60  83
ATOM     83  C   UNL A   1      44.505  27.263  34.221  1.00  0.00     0.023 A 
ATOM     84  C   UNL A   1      45.808  27.795  34.178  1.00  0.00     0.012 A 
ATOM     85  C   UNL A   1      44.270  26.064  34.924  1.00  0.00     0.148 A 
ATOM     86  C   UNL A   1      46.866  27.132  34.800  1.00  0.00     0.002 A 
ATOM     87  C   UNL A   1      45.321  25.433  35.581  1.00  0.00     0.091 A 
ATOM     88  F   UNL A   1      43.027  25.563  34.938  1.00  0.00    -0.205 F 
ATOM     89  C   UNL A   1      46.621  25.958  35.510  1.00  0.00     0.022 A 
BRANCH  87  90
ATOM     90  S   UNL A   1      45.080  23.971  36.598  1.00  0.00     0.127 S 
ATOM     91  O   UNL A   1      46.455  23.516  36.797  1.00  0.00    -0.237 OA
ATOM     92  O   UNL A   1      44.441  24.525  37.793  1.00  0.00    -0.237 OA
ATOM     93  O   UNL A   1      44.231  23.079  35.820  1.00  0.00    -0.744 OA
ENDBRANCH  87  90
ENDBRANCH  60  83
ENDBRANCH  34  35
ENDBRANCH  27  29
ENDBRANCH  26  27
ENDBRANCH  25  26
ENDBRANCH   1  25
TORSDOF 19
ENDMDL
