MODEL 1
REMARK VINA RESULT:     -12.3      0.000      0.000
REMARK SMILES Cc1cc(OC(F)(F)F)cc2c1O[C@H](C(F)(F)F)C(C(=O)OCCOCCOC(=O)c1ccc(-c3c4nc(c(-c5cccc(S(=O)(=O)[O-])c5F)c5ccc([nH]5)c(-c5cccc(S(=O)(=O)[O-])c5F)c5nc(c(-c6cccc(S(=O)(=O)[O-])c6F)c6ccc3[nH]6)C=C5)C=C4)cc1)=C2
REMARK SMILES IDX 26 1 25 2 24 3 23 4 22 5 20 6 21 7 19 8 1 9 2 10 3 11 12 12
REMARK SMILES IDX 4 13 11 14 13 15 10 16 94 17 14 18 5 19 6 20 7 21 8 22 9 23
REMARK SMILES IDX 15 24 16 25 17 26 18 27 27 28 28 29 29 30 30 31 31 32 32 33
REMARK SMILES IDX 93 34 33 35 92 36 34 37 35 38 36 39 86 40 37 41 91 42 85 43
REMARK SMILES IDX 87 44 38 45 90 46 84 47 83 48 39 50 71 51 51 52 70 53 52 54
REMARK SMILES IDX 55 55 69 56 88 57 53 58 54 59 68 61 89 62 56 63 40 64 41 65
REMARK SMILES IDX 49 66 42 67 44 68 50 69 43 70 45 71 46 72 47 73 48 74 72 75
REMARK SMILES IDX 73 76 81 77 74 78 76 79 82 80 75 81 77 82 78 83 79 84 80 85
REMARK SMILES IDX 57 86 58 87 66 88 59 89 61 90 67 91 60 92 62 93 63 94 64 95
REMARK SMILES IDX 65 96
REMARK H PARENT 87 49 55 60
REMARK Flexibility Score: inf
ROOT
ATOM      1  C   UNL A   1      35.901  19.976  25.012  1.00  0.00     0.202 C 
ENDROOT
BRANCH   1   2
ATOM      2  O   UNL A   1      34.996  21.046  24.724  1.00  0.00    -0.374 OA
BRANCH   2   3
ATOM      3  C   UNL A   1      33.649  20.905  25.169  1.00  0.00     0.202 C 
BRANCH   3   4
ATOM      4  C   UNL A   1      32.559  21.087  24.110  1.00  0.00     0.261 C 
BRANCH   4   5
ATOM      5  O   UNL A   1      31.948  22.384  24.196  1.00  0.00    -0.460 OA
BRANCH   5   6
ATOM      6  C   UNL A   1      32.500  23.321  23.392  1.00  0.00     0.338 C 
ATOM      7  O   UNL A   1      33.161  23.125  22.383  1.00  0.00    -0.246 OA
BRANCH   6   8
ATOM      8  C   UNL A   1      32.086  24.666  23.832  1.00  0.00     0.087 C 
ATOM      9  C   UNL A   1      31.722  29.322  25.987  1.00  0.00     0.048 C 
ATOM     10  C   UNL A   1      31.238  28.657  24.726  1.00  0.00    -0.005 A 
ATOM     11  C   UNL A   1      30.625  29.456  23.739  1.00  0.00     0.054 A 
ATOM     12  C   UNL A   1      31.451  27.293  24.475  1.00  0.00     0.131 A 
ATOM     13  C   UNL A   1      30.207  28.901  22.530  1.00  0.00     0.130 A 
ATOM     14  C   UNL A   1      31.060  26.746  23.252  1.00  0.00     0.021 A 
ATOM     15  O   UNL A   1      32.036  26.550  25.462  1.00  0.00    -0.475 OA
ATOM     16  C   UNL A   1      30.420  27.543  22.298  1.00  0.00     0.058 A 
ATOM     17  C   UNL A   1      31.382  25.368  22.935  1.00  0.00     0.027 C 
ATOM     18  C   UNL A   1      32.478  25.192  25.185  1.00  0.00     0.316 C 
BRANCH  13  19
ATOM     19  O   UNL A   1      29.600  29.555  21.496  1.00  0.00    -0.406 OA
BRANCH  19  20
ATOM     20  C   UNL A   1      28.449  30.326  21.786  1.00  0.00     0.573 C 
ATOM     21  F   UNL A   1      27.637  29.684  22.653  1.00  0.00    -0.132 F 
ATOM     22  F   UNL A   1      28.780  31.536  22.286  1.00  0.00    -0.132 F 
ATOM     23  F   UNL A   1      27.763  30.523  20.638  1.00  0.00    -0.132 F 
ENDBRANCH  19  20
ENDBRANCH  13  19
BRANCH  18  24
ATOM     24  C   UNL A   1      33.994  25.124  25.430  1.00  0.00     0.430 C 
ATOM     25  F   UNL A   1      34.677  25.123  24.263  1.00  0.00    -0.167 F 
ATOM     26  F   UNL A   1      34.435  26.183  26.146  1.00  0.00    -0.167 F 
ATOM     27  F   UNL A   1      34.339  24.005  26.107  1.00  0.00    -0.167 F 
ENDBRANCH  18  24
ENDBRANCH   6   8
ENDBRANCH   5   6
ENDBRANCH   4   5
ENDBRANCH   3   4
ENDBRANCH   2   3
ENDBRANCH   1   2
BRANCH   1  28
ATOM     28  C   UNL A   1      37.379  20.206  24.676  1.00  0.00     0.261 C 
BRANCH  28  29
ATOM     29  O   UNL A   1      37.921  21.339  25.381  1.00  0.00    -0.460 OA
BRANCH  29  30
ATOM     30  C   UNL A   1      39.089  21.105  26.023  1.00  0.00     0.338 C 
ATOM     31  O   UNL A   1      39.771  20.091  25.973  1.00  0.00    -0.246 OA
BRANCH  30  32
ATOM     32  C   UNL A   1      39.557  22.336  26.680  1.00  0.00     0.060 A 
ATOM     33  C   UNL A   1      38.983  23.550  26.281  1.00  0.00     0.016 A 
ATOM     34  C   UNL A   1      40.622  22.312  27.581  1.00  0.00     0.016 A 
ATOM     35  C   UNL A   1      39.506  24.754  26.746  1.00  0.00     0.010 A 
ATOM     36  C   UNL A   1      41.159  23.521  28.031  1.00  0.00     0.010 A 
ATOM     37  C   UNL A   1      40.628  24.744  27.583  1.00  0.00    -0.014 A 
BRANCH  37  38
ATOM     38  C   UNL A   1      41.356  26.007  27.838  1.00  0.00     0.031 A 
ATOM     39  C   UNL A   1      40.654  27.106  28.586  1.00  0.00     0.074 A 
ATOM     40  C   UNL A   1      42.622  26.170  27.417  1.00  0.00     0.049 A 
ATOM     41  N   UNL A   1      41.087  28.298  28.898  1.00  0.00    -0.248 NA
ATOM     42  C   UNL A   1      39.284  26.823  29.049  1.00  0.00     0.031 C 
ATOM     43  C   UNL A   1      43.411  25.169  26.703  1.00  0.00     0.029 A 
ATOM     44  N   UNL A   1      43.459  27.252  27.520  1.00  0.00    -0.354 N 
ATOM     45  C   UNL A   1      40.042  28.914  29.576  1.00  0.00     0.074 A 
ATOM     46  C   UNL A   1      38.950  27.968  29.628  1.00  0.00     0.031 C 
ATOM     47  C   UNL A   1      44.613  25.693  26.409  1.00  0.00     0.029 A 
ATOM     48  C   UNL A   1      44.671  27.069  26.900  1.00  0.00     0.049 A 
ATOM     49  H   UNL A   1      43.215  28.080  27.994  1.00  0.00     0.167 HD
ATOM     50  C   UNL A   1      40.003  30.151  30.119  1.00  0.00     0.034 A 
ATOM     51  C   UNL A   1      45.703  27.920  26.736  1.00  0.00     0.034 A 
ATOM     52  C   UNL A   1      41.093  31.084  30.085  1.00  0.00     0.049 A 
ATOM     53  C   UNL A   1      45.619  29.307  27.315  1.00  0.00     0.074 A 
ATOM     54  C   UNL A   1      41.154  32.350  30.638  1.00  0.00     0.029 A 
ATOM     55  N   UNL A   1      42.307  30.856  29.459  1.00  0.00    -0.354 N 
ATOM     56  N   UNL A   1      44.657  29.844  28.026  1.00  0.00    -0.248 NA
ATOM     57  C   UNL A   1      46.769  30.197  27.092  1.00  0.00     0.031 C 
ATOM     58  C   UNL A   1      42.407  32.894  30.338  1.00  0.00     0.029 A 
ATOM     59  C   UNL A   1      43.125  31.960  29.607  1.00  0.00     0.049 A 
ATOM     60  H   UNL A   1      42.552  30.031  28.982  1.00  0.00     0.167 HD
ATOM     61  C   UNL A   1      45.094  31.122  28.356  1.00  0.00     0.074 A 
ATOM     62  C   UNL A   1      46.411  31.278  27.775  1.00  0.00     0.031 C 
ATOM     63  C   UNL A   1      44.454  32.082  29.066  1.00  0.00     0.034 A 
BRANCH  50  64
ATOM     64  C   UNL A   1      38.752  30.561  30.843  1.00  0.00     0.023 A 
ATOM     65  C   UNL A   1      38.667  30.356  32.233  1.00  0.00     0.012 A 
ATOM     66  C   UNL A   1      37.710  31.224  30.169  1.00  0.00     0.148 A 
ATOM     67  C   UNL A   1      37.556  30.801  32.946  1.00  0.00     0.002 A 
ATOM     68  C   UNL A   1      36.617  31.689  30.890  1.00  0.00     0.091 A 
ATOM     69  F   UNL A   1      37.810  31.389  28.843  1.00  0.00    -0.205 F 
ATOM     70  C   UNL A   1      36.537  31.476  32.277  1.00  0.00     0.022 A 
BRANCH  68  71
ATOM     71  S   UNL A   1      35.273  32.612  30.136  1.00  0.00     0.127 S 
ATOM     72  O   UNL A   1      34.322  32.705  31.244  1.00  0.00    -0.237 OA
ATOM     73  O   UNL A   1      35.926  33.872  29.785  1.00  0.00    -0.237 OA
ATOM     74  O   UNL A   1      34.823  31.816  29.002  1.00  0.00    -0.744 OA
ENDBRANCH  68  71
ENDBRANCH  50  64
BRANCH  51  75
ATOM     75  C   UNL A   1      46.924  27.460  26.022  1.00  0.00     0.023 A 
ATOM     76  C   UNL A   1      47.845  26.638  26.698  1.00  0.00     0.012 A 
ATOM     77  C   UNL A   1      47.144  27.782  24.670  1.00  0.00     0.148 A 
ATOM     78  C   UNL A   1      48.973  26.149  26.038  1.00  0.00     0.002 A 
ATOM     79  C   UNL A   1      48.249  27.261  24.008  1.00  0.00     0.091 A 
ATOM     80  F   UNL A   1      46.253  28.571  24.054  1.00  0.00    -0.205 F 
ATOM     81  C   UNL A   1      49.170  26.452  24.693  1.00  0.00     0.022 A 
BRANCH  79  82
ATOM     82  S   UNL A   1      48.543  27.517  22.254  1.00  0.00     0.127 S 
ATOM     83  O   UNL A   1      49.756  28.331  22.270  1.00  0.00    -0.237 OA
ATOM     84  O   UNL A   1      48.726  26.146  21.781  1.00  0.00    -0.237 OA
ATOM     85  O   UNL A   1      47.352  28.184  21.746  1.00  0.00    -0.744 OA
ENDBRANCH  79  82
ENDBRANCH  51  75
BRANCH  63  86
ATOM     86  C   UNL A   1      45.153  33.395  29.282  1.00  0.00     0.023 A 
ATOM     87  C   UNL A   1      45.996  33.551  30.399  1.00  0.00     0.012 A 
ATOM     88  C   UNL A   1      45.092  34.409  28.305  1.00  0.00     0.148 A 
ATOM     89  C   UNL A   1      46.769  34.702  30.543  1.00  0.00     0.002 A 
ATOM     90  C   UNL A   1      45.890  35.539  28.440  1.00  0.00     0.091 A 
ATOM     91  F   UNL A   1      44.277  34.235  27.256  1.00  0.00    -0.205 F 
ATOM     92  C   UNL A   1      46.727  35.689  29.559  1.00  0.00     0.022 A 
BRANCH  90  93
ATOM     93  S   UNL A   1      45.968  36.825  27.188  1.00  0.00     0.127 S 
ATOM     94  O   UNL A   1      44.579  37.282  27.145  1.00  0.00    -0.237 OA
ATOM     95  O   UNL A   1      46.906  37.777  27.780  1.00  0.00    -0.237 OA
ATOM     96  O   UNL A   1      46.444  36.178  25.972  1.00  0.00    -0.744 OA
ENDBRANCH  90  93
ENDBRANCH  63  86
ENDBRANCH  37  38
ENDBRANCH  30  32
ENDBRANCH  29  30
ENDBRANCH  28  29
ENDBRANCH   1  28
TORSDOF 20
ENDMDL
MODEL 2
REMARK VINA RESULT:     -12.1      5.042     10.265
REMARK SMILES Cc1cc(OC(F)(F)F)cc2c1O[C@H](C(F)(F)F)C(C(=O)OCCOCCOC(=O)c1ccc(-c3c4nc(c(-c5cccc(S(=O)(=O)[O-])c5F)c5ccc([nH]5)c(-c5cccc(S(=O)(=O)[O-])c5F)c5nc(c(-c6cccc(S(=O)(=O)[O-])c6F)c6ccc3[nH]6)C=C5)C=C4)cc1)=C2
REMARK SMILES IDX 26 1 25 2 24 3 23 4 22 5 20 6 21 7 19 8 1 9 2 10 3 11 12 12
REMARK SMILES IDX 4 13 11 14 13 15 10 16 94 17 14 18 5 19 6 20 7 21 8 22 9 23
REMARK SMILES IDX 15 24 16 25 17 26 18 27 27 28 28 29 29 30 30 31 31 32 32 33
REMARK SMILES IDX 93 34 33 35 92 36 34 37 35 38 36 39 86 40 37 41 91 42 85 43
REMARK SMILES IDX 87 44 38 45 90 46 84 47 83 48 39 50 71 51 51 52 70 53 52 54
REMARK SMILES IDX 55 55 69 56 88 57 53 58 54 59 68 61 89 62 56 63 40 64 41 65
REMARK SMILES IDX 49 66 42 67 44 68 50 69 43 70 45 71 46 72 47 73 48 74 72 75
REMARK SMILES IDX 73 76 81 77 74 78 76 79 82 80 75 81 77 82 78 83 79 84 80 85
REMARK SMILES IDX 57 86 58 87 66 88 59 89 61 90 67 91 60 92 62 93 63 94 64 95
REMARK SMILES IDX 65 96
REMARK H PARENT 87 49 55 60
REMARK Flexibility Score: inf
ROOT
ATOM      1  C   UNL A   1      31.302  29.568  24.968  1.00  0.00     0.202 C 
ENDROOT
BRANCH   1   2
ATOM      2  O   UNL A   1      30.244  29.583  24.005  1.00  0.00    -0.374 OA
BRANCH   2   3
ATOM      3  C   UNL A   1      30.291  28.609  22.964  1.00  0.00     0.202 C 
BRANCH   3   4
ATOM      4  C   UNL A   1      31.683  28.150  22.524  1.00  0.00     0.261 C 
BRANCH   4   5
ATOM      5  O   UNL A   1      31.791  26.718  22.520  1.00  0.00    -0.460 OA
BRANCH   5   6
ATOM      6  C   UNL A   1      33.031  26.247  22.256  1.00  0.00     0.338 C 
ATOM      7  O   UNL A   1      33.809  26.663  21.410  1.00  0.00    -0.246 OA
BRANCH   6   8
ATOM      8  C   UNL A   1      33.394  25.209  23.238  1.00  0.00     0.087 C 
ATOM      9  C   UNL A   1      34.657  22.549  27.455  1.00  0.00     0.048 C 
ATOM     10  C   UNL A   1      33.933  22.277  26.163  1.00  0.00    -0.005 A 
ATOM     11  C   UNL A   1      33.271  21.041  26.013  1.00  0.00     0.054 A 
ATOM     12  C   UNL A   1      33.833  23.241  25.149  1.00  0.00     0.131 A 
ATOM     13  C   UNL A   1      32.541  20.759  24.859  1.00  0.00     0.130 A 
ATOM     14  C   UNL A   1      33.078  22.968  24.008  1.00  0.00     0.021 A 
ATOM     15  O   UNL A   1      34.502  24.420  25.326  1.00  0.00    -0.475 OA
ATOM     16  C   UNL A   1      32.457  21.724  23.856  1.00  0.00     0.058 A 
ATOM     17  C   UNL A   1      32.869  23.999  23.009  1.00  0.00     0.027 C 
ATOM     18  C   UNL A   1      34.264  25.534  24.420  1.00  0.00     0.316 C 
BRANCH  13  19
ATOM     19  O   UNL A   1      31.858  19.608  24.584  1.00  0.00    -0.406 OA
BRANCH  19  20
ATOM     20  C   UNL A   1      32.601  18.489  24.138  1.00  0.00     0.573 C 
ATOM     21  F   UNL A   1      33.915  18.783  24.040  1.00  0.00    -0.132 F 
ATOM     22  F   UNL A   1      32.433  17.430  24.957  1.00  0.00    -0.132 F 
ATOM     23  F   UNL A   1      32.159  18.141  22.909  1.00  0.00    -0.132 F 
ENDBRANCH  19  20
ENDBRANCH  13  19
BRANCH  18  24
ATOM     24  C   UNL A   1      33.726  26.713  25.245  1.00  0.00     0.430 C 
ATOM     25  F   UNL A   1      32.384  26.635  25.390  1.00  0.00    -0.167 F 
ATOM     26  F   UNL A   1      34.259  26.742  26.488  1.00  0.00    -0.167 F 
ATOM     27  F   UNL A   1      34.005  27.900  24.657  1.00  0.00    -0.167 F 
ENDBRANCH  18  24
ENDBRANCH   6   8
ENDBRANCH   5   6
ENDBRANCH   4   5
ENDBRANCH   3   4
ENDBRANCH   2   3
ENDBRANCH   1   2
BRANCH   1  28
ATOM     28  C   UNL A   1      31.457  30.813  25.850  1.00  0.00     0.261 C 
BRANCH  28  29
ATOM     29  O   UNL A   1      32.417  30.609  26.904  1.00  0.00    -0.460 OA
BRANCH  29  30
ATOM     30  C   UNL A   1      33.124  31.710  27.252  1.00  0.00     0.338 C 
ATOM     31  O   UNL A   1      32.702  32.852  27.374  1.00  0.00    -0.246 OA
BRANCH  30  32
ATOM     32  C   UNL A   1      34.485  31.325  27.659  1.00  0.00     0.060 A 
ATOM     33  C   UNL A   1      34.731  29.971  27.924  1.00  0.00     0.016 A 
ATOM     34  C   UNL A   1      35.466  32.289  27.892  1.00  0.00     0.016 A 
ATOM     35  C   UNL A   1      35.950  29.581  28.473  1.00  0.00     0.010 A 
ATOM     36  C   UNL A   1      36.681  31.897  28.462  1.00  0.00     0.010 A 
ATOM     37  C   UNL A   1      36.909  30.549  28.790  1.00  0.00    -0.014 A 
BRANCH  37  38
ATOM     38  C   UNL A   1      38.068  30.176  29.631  1.00  0.00     0.031 A 
ATOM     39  C   UNL A   1      39.077  29.206  29.081  1.00  0.00     0.074 A 
ATOM     40  C   UNL A   1      38.224  30.697  30.860  1.00  0.00     0.049 A 
ATOM     41  N   UNL A   1      40.149  28.722  29.648  1.00  0.00    -0.248 NA
ATOM     42  C   UNL A   1      38.850  28.721  27.708  1.00  0.00     0.031 C 
ATOM     43  C   UNL A   1      37.325  31.662  31.489  1.00  0.00     0.029 A 
ATOM     44  N   UNL A   1      39.194  30.470  31.804  1.00  0.00    -0.354 N 
ATOM     45  C   UNL A   1      40.715  27.864  28.714  1.00  0.00     0.074 A 
ATOM     46  C   UNL A   1      39.868  27.888  27.542  1.00  0.00     0.031 C 
ATOM     47  C   UNL A   1      37.772  31.927  32.729  1.00  0.00     0.029 A 
ATOM     48  C   UNL A   1      38.978  31.140  32.984  1.00  0.00     0.049 A 
ATOM     49  H   UNL A   1      39.970  29.885  31.651  1.00  0.00     0.167 HD
ATOM     50  C   UNL A   1      41.848  27.133  28.817  1.00  0.00     0.034 A 
ATOM     51  C   UNL A   1      39.667  31.109  34.141  1.00  0.00     0.034 A 
ATOM     52  C   UNL A   1      42.701  27.123  29.972  1.00  0.00     0.049 A 
ATOM     53  C   UNL A   1      40.904  30.257  34.246  1.00  0.00     0.074 A 
ATOM     54  C   UNL A   1      43.888  26.438  30.154  1.00  0.00     0.029 A 
ATOM     55  N   UNL A   1      42.455  27.825  31.140  1.00  0.00    -0.354 N 
ATOM     56  N   UNL A   1      41.472  29.518  33.324  1.00  0.00    -0.248 NA
ATOM     57  C   UNL A   1      41.607  30.252  35.537  1.00  0.00     0.031 C 
ATOM     58  C   UNL A   1      44.357  26.718  31.440  1.00  0.00     0.029 A 
ATOM     59  C   UNL A   1      43.465  27.585  32.052  1.00  0.00     0.049 A 
ATOM     60  H   UNL A   1      41.677  28.408  31.297  1.00  0.00     0.167 HD
ATOM     61  C   UNL A   1      42.610  28.979  33.914  1.00  0.00     0.074 A 
ATOM     62  C   UNL A   1      42.657  29.484  35.271  1.00  0.00     0.031 C 
ATOM     63  C   UNL A   1      43.525  28.135  33.381  1.00  0.00     0.034 A 
BRANCH  50  64
ATOM     64  C   UNL A   1      42.265  26.312  27.631  1.00  0.00     0.023 A 
ATOM     65  C   UNL A   1      43.084  26.898  26.646  1.00  0.00     0.012 A 
ATOM     66  C   UNL A   1      41.926  24.950  27.538  1.00  0.00     0.148 A 
ATOM     67  C   UNL A   1      43.556  26.138  25.577  1.00  0.00     0.002 A 
ATOM     68  C   UNL A   1      42.422  24.192  26.484  1.00  0.00     0.091 A 
ATOM     69  F   UNL A   1      41.131  24.424  28.480  1.00  0.00    -0.205 F 
ATOM     70  C   UNL A   1      43.234  24.784  25.502  1.00  0.00     0.022 A 
BRANCH  68  71
ATOM     71  S   UNL A   1      42.110  22.431  26.318  1.00  0.00     0.127 S 
ATOM     72  O   UNL A   1      40.648  22.396  26.254  1.00  0.00    -0.237 OA
ATOM     73  O   UNL A   1      42.783  22.117  25.059  1.00  0.00    -0.237 OA
ATOM     74  O   UNL A   1      42.690  21.805  27.498  1.00  0.00    -0.744 OA
ENDBRANCH  68  71
ENDBRANCH  50  64
BRANCH  51  75
ATOM     75  C   UNL A   1      39.219  31.953  35.282  1.00  0.00     0.023 A 
ATOM     76  C   UNL A   1      38.320  31.416  36.222  1.00  0.00     0.012 A 
ATOM     77  C   UNL A   1      39.722  33.254  35.468  1.00  0.00     0.148 A 
ATOM     78  C   UNL A   1      37.923  32.165  37.329  1.00  0.00     0.002 A 
ATOM     79  C   UNL A   1      39.351  33.982  36.593  1.00  0.00     0.091 A 
ATOM     80  F   UNL A   1      40.572  33.742  34.554  1.00  0.00    -0.205 F 
ATOM     81  C   UNL A   1      38.444  33.443  37.519  1.00  0.00     0.022 A 
BRANCH  79  82
ATOM     82  S   UNL A   1      40.038  35.597  36.976  1.00  0.00     0.127 S 
ATOM     83  O   UNL A   1      41.472  35.319  36.980  1.00  0.00    -0.237 OA
ATOM     84  O   UNL A   1      39.567  36.395  35.844  1.00  0.00    -0.237 OA
ATOM     85  O   UNL A   1      39.472  35.973  38.264  1.00  0.00    -0.744 OA
ENDBRANCH  79  82
ENDBRANCH  51  75
BRANCH  63  86
ATOM     86  C   UNL A   1      44.677  27.695  34.242  1.00  0.00     0.023 A 
ATOM     87  C   UNL A   1      45.826  28.504  34.321  1.00  0.00     0.012 A 
ATOM     88  C   UNL A   1      44.556  26.569  35.081  1.00  0.00     0.148 A 
ATOM     89  C   UNL A   1      46.844  28.196  35.222  1.00  0.00     0.002 A 
ATOM     90  C   UNL A   1      45.560  26.288  36.000  1.00  0.00     0.091 A 
ATOM     91  F   UNL A   1      43.453  25.814  34.980  1.00  0.00    -0.205 F 
ATOM     92  C   UNL A   1      46.706  27.098  36.070  1.00  0.00     0.022 A 
BRANCH  90  93
ATOM     93  S   UNL A   1      45.438  24.947  37.189  1.00  0.00     0.127 S 
ATOM     94  O   UNL A   1      46.845  24.704  37.508  1.00  0.00    -0.237 OA
ATOM     95  O   UNL A   1      44.664  25.559  38.267  1.00  0.00    -0.237 OA
ATOM     96  O   UNL A   1      44.764  23.855  36.499  1.00  0.00    -0.744 OA
ENDBRANCH  90  93
ENDBRANCH  63  86
ENDBRANCH  37  38
ENDBRANCH  30  32
ENDBRANCH  29  30
ENDBRANCH  28  29
ENDBRANCH   1  28
TORSDOF 20
ENDMDL
MODEL 3
REMARK VINA RESULT:     -12.0      5.036      8.095
REMARK SMILES Cc1cc(OC(F)(F)F)cc2c1O[C@H](C(F)(F)F)C(C(=O)OCCOCCOC(=O)c1ccc(-c3c4nc(c(-c5cccc(S(=O)(=O)[O-])c5F)c5ccc([nH]5)c(-c5cccc(S(=O)(=O)[O-])c5F)c5nc(c(-c6cccc(S(=O)(=O)[O-])c6F)c6ccc3[nH]6)C=C5)C=C4)cc1)=C2
REMARK SMILES IDX 26 1 25 2 24 3 23 4 22 5 20 6 21 7 19 8 1 9 2 10 3 11 12 12
REMARK SMILES IDX 4 13 11 14 13 15 10 16 94 17 14 18 5 19 6 20 7 21 8 22 9 23
REMARK SMILES IDX 15 24 16 25 17 26 18 27 27 28 28 29 29 30 30 31 31 32 32 33
REMARK SMILES IDX 93 34 33 35 92 36 34 37 35 38 36 39 86 40 37 41 91 42 85 43
REMARK SMILES IDX 87 44 38 45 90 46 84 47 83 48 39 50 71 51 51 52 70 53 52 54
REMARK SMILES IDX 55 55 69 56 88 57 53 58 54 59 68 61 89 62 56 63 40 64 41 65
REMARK SMILES IDX 49 66 42 67 44 68 50 69 43 70 45 71 46 72 47 73 48 74 72 75
REMARK SMILES IDX 73 76 81 77 74 78 76 79 82 80 75 81 77 82 78 83 79 84 80 85
REMARK SMILES IDX 57 86 58 87 66 88 59 89 61 90 67 91 60 92 62 93 63 94 64 95
REMARK SMILES IDX 65 96
REMARK H PARENT 87 49 55 60
REMARK Flexibility Score: inf
ROOT
ATOM      1  C   UNL A   1      31.385  29.015  25.267  1.00  0.00     0.202 C 
ENDROOT
BRANCH   1   2
ATOM      2  O   UNL A   1      30.982  28.948  23.896  1.00  0.00    -0.374 OA
BRANCH   2   3
ATOM      3  C   UNL A   1      30.495  27.696  23.415  1.00  0.00     0.202 C 
BRANCH   3   4
ATOM      4  C   UNL A   1      31.131  27.167  22.128  1.00  0.00     0.261 C 
BRANCH   4   5
ATOM      5  O   UNL A   1      31.408  25.761  22.212  1.00  0.00    -0.460 OA
BRANCH   5   6
ATOM      6  C   UNL A   1      32.647  25.405  21.804  1.00  0.00     0.338 C 
ATOM      7  O   UNL A   1      33.287  25.896  20.885  1.00  0.00    -0.246 OA
BRANCH   6   8
ATOM      8  C   UNL A   1      33.207  24.395  22.721  1.00  0.00     0.087 C 
ATOM      9  C   UNL A   1      35.238  21.841  26.697  1.00  0.00     0.048 C 
ATOM     10  C   UNL A   1      34.332  21.523  25.537  1.00  0.00    -0.005 A 
ATOM     11  C   UNL A   1      33.709  20.258  25.500  1.00  0.00     0.054 A 
ATOM     12  C   UNL A   1      34.030  22.470  24.547  1.00  0.00     0.131 A 
ATOM     13  C   UNL A   1      32.818  19.931  24.478  1.00  0.00     0.130 A 
ATOM     14  C   UNL A   1      33.116  22.152  23.542  1.00  0.00     0.021 A 
ATOM     15  O   UNL A   1      34.665  23.678  24.610  1.00  0.00    -0.475 OA
ATOM     16  C   UNL A   1      32.534  20.881  23.497  1.00  0.00     0.058 A 
ATOM     17  C   UNL A   1      32.706  23.160  22.584  1.00  0.00     0.027 C 
ATOM     18  C   UNL A   1      34.238  24.770  23.748  1.00  0.00     0.316 C 
BRANCH  13  19
ATOM     19  O   UNL A   1      32.152  18.750  24.321  1.00  0.00    -0.406 OA
BRANCH  19  20
ATOM     20  C   UNL A   1      32.750  17.757  23.508  1.00  0.00     0.573 C 
ATOM     21  F   UNL A   1      32.581  16.526  24.038  1.00  0.00    -0.132 F 
ATOM     22  F   UNL A   1      32.252  17.783  22.254  1.00  0.00    -0.132 F 
ATOM     23  F   UNL A   1      34.078  18.001  23.435  1.00  0.00    -0.132 F 
ENDBRANCH  19  20
ENDBRANCH  13  19
BRANCH  18  24
ATOM     24  C   UNL A   1      33.786  25.935  24.642  1.00  0.00     0.430 C 
ATOM     25  F   UNL A   1      34.535  26.007  25.766  1.00  0.00    -0.167 F 
ATOM     26  F   UNL A   1      33.902  27.127  24.013  1.00  0.00    -0.167 F 
ATOM     27  F   UNL A   1      32.494  25.801  25.021  1.00  0.00    -0.167 F 
ENDBRANCH  18  24
ENDBRANCH   6   8
ENDBRANCH   5   6
ENDBRANCH   4   5
ENDBRANCH   3   4
ENDBRANCH   2   3
ENDBRANCH   1   2
BRANCH   1  28
ATOM     28  C   UNL A   1      31.781  30.394  25.808  1.00  0.00     0.261 C 
BRANCH  28  29
ATOM     29  O   UNL A   1      32.544  30.295  27.026  1.00  0.00    -0.460 OA
BRANCH  29  30
ATOM     30  C   UNL A   1      33.299  31.381  27.316  1.00  0.00     0.338 C 
ATOM     31  O   UNL A   1      32.914  32.533  27.455  1.00  0.00    -0.246 OA
BRANCH  30  32
ATOM     32  C   UNL A   1      34.674  30.966  27.635  1.00  0.00     0.060 A 
ATOM     33  C   UNL A   1      34.952  29.593  27.672  1.00  0.00     0.016 A 
ATOM     34  C   UNL A   1      35.640  31.901  28.007  1.00  0.00     0.016 A 
ATOM     35  C   UNL A   1      36.188  29.147  28.132  1.00  0.00     0.010 A 
ATOM     36  C   UNL A   1      36.873  31.450  28.487  1.00  0.00     0.010 A 
ATOM     37  C   UNL A   1      37.134  30.072  28.588  1.00  0.00    -0.014 A 
BRANCH  37  38
ATOM     38  C   UNL A   1      38.315  29.593  29.341  1.00  0.00     0.031 A 
ATOM     39  C   UNL A   1      38.549  30.122  30.729  1.00  0.00     0.074 A 
ATOM     40  C   UNL A   1      39.160  28.698  28.801  1.00  0.00     0.049 A 
ATOM     41  N   UNL A   1      39.526  29.862  31.556  1.00  0.00    -0.248 NA
ATOM     42  C   UNL A   1      37.547  31.065  31.257  1.00  0.00     0.031 C 
ATOM     43  C   UNL A   1      39.023  28.100  27.475  1.00  0.00     0.029 A 
ATOM     44  N   UNL A   1      40.313  28.150  29.305  1.00  0.00    -0.354 N 
ATOM     45  C   UNL A   1      39.269  30.619  32.693  1.00  0.00     0.074 A 
ATOM     46  C   UNL A   1      38.047  31.353  32.451  1.00  0.00     0.031 C 
ATOM     47  C   UNL A   1      40.068  27.283  27.258  1.00  0.00     0.029 A 
ATOM     48  C   UNL A   1      40.953  27.315  28.423  1.00  0.00     0.049 A 
ATOM     49  H   UNL A   1      40.648  28.337  30.211  1.00  0.00     0.167 HD
ATOM     50  C   UNL A   1      39.980  30.684  33.840  1.00  0.00     0.034 A 
ATOM     51  C   UNL A   1      42.126  26.662  28.537  1.00  0.00     0.034 A 
ATOM     52  C   UNL A   1      41.183  29.941  34.090  1.00  0.00     0.049 A 
ATOM     53  C   UNL A   1      42.920  26.781  29.810  1.00  0.00     0.074 A 
ATOM     54  C   UNL A   1      41.954  29.920  35.237  1.00  0.00     0.029 A 
ATOM     55  N   UNL A   1      41.792  29.096  33.176  1.00  0.00    -0.354 N 
ATOM     56  N   UNL A   1      42.621  27.434  30.907  1.00  0.00    -0.248 NA
ATOM     57  C   UNL A   1      44.200  26.059  29.872  1.00  0.00     0.031 C 
ATOM     58  C   UNL A   1      43.038  29.066  35.015  1.00  0.00     0.029 A 
ATOM     59  C   UNL A   1      42.933  28.551  33.732  1.00  0.00     0.049 A 
ATOM     60  H   UNL A   1      41.460  28.911  32.268  1.00  0.00     0.167 HD
ATOM     61  C   UNL A   1      43.659  27.183  31.797  1.00  0.00     0.074 A 
ATOM     62  C   UNL A   1      44.593  26.309  31.116  1.00  0.00     0.031 C 
ATOM     63  C   UNL A   1      43.826  27.643  33.059  1.00  0.00     0.034 A 
BRANCH  50  64
ATOM     64  C   UNL A   1      39.455  31.558  34.943  1.00  0.00     0.023 A 
ATOM     65  C   UNL A   1      38.479  31.043  35.819  1.00  0.00     0.012 A 
ATOM     66  C   UNL A   1      39.987  32.841  35.166  1.00  0.00     0.148 A 
ATOM     67  C   UNL A   1      38.033  31.798  36.902  1.00  0.00     0.002 A 
ATOM     68  C   UNL A   1      39.558  33.577  36.263  1.00  0.00     0.091 A 
ATOM     69  F   UNL A   1      40.901  33.311  34.307  1.00  0.00    -0.205 F 
ATOM     70  C   UNL A   1      38.580  33.060  37.130  1.00  0.00     0.022 A 
BRANCH  68  71
ATOM     71  S   UNL A   1      40.229  35.191  36.677  1.00  0.00     0.127 S 
ATOM     72  O   UNL A   1      39.286  36.084  36.004  1.00  0.00    -0.237 OA
ATOM     73  O   UNL A   1      40.138  35.196  38.136  1.00  0.00    -0.237 OA
ATOM     74  O   UNL A   1      41.585  35.212  36.146  1.00  0.00    -0.744 OA
ENDBRANCH  68  71
ENDBRANCH  50  64
BRANCH  51  75
ATOM     75  C   UNL A   1      42.594  25.799  27.419  1.00  0.00     0.023 A 
ATOM     76  C   UNL A   1      43.531  26.310  26.502  1.00  0.00     0.012 A 
ATOM     77  C   UNL A   1      42.163  24.464  27.299  1.00  0.00     0.148 A 
ATOM     78  C   UNL A   1      44.027  25.506  25.475  1.00  0.00     0.002 A 
ATOM     79  C   UNL A   1      42.688  23.658  26.296  1.00  0.00     0.091 A 
ATOM     80  F   UNL A   1      41.266  24.006  28.182  1.00  0.00    -0.205 F 
ATOM     81  C   UNL A   1      43.613  24.180  25.377  1.00  0.00     0.022 A 
BRANCH  79  82
ATOM     82  S   UNL A   1      42.290  21.913  26.142  1.00  0.00     0.127 S 
ATOM     83  O   UNL A   1      40.855  21.957  25.869  1.00  0.00    -0.237 OA
ATOM     84  O   UNL A   1      43.122  21.518  25.006  1.00  0.00    -0.237 OA
ATOM     85  O   UNL A   1      42.665  21.307  27.412  1.00  0.00    -0.744 OA
ENDBRANCH  79  82
ENDBRANCH  51  75
BRANCH  63  86
ATOM     86  C   UNL A   1      45.053  27.217  33.818  1.00  0.00     0.023 A 
ATOM     87  C   UNL A   1      46.195  28.038  33.797  1.00  0.00     0.012 A 
ATOM     88  C   UNL A   1      45.017  26.090  34.663  1.00  0.00     0.148 A 
ATOM     89  C   UNL A   1      47.290  27.743  34.607  1.00  0.00     0.002 A 
ATOM     90  C   UNL A   1      46.100  25.820  35.492  1.00  0.00     0.091 A 
ATOM     91  F   UNL A   1      43.918  25.322  34.657  1.00  0.00    -0.205 F 
ATOM     92  C   UNL A   1      47.238  26.644  35.463  1.00  0.00     0.022 A 
BRANCH  90  93
ATOM     93  S   UNL A   1      46.096  24.478  36.686  1.00  0.00     0.127 S 
ATOM     94  O   UNL A   1      45.075  24.926  37.632  1.00  0.00    -0.237 OA
ATOM     95  O   UNL A   1      45.707  23.334  35.863  1.00  0.00    -0.237 OA
ATOM     96  O   UNL A   1      47.449  24.410  37.222  1.00  0.00    -0.744 OA
ENDBRANCH  90  93
ENDBRANCH  63  86
ENDBRANCH  37  38
ENDBRANCH  30  32
ENDBRANCH  29  30
ENDBRANCH  28  29
ENDBRANCH   1  28
TORSDOF 20
ENDMDL
