MODEL 1
REMARK VINA RESULT:      -9.6      0.000      0.000
REMARK SMILES COc1cc(OC)cc(-c2ccc([C@@H](C)C(=O)OCCOCCOC(=O)c3ccc(-c4c5nc(c(-c6cccc(S(=O)(=O)[O-])c6F)c6ccc([nH]6)c(-c6cccc(S(=O)(=O)[O-])c6F)c6nc(c(-c7cccc(S(=O)(=O)[O-])c7F)c7ccc4[nH]7)C=C6)C=C5)cc3)cc2F)c1
REMARK SMILES IDX 21 1 20 2 19 3 18 4 16 5 17 6 14 7 15 8 13 9 10 10 11 11
REMARK SMILES IDX 91 12 12 13 90 14 92 15 9 16 3 17 4 18 93 19 5 20 8 21 2 22
REMARK SMILES IDX 1 23 6 24 7 25 22 26 23 27 24 28 25 29 26 30 27 31 28 32
REMARK SMILES IDX 89 33 29 34 88 35 30 36 31 37 32 38 82 39 33 40 87 41 81 42
REMARK SMILES IDX 83 43 34 44 86 45 80 46 79 47 35 49 67 50 47 51 66 52 48 53
REMARK SMILES IDX 51 54 65 55 84 56 49 57 50 58 64 60 85 61 52 62 36 63 37 64
REMARK SMILES IDX 45 65 38 66 40 67 46 68 39 69 41 70 42 71 43 72 44 73 68 74
REMARK SMILES IDX 69 75 77 76 70 77 72 78 78 79 71 80 73 81 74 82 75 83 76 84
REMARK SMILES IDX 53 85 54 86 62 87 55 88 57 89 63 90 56 91 58 92 59 93 60 94
REMARK SMILES IDX 61 95
REMARK H PARENT 83 48 51 59
REMARK Flexibility Score: inf
ROOT
ATOM      1  O   UNL A   1      32.568  35.321  29.792  1.00  0.00    -0.374 OA
ENDROOT
BRANCH   1   2
ATOM      2  C   UNL A   1      32.767  36.274  30.838  1.00  0.00     0.202 C 
BRANCH   2   3
ATOM      3  C   UNL A   1      32.482  35.781  32.259  1.00  0.00     0.261 C 
BRANCH   3   4
ATOM      4  O   UNL A   1      33.265  34.614  32.568  1.00  0.00    -0.463 OA
BRANCH   4   5
ATOM      5  C   UNL A   1      34.600  34.807  32.711  1.00  0.00     0.313 C 
ATOM      6  O   UNL A   1      35.111  35.821  33.179  1.00  0.00    -0.252 OA
BRANCH   5   7
ATOM      7  C   UNL A   1      35.441  33.645  32.208  1.00  0.00     0.126 C 
ATOM      8  C   UNL A   1      35.553  32.589  33.304  1.00  0.00     0.025 C 
BRANCH   7   9
ATOM      9  C   UNL A   1      36.793  33.969  31.577  1.00  0.00    -0.031 A 
ATOM     10  C   UNL A   1      39.363  34.298  30.371  1.00  0.00     0.018 A 
ATOM     11  C   UNL A   1      39.150  34.589  31.729  1.00  0.00     0.012 A 
ATOM     12  C   UNL A   1      38.249  33.901  29.623  1.00  0.00     0.131 A 
ATOM     13  C   UNL A   1      37.888  34.427  32.323  1.00  0.00     0.005 A 
ATOM     14  C   UNL A   1      36.989  33.736  30.207  1.00  0.00     0.044 A 
ATOM     15  F   UNL A   1      38.376  33.609  28.319  1.00  0.00    -0.206 F 
BRANCH  10  16
ATOM     16  C   UNL A   1      40.720  34.303  29.787  1.00  0.00    -0.008 A 
ATOM     17  C   UNL A   1      42.978  33.401  29.607  1.00  0.00     0.123 A 
ATOM     18  C   UNL A   1      43.334  34.469  28.783  1.00  0.00     0.092 A 
ATOM     19  C   UNL A   1      41.677  33.323  30.112  1.00  0.00     0.055 A 
ATOM     20  C   UNL A   1      42.408  35.454  28.445  1.00  0.00     0.123 A 
ATOM     21  C   UNL A   1      41.105  35.357  28.934  1.00  0.00     0.055 A 
BRANCH  17  22
ATOM     22  O   UNL A   1      44.002  32.538  29.891  1.00  0.00    -0.497 OA
ATOM     23  C   UNL A   1      43.672  31.157  29.942  1.00  0.00     0.278 C 
ENDBRANCH  17  22
BRANCH  20  24
ATOM     24  O   UNL A   1      42.895  36.453  27.650  1.00  0.00    -0.497 OA
ATOM     25  C   UNL A   1      43.259  37.668  28.296  1.00  0.00     0.278 C 
ENDBRANCH  20  24
ENDBRANCH  10  16
ENDBRANCH   7   9
ENDBRANCH   5   7
ENDBRANCH   4   5
ENDBRANCH   3   4
ENDBRANCH   2   3
ENDBRANCH   1   2
BRANCH   1  26
ATOM     26  C   UNL A   1      33.715  34.927  29.040  1.00  0.00     0.202 C 
BRANCH  26  27
ATOM     27  C   UNL A   1      33.547  33.724  28.106  1.00  0.00     0.261 C 
BRANCH  27  28
ATOM     28  O   UNL A   1      34.678  32.836  28.147  1.00  0.00    -0.460 OA
BRANCH  28  29
ATOM     29  C   UNL A   1      34.371  31.522  28.044  1.00  0.00     0.338 C 
ATOM     30  O   UNL A   1      33.312  31.042  27.658  1.00  0.00    -0.246 OA
BRANCH  29  31
ATOM     31  C   UNL A   1      35.563  30.692  28.296  1.00  0.00     0.060 A 
ATOM     32  C   UNL A   1      35.604  29.977  29.500  1.00  0.00     0.016 A 
ATOM     33  C   UNL A   1      36.655  30.677  27.425  1.00  0.00     0.016 A 
ATOM     34  C   UNL A   1      36.759  29.293  29.869  1.00  0.00     0.010 A 
ATOM     35  C   UNL A   1      37.818  29.993  27.801  1.00  0.00     0.010 A 
ATOM     36  C   UNL A   1      37.890  29.336  29.043  1.00  0.00    -0.014 A 
BRANCH  36  37
ATOM     37  C   UNL A   1      39.185  28.826  29.559  1.00  0.00     0.031 A 
ATOM     38  C   UNL A   1      39.811  29.499  30.752  1.00  0.00     0.074 A 
ATOM     39  C   UNL A   1      39.785  27.764  28.992  1.00  0.00     0.049 A 
ATOM     40  N   UNL A   1      40.932  29.221  31.364  1.00  0.00    -0.248 NA
ATOM     41  C   UNL A   1      39.076  30.635  31.332  1.00  0.00     0.031 C 
ATOM     42  C   UNL A   1      39.276  27.021  27.841  1.00  0.00     0.029 A 
ATOM     43  N   UNL A   1      40.968  27.139  29.301  1.00  0.00    -0.354 N 
ATOM     44  C   UNL A   1      41.050  30.158  32.384  1.00  0.00     0.074 A 
ATOM     45  C   UNL A   1      39.894  31.023  32.300  1.00  0.00     0.031 C 
ATOM     46  C   UNL A   1      40.154  26.054  27.522  1.00  0.00     0.029 A 
ATOM     47  C   UNL A   1      41.296  26.122  28.434  1.00  0.00     0.049 A 
ATOM     48  H   UNL A   1      41.527  27.393  30.069  1.00  0.00     0.167 HD
ATOM     49  C   UNL A   1      42.022  30.278  33.319  1.00  0.00     0.034 A 
ATOM     50  C   UNL A   1      42.399  25.349  28.373  1.00  0.00     0.034 A 
ATOM     51  C   UNL A   1      43.159  29.404  33.420  1.00  0.00     0.049 A 
ATOM     52  C   UNL A   1      43.477  25.520  29.412  1.00  0.00     0.074 A 
ATOM     53  C   UNL A   1      44.175  29.421  34.360  1.00  0.00     0.029 A 
ATOM     54  N   UNL A   1      43.436  28.362  32.551  1.00  0.00    -0.354 N 
ATOM     55  N   UNL A   1      43.514  26.333  30.440  1.00  0.00    -0.248 NA
ATOM     56  C   UNL A   1      44.653  24.641  29.304  1.00  0.00     0.031 C 
ATOM     57  C   UNL A   1      45.079  28.401  34.045  1.00  0.00     0.029 A 
ATOM     58  C   UNL A   1      44.611  27.734  32.923  1.00  0.00     0.049 A 
ATOM     59  H   UNL A   1      42.879  28.107  31.780  1.00  0.00     0.167 HD
ATOM     60  C   UNL A   1      44.692  26.038  31.120  1.00  0.00     0.074 A 
ATOM     61  C   UNL A   1      45.331  24.959  30.398  1.00  0.00     0.031 C 
ATOM     62  C   UNL A   1      45.206  26.619  32.233  1.00  0.00     0.034 A 
BRANCH  49  63
ATOM     63  C   UNL A   1      41.881  31.378  34.338  1.00  0.00     0.023 A 
ATOM     64  C   UNL A   1      41.204  31.121  35.548  1.00  0.00     0.012 A 
ATOM     65  C   UNL A   1      42.471  32.640  34.129  1.00  0.00     0.148 A 
ATOM     66  C   UNL A   1      41.095  32.111  36.523  1.00  0.00     0.002 A 
ATOM     67  C   UNL A   1      42.393  33.608  35.122  1.00  0.00     0.091 A 
ATOM     68  F   UNL A   1      43.090  32.869  32.962  1.00  0.00    -0.205 F 
ATOM     69  C   UNL A   1      41.698  33.349  36.315  1.00  0.00     0.022 A 
BRANCH  67  70
ATOM     70  S   UNL A   1      43.200  35.207  34.982  1.00  0.00     0.127 S 
ATOM     71  O   UNL A   1      42.287  35.920  34.089  1.00  0.00    -0.237 OA
ATOM     72  O   UNL A   1      43.191  35.679  36.367  1.00  0.00    -0.237 OA
ATOM     73  O   UNL A   1      44.525  34.941  34.439  1.00  0.00    -0.744 OA
ENDBRANCH  67  70
ENDBRANCH  49  63
BRANCH  50  74
ATOM     74  C   UNL A   1      42.528  24.314  27.309  1.00  0.00     0.023 A 
ATOM     75  C   UNL A   1      43.243  24.609  26.132  1.00  0.00     0.012 A 
ATOM     76  C   UNL A   1      41.951  23.037  27.460  1.00  0.00     0.148 A 
ATOM     77  C   UNL A   1      43.353  23.665  25.111  1.00  0.00     0.002 A 
ATOM     78  C   UNL A   1      42.113  22.082  26.463  1.00  0.00     0.091 A 
ATOM     79  F   UNL A   1      41.256  22.781  28.577  1.00  0.00    -0.205 F 
ATOM     80  C   UNL A   1      42.797  22.399  25.280  1.00  0.00     0.022 A 
BRANCH  78  81
ATOM     81  S   UNL A   1      41.543  20.390  26.658  1.00  0.00     0.127 S 
ATOM     82  O   UNL A   1      42.338  19.935  27.795  1.00  0.00    -0.237 OA
ATOM     83  O   UNL A   1      40.119  20.578  26.937  1.00  0.00    -0.237 OA
ATOM     84  O   UNL A   1      41.820  19.737  25.386  1.00  0.00    -0.744 OA
ENDBRANCH  78  81
ENDBRANCH  50  74
BRANCH  62  85
ATOM     85  C   UNL A   1      46.507  26.080  32.771  1.00  0.00     0.023 A 
ATOM     86  C   UNL A   1      47.721  26.700  32.418  1.00  0.00     0.012 A 
ATOM     87  C   UNL A   1      46.517  25.013  33.690  1.00  0.00     0.148 A 
ATOM     88  C   UNL A   1      48.928  26.247  32.948  1.00  0.00     0.002 A 
ATOM     89  C   UNL A   1      47.718  24.597  34.252  1.00  0.00     0.091 A 
ATOM     90  F   UNL A   1      45.352  24.423  34.001  1.00  0.00    -0.205 F 
ATOM     91  C   UNL A   1      48.926  25.204  33.872  1.00  0.00     0.022 A 
BRANCH  89  92
ATOM     92  S   UNL A   1      47.800  23.327  35.519  1.00  0.00     0.127 S 
ATOM     93  O   UNL A   1      46.898  23.862  36.538  1.00  0.00    -0.237 OA
ATOM     94  O   UNL A   1      47.293  22.149  34.814  1.00  0.00    -0.237 OA
ATOM     95  O   UNL A   1      49.203  23.239  35.907  1.00  0.00    -0.744 OA
ENDBRANCH  89  92
ENDBRANCH  62  85
ENDBRANCH  36  37
ENDBRANCH  29  31
ENDBRANCH  28  29
ENDBRANCH  27  28
ENDBRANCH  26  27
ENDBRANCH   1  26
TORSDOF 21
ENDMDL
MODEL 2
REMARK VINA RESULT:      -9.4      1.351      2.059
REMARK SMILES COc1cc(OC)cc(-c2ccc([C@@H](C)C(=O)OCCOCCOC(=O)c3ccc(-c4c5nc(c(-c6cccc(S(=O)(=O)[O-])c6F)c6ccc([nH]6)c(-c6cccc(S(=O)(=O)[O-])c6F)c6nc(c(-c7cccc(S(=O)(=O)[O-])c7F)c7ccc4[nH]7)C=C6)C=C5)cc3)cc2F)c1
REMARK SMILES IDX 21 1 20 2 19 3 18 4 16 5 17 6 14 7 15 8 13 9 10 10 11 11
REMARK SMILES IDX 91 12 12 13 90 14 92 15 9 16 3 17 4 18 93 19 5 20 8 21 2 22
REMARK SMILES IDX 1 23 6 24 7 25 22 26 23 27 24 28 25 29 26 30 27 31 28 32
REMARK SMILES IDX 89 33 29 34 88 35 30 36 31 37 32 38 82 39 33 40 87 41 81 42
REMARK SMILES IDX 83 43 34 44 86 45 80 46 79 47 35 49 67 50 47 51 66 52 48 53
REMARK SMILES IDX 51 54 65 55 84 56 49 57 50 58 64 60 85 61 52 62 36 63 37 64
REMARK SMILES IDX 45 65 38 66 40 67 46 68 39 69 41 70 42 71 43 72 44 73 68 74
REMARK SMILES IDX 69 75 77 76 70 77 72 78 78 79 71 80 73 81 74 82 75 83 76 84
REMARK SMILES IDX 53 85 54 86 62 87 55 88 57 89 63 90 56 91 58 92 59 93 60 94
REMARK SMILES IDX 61 95
REMARK H PARENT 83 48 51 59
REMARK Flexibility Score: inf
ROOT
ATOM      1  O   UNL A   1      32.946  36.103  29.246  1.00  0.00    -0.374 OA
ENDROOT
BRANCH   1   2
ATOM      2  C   UNL A   1      33.303  36.722  30.485  1.00  0.00     0.202 C 
BRANCH   2   3
ATOM      3  C   UNL A   1      32.710  36.090  31.746  1.00  0.00     0.261 C 
BRANCH   3   4
ATOM      4  O   UNL A   1      33.415  34.887  32.102  1.00  0.00    -0.463 OA
BRANCH   4   5
ATOM      5  C   UNL A   1      34.616  35.052  32.712  1.00  0.00     0.313 C 
ATOM      6  O   UNL A   1      34.956  36.067  33.315  1.00  0.00    -0.252 OA
BRANCH   5   7
ATOM      7  C   UNL A   1      35.545  33.858  32.564  1.00  0.00     0.126 C 
ATOM      8  C   UNL A   1      35.663  33.140  33.906  1.00  0.00     0.025 C 
BRANCH   7   9
ATOM      9  C   UNL A   1      36.904  34.094  31.912  1.00  0.00    -0.031 A 
ATOM     10  C   UNL A   1      39.473  34.255  30.669  1.00  0.00     0.018 A 
ATOM     11  C   UNL A   1      39.296  34.576  32.025  1.00  0.00     0.012 A 
ATOM     12  C   UNL A   1      38.327  33.914  29.941  1.00  0.00     0.131 A 
ATOM     13  C   UNL A   1      38.034  34.496  32.637  1.00  0.00     0.005 A 
ATOM     14  C   UNL A   1      37.068  33.832  30.543  1.00  0.00     0.044 A 
ATOM     15  F   UNL A   1      38.420  33.598  28.640  1.00  0.00    -0.206 F 
BRANCH  10  16
ATOM     16  C   UNL A   1      40.820  34.173  30.069  1.00  0.00    -0.008 A 
ATOM     17  C   UNL A   1      42.579  35.048  28.625  1.00  0.00     0.123 A 
ATOM     18  C   UNL A   1      43.313  33.876  28.816  1.00  0.00     0.092 A 
ATOM     19  C   UNL A   1      41.334  35.192  29.245  1.00  0.00     0.055 A 
ATOM     20  C   UNL A   1      42.828  32.851  29.626  1.00  0.00     0.123 A 
ATOM     21  C   UNL A   1      41.595  33.011  30.259  1.00  0.00     0.055 A 
BRANCH  17  22
ATOM     22  O   UNL A   1      43.157  35.946  27.768  1.00  0.00    -0.497 OA
ATOM     23  C   UNL A   1      42.700  35.926  26.424  1.00  0.00     0.278 C 
ENDBRANCH  17  22
BRANCH  20  24
ATOM     24  O   UNL A   1      43.636  31.752  29.708  1.00  0.00    -0.497 OA
ATOM     25  C   UNL A   1      43.252  30.614  28.944  1.00  0.00     0.278 C 
ENDBRANCH  20  24
ENDBRANCH  10  16
ENDBRANCH   7   9
ENDBRANCH   5   7
ENDBRANCH   4   5
ENDBRANCH   3   4
ENDBRANCH   2   3
ENDBRANCH   1   2
BRANCH   1  26
ATOM     26  C   UNL A   1      33.911  35.238  28.648  1.00  0.00     0.202 C 
BRANCH  26  27
ATOM     27  C   UNL A   1      33.462  33.800  28.363  1.00  0.00     0.261 C 
BRANCH  27  28
ATOM     28  O   UNL A   1      34.434  32.828  28.785  1.00  0.00    -0.460 OA
BRANCH  28  29
ATOM     29  C   UNL A   1      34.294  31.605  28.224  1.00  0.00     0.338 C 
ATOM     30  O   UNL A   1      33.378  31.226  27.504  1.00  0.00    -0.246 OA
BRANCH  29  31
ATOM     31  C   UNL A   1      35.506  30.795  28.443  1.00  0.00     0.060 A 
ATOM     32  C   UNL A   1      35.541  29.988  29.588  1.00  0.00     0.016 A 
ATOM     33  C   UNL A   1      36.619  30.881  27.602  1.00  0.00     0.016 A 
ATOM     34  C   UNL A   1      36.709  29.314  29.933  1.00  0.00     0.010 A 
ATOM     35  C   UNL A   1      37.794  30.206  27.955  1.00  0.00     0.010 A 
ATOM     36  C   UNL A   1      37.857  29.455  29.144  1.00  0.00    -0.014 A 
BRANCH  36  37
ATOM     37  C   UNL A   1      39.155  28.947  29.652  1.00  0.00     0.031 A 
ATOM     38  C   UNL A   1      39.753  29.575  30.884  1.00  0.00     0.074 A 
ATOM     39  C   UNL A   1      39.783  27.924  29.045  1.00  0.00     0.049 A 
ATOM     40  N   UNL A   1      40.872  29.290  31.498  1.00  0.00    -0.248 NA
ATOM     41  C   UNL A   1      38.988  30.668  31.506  1.00  0.00     0.031 C 
ATOM     42  C   UNL A   1      39.304  27.227  27.853  1.00  0.00     0.029 A 
ATOM     43  N   UNL A   1      40.974  27.308  29.340  1.00  0.00    -0.354 N 
ATOM     44  C   UNL A   1      40.958  30.180  32.562  1.00  0.00     0.074 A 
ATOM     45  C   UNL A   1      39.786  31.026  32.503  1.00  0.00     0.031 C 
ATOM     46  C   UNL A   1      40.205  26.293  27.502  1.00  0.00     0.029 A 
ATOM     47  C   UNL A   1      41.333  26.339  28.431  1.00  0.00     0.049 A 
ATOM     48  H   UNL A   1      41.519  27.536  30.127  1.00  0.00     0.167 HD
ATOM     49  C   UNL A   1      41.915  30.274  33.515  1.00  0.00     0.034 A 
ATOM     50  C   UNL A   1      42.451  25.591  28.349  1.00  0.00     0.034 A 
ATOM     51  C   UNL A   1      43.068  29.418  33.591  1.00  0.00     0.049 A 
ATOM     52  C   UNL A   1      43.513  25.733  29.410  1.00  0.00     0.074 A 
ATOM     53  C   UNL A   1      44.072  29.410  34.544  1.00  0.00     0.029 A 
ATOM     54  N   UNL A   1      43.376  28.424  32.677  1.00  0.00    -0.354 N 
ATOM     55  N   UNL A   1      43.521  26.498  30.475  1.00  0.00    -0.248 NA
ATOM     56  C   UNL A   1      44.707  24.883  29.276  1.00  0.00     0.031 C 
ATOM     57  C   UNL A   1      44.999  28.423  34.193  1.00  0.00     0.029 A 
ATOM     58  C   UNL A   1      44.559  27.801  33.035  1.00  0.00     0.049 A 
ATOM     59  H   UNL A   1      42.834  28.194  31.888  1.00  0.00     0.167 HD
ATOM     60  C   UNL A   1      44.695  26.193  31.157  1.00  0.00     0.074 A 
ATOM     61  C   UNL A   1      45.364  25.162  30.394  1.00  0.00     0.031 C 
ATOM     62  C   UNL A   1      45.184  26.731  32.302  1.00  0.00     0.034 A 
BRANCH  49  63
ATOM     63  C   UNL A   1      41.740  31.322  34.582  1.00  0.00     0.023 A 
ATOM     64  C   UNL A   1      41.136  30.971  35.807  1.00  0.00     0.012 A 
ATOM     65  C   UNL A   1      42.229  32.630  34.400  1.00  0.00     0.148 A 
ATOM     66  C   UNL A   1      40.999  31.914  36.824  1.00  0.00     0.002 A 
ATOM     67  C   UNL A   1      42.125  33.552  35.434  1.00  0.00     0.091 A 
ATOM     68  F   UNL A   1      42.779  32.948  33.220  1.00  0.00    -0.205 F 
ATOM     69  C   UNL A   1      41.501  33.199  36.643  1.00  0.00     0.022 A 
BRANCH  67  70
ATOM     70  S   UNL A   1      42.809  35.210  35.326  1.00  0.00     0.127 S 
ATOM     71  O   UNL A   1      42.477  35.752  36.644  1.00  0.00    -0.237 OA
ATOM     72  O   UNL A   1      44.232  34.943  35.118  1.00  0.00    -0.237 OA
ATOM     73  O   UNL A   1      42.139  35.848  34.201  1.00  0.00    -0.744 OA
ENDBRANCH  67  70
ENDBRANCH  49  63
BRANCH  50  74
ATOM     74  C   UNL A   1      42.614  24.609  27.240  1.00  0.00     0.023 A 
ATOM     75  C   UNL A   1      43.320  24.980  26.079  1.00  0.00     0.012 A 
ATOM     76  C   UNL A   1      42.078  23.310  27.332  1.00  0.00     0.148 A 
ATOM     77  C   UNL A   1      43.461  24.087  25.017  1.00  0.00     0.002 A 
ATOM     78  C   UNL A   1      42.271  22.406  26.293  1.00  0.00     0.091 A 
ATOM     79  F   UNL A   1      41.391  22.981  28.434  1.00  0.00    -0.205 F 
ATOM     80  C   UNL A   1      42.946  22.798  25.126  1.00  0.00     0.022 A 
BRANCH  78  81
ATOM     81  S   UNL A   1      41.756  20.690  26.410  1.00  0.00     0.127 S 
ATOM     82  O   UNL A   1      42.524  20.071  25.334  1.00  0.00    -0.237 OA
ATOM     83  O   UNL A   1      42.189  20.333  27.762  1.00  0.00    -0.237 OA
ATOM     84  O   UNL A   1      40.310  20.704  26.234  1.00  0.00    -0.744 OA
ENDBRANCH  78  81
ENDBRANCH  50  74
BRANCH  62  85
ATOM     85  C   UNL A   1      46.488  26.192  32.832  1.00  0.00     0.023 A 
ATOM     86  C   UNL A   1      46.482  25.127  33.752  1.00  0.00     0.012 A 
ATOM     87  C   UNL A   1      47.718  26.688  32.354  1.00  0.00     0.148 A 
ATOM     88  C   UNL A   1      47.680  24.582  34.213  1.00  0.00     0.002 A 
ATOM     89  C   UNL A   1      48.907  26.108  32.781  1.00  0.00     0.091 A 
ATOM     90  F   UNL A   1      47.703  27.715  31.492  1.00  0.00    -0.205 F 
ATOM     91  C   UNL A   1      48.891  25.064  33.719  1.00  0.00     0.022 A 
BRANCH  89  92
ATOM     92  S   UNL A   1      50.506  26.601  32.127  1.00  0.00     0.127 S 
ATOM     93  O   UNL A   1      50.459  26.049  30.774  1.00  0.00    -0.237 OA
ATOM     94  O   UNL A   1      50.434  28.061  32.193  1.00  0.00    -0.237 OA
ATOM     95  O   UNL A   1      51.500  26.007  33.013  1.00  0.00    -0.744 OA
ENDBRANCH  89  92
ENDBRANCH  62  85
ENDBRANCH  36  37
ENDBRANCH  29  31
ENDBRANCH  28  29
ENDBRANCH  27  28
ENDBRANCH  26  27
ENDBRANCH   1  26
TORSDOF 21
ENDMDL
MODEL 3
REMARK VINA RESULT:      -9.0      5.502     11.000
REMARK SMILES COc1cc(OC)cc(-c2ccc([C@@H](C)C(=O)OCCOCCOC(=O)c3ccc(-c4c5nc(c(-c6cccc(S(=O)(=O)[O-])c6F)c6ccc([nH]6)c(-c6cccc(S(=O)(=O)[O-])c6F)c6nc(c(-c7cccc(S(=O)(=O)[O-])c7F)c7ccc4[nH]7)C=C6)C=C5)cc3)cc2F)c1
REMARK SMILES IDX 21 1 20 2 19 3 18 4 16 5 17 6 14 7 15 8 13 9 10 10 11 11
REMARK SMILES IDX 91 12 12 13 90 14 92 15 9 16 3 17 4 18 93 19 5 20 8 21 2 22
REMARK SMILES IDX 1 23 6 24 7 25 22 26 23 27 24 28 25 29 26 30 27 31 28 32
REMARK SMILES IDX 89 33 29 34 88 35 30 36 31 37 32 38 82 39 33 40 87 41 81 42
REMARK SMILES IDX 83 43 34 44 86 45 80 46 79 47 35 49 67 50 47 51 66 52 48 53
REMARK SMILES IDX 51 54 65 55 84 56 49 57 50 58 64 60 85 61 52 62 36 63 37 64
REMARK SMILES IDX 45 65 38 66 40 67 46 68 39 69 41 70 42 71 43 72 44 73 68 74
REMARK SMILES IDX 69 75 77 76 70 77 72 78 78 79 71 80 73 81 74 82 75 83 76 84
REMARK SMILES IDX 53 85 54 86 62 87 55 88 57 89 63 90 56 91 58 92 59 93 60 94
REMARK SMILES IDX 61 95
REMARK H PARENT 83 48 51 59
REMARK Flexibility Score: inf
ROOT
ATOM      1  O   UNL A   1      37.507  21.448  25.233  1.00  0.00    -0.374 OA
ENDROOT
BRANCH   1   2
ATOM      2  C   UNL A   1      36.197  22.012  25.130  1.00  0.00     0.202 C 
BRANCH   2   3
ATOM      3  C   UNL A   1      35.083  21.048  24.713  1.00  0.00     0.261 C 
BRANCH   3   4
ATOM      4  O   UNL A   1      33.892  21.268  25.490  1.00  0.00    -0.463 OA
BRANCH   4   5
ATOM      5  C   UNL A   1      32.813  20.513  25.163  1.00  0.00     0.313 C 
ATOM      6  O   UNL A   1      32.626  19.362  25.549  1.00  0.00    -0.252 OA
BRANCH   5   7
ATOM      7  C   UNL A   1      31.837  21.215  24.232  1.00  0.00     0.126 C 
ATOM      8  C   UNL A   1      32.058  20.724  22.804  1.00  0.00     0.025 C 
BRANCH   7   9
ATOM      9  C   UNL A   1      31.749  22.736  24.315  1.00  0.00    -0.031 A 
ATOM     10  C   UNL A   1      31.320  25.562  24.376  1.00  0.00     0.018 A 
ATOM     11  C   UNL A   1      32.173  24.972  23.428  1.00  0.00     0.012 A 
ATOM     12  C   UNL A   1      30.740  24.712  25.325  1.00  0.00     0.131 A 
ATOM     13  C   UNL A   1      32.384  23.584  23.396  1.00  0.00     0.005 A 
ATOM     14  C   UNL A   1      30.945  23.329  25.300  1.00  0.00     0.044 A 
ATOM     15  F   UNL A   1      29.917  25.205  26.263  1.00  0.00    -0.206 F 
BRANCH  10  16
ATOM     16  C   UNL A   1      30.964  26.993  24.304  1.00  0.00    -0.008 A 
ATOM     17  C   UNL A   1      29.679  28.836  23.356  1.00  0.00     0.123 A 
ATOM     18  C   UNL A   1      30.454  29.743  24.080  1.00  0.00     0.092 A 
ATOM     19  C   UNL A   1      29.938  27.466  23.464  1.00  0.00     0.055 A 
ATOM     20  C   UNL A   1      31.476  29.303  24.919  1.00  0.00     0.123 A 
ATOM     21  C   UNL A   1      31.714  27.934  25.038  1.00  0.00     0.055 A 
BRANCH  17  22
ATOM     22  O   UNL A   1      28.745  29.414  22.539  1.00  0.00    -0.497 OA
ATOM     23  C   UNL A   1      27.383  29.172  22.862  1.00  0.00     0.278 C 
ENDBRANCH  17  22
BRANCH  20  24
ATOM     24  O   UNL A   1      32.170  30.297  25.550  1.00  0.00    -0.497 OA
ATOM     25  C   UNL A   1      31.408  31.235  26.301  1.00  0.00     0.278 C 
ENDBRANCH  20  24
ENDBRANCH  10  16
ENDBRANCH   7   9
ENDBRANCH   5   7
ENDBRANCH   4   5
ENDBRANCH   3   4
ENDBRANCH   2   3
ENDBRANCH   1   2
BRANCH   1  26
ATOM     26  C   UNL A   1      37.609  20.025  25.202  1.00  0.00     0.202 C 
BRANCH  26  27
ATOM     27  C   UNL A   1      39.024  19.435  25.201  1.00  0.00     0.261 C 
BRANCH  27  28
ATOM     28  O   UNL A   1      39.682  19.587  26.469  1.00  0.00    -0.460 OA
BRANCH  28  29
ATOM     29  C   UNL A   1      40.989  19.932  26.393  1.00  0.00     0.338 C 
ATOM     30  O   UNL A   1      41.894  19.276  25.890  1.00  0.00    -0.246 OA
BRANCH  29  31
ATOM     31  C   UNL A   1      41.185  21.320  26.848  1.00  0.00     0.060 A 
ATOM     32  C   UNL A   1      40.896  22.342  25.935  1.00  0.00     0.016 A 
ATOM     33  C   UNL A   1      41.718  21.621  28.104  1.00  0.00     0.016 A 
ATOM     34  C   UNL A   1      41.198  23.665  26.247  1.00  0.00     0.010 A 
ATOM     35  C   UNL A   1      42.027  22.951  28.413  1.00  0.00     0.010 A 
ATOM     36  C   UNL A   1      41.808  23.973  27.469  1.00  0.00    -0.014 A 
BRANCH  36  37
ATOM     37  C   UNL A   1      42.356  25.335  27.685  1.00  0.00     0.031 A 
ATOM     38  C   UNL A   1      41.492  26.371  28.355  1.00  0.00     0.074 A 
ATOM     39  C   UNL A   1      43.612  25.642  27.316  1.00  0.00     0.049 A 
ATOM     40  N   UNL A   1      41.765  27.617  28.641  1.00  0.00    -0.248 NA
ATOM     41  C   UNL A   1      40.140  25.946  28.755  1.00  0.00     0.031 C 
ATOM     42  C   UNL A   1      44.550  24.726  26.669  1.00  0.00     0.029 A 
ATOM     43  N   UNL A   1      44.308  26.821  27.417  1.00  0.00    -0.354 N 
ATOM     44  C   UNL A   1      40.617  28.132  29.232  1.00  0.00     0.074 A 
ATOM     45  C   UNL A   1      39.637  27.068  29.251  1.00  0.00     0.031 C 
ATOM     46  C   UNL A   1      45.692  25.385  26.406  1.00  0.00     0.029 A 
ATOM     47  C   UNL A   1      45.560  26.772  26.849  1.00  0.00     0.049 A 
ATOM     48  H   UNL A   1      43.946  27.625  27.855  1.00  0.00     0.167 HD
ATOM     49  C   UNL A   1      40.402  29.372  29.732  1.00  0.00     0.034 A 
ATOM     50  C   UNL A   1      46.484  27.741  26.688  1.00  0.00     0.034 A 
ATOM     51  C   UNL A   1      41.384  30.423  29.737  1.00  0.00     0.049 A 
ATOM     52  C   UNL A   1      46.209  29.120  27.233  1.00  0.00     0.074 A 
ATOM     53  C   UNL A   1      41.272  31.700  30.260  1.00  0.00     0.029 A 
ATOM     54  N   UNL A   1      42.652  30.323  29.190  1.00  0.00    -0.354 N 
ATOM     55  N   UNL A   1      45.164  29.555  27.894  1.00  0.00    -0.248 NA
ATOM     56  C   UNL A   1      47.257  30.134  27.039  1.00  0.00     0.031 C 
ATOM     57  C   UNL A   1      42.469  32.380  30.008  1.00  0.00     0.029 A 
ATOM     58  C   UNL A   1      43.332  31.518  29.351  1.00  0.00     0.049 A 
ATOM     59  H   UNL A   1      43.016  29.522  28.750  1.00  0.00     0.167 HD
ATOM     60  C   UNL A   1      45.444  30.876  28.229  1.00  0.00     0.074 A 
ATOM     61  C   UNL A   1      46.765  31.164  27.713  1.00  0.00     0.031 C 
ATOM     62  C   UNL A   1      44.671  31.774  28.889  1.00  0.00     0.034 A 
BRANCH  49  63
ATOM     63  C   UNL A   1      39.060  29.653  30.353  1.00  0.00     0.023 A 
ATOM     64  C   UNL A   1      38.753  29.112  31.618  1.00  0.00     0.012 A 
ATOM     65  C   UNL A   1      38.131  30.501  29.718  1.00  0.00     0.148 A 
ATOM     66  C   UNL A   1      37.532  29.391  32.231  1.00  0.00     0.002 A 
ATOM     67  C   UNL A   1      36.934  30.806  30.353  1.00  0.00     0.091 A 
ATOM     68  F   UNL A   1      38.434  30.985  28.505  1.00  0.00    -0.205 F 
ATOM     69  C   UNL A   1      36.628  30.245  31.604  1.00  0.00     0.022 A 
BRANCH  67  70
ATOM     70  S   UNL A   1      35.737  31.955  29.663  1.00  0.00     0.127 S 
ATOM     71  O   UNL A   1      35.343  31.267  28.435  1.00  0.00    -0.237 OA
ATOM     72  O   UNL A   1      34.707  31.987  30.702  1.00  0.00    -0.237 OA
ATOM     73  O   UNL A   1      36.449  33.211  29.476  1.00  0.00    -0.744 OA
ENDBRANCH  67  70
ENDBRANCH  49  63
BRANCH  50  74
ATOM     74  C   UNL A   1      47.775  27.437  26.011  1.00  0.00     0.023 A 
ATOM     75  C   UNL A   1      48.880  27.013  26.775  1.00  0.00     0.012 A 
ATOM     76  C   UNL A   1      47.913  27.559  24.614  1.00  0.00     0.148 A 
ATOM     77  C   UNL A   1      50.107  26.750  26.165  1.00  0.00     0.002 A 
ATOM     78  C   UNL A   1      49.122  27.241  24.007  1.00  0.00     0.091 A 
ATOM     79  F   UNL A   1      46.858  27.984  23.905  1.00  0.00    -0.205 F 
ATOM     80  C   UNL A   1      50.227  26.853  24.782  1.00  0.00     0.022 A 
BRANCH  78  81
ATOM     81  S   UNL A   1      49.320  27.220  22.222  1.00  0.00     0.127 S 
ATOM     82  O   UNL A   1      50.755  26.990  22.081  1.00  0.00    -0.237 OA
ATOM     83  O   UNL A   1      48.472  26.092  21.834  1.00  0.00    -0.237 OA
ATOM     84  O   UNL A   1      48.835  28.514  21.762  1.00  0.00    -0.744 OA
ENDBRANCH  78  81
ENDBRANCH  50  74
BRANCH  62  85
ATOM     85  C   UNL A   1      45.242  33.148  29.133  1.00  0.00     0.023 A 
ATOM     86  C   UNL A   1      45.932  33.417  30.330  1.00  0.00     0.012 A 
ATOM     87  C   UNL A   1      45.165  34.144  28.140  1.00  0.00     0.148 A 
ATOM     88  C   UNL A   1      46.510  34.666  30.550  1.00  0.00     0.002 A 
ATOM     89  C   UNL A   1      45.785  35.372  28.344  1.00  0.00     0.091 A 
ATOM     90  F   UNL A   1      44.488  33.875  27.013  1.00  0.00    -0.205 F 
ATOM     91  C   UNL A   1      46.447  35.638  29.553  1.00  0.00     0.022 A 
BRANCH  89  92
ATOM     92  S   UNL A   1      45.835  36.647  27.081  1.00  0.00     0.127 S 
ATOM     93  O   UNL A   1      44.414  36.925  26.879  1.00  0.00    -0.237 OA
ATOM     94  O   UNL A   1      46.577  37.718  27.747  1.00  0.00    -0.237 OA
ATOM     95  O   UNL A   1      46.526  36.054  25.942  1.00  0.00    -0.744 OA
ENDBRANCH  89  92
ENDBRANCH  62  85
ENDBRANCH  36  37
ENDBRANCH  29  31
ENDBRANCH  28  29
ENDBRANCH  27  28
ENDBRANCH  26  27
ENDBRANCH   1  26
TORSDOF 21
ENDMDL
