MODEL 1
REMARK VINA RESULT:      -9.5      0.000      0.000
REMARK SMILES NC(=O)CC[C@H](C(=O)OCCOCCOC(=O)c1ccc(-c2c3nc(c(-c4cccc(S(=O)(=O)[O-])c4F)c4ccc([nH]4)c(-c4cccc(S(=O)(=O)[O-])c4F)c4nc(c(-c5cccc(S(=O)(=O)[O-])c5F)c5ccc2[nH]5)C=C4)C=C3)cc1)N1CCOC1=O
REMARK SMILES IDX 12 1 11 2 10 3 9 4 7 5 8 6 6 7 5 8 4 9 2 10 1 11 3 14 81 15
REMARK SMILES IDX 82 16 85 17 83 18 84 19 86 20 13 21 14 22 15 23 16 24 17 25
REMARK SMILES IDX 18 26 19 27 80 28 20 29 79 30 21 31 22 32 23 33 73 34 24 35
REMARK SMILES IDX 78 36 72 37 74 38 25 39 77 40 71 41 70 42 26 44 58 45 38 46
REMARK SMILES IDX 57 47 39 48 42 49 56 50 75 51 40 52 41 53 55 55 76 56 43 57
REMARK SMILES IDX 27 58 28 59 36 60 29 61 31 62 37 63 30 64 32 65 33 66 34 67
REMARK SMILES IDX 35 68 59 69 60 70 68 71 61 72 63 73 69 74 62 75 64 76 65 77
REMARK SMILES IDX 66 78 67 79 44 80 45 81 53 82 46 83 48 84 54 85 47 86 49 87
REMARK SMILES IDX 50 88 51 89 52 90
REMARK H PARENT 1 12 1 13 74 43 42 54
REMARK Flexibility Score: inf
ROOT
ATOM      1  O   UNL A   1      37.792  21.182  25.011  1.00  0.00    -0.374 OA
ENDROOT
BRANCH   1   2
ATOM      2  C   UNL A   1      36.502  21.768  24.831  1.00  0.00     0.202 C 
BRANCH   2   3
ATOM      3  C   UNL A   1      36.084  22.818  25.862  1.00  0.00     0.261 C 
BRANCH   3   4
ATOM      4  O   UNL A   1      35.431  23.921  25.217  1.00  0.00    -0.462 OA
BRANCH   4   5
ATOM      5  C   UNL A   1      34.077  23.936  25.287  1.00  0.00     0.329 C 
ATOM      6  O   UNL A   1      33.422  24.273  26.268  1.00  0.00    -0.250 OA
BRANCH   5   7
ATOM      7  C   UNL A   1      33.431  23.486  23.962  1.00  0.00     0.199 C 
BRANCH   7   8
ATOM      8  C   UNL A   1      32.358  22.374  23.952  1.00  0.00     0.047 C 
BRANCH   8   9
ATOM      9  C   UNL A   1      32.756  20.905  23.896  1.00  0.00     0.102 C 
BRANCH   9  10
ATOM     10  C   UNL A   1      32.156  20.190  22.718  1.00  0.00     0.217 C 
ATOM     11  N   UNL A   1      31.705  20.999  21.727  1.00  0.00    -0.370 N 
ATOM     12  H   UNL A   1      31.299  20.609  20.919  1.00  0.00     0.159 HD
ATOM     13  H   UNL A   1      31.786  21.977  21.814  1.00  0.00     0.159 HD
ATOM     14  O   UNL A   1      32.126  18.969  22.630  1.00  0.00    -0.275 OA
ENDBRANCH   9  10
ENDBRANCH   8   9
ENDBRANCH   7   8
BRANCH   7  15
ATOM     15  N   UNL A   1      33.196  24.603  23.056  1.00  0.00    -0.291 N 
ATOM     16  C   UNL A   1      32.807  25.900  23.506  1.00  0.00     0.165 C 
ATOM     17  C   UNL A   1      33.170  24.536  21.683  1.00  0.00     0.410 C 
ATOM     18  C   UNL A   1      32.890  26.713  22.240  1.00  0.00     0.256 C 
ATOM     19  O   UNL A   1      32.816  25.758  21.177  1.00  0.00    -0.448 OA
ATOM     20  O   UNL A   1      33.368  23.553  20.996  1.00  0.00    -0.224 OA
ENDBRANCH   7  15
ENDBRANCH   5   7
ENDBRANCH   4   5
ENDBRANCH   3   4
ENDBRANCH   2   3
ENDBRANCH   1   2
BRANCH   1  21
ATOM     21  C   UNL A   1      37.909  19.774  24.815  1.00  0.00     0.202 C 
BRANCH  21  22
ATOM     22  C   UNL A   1      39.096  19.072  25.481  1.00  0.00     0.261 C 
BRANCH  22  23
ATOM     23  O   UNL A   1      39.535  19.770  26.658  1.00  0.00    -0.460 OA
BRANCH  23  24
ATOM     24  C   UNL A   1      40.820  20.197  26.604  1.00  0.00     0.338 C 
ATOM     25  O   UNL A   1      41.775  19.595  26.144  1.00  0.00    -0.246 OA
BRANCH  24  26
ATOM     26  C   UNL A   1      40.893  21.609  27.021  1.00  0.00     0.060 A 
ATOM     27  C   UNL A   1      40.428  22.577  26.121  1.00  0.00     0.016 A 
ATOM     28  C   UNL A   1      41.476  21.981  28.233  1.00  0.00     0.016 A 
ATOM     29  C   UNL A   1      40.608  23.930  26.398  1.00  0.00     0.010 A 
ATOM     30  C   UNL A   1      41.660  23.339  28.506  1.00  0.00     0.010 A 
ATOM     31  C   UNL A   1      41.269  24.314  27.570  1.00  0.00    -0.014 A 
BRANCH  31  32
ATOM     32  C   UNL A   1      41.705  25.718  27.750  1.00  0.00     0.031 A 
ATOM     33  C   UNL A   1      43.089  26.107  27.306  1.00  0.00     0.074 A 
ATOM     34  C   UNL A   1      40.893  26.623  28.326  1.00  0.00     0.049 A 
ATOM     35  N   UNL A   1      43.720  27.239  27.460  1.00  0.00    -0.248 NA
ATOM     36  C   UNL A   1      43.871  25.075  26.600  1.00  0.00     0.031 C 
ATOM     37  C   UNL A   1      39.524  26.369  28.774  1.00  0.00     0.029 A 
ATOM     38  N   UNL A   1      41.121  27.934  28.663  1.00  0.00    -0.354 N 
ATOM     39  C   UNL A   1      44.988  27.042  26.925  1.00  0.00     0.074 A 
ATOM     40  C   UNL A   1      45.036  25.685  26.430  1.00  0.00     0.031 C 
ATOM     41  C   UNL A   1      39.045  27.480  29.360  1.00  0.00     0.029 A 
ATOM     42  C   UNL A   1      40.085  28.506  29.363  1.00  0.00     0.049 A 
ATOM     43  H   UNL A   1      41.945  28.418  28.427  1.00  0.00     0.167 HD
ATOM     44  C   UNL A   1      46.018  27.916  26.854  1.00  0.00     0.034 A 
ATOM     45  C   UNL A   1      40.004  29.708  29.970  1.00  0.00     0.034 A 
ATOM     46  C   UNL A   1      45.953  29.274  27.318  1.00  0.00     0.049 A 
ATOM     47  C   UNL A   1      41.182  30.646  29.899  1.00  0.00     0.074 A 
ATOM     48  C   UNL A   1      46.919  30.259  27.224  1.00  0.00     0.029 A 
ATOM     49  N   UNL A   1      44.873  29.831  27.983  1.00  0.00    -0.354 N 
ATOM     50  N   UNL A   1      42.330  30.489  29.286  1.00  0.00    -0.248 NA
ATOM     51  C   UNL A   1      41.042  31.942  30.581  1.00  0.00     0.031 C 
ATOM     52  C   UNL A   1      46.443  31.398  27.879  1.00  0.00     0.029 A 
ATOM     53  C   UNL A   1      45.158  31.139  28.328  1.00  0.00     0.049 A 
ATOM     54  H   UNL A   1      44.029  29.365  28.180  1.00  0.00     0.167 HD
ATOM     55  C   UNL A   1      43.025  31.680  29.464  1.00  0.00     0.074 A 
ATOM     56  C   UNL A   1      42.165  32.555  30.232  1.00  0.00     0.031 C 
ATOM     57  C   UNL A   1      44.265  32.020  29.035  1.00  0.00     0.034 A 
BRANCH  44  58
ATOM     58  C   UNL A   1      47.316  27.442  26.257  1.00  0.00     0.023 A 
ATOM     59  C   UNL A   1      47.657  27.783  24.933  1.00  0.00     0.012 A 
ATOM     60  C   UNL A   1      48.244  26.738  27.051  1.00  0.00     0.148 A 
ATOM     61  C   UNL A   1      48.891  27.413  24.402  1.00  0.00     0.002 A 
ATOM     62  C   UNL A   1      49.491  26.416  26.532  1.00  0.00     0.091 A 
ATOM     63  F   UNL A   1      47.890  26.406  28.301  1.00  0.00    -0.205 F 
ATOM     64  C   UNL A   1      49.813  26.742  25.204  1.00  0.00     0.022 A 
BRANCH  62  65
ATOM     65  S   UNL A   1      50.775  25.631  27.511  1.00  0.00     0.127 S 
ATOM     66  O   UNL A   1      50.110  24.400  27.938  1.00  0.00    -0.237 OA
ATOM     67  O   UNL A   1      51.837  25.439  26.524  1.00  0.00    -0.237 OA
ATOM     68  O   UNL A   1      51.096  26.565  28.581  1.00  0.00    -0.744 OA
ENDBRANCH  62  65
ENDBRANCH  44  58
BRANCH  45  69
ATOM     69  C   UNL A   1      38.764  30.110  30.694  1.00  0.00     0.023 A 
ATOM     70  C   UNL A   1      38.553  29.655  32.010  1.00  0.00     0.012 A 
ATOM     71  C   UNL A   1      37.782  30.910  30.079  1.00  0.00     0.148 A 
ATOM     72  C   UNL A   1      37.367  29.947  32.683  1.00  0.00     0.002 A 
ATOM     73  C   UNL A   1      36.627  31.246  30.776  1.00  0.00     0.091 A 
ATOM     74  F   UNL A   1      37.995  31.323  28.822  1.00  0.00    -0.205 F 
ATOM     75  C   UNL A   1      36.407  30.747  32.070  1.00  0.00     0.022 A 
BRANCH  73  76
ATOM     76  S   UNL A   1      35.390  32.364  30.112  1.00  0.00     0.127 S 
ATOM     77  O   UNL A   1      34.855  31.589  28.995  1.00  0.00    -0.237 OA
ATOM     78  O   UNL A   1      34.482  32.515  31.249  1.00  0.00    -0.237 OA
ATOM     79  O   UNL A   1      36.111  33.576  29.751  1.00  0.00    -0.744 OA
ENDBRANCH  73  76
ENDBRANCH  45  69
BRANCH  57  80
ATOM     80  C   UNL A   1      44.752  33.419  29.309  1.00  0.00     0.023 A 
ATOM     81  C   UNL A   1      45.617  33.675  30.390  1.00  0.00     0.012 A 
ATOM     82  C   UNL A   1      44.419  34.467  28.425  1.00  0.00     0.148 A 
ATOM     83  C   UNL A   1      46.120  34.958  30.605  1.00  0.00     0.002 A 
ATOM     84  C   UNL A   1      44.969  35.728  28.613  1.00  0.00     0.091 A 
ATOM     85  F   UNL A   1      43.582  34.205  27.411  1.00  0.00    -0.205 F 
ATOM     86  C   UNL A   1      45.808  35.979  29.710  1.00  0.00     0.022 A 
BRANCH  84  87
ATOM     87  S   UNL A   1      44.708  37.076  27.454  1.00  0.00     0.127 S 
ATOM     88  O   UNL A   1      43.519  36.624  26.735  1.00  0.00    -0.237 OA
ATOM     89  O   UNL A   1      44.487  38.212  28.349  1.00  0.00    -0.237 OA
ATOM     90  O   UNL A   1      45.923  37.163  26.654  1.00  0.00    -0.744 OA
ENDBRANCH  84  87
ENDBRANCH  57  80
ENDBRANCH  31  32
ENDBRANCH  24  26
ENDBRANCH  23  24
ENDBRANCH  22  23
ENDBRANCH  21  22
ENDBRANCH   1  21
TORSDOF 21
ENDMDL
MODEL 2
REMARK VINA RESULT:      -9.5      2.260      8.546
REMARK SMILES NC(=O)CC[C@H](C(=O)OCCOCCOC(=O)c1ccc(-c2c3nc(c(-c4cccc(S(=O)(=O)[O-])c4F)c4ccc([nH]4)c(-c4cccc(S(=O)(=O)[O-])c4F)c4nc(c(-c5cccc(S(=O)(=O)[O-])c5F)c5ccc2[nH]5)C=C4)C=C3)cc1)N1CCOC1=O
REMARK SMILES IDX 12 1 11 2 10 3 9 4 7 5 8 6 6 7 5 8 4 9 2 10 1 11 3 14 81 15
REMARK SMILES IDX 82 16 85 17 83 18 84 19 86 20 13 21 14 22 15 23 16 24 17 25
REMARK SMILES IDX 18 26 19 27 80 28 20 29 79 30 21 31 22 32 23 33 73 34 24 35
REMARK SMILES IDX 78 36 72 37 74 38 25 39 77 40 71 41 70 42 26 44 58 45 38 46
REMARK SMILES IDX 57 47 39 48 42 49 56 50 75 51 40 52 41 53 55 55 76 56 43 57
REMARK SMILES IDX 27 58 28 59 36 60 29 61 31 62 37 63 30 64 32 65 33 66 34 67
REMARK SMILES IDX 35 68 59 69 60 70 68 71 61 72 63 73 69 74 62 75 64 76 65 77
REMARK SMILES IDX 66 78 67 79 44 80 45 81 53 82 46 83 48 84 54 85 47 86 49 87
REMARK SMILES IDX 50 88 51 89 52 90
REMARK H PARENT 1 12 1 13 74 43 42 54
REMARK Flexibility Score: inf
ROOT
ATOM      1  O   UNL A   1      35.607  22.757  23.732  1.00  0.00    -0.374 OA
ENDROOT
BRANCH   1   2
ATOM      2  C   UNL A   1      34.516  23.632  23.443  1.00  0.00     0.202 C 
BRANCH   2   3
ATOM      3  C   UNL A   1      33.622  24.012  24.626  1.00  0.00     0.261 C 
BRANCH   3   4
ATOM      4  O   UNL A   1      32.513  24.807  24.179  1.00  0.00    -0.462 OA
BRANCH   4   5
ATOM      5  C   UNL A   1      32.770  26.121  23.962  1.00  0.00     0.329 C 
ATOM      6  O   UNL A   1      33.595  26.559  23.168  1.00  0.00    -0.250 OA
BRANCH   5   7
ATOM      7  C   UNL A   1      31.879  27.028  24.833  1.00  0.00     0.199 C 
BRANCH   7   8
ATOM      8  C   UNL A   1      32.505  27.919  25.930  1.00  0.00     0.047 C 
BRANCH   8   9
ATOM      9  C   UNL A   1      34.017  28.026  26.081  1.00  0.00     0.102 C 
BRANCH   9  10
ATOM     10  C   UNL A   1      34.431  29.210  26.909  1.00  0.00     0.217 C 
ATOM     11  N   UNL A   1      33.796  30.370  26.606  1.00  0.00    -0.370 N 
ATOM     12  H   UNL A   1      34.009  31.192  27.103  1.00  0.00     0.159 HD
ATOM     13  H   UNL A   1      33.121  30.390  25.889  1.00  0.00     0.159 HD
ATOM     14  O   UNL A   1      35.236  29.126  27.827  1.00  0.00    -0.275 OA
ENDBRANCH   9  10
ENDBRANCH   8   9
ENDBRANCH   7   8
BRANCH   7  15
ATOM     15  N   UNL A   1      30.792  27.629  24.072  1.00  0.00    -0.291 N 
ATOM     16  C   UNL A   1      30.872  28.937  23.504  1.00  0.00     0.165 C 
ATOM     17  C   UNL A   1      29.529  27.110  23.921  1.00  0.00     0.410 C 
ATOM     18  C   UNL A   1      29.614  29.000  22.678  1.00  0.00     0.256 C 
ATOM     19  O   UNL A   1      28.752  28.001  23.231  1.00  0.00    -0.448 OA
ATOM     20  O   UNL A   1      29.115  26.055  24.364  1.00  0.00    -0.224 OA
ENDBRANCH   7  15
ENDBRANCH   5   7
ENDBRANCH   4   5
ENDBRANCH   3   4
ENDBRANCH   2   3
ENDBRANCH   1   2
BRANCH   1  21
ATOM     21  C   UNL A   1      35.381  21.714  24.679  1.00  0.00     0.202 C 
BRANCH  21  22
ATOM     22  C   UNL A   1      36.577  20.831  25.044  1.00  0.00     0.261 C 
BRANCH  22  23
ATOM     23  O   UNL A   1      37.823  21.530  24.891  1.00  0.00    -0.460 OA
BRANCH  23  24
ATOM     24  C   UNL A   1      38.781  21.159  25.773  1.00  0.00     0.338 C 
ATOM     25  O   UNL A   1      39.289  20.057  25.885  1.00  0.00    -0.246 OA
BRANCH  24  26
ATOM     26  C   UNL A   1      39.284  22.344  26.491  1.00  0.00     0.060 A 
ATOM     27  C   UNL A   1      38.721  23.586  26.167  1.00  0.00     0.016 A 
ATOM     28  C   UNL A   1      40.337  22.253  27.402  1.00  0.00     0.016 A 
ATOM     29  C   UNL A   1      39.257  24.755  26.703  1.00  0.00     0.010 A 
ATOM     30  C   UNL A   1      40.875  23.427  27.933  1.00  0.00     0.010 A 
ATOM     31  C   UNL A   1      40.368  24.682  27.550  1.00  0.00    -0.014 A 
BRANCH  31  32
ATOM     32  C   UNL A   1      41.110  25.913  27.909  1.00  0.00     0.031 A 
ATOM     33  C   UNL A   1      40.395  26.985  28.686  1.00  0.00     0.074 A 
ATOM     34  C   UNL A   1      42.388  26.084  27.525  1.00  0.00     0.049 A 
ATOM     35  N   UNL A   1      40.805  28.180  29.016  1.00  0.00    -0.248 NA
ATOM     36  C   UNL A   1      39.029  26.670  29.146  1.00  0.00     0.031 C 
ATOM     37  C   UNL A   1      43.189  25.106  26.790  1.00  0.00     0.029 A 
ATOM     38  N   UNL A   1      43.223  27.163  27.673  1.00  0.00    -0.354 N 
ATOM     39  C   UNL A   1      39.735  28.780  29.670  1.00  0.00     0.074 A 
ATOM     40  C   UNL A   1      38.659  27.815  29.701  1.00  0.00     0.031 C 
ATOM     41  C   UNL A   1      44.391  25.644  26.520  1.00  0.00     0.029 A 
ATOM     42  C   UNL A   1      44.428  27.014  27.026  1.00  0.00     0.049 A 
ATOM     43  H   UNL A   1      42.983  27.966  28.190  1.00  0.00     0.167 HD
ATOM     44  C   UNL A   1      39.658  30.024  30.195  1.00  0.00     0.034 A 
ATOM     45  C   UNL A   1      45.427  27.898  26.835  1.00  0.00     0.034 A 
ATOM     46  C   UNL A   1      40.743  30.967  30.189  1.00  0.00     0.049 A 
ATOM     47  C   UNL A   1      45.296  29.288  27.407  1.00  0.00     0.074 A 
ATOM     48  C   UNL A   1      40.788  32.225  30.760  1.00  0.00     0.029 A 
ATOM     49  N   UNL A   1      41.962  30.765  29.564  1.00  0.00    -0.354 N 
ATOM     50  N   UNL A   1      44.327  29.800  28.124  1.00  0.00    -0.248 NA
ATOM     51  C   UNL A   1      46.414  30.213  27.165  1.00  0.00     0.031 C 
ATOM     52  C   UNL A   1      42.016  32.807  30.436  1.00  0.00     0.029 A 
ATOM     53  C   UNL A   1      42.757  31.886  29.713  1.00  0.00     0.049 A 
ATOM     54  H   UNL A   1      42.223  29.946  29.084  1.00  0.00     0.167 HD
ATOM     55  C   UNL A   1      44.739  31.084  28.462  1.00  0.00     0.074 A 
ATOM     56  C   UNL A   1      46.051  31.269  27.880  1.00  0.00     0.031 C 
ATOM     57  C   UNL A   1      44.089  32.029  29.185  1.00  0.00     0.034 A 
BRANCH  44  58
ATOM     58  C   UNL A   1      38.359  30.456  30.822  1.00  0.00     0.023 A 
ATOM     59  C   UNL A   1      38.090  30.164  32.174  1.00  0.00     0.012 A 
ATOM     60  C   UNL A   1      37.448  31.242  30.088  1.00  0.00     0.148 A 
ATOM     61  C   UNL A   1      36.924  30.629  32.779  1.00  0.00     0.002 A 
ATOM     62  C   UNL A   1      36.312  31.743  30.711  1.00  0.00     0.091 A 
ATOM     63  F   UNL A   1      37.714  31.490  28.797  1.00  0.00    -0.205 F 
ATOM     64  C   UNL A   1      36.043  31.429  32.054  1.00  0.00     0.022 A 
BRANCH  62  65
ATOM     65  S   UNL A   1      35.164  32.851  29.889  1.00  0.00     0.127 S 
ATOM     66  O   UNL A   1      34.405  33.382  31.021  1.00  0.00    -0.237 OA
ATOM     67  O   UNL A   1      36.066  33.811  29.255  1.00  0.00    -0.237 OA
ATOM     68  O   UNL A   1      34.399  32.027  28.963  1.00  0.00    -0.744 OA
ENDBRANCH  62  65
ENDBRANCH  44  58
BRANCH  45  69
ATOM     69  C   UNL A   1      46.650  27.508  26.077  1.00  0.00     0.023 A 
ATOM     70  C   UNL A   1      46.730  27.789  24.699  1.00  0.00     0.012 A 
ATOM     71  C   UNL A   1      47.717  26.835  26.702  1.00  0.00     0.148 A 
ATOM     72  C   UNL A   1      47.824  27.364  23.947  1.00  0.00     0.002 A 
ATOM     73  C   UNL A   1      48.832  26.465  25.959  1.00  0.00     0.091 A 
ATOM     74  F   UNL A   1      47.619  26.565  28.011  1.00  0.00    -0.205 F 
ATOM     75  C   UNL A   1      48.879  26.708  24.577  1.00  0.00     0.022 A 
BRANCH  73  76
ATOM     76  S   UNL A   1      50.286  25.721  26.704  1.00  0.00     0.127 S 
ATOM     77  O   UNL A   1      51.175  25.583  25.553  1.00  0.00    -0.237 OA
ATOM     78  O   UNL A   1      50.683  26.744  27.671  1.00  0.00    -0.237 OA
ATOM     79  O   UNL A   1      49.826  24.474  27.300  1.00  0.00    -0.744 OA
ENDBRANCH  73  76
ENDBRANCH  45  69
BRANCH  57  80
ATOM     80  C   UNL A   1      44.805  33.325  29.464  1.00  0.00     0.023 A 
ATOM     81  C   UNL A   1      44.645  34.428  28.604  1.00  0.00     0.012 A 
ATOM     82  C   UNL A   1      45.564  33.471  30.644  1.00  0.00     0.148 A 
ATOM     83  C   UNL A   1      45.255  35.648  28.897  1.00  0.00     0.002 A 
ATOM     84  C   UNL A   1      46.120  34.704  30.958  1.00  0.00     0.091 A 
ATOM     85  F   UNL A   1      45.715  32.404  31.442  1.00  0.00    -0.205 F 
ATOM     86  C   UNL A   1      45.980  35.789  30.080  1.00  0.00     0.022 A 
BRANCH  84  87
ATOM     87  S   UNL A   1      46.979  35.008  32.507  1.00  0.00     0.127 S 
ATOM     88  O   UNL A   1      48.376  34.855  32.108  1.00  0.00    -0.237 OA
ATOM     89  O   UNL A   1      46.578  36.381  32.815  1.00  0.00    -0.237 OA
ATOM     90  O   UNL A   1      46.487  34.008  33.446  1.00  0.00    -0.744 OA
ENDBRANCH  84  87
ENDBRANCH  57  80
ENDBRANCH  31  32
ENDBRANCH  24  26
ENDBRANCH  23  24
ENDBRANCH  22  23
ENDBRANCH  21  22
ENDBRANCH   1  21
TORSDOF 21
ENDMDL
MODEL 3
REMARK VINA RESULT:      -9.5      5.070     10.351
REMARK SMILES NC(=O)CC[C@H](C(=O)OCCOCCOC(=O)c1ccc(-c2c3nc(c(-c4cccc(S(=O)(=O)[O-])c4F)c4ccc([nH]4)c(-c4cccc(S(=O)(=O)[O-])c4F)c4nc(c(-c5cccc(S(=O)(=O)[O-])c5F)c5ccc2[nH]5)C=C4)C=C3)cc1)N1CCOC1=O
REMARK SMILES IDX 12 1 11 2 10 3 9 4 7 5 8 6 6 7 5 8 4 9 2 10 1 11 3 14 81 15
REMARK SMILES IDX 82 16 85 17 83 18 84 19 86 20 13 21 14 22 15 23 16 24 17 25
REMARK SMILES IDX 18 26 19 27 80 28 20 29 79 30 21 31 22 32 23 33 73 34 24 35
REMARK SMILES IDX 78 36 72 37 74 38 25 39 77 40 71 41 70 42 26 44 58 45 38 46
REMARK SMILES IDX 57 47 39 48 42 49 56 50 75 51 40 52 41 53 55 55 76 56 43 57
REMARK SMILES IDX 27 58 28 59 36 60 29 61 31 62 37 63 30 64 32 65 33 66 34 67
REMARK SMILES IDX 35 68 59 69 60 70 68 71 61 72 63 73 69 74 62 75 64 76 65 77
REMARK SMILES IDX 66 78 67 79 44 80 45 81 53 82 46 83 48 84 54 85 47 86 49 87
REMARK SMILES IDX 50 88 51 89 52 90
REMARK H PARENT 1 12 1 13 74 43 42 54
REMARK Flexibility Score: inf
ROOT
ATOM      1  O   UNL A   1      32.769  28.164  25.932  1.00  0.00    -0.374 OA
ENDROOT
BRANCH   1   2
ATOM      2  C   UNL A   1      32.234  27.116  26.741  1.00  0.00     0.202 C 
BRANCH   2   3
ATOM      3  C   UNL A   1      31.663  25.908  25.995  1.00  0.00     0.261 C 
BRANCH   3   4
ATOM      4  O   UNL A   1      30.386  26.231  25.425  1.00  0.00    -0.462 OA
BRANCH   4   5
ATOM      5  C   UNL A   1      30.262  26.036  24.089  1.00  0.00     0.329 C 
ATOM      6  O   UNL A   1      29.937  24.982  23.554  1.00  0.00    -0.250 OA
BRANCH   5   7
ATOM      7  C   UNL A   1      30.568  27.321  23.294  1.00  0.00     0.199 C 
BRANCH   7   8
ATOM      8  C   UNL A   1      31.644  27.317  22.185  1.00  0.00     0.047 C 
BRANCH   8   9
ATOM      9  C   UNL A   1      33.096  26.988  22.506  1.00  0.00     0.102 C 
BRANCH   9  10
ATOM     10  C   UNL A   1      33.411  25.532  22.319  1.00  0.00     0.217 C 
ATOM     11  N   UNL A   1      33.980  24.926  23.391  1.00  0.00    -0.370 N 
ATOM     12  H   UNL A   1      34.216  23.971  23.350  1.00  0.00     0.159 HD
ATOM     13  H   UNL A   1      34.156  25.441  24.212  1.00  0.00     0.159 HD
ATOM     14  O   UNL A   1      33.125  24.919  21.298  1.00  0.00    -0.275 OA
ENDBRANCH   9  10
ENDBRANCH   8   9
ENDBRANCH   7   8
BRANCH   7  15
ATOM     15  N   UNL A   1      29.365  28.092  23.009  1.00  0.00    -0.291 N 
ATOM     16  C   UNL A   1      28.056  27.647  23.361  1.00  0.00     0.165 C 
ATOM     17  C   UNL A   1      29.303  29.242  22.259  1.00  0.00     0.410 C 
ATOM     18  C   UNL A   1      27.214  28.856  23.042  1.00  0.00     0.256 C 
ATOM     19  O   UNL A   1      27.996  29.623  22.121  1.00  0.00    -0.448 OA
ATOM     20  O   UNL A   1      30.235  29.825  21.736  1.00  0.00    -0.224 OA
ENDBRANCH   7  15
ENDBRANCH   5   7
ENDBRANCH   4   5
ENDBRANCH   3   4
ENDBRANCH   2   3
ENDBRANCH   1   2
BRANCH   1  21
ATOM     21  C   UNL A   1      32.108  29.428  25.971  1.00  0.00     0.202 C 
BRANCH  21  22
ATOM     22  C   UNL A   1      32.990  30.673  26.103  1.00  0.00     0.261 C 
BRANCH  22  23
ATOM     23  O   UNL A   1      32.619  31.470  27.239  1.00  0.00    -0.460 OA
BRANCH  23  24
ATOM     24  C   UNL A   1      33.533  32.410  27.580  1.00  0.00     0.338 C 
ATOM     25  O   UNL A   1      33.345  33.609  27.693  1.00  0.00    -0.246 OA
BRANCH  24  26
ATOM     26  C   UNL A   1      34.789  31.759  27.991  1.00  0.00     0.060 A 
ATOM     27  C   UNL A   1      34.725  30.417  28.390  1.00  0.00     0.016 A 
ATOM     28  C   UNL A   1      35.989  32.467  28.059  1.00  0.00     0.016 A 
ATOM     29  C   UNL A   1      35.849  29.794  28.926  1.00  0.00     0.010 A 
ATOM     30  C   UNL A   1      37.114  31.842  28.603  1.00  0.00     0.010 A 
ATOM     31  C   UNL A   1      37.035  30.520  29.080  1.00  0.00    -0.014 A 
BRANCH  31  32
ATOM     32  C   UNL A   1      38.146  29.965  29.887  1.00  0.00     0.031 A 
ATOM     33  C   UNL A   1      38.340  30.470  31.291  1.00  0.00     0.074 A 
ATOM     34  C   UNL A   1      38.985  29.051  29.368  1.00  0.00     0.049 A 
ATOM     35  N   UNL A   1      39.299  30.212  32.138  1.00  0.00    -0.248 NA
ATOM     36  C   UNL A   1      37.317  31.399  31.808  1.00  0.00     0.031 C 
ATOM     37  C   UNL A   1      38.882  28.472  28.029  1.00  0.00     0.029 A 
ATOM     38  N   UNL A   1      40.112  28.476  29.899  1.00  0.00    -0.354 N 
ATOM     39  C   UNL A   1      39.031  30.984  33.262  1.00  0.00     0.074 A 
ATOM     40  C   UNL A   1      37.812  31.715  32.996  1.00  0.00     0.031 C 
ATOM     41  C   UNL A   1      39.926  27.648  27.830  1.00  0.00     0.029 A 
ATOM     42  C   UNL A   1      40.788  27.675  29.009  1.00  0.00     0.049 A 
ATOM     43  H   UNL A   1      40.409  28.624  30.826  1.00  0.00     0.167 HD
ATOM     44  C   UNL A   1      39.739  31.077  34.411  1.00  0.00     0.034 A 
ATOM     45  C   UNL A   1      41.986  27.065  29.124  1.00  0.00     0.034 A 
ATOM     46  C   UNL A   1      40.932  30.323  34.681  1.00  0.00     0.049 A 
ATOM     47  C   UNL A   1      42.764  27.214  30.407  1.00  0.00     0.074 A 
ATOM     48  C   UNL A   1      41.681  30.291  35.844  1.00  0.00     0.029 A 
ATOM     49  N   UNL A   1      41.563  29.489  33.773  1.00  0.00    -0.354 N 
ATOM     50  N   UNL A   1      42.439  27.853  31.504  1.00  0.00    -0.248 NA
ATOM     51  C   UNL A   1      44.066  26.532  30.477  1.00  0.00     0.031 C 
ATOM     52  C   UNL A   1      42.795  29.478  35.621  1.00  0.00     0.029 A 
ATOM     53  C   UNL A   1      42.707  28.957  34.340  1.00  0.00     0.049 A 
ATOM     54  H   UNL A   1      41.245  29.303  32.861  1.00  0.00     0.167 HD
ATOM     55  C   UNL A   1      43.466  27.607  32.408  1.00  0.00     0.074 A 
ATOM     56  C   UNL A   1      44.420  26.752  31.735  1.00  0.00     0.031 C 
ATOM     57  C   UNL A   1      43.611  28.053  33.680  1.00  0.00     0.034 A 
BRANCH  44  58
ATOM     58  C   UNL A   1      39.255  32.026  35.474  1.00  0.00     0.023 A 
ATOM     59  C   UNL A   1      38.410  31.570  36.505  1.00  0.00     0.012 A 
ATOM     60  C   UNL A   1      39.725  33.355  35.500  1.00  0.00     0.148 A 
ATOM     61  C   UNL A   1      38.024  32.427  37.533  1.00  0.00     0.002 A 
ATOM     62  C   UNL A   1      39.375  34.189  36.554  1.00  0.00     0.091 A 
ATOM     63  F   UNL A   1      40.511  33.774  34.497  1.00  0.00    -0.205 F 
ATOM     64  C   UNL A   1      38.516  33.731  37.567  1.00  0.00     0.022 A 
BRANCH  62  65
ATOM     65  S   UNL A   1      40.025  35.853  36.731  1.00  0.00     0.127 S 
ATOM     66  O   UNL A   1      41.462  35.598  36.841  1.00  0.00    -0.237 OA
ATOM     67  O   UNL A   1      39.612  36.478  35.475  1.00  0.00    -0.237 OA
ATOM     68  O   UNL A   1      39.402  36.407  37.924  1.00  0.00    -0.744 OA
ENDBRANCH  62  65
ENDBRANCH  44  58
BRANCH  45  69
ATOM     69  C   UNL A   1      42.531  26.247  28.003  1.00  0.00     0.023 A 
ATOM     70  C   UNL A   1      43.493  26.808  27.141  1.00  0.00     0.012 A 
ATOM     71  C   UNL A   1      42.081  24.934  27.767  1.00  0.00     0.148 A 
ATOM     72  C   UNL A   1      43.960  26.098  26.035  1.00  0.00     0.002 A 
ATOM     73  C   UNL A   1      42.594  24.209  26.697  1.00  0.00     0.091 A 
ATOM     74  F   UNL A   1      41.156  24.421  28.590  1.00  0.00    -0.205 F 
ATOM     75  C   UNL A   1      43.517  24.796  25.817  1.00  0.00     0.022 A 
BRANCH  73  76
ATOM     76  S   UNL A   1      42.169  22.489  26.405  1.00  0.00     0.127 S 
ATOM     77  O   UNL A   1      42.673  21.847  27.617  1.00  0.00    -0.237 OA
ATOM     78  O   UNL A   1      40.712  22.554  26.300  1.00  0.00    -0.237 OA
ATOM     79  O   UNL A   1      42.847  22.124  25.169  1.00  0.00    -0.744 OA
ENDBRANCH  73  76
ENDBRANCH  45  69
BRANCH  57  80
ATOM     80  C   UNL A   1      44.800  27.569  34.470  1.00  0.00     0.023 A 
ATOM     81  C   UNL A   1      45.988  28.325  34.506  1.00  0.00     0.012 A 
ATOM     82  C   UNL A   1      44.697  26.404  35.257  1.00  0.00     0.148 A 
ATOM     83  C   UNL A   1      47.066  27.911  35.289  1.00  0.00     0.002 A 
ATOM     84  C   UNL A   1      45.753  26.029  36.077  1.00  0.00     0.091 A 
ATOM     85  F   UNL A   1      43.562  25.691  35.196  1.00  0.00    -0.205 F 
ATOM     86  C   UNL A   1      46.943  26.773  36.084  1.00  0.00     0.022 A 
BRANCH  84  87
ATOM     87  S   UNL A   1      45.647  24.642  37.213  1.00  0.00     0.127 S 
ATOM     88  O   UNL A   1      45.491  23.516  36.294  1.00  0.00    -0.237 OA
ATOM     89  O   UNL A   1      46.941  24.701  37.892  1.00  0.00    -0.237 OA
ATOM     90  O   UNL A   1      44.499  24.907  38.071  1.00  0.00    -0.744 OA
ENDBRANCH  84  87
ENDBRANCH  57  80
ENDBRANCH  31  32
ENDBRANCH  24  26
ENDBRANCH  23  24
ENDBRANCH  22  23
ENDBRANCH  21  22
ENDBRANCH   1  21
TORSDOF 21
ENDMDL
