MODEL 1
REMARK VINA RESULT:      -7.9      0.000      0.000
REMARK SMILES CC(C)C[C@H](NC(=O)CNC(=O)[C@@H](NC(=O)OCc1ccccc1)C(C)C)C(=O)N[C@@H](C)C(=O)OCCOCCOC(=O)c1ccc(-c2c3nc(c(-c4cccc(S(=O)(=O)[O-])c4F)c4ccc([nH]4)c(-c4cccc(S(=O)(=O)[O-])c4F)c4nc(c(-c5cccc(S(=O)(=O)[O-])c5F)c5ccc2[nH]5)C=C4)C=C3)cc1
REMARK SMILES IDX 33 1 34 2 31 3 32 4 30 5 28 6 29 7 5 9 4 10 2 11 1 12 3 13
REMARK SMILES IDX 6 14 7 15 8 17 9 18 10 19 11 20 12 22 13 23 14 24 15 25
REMARK SMILES IDX 16 27 17 28 18 29 19 30 20 31 24 32 21 33 23 34 22 35 25 36
REMARK SMILES IDX 26 37 27 38 35 39 36 40 37 41 38 42 39 43 40 44 41 45 42 46
REMARK SMILES IDX 43 47 44 48 45 49 106 50 46 51 105 52 47 53 48 54 49 55
REMARK SMILES IDX 99 56 50 57 104 58 98 59 100 60 51 61 103 62 97 63 96 64
REMARK SMILES IDX 52 66 84 67 64 68 83 69 65 70 68 71 82 72 101 73 66 74 67 75
REMARK SMILES IDX 81 77 102 78 69 79 53 80 54 81 62 82 55 83 57 84 63 85 56 86
REMARK SMILES IDX 58 87 59 88 60 89 61 90 85 91 86 92 94 93 87 94 89 95 95 96
REMARK SMILES IDX 88 97 90 98 91 99 92 100 93 101 70 102 71 103 79 104 72 105
REMARK SMILES IDX 74 106 80 107 73 108 75 109 76 110 77 111 78 112
REMARK H PARENT 30 8 6 16 10 21 14 26 100 65 68 76
REMARK Flexibility Score: inf
ROOT
ATOM      1  C   UNL A   1      42.143  40.138  26.166  1.00  0.00     0.328 C 
ATOM      2  O   UNL A   1      40.948  40.274  25.926  1.00  0.00    -0.250 OA
ENDROOT
BRANCH   1   3
ATOM      3  C   UNL A   1      43.207  41.132  25.658  1.00  0.00     0.189 C 
ATOM      4  C   UNL A   1      43.958  41.653  26.878  1.00  0.00     0.043 C 
BRANCH   3   5
ATOM      5  N   UNL A   1      42.684  42.265  24.882  1.00  0.00    -0.341 N 
ATOM      6  C   UNL A   1      43.258  43.123  23.996  1.00  0.00     0.243 C 
ATOM      7  O   UNL A   1      42.495  43.875  23.368  1.00  0.00    -0.273 OA
ATOM      8  H   UNL A   1      41.726  42.438  25.035  1.00  0.00     0.164 HD
BRANCH   6   9
ATOM      9  C   UNL A   1      44.766  43.142  23.611  1.00  0.00     0.171 C 
BRANCH   9  10
ATOM     10  C   UNL A   1      45.491  44.404  24.138  1.00  0.00     0.038 C 
BRANCH  10  11
ATOM     11  C   UNL A   1      46.058  44.242  25.579  1.00  0.00    -0.015 C 
ATOM     12  C   UNL A   1      47.063  43.096  25.666  1.00  0.00     0.007 C 
ATOM     13  C   UNL A   1      46.793  45.488  26.081  1.00  0.00     0.007 C 
ENDBRANCH  10  11
ENDBRANCH   9  10
BRANCH   9  14
ATOM     14  N   UNL A   1      45.023  42.924  22.191  1.00  0.00    -0.343 N 
ATOM     15  C   UNL A   1      46.130  42.530  21.511  1.00  0.00     0.240 C 
ATOM     16  H   UNL A   1      44.244  43.098  21.614  1.00  0.00     0.164 HD
ATOM     17  O   UNL A   1      45.965  42.310  20.303  1.00  0.00    -0.273 OA
BRANCH  15  18
ATOM     18  C   UNL A   1      47.521  42.250  22.126  1.00  0.00     0.216 C 
BRANCH  18  19
ATOM     19  N   UNL A   1      48.435  43.314  22.484  1.00  0.00    -0.345 N 
ATOM     20  C   UNL A   1      48.621  44.575  22.007  1.00  0.00     0.243 C 
ATOM     21  H   UNL A   1      49.044  43.078  23.221  1.00  0.00     0.164 HD
ATOM     22  O   UNL A   1      49.342  45.306  22.700  1.00  0.00    -0.273 OA
BRANCH  20  23
ATOM     23  C   UNL A   1      47.917  45.160  20.756  1.00  0.00     0.177 C 
BRANCH  23  24
ATOM     24  N   UNL A   1      47.085  46.313  21.111  1.00  0.00    -0.309 N 
ATOM     25  C   UNL A   1      45.809  46.643  20.797  1.00  0.00     0.408 C 
ATOM     26  H   UNL A   1      47.539  46.971  21.685  1.00  0.00     0.167 HD
ATOM     27  O   UNL A   1      45.447  47.815  20.800  1.00  0.00    -0.225 OA
BRANCH  25  28
ATOM     28  O   UNL A   1      45.015  45.593  20.514  1.00  0.00    -0.445 OA
BRANCH  28  29
ATOM     29  C   UNL A   1      44.735  45.388  19.122  1.00  0.00     0.270 C 
BRANCH  29  30
ATOM     30  C   UNL A   1      43.306  44.942  18.894  1.00  0.00    -0.011 A 
ATOM     31  C   UNL A   1      42.500  45.593  17.950  1.00  0.00     0.007 A 
ATOM     32  C   UNL A   1      42.731  43.910  19.655  1.00  0.00     0.007 A 
ATOM     33  C   UNL A   1      41.163  45.222  17.778  1.00  0.00     0.000 A 
ATOM     34  C   UNL A   1      41.401  43.531  19.475  1.00  0.00     0.000 A 
ATOM     35  C   UNL A   1      40.615  44.192  18.540  1.00  0.00     0.000 A 
ENDBRANCH  29  30
ENDBRANCH  28  29
ENDBRANCH  25  28
ENDBRANCH  23  24
BRANCH  23  36
ATOM     36  C   UNL A   1      48.876  45.297  19.552  1.00  0.00     0.015 C 
ATOM     37  C   UNL A   1      49.665  46.617  19.577  1.00  0.00     0.010 C 
ATOM     38  C   UNL A   1      49.898  44.151  19.527  1.00  0.00     0.010 C 
ENDBRANCH  23  36
ENDBRANCH  20  23
ENDBRANCH  18  19
ENDBRANCH  15  18
ENDBRANCH   9  14
ENDBRANCH   6   9
ENDBRANCH   3   5
ENDBRANCH   1   3
BRANCH   1  39
ATOM     39  O   UNL A   1      42.692  39.080  26.822  1.00  0.00    -0.462 OA
BRANCH  39  40
ATOM     40  C   UNL A   1      41.820  38.364  27.722  1.00  0.00     0.261 C 
BRANCH  40  41
ATOM     41  C   UNL A   1      41.942  36.854  27.490  1.00  0.00     0.202 C 
BRANCH  41  42
ATOM     42  O   UNL A   1      42.555  36.471  26.259  1.00  0.00    -0.374 OA
BRANCH  42  43
ATOM     43  C   UNL A   1      43.301  35.259  26.295  1.00  0.00     0.202 C 
BRANCH  43  44
ATOM     44  C   UNL A   1      44.657  35.298  26.995  1.00  0.00     0.261 C 
BRANCH  44  45
ATOM     45  O   UNL A   1      45.022  36.651  27.288  1.00  0.00    -0.460 OA
BRANCH  45  46
ATOM     46  C   UNL A   1      46.057  36.767  28.147  1.00  0.00     0.338 C 
ATOM     47  O   UNL A   1      47.221  37.011  27.875  1.00  0.00    -0.246 OA
BRANCH  46  48
ATOM     48  C   UNL A   1      45.534  36.778  29.520  1.00  0.00     0.060 A 
ATOM     49  C   UNL A   1      45.971  35.749  30.363  1.00  0.00     0.016 A 
ATOM     50  C   UNL A   1      44.627  37.741  29.968  1.00  0.00     0.016 A 
ATOM     51  C   UNL A   1      45.446  35.636  31.642  1.00  0.00     0.010 A 
ATOM     52  C   UNL A   1      44.097  37.622  31.254  1.00  0.00     0.010 A 
ATOM     53  C   UNL A   1      44.470  36.542  32.074  1.00  0.00    -0.014 A 
BRANCH  53  54
ATOM     54  C   UNL A   1      43.729  36.248  33.319  1.00  0.00     0.031 A 
ATOM     55  C   UNL A   1      42.486  35.407  33.237  1.00  0.00     0.074 A 
ATOM     56  C   UNL A   1      44.186  36.689  34.503  1.00  0.00     0.049 A 
ATOM     57  N   UNL A   1      41.687  35.020  34.195  1.00  0.00    -0.248 NA
ATOM     58  C   UNL A   1      42.091  34.940  31.897  1.00  0.00     0.031 C 
ATOM     59  C   UNL A   1      45.389  37.498  34.695  1.00  0.00     0.029 A 
ATOM     60  N   UNL A   1      43.677  36.532  35.765  1.00  0.00    -0.354 N 
ATOM     61  C   UNL A   1      40.677  34.296  33.574  1.00  0.00     0.074 A 
ATOM     62  C   UNL A   1      40.957  34.304  32.156  1.00  0.00     0.031 C 
ATOM     63  C   UNL A   1      45.512  37.789  36.001  1.00  0.00     0.029 A 
ATOM     64  C   UNL A   1      44.383  37.212  36.727  1.00  0.00     0.049 A 
ATOM     65  H   UNL A   1      42.884  35.984  35.964  1.00  0.00     0.167 HD
ATOM     66  C   UNL A   1      39.619  33.668  34.137  1.00  0.00     0.034 A 
ATOM     67  C   UNL A   1      44.129  37.372  38.040  1.00  0.00     0.034 A 
ATOM     68  C   UNL A   1      39.358  33.652  35.551  1.00  0.00     0.049 A 
ATOM     69  C   UNL A   1      42.927  36.688  38.638  1.00  0.00     0.074 A 
ATOM     70  C   UNL A   1      38.342  33.008  36.231  1.00  0.00     0.029 A 
ATOM     71  N   UNL A   1      40.110  34.330  36.500  1.00  0.00    -0.354 N 
ATOM     72  N   UNL A   1      42.043  35.914  38.057  1.00  0.00    -0.248 NA
ATOM     73  C   UNL A   1      42.708  36.873  40.080  1.00  0.00     0.031 C 
ATOM     74  C   UNL A   1      38.454  33.329  37.587  1.00  0.00     0.029 A 
ATOM     75  C   UNL A   1      39.568  34.134  37.759  1.00  0.00     0.049 A 
ATOM     76  H   UNL A   1      40.910  34.869  36.307  1.00  0.00     0.167 HD
ATOM     77  C   UNL A   1      41.186  35.489  39.065  1.00  0.00     0.074 A 
ATOM     78  C   UNL A   1      41.670  36.077  40.298  1.00  0.00     0.031 C 
ATOM     79  C   UNL A   1      40.091  34.691  38.981  1.00  0.00     0.034 A 
BRANCH  66  80
ATOM     80  C   UNL A   1      38.666  32.943  33.224  1.00  0.00     0.023 A 
ATOM     81  C   UNL A   1      38.914  31.602  32.865  1.00  0.00     0.012 A 
ATOM     82  C   UNL A   1      37.500  33.579  32.756  1.00  0.00     0.148 A 
ATOM     83  C   UNL A   1      38.033  30.917  32.029  1.00  0.00     0.002 A 
ATOM     84  C   UNL A   1      36.603  32.875  31.963  1.00  0.00     0.091 A 
ATOM     85  F   UNL A   1      37.294  34.862  33.086  1.00  0.00    -0.205 F 
ATOM     86  C   UNL A   1      36.873  31.549  31.588  1.00  0.00     0.022 A 
BRANCH  84  87
ATOM     87  S   UNL A   1      35.043  33.573  31.411  1.00  0.00     0.127 S 
ATOM     88  O   UNL A   1      34.081  32.615  31.955  1.00  0.00    -0.237 OA
ATOM     89  O   UNL A   1      35.042  34.879  32.070  1.00  0.00    -0.237 OA
ATOM     90  O   UNL A   1      35.116  33.625  29.958  1.00  0.00    -0.744 OA
ENDBRANCH  84  87
ENDBRANCH  66  80
BRANCH  67  91
ATOM     91  C   UNL A   1      45.038  38.202  38.878  1.00  0.00     0.023 A 
ATOM     92  C   UNL A   1      46.164  37.614  39.484  1.00  0.00     0.012 A 
ATOM     93  C   UNL A   1      44.798  39.579  39.061  1.00  0.00     0.148 A 
ATOM     94  C   UNL A   1      47.017  38.375  40.285  1.00  0.00     0.002 A 
ATOM     95  C   UNL A   1      45.684  40.342  39.810  1.00  0.00     0.091 A 
ATOM     96  F   UNL A   1      43.714  40.115  38.485  1.00  0.00    -0.205 F 
ATOM     97  C   UNL A   1      46.783  39.739  40.440  1.00  0.00     0.022 A 
BRANCH  95  98
ATOM     98  S   UNL A   1      45.534  42.126  39.953  1.00  0.00     0.127 S 
ATOM     99  O   UNL A   1      46.725  42.465  40.727  1.00  0.00    -0.237 OA
ATOM    100  O   UNL A   1      45.569  42.542  38.551  1.00  0.00    -0.237 OA
ATOM    101  O   UNL A   1      44.261  42.363  40.618  1.00  0.00    -0.744 OA
ENDBRANCH  95  98
ENDBRANCH  67  91
BRANCH  79 102
ATOM    102  C   UNL A   1      39.363  34.365  40.260  1.00  0.00     0.023 A 
ATOM    103  C   UNL A   1      38.392  35.251  40.767  1.00  0.00     0.012 A 
ATOM    104  C   UNL A   1      39.595  33.140  40.918  1.00  0.00     0.148 A 
ATOM    105  C   UNL A   1      37.690  34.940  41.931  1.00  0.00     0.002 A 
ATOM    106  C   UNL A   1      38.852  32.813  42.045  1.00  0.00     0.091 A 
ATOM    107  F   UNL A   1      40.534  32.318  40.427  1.00  0.00    -0.205 F 
ATOM    108  C   UNL A   1      37.910  33.717  42.562  1.00  0.00     0.022 A 
BRANCH 106 109
ATOM    109  S   UNL A   1      38.995  31.221  42.864  1.00  0.00     0.127 S 
ATOM    110  O   UNL A   1      40.385  31.241  43.314  1.00  0.00    -0.237 OA
ATOM    111  O   UNL A   1      38.004  31.335  43.935  1.00  0.00    -0.237 OA
ATOM    112  O   UNL A   1      38.681  30.218  41.854  1.00  0.00    -0.744 OA
ENDBRANCH 106 109
ENDBRANCH  79 102
ENDBRANCH  53  54
ENDBRANCH  46  48
ENDBRANCH  45  46
ENDBRANCH  44  45
ENDBRANCH  43  44
ENDBRANCH  42  43
ENDBRANCH  41  42
ENDBRANCH  40  41
ENDBRANCH  39  40
ENDBRANCH   1  39
TORSDOF 30
ENDMDL
MODEL 2
REMARK VINA RESULT:      -7.5      1.828      2.364
REMARK SMILES CC(C)C[C@H](NC(=O)CNC(=O)[C@@H](NC(=O)OCc1ccccc1)C(C)C)C(=O)N[C@@H](C)C(=O)OCCOCCOC(=O)c1ccc(-c2c3nc(c(-c4cccc(S(=O)(=O)[O-])c4F)c4ccc([nH]4)c(-c4cccc(S(=O)(=O)[O-])c4F)c4nc(c(-c5cccc(S(=O)(=O)[O-])c5F)c5ccc2[nH]5)C=C4)C=C3)cc1
REMARK SMILES IDX 33 1 34 2 31 3 32 4 30 5 28 6 29 7 5 9 4 10 2 11 1 12 3 13
REMARK SMILES IDX 6 14 7 15 8 17 9 18 10 19 11 20 12 22 13 23 14 24 15 25
REMARK SMILES IDX 16 27 17 28 18 29 19 30 20 31 24 32 21 33 23 34 22 35 25 36
REMARK SMILES IDX 26 37 27 38 35 39 36 40 37 41 38 42 39 43 40 44 41 45 42 46
REMARK SMILES IDX 43 47 44 48 45 49 106 50 46 51 105 52 47 53 48 54 49 55
REMARK SMILES IDX 99 56 50 57 104 58 98 59 100 60 51 61 103 62 97 63 96 64
REMARK SMILES IDX 52 66 84 67 64 68 83 69 65 70 68 71 82 72 101 73 66 74 67 75
REMARK SMILES IDX 81 77 102 78 69 79 53 80 54 81 62 82 55 83 57 84 63 85 56 86
REMARK SMILES IDX 58 87 59 88 60 89 61 90 85 91 86 92 94 93 87 94 89 95 95 96
REMARK SMILES IDX 88 97 90 98 91 99 92 100 93 101 70 102 71 103 79 104 72 105
REMARK SMILES IDX 74 106 80 107 73 108 75 109 76 110 77 111 78 112
REMARK H PARENT 30 8 6 16 10 21 14 26 100 65 68 76
REMARK Flexibility Score: inf
ROOT
ATOM      1  C   UNL A   1      42.425  40.399  26.019  1.00  0.00     0.328 C 
ATOM      2  O   UNL A   1      41.222  40.594  25.885  1.00  0.00    -0.250 OA
ENDROOT
BRANCH   1   3
ATOM      3  C   UNL A   1      43.487  41.386  25.493  1.00  0.00     0.189 C 
ATOM      4  C   UNL A   1      44.231  41.938  26.703  1.00  0.00     0.043 C 
BRANCH   3   5
ATOM      5  N   UNL A   1      42.961  42.499  24.690  1.00  0.00    -0.341 N 
ATOM      6  C   UNL A   1      43.526  43.318  23.761  1.00  0.00     0.243 C 
ATOM      7  O   UNL A   1      42.759  44.058  23.125  1.00  0.00    -0.273 OA
ATOM      8  H   UNL A   1      42.010  42.691  24.859  1.00  0.00     0.164 HD
BRANCH   6   9
ATOM      9  C   UNL A   1      45.024  43.301  23.341  1.00  0.00     0.171 C 
BRANCH   9  10
ATOM     10  C   UNL A   1      45.766  44.596  23.755  1.00  0.00     0.038 C 
BRANCH  10  11
ATOM     11  C   UNL A   1      46.408  44.522  25.170  1.00  0.00    -0.015 C 
ATOM     12  C   UNL A   1      47.845  45.040  25.168  1.00  0.00     0.007 C 
ATOM     13  C   UNL A   1      45.661  45.354  26.215  1.00  0.00     0.007 C 
ENDBRANCH  10  11
ENDBRANCH   9  10
BRANCH   9  14
ATOM     14  N   UNL A   1      45.248  42.976  21.935  1.00  0.00    -0.343 N 
ATOM     15  C   UNL A   1      46.346  42.558  21.256  1.00  0.00     0.240 C 
ATOM     16  H   UNL A   1      44.448  43.081  21.371  1.00  0.00     0.164 HD
ATOM     17  O   UNL A   1      46.154  42.236  20.075  1.00  0.00    -0.273 OA
BRANCH  15  18
ATOM     18  C   UNL A   1      47.762  42.366  21.849  1.00  0.00     0.216 C 
BRANCH  18  19
ATOM     19  N   UNL A   1      48.675  43.473  22.039  1.00  0.00    -0.345 N 
ATOM     20  C   UNL A   1      48.726  44.731  21.522  1.00  0.00     0.243 C 
ATOM     21  H   UNL A   1      49.406  43.277  22.669  1.00  0.00     0.164 HD
ATOM     22  O   UNL A   1      49.518  45.504  22.079  1.00  0.00    -0.273 OA
BRANCH  20  23
ATOM     23  C   UNL A   1      47.802  45.264  20.397  1.00  0.00     0.177 C 
BRANCH  23  24
ATOM     24  N   UNL A   1      46.953  46.354  20.885  1.00  0.00    -0.309 N 
ATOM     25  C   UNL A   1      45.671  46.699  20.612  1.00  0.00     0.408 C 
ATOM     26  H   UNL A   1      47.398  46.948  21.532  1.00  0.00     0.167 HD
ATOM     27  O   UNL A   1      45.291  47.857  20.752  1.00  0.00    -0.225 OA
BRANCH  25  28
ATOM     28  O   UNL A   1      44.893  45.677  20.207  1.00  0.00    -0.445 OA
BRANCH  28  29
ATOM     29  C   UNL A   1      44.932  45.388  18.803  1.00  0.00     0.270 C 
BRANCH  29  30
ATOM     30  C   UNL A   1      44.023  46.306  18.013  1.00  0.00    -0.011 A 
ATOM     31  C   UNL A   1      42.641  46.073  17.972  1.00  0.00     0.007 A 
ATOM     32  C   UNL A   1      44.536  47.373  17.257  1.00  0.00     0.007 A 
ATOM     33  C   UNL A   1      41.805  46.882  17.197  1.00  0.00     0.000 A 
ATOM     34  C   UNL A   1      43.701  48.187  16.493  1.00  0.00     0.000 A 
ATOM     35  C   UNL A   1      42.335  47.938  16.458  1.00  0.00     0.000 A 
ENDBRANCH  29  30
ENDBRANCH  28  29
ENDBRANCH  25  28
ENDBRANCH  23  24
BRANCH  23  36
ATOM     36  C   UNL A   1      48.557  45.468  19.065  1.00  0.00     0.015 C 
ATOM     37  C   UNL A   1      48.714  46.954  18.701  1.00  0.00     0.010 C 
ATOM     38  C   UNL A   1      49.965  44.859  19.129  1.00  0.00     0.010 C 
ENDBRANCH  23  36
ENDBRANCH  20  23
ENDBRANCH  18  19
ENDBRANCH  15  18
ENDBRANCH   9  14
ENDBRANCH   6   9
ENDBRANCH   3   5
ENDBRANCH   1   3
BRANCH   1  39
ATOM     39  O   UNL A   1      42.980  39.280  26.558  1.00  0.00    -0.462 OA
BRANCH  39  40
ATOM     40  C   UNL A   1      42.070  38.361  27.199  1.00  0.00     0.261 C 
BRANCH  40  41
ATOM     41  C   UNL A   1      42.332  36.930  26.718  1.00  0.00     0.202 C 
BRANCH  41  42
ATOM     42  O   UNL A   1      43.676  36.471  26.868  1.00  0.00    -0.374 OA
BRANCH  42  43
ATOM     43  C   UNL A   1      43.819  35.136  27.341  1.00  0.00     0.202 C 
BRANCH  43  44
ATOM     44  C   UNL A   1      44.286  34.956  28.783  1.00  0.00     0.261 C 
BRANCH  44  45
ATOM     45  O   UNL A   1      44.992  36.121  29.222  1.00  0.00    -0.460 OA
BRANCH  45  46
ATOM     46  C   UNL A   1      45.972  35.867  30.116  1.00  0.00     0.338 C 
ATOM     47  O   UNL A   1      47.172  35.830  29.908  1.00  0.00    -0.246 OA
BRANCH  46  48
ATOM     48  C   UNL A   1      45.389  35.856  31.466  1.00  0.00     0.060 A 
ATOM     49  C   UNL A   1      45.703  34.755  32.272  1.00  0.00     0.016 A 
ATOM     50  C   UNL A   1      44.546  36.869  31.926  1.00  0.00     0.016 A 
ATOM     51  C   UNL A   1      45.114  34.625  33.521  1.00  0.00     0.010 A 
ATOM     52  C   UNL A   1      43.950  36.733  33.181  1.00  0.00     0.010 A 
ATOM     53  C   UNL A   1      44.197  35.588  33.958  1.00  0.00    -0.014 A 
BRANCH  53  54
ATOM     54  C   UNL A   1      43.379  35.298  35.156  1.00  0.00     0.031 A 
ATOM     55  C   UNL A   1      42.048  34.624  34.974  1.00  0.00     0.074 A 
ATOM     56  C   UNL A   1      43.840  35.594  36.382  1.00  0.00     0.049 A 
ATOM     57  N   UNL A   1      41.172  34.270  35.877  1.00  0.00    -0.248 NA
ATOM     58  C   UNL A   1      41.651  34.306  33.592  1.00  0.00     0.031 C 
ATOM     59  C   UNL A   1      45.124  36.234  36.670  1.00  0.00     0.029 A 
ATOM     60  N   UNL A   1      43.268  35.410  37.614  1.00  0.00    -0.354 N 
ATOM     61  C   UNL A   1      40.108  33.721  35.173  1.00  0.00     0.074 A 
ATOM     62  C   UNL A   1      40.440  33.797  33.769  1.00  0.00     0.031 C 
ATOM     63  C   UNL A   1      45.231  36.413  37.997  1.00  0.00     0.029 A 
ATOM     64  C   UNL A   1      44.014  35.928  38.645  1.00  0.00     0.049 A 
ATOM     65  H   UNL A   1      42.408  34.951  37.748  1.00  0.00     0.167 HD
ATOM     66  C   UNL A   1      38.961  33.189  35.656  1.00  0.00     0.034 A 
ATOM     67  C   UNL A   1      43.731  36.023  39.958  1.00  0.00     0.034 A 
ATOM     68  C   UNL A   1      38.647  33.104  37.057  1.00  0.00     0.049 A 
ATOM     69  C   UNL A   1      42.434  35.450  40.467  1.00  0.00     0.074 A 
ATOM     70  C   UNL A   1      37.535  32.541  37.656  1.00  0.00     0.029 A 
ATOM     71  N   UNL A   1      39.438  33.614  38.076  1.00  0.00    -0.354 N 
ATOM     72  N   UNL A   1      41.486  34.834  39.804  1.00  0.00    -0.248 NA
ATOM     73  C   UNL A   1      42.184  35.555  41.913  1.00  0.00     0.031 C 
ATOM     74  C   UNL A   1      37.633  32.748  39.035  1.00  0.00     0.029 A 
ATOM     75  C   UNL A   1      38.829  33.396  39.300  1.00  0.00     0.049 A 
ATOM     76  H   UNL A   1      40.303  34.064  37.948  1.00  0.00     0.167 HD
ATOM     77  C   UNL A   1      40.546  34.445  40.752  1.00  0.00     0.074 A 
ATOM     78  C   UNL A   1      41.051  34.879  42.039  1.00  0.00     0.031 C 
ATOM     79  C   UNL A   1      39.368  33.795  40.575  1.00  0.00     0.034 A 
BRANCH  66  80
ATOM     80  C   UNL A   1      37.964  32.654  34.663  1.00  0.00     0.023 A 
ATOM     81  C   UNL A   1      36.843  33.429  34.300  1.00  0.00     0.012 A 
ATOM     82  C   UNL A   1      38.162  31.400  34.054  1.00  0.00     0.148 A 
ATOM     83  C   UNL A   1      35.919  32.950  33.372  1.00  0.00     0.002 A 
ATOM     84  C   UNL A   1      37.263  30.950  33.095  1.00  0.00     0.091 A 
ATOM     85  F   UNL A   1      39.219  30.666  34.430  1.00  0.00    -0.205 F 
ATOM     86  C   UNL A   1      36.134  31.716  32.763  1.00  0.00     0.022 A 
BRANCH  84  87
ATOM     87  S   UNL A   1      37.495  29.413  32.195  1.00  0.00     0.127 S 
ATOM     88  O   UNL A   1      38.835  29.597  31.638  1.00  0.00    -0.237 OA
ATOM     89  O   UNL A   1      37.409  28.417  33.262  1.00  0.00    -0.237 OA
ATOM     90  O   UNL A   1      36.418  29.352  31.217  1.00  0.00    -0.744 OA
ENDBRANCH  84  87
ENDBRANCH  66  80
BRANCH  67  91
ATOM     91  C   UNL A   1      44.701  36.673  40.883  1.00  0.00     0.023 A 
ATOM     92  C   UNL A   1      45.704  35.903  41.501  1.00  0.00     0.012 A 
ATOM     93  C   UNL A   1      44.642  38.058  41.137  1.00  0.00     0.148 A 
ATOM     94  C   UNL A   1      46.610  36.494  42.383  1.00  0.00     0.002 A 
ATOM     95  C   UNL A   1      45.583  38.650  41.968  1.00  0.00     0.091 A 
ATOM     96  F   UNL A   1      43.672  38.770  40.547  1.00  0.00    -0.205 F 
ATOM     97  C   UNL A   1      46.557  37.867  42.608  1.00  0.00     0.022 A 
BRANCH  95  98
ATOM     98  S   UNL A   1      45.672  40.427  42.210  1.00  0.00     0.127 S 
ATOM     99  O   UNL A   1      45.957  40.899  40.859  1.00  0.00    -0.237 OA
ATOM    100  O   UNL A   1      44.326  40.729  42.699  1.00  0.00    -0.237 OA
ATOM    101  O   UNL A   1      46.728  40.640  43.190  1.00  0.00    -0.744 OA
ENDBRANCH  95  98
ENDBRANCH  67  91
BRANCH  79 102
ATOM    102  C   UNL A   1      38.558  33.469  41.804  1.00  0.00     0.023 A 
ATOM    103  C   UNL A   1      37.606  34.388  42.288  1.00  0.00     0.012 A 
ATOM    104  C   UNL A   1      38.695  32.217  42.435  1.00  0.00     0.148 A 
ATOM    105  C   UNL A   1      36.828  34.079  43.404  1.00  0.00     0.002 A 
ATOM    106  C   UNL A   1      37.879  31.895  43.511  1.00  0.00     0.091 A 
ATOM    107  F   UNL A   1      39.618  31.363  41.968  1.00  0.00    -0.205 F 
ATOM    108  C   UNL A   1      36.956  32.829  44.006  1.00  0.00     0.022 A 
BRANCH 106 109
ATOM    109  S   UNL A   1      37.900  30.274  44.286  1.00  0.00     0.127 S 
ATOM    110  O   UNL A   1      37.932  29.389  43.124  1.00  0.00    -0.237 OA
ATOM    111  O   UNL A   1      39.145  30.317  45.056  1.00  0.00    -0.237 OA
ATOM    112  O   UNL A   1      36.691  30.198  45.096  1.00  0.00    -0.744 OA
ENDBRANCH 106 109
ENDBRANCH  79 102
ENDBRANCH  53  54
ENDBRANCH  46  48
ENDBRANCH  45  46
ENDBRANCH  44  45
ENDBRANCH  43  44
ENDBRANCH  42  43
ENDBRANCH  41  42
ENDBRANCH  40  41
ENDBRANCH  39  40
ENDBRANCH   1  39
TORSDOF 30
ENDMDL
MODEL 3
REMARK VINA RESULT:      -6.9      8.133     13.418
REMARK SMILES CC(C)C[C@H](NC(=O)CNC(=O)[C@@H](NC(=O)OCc1ccccc1)C(C)C)C(=O)N[C@@H](C)C(=O)OCCOCCOC(=O)c1ccc(-c2c3nc(c(-c4cccc(S(=O)(=O)[O-])c4F)c4ccc([nH]4)c(-c4cccc(S(=O)(=O)[O-])c4F)c4nc(c(-c5cccc(S(=O)(=O)[O-])c5F)c5ccc2[nH]5)C=C4)C=C3)cc1
REMARK SMILES IDX 33 1 34 2 31 3 32 4 30 5 28 6 29 7 5 9 4 10 2 11 1 12 3 13
REMARK SMILES IDX 6 14 7 15 8 17 9 18 10 19 11 20 12 22 13 23 14 24 15 25
REMARK SMILES IDX 16 27 17 28 18 29 19 30 20 31 24 32 21 33 23 34 22 35 25 36
REMARK SMILES IDX 26 37 27 38 35 39 36 40 37 41 38 42 39 43 40 44 41 45 42 46
REMARK SMILES IDX 43 47 44 48 45 49 106 50 46 51 105 52 47 53 48 54 49 55
REMARK SMILES IDX 99 56 50 57 104 58 98 59 100 60 51 61 103 62 97 63 96 64
REMARK SMILES IDX 52 66 84 67 64 68 83 69 65 70 68 71 82 72 101 73 66 74 67 75
REMARK SMILES IDX 81 77 102 78 69 79 53 80 54 81 62 82 55 83 57 84 63 85 56 86
REMARK SMILES IDX 58 87 59 88 60 89 61 90 85 91 86 92 94 93 87 94 89 95 95 96
REMARK SMILES IDX 88 97 90 98 91 99 92 100 93 101 70 102 71 103 79 104 72 105
REMARK SMILES IDX 74 106 80 107 73 108 75 109 76 110 77 111 78 112
REMARK H PARENT 30 8 6 16 10 21 14 26 100 65 68 76
REMARK Flexibility Score: inf
ROOT
ATOM      1  C   UNL A   1      42.538  40.331  26.078  1.00  0.00     0.328 C 
ATOM      2  O   UNL A   1      41.323  40.492  26.101  1.00  0.00    -0.250 OA
ENDROOT
BRANCH   1   3
ATOM      3  C   UNL A   1      43.500  41.373  25.472  1.00  0.00     0.189 C 
ATOM      4  C   UNL A   1      44.181  42.087  26.634  1.00  0.00     0.043 C 
BRANCH   3   5
ATOM      5  N   UNL A   1      42.871  42.364  24.588  1.00  0.00    -0.341 N 
ATOM      6  C   UNL A   1      43.355  43.154  23.592  1.00  0.00     0.243 C 
ATOM      7  O   UNL A   1      42.521  43.766  22.906  1.00  0.00    -0.273 OA
ATOM      8  H   UNL A   1      41.906  42.479  24.749  1.00  0.00     0.164 HD
BRANCH   6   9
ATOM      9  C   UNL A   1      44.848  43.244  23.162  1.00  0.00     0.171 C 
BRANCH   9  10
ATOM     10  C   UNL A   1      45.497  44.591  23.565  1.00  0.00     0.038 C 
BRANCH  10  11
ATOM     11  C   UNL A   1      46.115  44.582  24.993  1.00  0.00    -0.015 C 
ATOM     12  C   UNL A   1      47.602  44.930  24.969  1.00  0.00     0.007 C 
ATOM     13  C   UNL A   1      45.460  45.591  25.939  1.00  0.00     0.007 C 
ENDBRANCH  10  11
ENDBRANCH   9  10
BRANCH   9  14
ATOM     14  N   UNL A   1      45.085  42.930  21.755  1.00  0.00    -0.343 N 
ATOM     15  C   UNL A   1      46.163  42.431  21.098  1.00  0.00     0.240 C 
ATOM     16  H   UNL A   1      44.315  43.116  21.171  1.00  0.00     0.164 HD
ATOM     17  O   UNL A   1      45.978  42.152  19.905  1.00  0.00    -0.273 OA
BRANCH  15  18
ATOM     18  C   UNL A   1      47.537  42.103  21.725  1.00  0.00     0.216 C 
BRANCH  18  19
ATOM     19  N   UNL A   1      48.531  43.125  21.983  1.00  0.00    -0.345 N 
ATOM     20  C   UNL A   1      48.743  44.364  21.462  1.00  0.00     0.243 C 
ATOM     21  H   UNL A   1      49.185  42.871  22.675  1.00  0.00     0.164 HD
ATOM     22  O   UNL A   1      49.554  45.069  22.078  1.00  0.00    -0.273 OA
BRANCH  20  23
ATOM     23  C   UNL A   1      47.970  44.961  20.259  1.00  0.00     0.177 C 
BRANCH  23  24
ATOM     24  N   UNL A   1      47.114  46.072  20.681  1.00  0.00    -0.309 N 
ATOM     25  C   UNL A   1      45.885  46.477  20.277  1.00  0.00     0.408 C 
ATOM     26  H   UNL A   1      47.505  46.630  21.392  1.00  0.00     0.167 HD
ATOM     27  O   UNL A   1      45.536  47.646  20.409  1.00  0.00    -0.225 OA
BRANCH  25  28
ATOM     28  O   UNL A   1      45.119  45.499  19.757  1.00  0.00    -0.445 OA
BRANCH  28  29
ATOM     29  C   UNL A   1      45.199  45.343  18.334  1.00  0.00     0.270 C 
BRANCH  29  30
ATOM     30  C   UNL A   1      44.019  45.979  17.629  1.00  0.00    -0.011 A 
ATOM     31  C   UNL A   1      42.957  45.190  17.166  1.00  0.00     0.007 A 
ATOM     32  C   UNL A   1      43.979  47.359  17.368  1.00  0.00     0.007 A 
ATOM     33  C   UNL A   1      41.895  45.766  16.464  1.00  0.00     0.000 A 
ATOM     34  C   UNL A   1      42.914  47.936  16.679  1.00  0.00     0.000 A 
ATOM     35  C   UNL A   1      41.874  47.139  16.221  1.00  0.00     0.000 A 
ENDBRANCH  29  30
ENDBRANCH  28  29
ENDBRANCH  25  28
ENDBRANCH  23  24
BRANCH  23  36
ATOM     36  C   UNL A   1      48.876  45.168  19.024  1.00  0.00     0.015 C 
ATOM     37  C   UNL A   1      49.327  46.629  18.865  1.00  0.00     0.010 C 
ATOM     38  C   UNL A   1      50.141  44.303  19.116  1.00  0.00     0.010 C 
ENDBRANCH  23  36
ENDBRANCH  20  23
ENDBRANCH  18  19
ENDBRANCH  15  18
ENDBRANCH   9  14
ENDBRANCH   6   9
ENDBRANCH   3   5
ENDBRANCH   1   3
BRANCH   1  39
ATOM     39  O   UNL A   1      43.184  39.207  26.491  1.00  0.00    -0.462 OA
BRANCH  39  40
ATOM     40  C   UNL A   1      42.568  38.477  27.573  1.00  0.00     0.261 C 
BRANCH  40  41
ATOM     41  C   UNL A   1      42.052  37.122  27.075  1.00  0.00     0.202 C 
BRANCH  41  42
ATOM     42  O   UNL A   1      43.014  36.313  26.398  1.00  0.00    -0.374 OA
BRANCH  42  43
ATOM     43  C   UNL A   1      43.139  34.978  26.876  1.00  0.00     0.202 C 
BRANCH  43  44
ATOM     44  C   UNL A   1      44.542  34.497  27.236  1.00  0.00     0.261 C 
BRANCH  44  45
ATOM     45  O   UNL A   1      45.365  34.458  26.065  1.00  0.00    -0.460 OA
BRANCH  45  46
ATOM     46  C   UNL A   1      46.553  33.842  26.248  1.00  0.00     0.338 C 
ATOM     47  O   UNL A   1      46.784  32.646  26.188  1.00  0.00    -0.246 OA
BRANCH  46  48
ATOM     48  C   UNL A   1      47.610  34.862  26.314  1.00  0.00     0.060 A 
ATOM     49  C   UNL A   1      48.335  34.932  27.510  1.00  0.00     0.016 A 
ATOM     50  C   UNL A   1      47.871  35.739  25.260  1.00  0.00     0.016 A 
ATOM     51  C   UNL A   1      49.281  35.931  27.684  1.00  0.00     0.010 A 
ATOM     52  C   UNL A   1      48.819  36.748  25.440  1.00  0.00     0.010 A 
ATOM     53  C   UNL A   1      49.490  36.873  26.670  1.00  0.00    -0.014 A 
BRANCH  53  54
ATOM     54  C   UNL A   1      50.290  38.079  26.974  1.00  0.00     0.031 A 
ATOM     55  C   UNL A   1      49.611  39.249  27.628  1.00  0.00     0.074 A 
ATOM     56  C   UNL A   1      51.606  38.107  26.708  1.00  0.00     0.049 A 
ATOM     57  N   UNL A   1      50.114  40.399  27.989  1.00  0.00    -0.248 NA
ATOM     58  C   UNL A   1      48.173  39.104  27.913  1.00  0.00     0.031 C 
ATOM     59  C   UNL A   1      52.366  37.020  26.090  1.00  0.00     0.029 A 
ATOM     60  N   UNL A   1      52.532  39.096  26.910  1.00  0.00    -0.354 N 
ATOM     61  C   UNL A   1      49.052  41.127  28.511  1.00  0.00     0.074 A 
ATOM     62  C   UNL A   1      47.874  40.295  28.410  1.00  0.00     0.031 C 
ATOM     63  C   UNL A   1      53.642  37.414  25.939  1.00  0.00     0.029 A 
ATOM     64  C   UNL A   1      53.779  38.786  26.422  1.00  0.00     0.049 A 
ATOM     65  H   UNL A   1      52.326  39.946  27.361  1.00  0.00     0.167 HD
ATOM     66  C   UNL A   1      49.062  42.374  29.039  1.00  0.00     0.034 A 
ATOM     67  C   UNL A   1      54.894  39.537  26.350  1.00  0.00     0.034 A 
ATOM     68  C   UNL A   1      50.242  43.187  29.148  1.00  0.00     0.049 A 
ATOM     69  C   UNL A   1      54.871  40.933  26.917  1.00  0.00     0.074 A 
ATOM     70  C   UNL A   1      50.372  44.444  29.709  1.00  0.00     0.029 A 
ATOM     71  N   UNL A   1      51.494  42.830  28.668  1.00  0.00    -0.354 N 
ATOM     72  N   UNL A   1      53.888  41.568  27.508  1.00  0.00    -0.248 NA
ATOM     73  C   UNL A   1      56.121  41.702  26.837  1.00  0.00     0.031 C 
ATOM     74  C   UNL A   1      51.693  44.866  29.531  1.00  0.00     0.029 A 
ATOM     75  C   UNL A   1      52.399  43.852  28.903  1.00  0.00     0.049 A 
ATOM     76  H   UNL A   1      51.707  41.978  28.226  1.00  0.00     0.167 HD
ATOM     77  C   UNL A   1      54.409  42.794  27.904  1.00  0.00     0.074 A 
ATOM     78  C   UNL A   1      55.800  42.804  27.502  1.00  0.00     0.031 C 
ATOM     79  C   UNL A   1      53.791  43.825  28.536  1.00  0.00     0.034 A 
BRANCH  66  80
ATOM     80  C   UNL A   1      47.756  42.932  29.541  1.00  0.00     0.023 A 
ATOM     81  C   UNL A   1      46.962  43.738  28.700  1.00  0.00     0.012 A 
ATOM     82  C   UNL A   1      47.295  42.618  30.834  1.00  0.00     0.148 A 
ATOM     83  C   UNL A   1      45.746  44.251  29.150  1.00  0.00     0.002 A 
ATOM     84  C   UNL A   1      46.060  43.093  31.258  1.00  0.00     0.091 A 
ATOM     85  F   UNL A   1      48.075  41.872  31.629  1.00  0.00    -0.205 F 
ATOM     86  C   UNL A   1      45.291  43.920  30.424  1.00  0.00     0.022 A 
BRANCH  84  87
ATOM     87  S   UNL A   1      45.348  42.657  32.849  1.00  0.00     0.127 S 
ATOM     88  O   UNL A   1      45.502  41.202  32.852  1.00  0.00    -0.237 OA
ATOM     89  O   UNL A   1      46.225  43.366  33.781  1.00  0.00    -0.237 OA
ATOM     90  O   UNL A   1      43.974  43.138  32.821  1.00  0.00    -0.744 OA
ENDBRANCH  84  87
ENDBRANCH  66  80
BRANCH  67  91
ATOM     91  C   UNL A   1      56.128  38.979  25.730  1.00  0.00     0.023 A 
ATOM     92  C   UNL A   1      57.081  38.325  26.533  1.00  0.00     0.012 A 
ATOM     93  C   UNL A   1      56.350  39.080  24.342  1.00  0.00     0.148 A 
ATOM     94  C   UNL A   1      58.250  37.810  25.970  1.00  0.00     0.002 A 
ATOM     95  C   UNL A   1      57.486  38.513  23.780  1.00  0.00     0.091 A 
ATOM     96  F   UNL A   1      55.435  39.717  23.598  1.00  0.00    -0.205 F 
ATOM     97  C   UNL A   1      58.448  37.895  24.594  1.00  0.00     0.022 A 
BRANCH  95  98
ATOM     98  S   UNL A   1      57.758  38.459  22.006  1.00  0.00     0.127 S 
ATOM     99  O   UNL A   1      59.029  37.746  21.920  1.00  0.00    -0.237 OA
ATOM    100  O   UNL A   1      56.593  37.701  21.548  1.00  0.00    -0.237 OA
ATOM    101  O   UNL A   1      57.781  39.847  21.567  1.00  0.00    -0.744 OA
ENDBRANCH  95  98
ENDBRANCH  67  91
BRANCH  79 102
ATOM    102  C   UNL A   1      54.623  45.035  28.876  1.00  0.00     0.023 A 
ATOM    103  C   UNL A   1      54.705  46.114  27.973  1.00  0.00     0.012 A 
ATOM    104  C   UNL A   1      55.264  45.129  30.127  1.00  0.00     0.148 A 
ATOM    105  C   UNL A   1      55.444  47.252  28.296  1.00  0.00     0.002 A 
ATOM    106  C   UNL A   1      55.952  46.288  30.464  1.00  0.00     0.091 A 
ATOM    107  F   UNL A   1      55.187  44.085  30.966  1.00  0.00    -0.205 F 
ATOM    108  C   UNL A   1      56.055  47.344  29.545  1.00  0.00     0.022 A 
BRANCH 106 109
ATOM    109  S   UNL A   1      56.685  46.537  32.084  1.00  0.00     0.127 S 
ATOM    110  O   UNL A   1      55.725  45.857  32.953  1.00  0.00    -0.237 OA
ATOM    111  O   UNL A   1      57.974  45.856  31.948  1.00  0.00    -0.237 OA
ATOM    112  O   UNL A   1      56.779  47.979  32.267  1.00  0.00    -0.744 OA
ENDBRANCH 106 109
ENDBRANCH  79 102
ENDBRANCH  53  54
ENDBRANCH  46  48
ENDBRANCH  45  46
ENDBRANCH  44  45
ENDBRANCH  43  44
ENDBRANCH  42  43
ENDBRANCH  41  42
ENDBRANCH  40  41
ENDBRANCH  39  40
ENDBRANCH   1  39
TORSDOF 30
ENDMDL
