MODEL 1
REMARK VINA RESULT:     -12.5      0.000      0.000
REMARK SMILES CC1=C(C)C[C@@H](C(=O)OCCOCCOC(=O)c2ccc(-c3c4nc(c(-c5cccc(S(=O)(=O)[O-])c5F)c5ccc([nH]5)c(-c5cccc(S(=O)(=O)[O-])c5F)c5nc(c(-c6cccc(S(=O)(=O)[O-])c6F)c6ccc3[nH]6)C=C5)C=C4)cc2)[C@@H](C(=O)N2CCN(c3cccc(C(F)(F)F)c3)CC2)C1
REMARK SMILES IDX 12 1 11 2 10 3 9 4 7 5 8 6 6 7 1 8 2 9 3 10 100 11 4 12 5 13
REMARK SMILES IDX 81 14 82 15 83 16 84 17 85 18 99 19 86 20 98 21 87 22 88 23
REMARK SMILES IDX 89 24 97 25 90 26 92 27 91 28 93 29 94 30 95 31 96 32 13 33
REMARK SMILES IDX 14 34 15 35 16 36 17 37 18 38 19 39 80 40 20 41 79 42 21 43
REMARK SMILES IDX 22 44 23 45 73 46 24 47 78 48 72 49 74 50 25 51 77 52 71 53
REMARK SMILES IDX 70 54 26 56 58 57 38 58 57 59 39 60 42 61 56 62 75 63 40 64
REMARK SMILES IDX 41 65 55 67 76 68 43 69 27 70 28 71 36 72 29 73 31 74 37 75
REMARK SMILES IDX 30 76 32 77 33 78 34 79 35 80 59 81 60 82 68 83 61 84 63 85
REMARK SMILES IDX 69 86 62 87 64 88 65 89 66 90 67 91 44 92 45 93 53 94 46 95
REMARK SMILES IDX 48 96 54 97 47 98 49 99 50 100 51 101 52 102
REMARK H PARENT 74 55 42 66
REMARK Flexibility Score: inf
ROOT
ATOM      1  O   UNL A   1      32.665  30.753  27.342  1.00  0.00    -0.374 OA
ENDROOT
BRANCH   1   2
ATOM      2  C   UNL A   1      32.485  29.478  26.714  1.00  0.00     0.202 C 
BRANCH   2   3
ATOM      3  C   UNL A   1      31.521  29.492  25.525  1.00  0.00     0.261 C 
BRANCH   3   4
ATOM      4  O   UNL A   1      32.191  29.480  24.243  1.00  0.00    -0.463 OA
BRANCH   4   5
ATOM      5  C   UNL A   1      32.517  28.262  23.758  1.00  0.00     0.310 C 
ATOM      6  O   UNL A   1      33.564  27.665  23.994  1.00  0.00    -0.252 OA
BRANCH   5   7
ATOM      7  C   UNL A   1      31.515  27.705  22.772  1.00  0.00     0.116 C 
ATOM      8  C   UNL A   1      27.212  28.638  23.431  1.00  0.00     0.039 C 
ATOM      9  C   UNL A   1      28.652  28.379  23.050  1.00  0.00    -0.074 C 
ATOM     10  C   UNL A   1      29.455  29.237  22.393  1.00  0.00    -0.073 C 
ATOM     11  C   UNL A   1      29.124  27.027  23.520  1.00  0.00     0.045 C 
ATOM     12  C   UNL A   1      29.063  30.625  21.953  1.00  0.00     0.039 C 
ATOM     13  C   UNL A   1      30.866  28.871  22.016  1.00  0.00     0.046 C 
ATOM     14  C   UNL A   1      30.569  26.581  23.201  1.00  0.00     0.097 C 
BRANCH  14  15
ATOM     15  C   UNL A   1      31.031  25.690  24.363  1.00  0.00     0.227 C 
ATOM     16  O   UNL A   1      30.847  26.013  25.537  1.00  0.00    -0.275 OA
ATOM     17  N   UNL A   1      31.545  24.429  24.053  1.00  0.00    -0.339 N 
ATOM     18  C   UNL A   1      31.394  23.429  25.126  1.00  0.00     0.141 C 
ATOM     19  C   UNL A   1      32.739  24.313  23.201  1.00  0.00     0.141 C 
ATOM     20  C   UNL A   1      31.817  22.007  24.739  1.00  0.00     0.138 C 
ATOM     21  C   UNL A   1      33.265  22.884  22.950  1.00  0.00     0.138 C 
ATOM     22  N   UNL A   1      33.158  22.070  24.162  1.00  0.00    -0.368 N 
BRANCH  22  23
ATOM     23  C   UNL A   1      34.090  21.097  24.443  1.00  0.00     0.037 A 
ATOM     24  C   UNL A   1      35.411  21.405  24.787  1.00  0.00     0.026 A 
ATOM     25  C   UNL A   1      33.738  19.746  24.329  1.00  0.00     0.039 A 
ATOM     26  C   UNL A   1      36.353  20.397  25.014  1.00  0.00     0.003 A 
ATOM     27  C   UNL A   1      34.679  18.718  24.521  1.00  0.00     0.058 A 
ATOM     28  C   UNL A   1      35.990  19.060  24.877  1.00  0.00     0.013 A 
BRANCH  27  29
ATOM     29  C   UNL A   1      34.302  17.272  24.327  1.00  0.00     0.416 C 
ATOM     30  F   UNL A   1      33.036  17.000  24.751  1.00  0.00    -0.166 F 
ATOM     31  F   UNL A   1      34.339  16.900  23.016  1.00  0.00    -0.166 F 
ATOM     32  F   UNL A   1      35.114  16.397  24.983  1.00  0.00    -0.166 F 
ENDBRANCH  27  29
ENDBRANCH  22  23
ENDBRANCH  14  15
ENDBRANCH   5   7
ENDBRANCH   4   5
ENDBRANCH   3   4
ENDBRANCH   2   3
ENDBRANCH   1   2
BRANCH   1  33
ATOM     33  C   UNL A   1      31.818  31.794  26.858  1.00  0.00     0.202 C 
BRANCH  33  34
ATOM     34  C   UNL A   1      32.057  33.140  27.531  1.00  0.00     0.261 C 
BRANCH  34  35
ATOM     35  O   UNL A   1      33.469  33.384  27.545  1.00  0.00    -0.460 OA
BRANCH  35  36
ATOM     36  C   UNL A   1      33.994  33.511  28.778  1.00  0.00     0.338 C 
ATOM     37  O   UNL A   1      33.436  33.931  29.775  1.00  0.00    -0.246 OA
BRANCH  36  38
ATOM     38  C   UNL A   1      35.288  32.810  28.807  1.00  0.00     0.060 A 
ATOM     39  C   UNL A   1      35.275  31.516  29.340  1.00  0.00     0.016 A 
ATOM     40  C   UNL A   1      36.480  33.402  28.383  1.00  0.00     0.016 A 
ATOM     41  C   UNL A   1      36.474  30.854  29.561  1.00  0.00     0.010 A 
ATOM     42  C   UNL A   1      37.688  32.732  28.608  1.00  0.00     0.010 A 
ATOM     43  C   UNL A   1      37.688  31.486  29.260  1.00  0.00    -0.014 A 
BRANCH  43  44
ATOM     44  C   UNL A   1      38.920  30.901  29.839  1.00  0.00     0.031 A 
ATOM     45  C   UNL A   1      39.334  31.319  31.224  1.00  0.00     0.074 A 
ATOM     46  C   UNL A   1      39.583  29.927  29.194  1.00  0.00     0.049 A 
ATOM     47  N   UNL A   1      40.240  30.799  32.008  1.00  0.00    -0.248 NA
ATOM     48  C   UNL A   1      38.627  32.473  31.804  1.00  0.00     0.031 C 
ATOM     49  C   UNL A   1      39.284  29.457  27.844  1.00  0.00     0.029 A 
ATOM     50  N   UNL A   1      40.643  29.154  29.596  1.00  0.00    -0.354 N 
ATOM     51  C   UNL A   1      40.218  31.562  33.170  1.00  0.00     0.074 A 
ATOM     52  C   UNL A   1      39.230  32.601  32.977  1.00  0.00     0.031 C 
ATOM     53  C   UNL A   1      40.149  28.481  27.522  1.00  0.00     0.029 A 
ATOM     54  C   UNL A   1      41.058  28.256  28.645  1.00  0.00     0.049 A 
ATOM     55  H   UNL A   1      41.064  29.237  30.482  1.00  0.00     0.167 HD
ATOM     56  C   UNL A   1      40.933  31.397  34.307  1.00  0.00     0.034 A 
ATOM     57  C   UNL A   1      42.056  27.349  28.681  1.00  0.00     0.034 A 
ATOM     58  C   UNL A   1      41.904  30.354  34.496  1.00  0.00     0.049 A 
ATOM     59  C   UNL A   1      42.827  27.166  29.961  1.00  0.00     0.074 A 
ATOM     60  C   UNL A   1      42.652  30.065  35.622  1.00  0.00     0.029 A 
ATOM     61  N   UNL A   1      42.271  29.437  33.522  1.00  0.00    -0.354 N 
ATOM     62  N   UNL A   1      42.690  27.794  31.104  1.00  0.00    -0.248 NA
ATOM     63  C   UNL A   1      43.857  26.118  29.975  1.00  0.00     0.031 C 
ATOM     64  C   UNL A   1      43.492  28.986  35.320  1.00  0.00     0.029 A 
ATOM     65  C   UNL A   1      43.248  28.589  34.014  1.00  0.00     0.049 A 
ATOM     66  H   UNL A   1      41.893  29.394  32.614  1.00  0.00     0.167 HD
ATOM     67  C   UNL A   1      43.597  27.207  31.979  1.00  0.00     0.074 A 
ATOM     68  C   UNL A   1      44.260  26.152  31.238  1.00  0.00     0.031 C 
ATOM     69  C   UNL A   1      43.870  27.521  33.270  1.00  0.00     0.034 A 
BRANCH  56  70
ATOM     70  C   UNL A   1      40.666  32.357  35.437  1.00  0.00     0.023 A 
ATOM     71  C   UNL A   1      41.512  33.472  35.619  1.00  0.00     0.012 A 
ATOM     72  C   UNL A   1      39.579  32.168  36.310  1.00  0.00     0.148 A 
ATOM     73  C   UNL A   1      41.303  34.359  36.675  1.00  0.00     0.002 A 
ATOM     74  C   UNL A   1      39.353  33.079  37.337  1.00  0.00     0.091 A 
ATOM     75  F   UNL A   1      38.801  31.088  36.142  1.00  0.00    -0.205 F 
ATOM     76  C   UNL A   1      40.220  34.167  37.528  1.00  0.00     0.022 A 
BRANCH  74  77
ATOM     77  S   UNL A   1      37.944  32.949  38.444  1.00  0.00     0.127 S 
ATOM     78  O   UNL A   1      38.178  34.067  39.356  1.00  0.00    -0.237 OA
ATOM     79  O   UNL A   1      36.813  33.133  37.533  1.00  0.00    -0.237 OA
ATOM     80  O   UNL A   1      38.028  31.622  39.039  1.00  0.00    -0.744 OA
ENDBRANCH  74  77
ENDBRANCH  56  70
BRANCH  57  81
ATOM     81  C   UNL A   1      42.327  26.521  27.474  1.00  0.00     0.023 A 
ATOM     82  C   UNL A   1      43.072  27.052  26.403  1.00  0.00     0.012 A 
ATOM     83  C   UNL A   1      41.908  25.176  27.419  1.00  0.00     0.148 A 
ATOM     84  C   UNL A   1      43.385  26.261  25.296  1.00  0.00     0.002 A 
ATOM     85  C   UNL A   1      42.273  24.379  26.341  1.00  0.00     0.091 A 
ATOM     86  F   UNL A   1      41.181  24.697  28.437  1.00  0.00    -0.205 F 
ATOM     87  C   UNL A   1      42.999  24.922  25.271  1.00  0.00     0.022 A 
BRANCH  85  88
ATOM     88  S   UNL A   1      41.946  22.612  26.301  1.00  0.00     0.127 S 
ATOM     89  O   UNL A   1      42.615  22.211  25.066  1.00  0.00    -0.237 OA
ATOM     90  O   UNL A   1      42.595  22.156  27.530  1.00  0.00    -0.237 OA
ATOM     91  O   UNL A   1      40.496  22.480  26.307  1.00  0.00    -0.744 OA
ENDBRANCH  85  88
ENDBRANCH  57  81
BRANCH  69  92
ATOM     92  C   UNL A   1      44.933  26.716  33.972  1.00  0.00     0.023 A 
ATOM     93  C   UNL A   1      46.280  27.117  33.883  1.00  0.00     0.012 A 
ATOM     94  C   UNL A   1      44.589  25.617  34.783  1.00  0.00     0.148 A 
ATOM     95  C   UNL A   1      47.275  26.417  34.564  1.00  0.00     0.002 A 
ATOM     96  C   UNL A   1      45.581  24.951  35.495  1.00  0.00     0.091 A 
ATOM     97  F   UNL A   1      43.304  25.239  34.840  1.00  0.00    -0.205 F 
ATOM     98  C   UNL A   1      46.924  25.343  35.378  1.00  0.00     0.022 A 
BRANCH  96  99
ATOM     99  S   UNL A   1      45.206  23.618  36.639  1.00  0.00     0.127 S 
ATOM    100  O   UNL A   1      44.359  24.294  37.619  1.00  0.00    -0.237 OA
ATOM    101  O   UNL A   1      44.504  22.659  35.785  1.00  0.00    -0.237 OA
ATOM    102  O   UNL A   1      46.492  23.148  37.136  1.00  0.00    -0.744 OA
ENDBRANCH  96  99
ENDBRANCH  69  92
ENDBRANCH  43  44
ENDBRANCH  36  38
ENDBRANCH  35  36
ENDBRANCH  34  35
ENDBRANCH  33  34
ENDBRANCH   1  33
TORSDOF 20
ENDMDL
MODEL 2
REMARK VINA RESULT:     -11.5      2.227      7.740
REMARK SMILES CC1=C(C)C[C@@H](C(=O)OCCOCCOC(=O)c2ccc(-c3c4nc(c(-c5cccc(S(=O)(=O)[O-])c5F)c5ccc([nH]5)c(-c5cccc(S(=O)(=O)[O-])c5F)c5nc(c(-c6cccc(S(=O)(=O)[O-])c6F)c6ccc3[nH]6)C=C5)C=C4)cc2)[C@@H](C(=O)N2CCN(c3cccc(C(F)(F)F)c3)CC2)C1
REMARK SMILES IDX 12 1 11 2 10 3 9 4 7 5 8 6 6 7 1 8 2 9 3 10 100 11 4 12 5 13
REMARK SMILES IDX 81 14 82 15 83 16 84 17 85 18 99 19 86 20 98 21 87 22 88 23
REMARK SMILES IDX 89 24 97 25 90 26 92 27 91 28 93 29 94 30 95 31 96 32 13 33
REMARK SMILES IDX 14 34 15 35 16 36 17 37 18 38 19 39 80 40 20 41 79 42 21 43
REMARK SMILES IDX 22 44 23 45 73 46 24 47 78 48 72 49 74 50 25 51 77 52 71 53
REMARK SMILES IDX 70 54 26 56 58 57 38 58 57 59 39 60 42 61 56 62 75 63 40 64
REMARK SMILES IDX 41 65 55 67 76 68 43 69 27 70 28 71 36 72 29 73 31 74 37 75
REMARK SMILES IDX 30 76 32 77 33 78 34 79 35 80 59 81 60 82 68 83 61 84 63 85
REMARK SMILES IDX 69 86 62 87 64 88 65 89 66 90 67 91 44 92 45 93 53 94 46 95
REMARK SMILES IDX 48 96 54 97 47 98 49 99 50 100 51 101 52 102
REMARK H PARENT 74 55 42 66
REMARK Flexibility Score: inf
ROOT
ATOM      1  O   UNL A   1      33.710  29.660  27.289  1.00  0.00    -0.374 OA
ENDROOT
BRANCH   1   2
ATOM      2  C   UNL A   1      32.279  29.611  27.325  1.00  0.00     0.202 C 
BRANCH   2   3
ATOM      3  C   UNL A   1      31.660  28.564  26.395  1.00  0.00     0.261 C 
BRANCH   3   4
ATOM      4  O   UNL A   1      31.610  28.984  25.012  1.00  0.00    -0.463 OA
BRANCH   4   5
ATOM      5  C   UNL A   1      32.191  28.151  24.121  1.00  0.00     0.310 C 
ATOM      6  O   UNL A   1      33.382  27.848  24.109  1.00  0.00    -0.252 OA
BRANCH   5   7
ATOM      7  C   UNL A   1      31.265  27.683  23.021  1.00  0.00     0.116 C 
ATOM      8  C   UNL A   1      26.926  28.598  23.431  1.00  0.00     0.039 C 
ATOM      9  C   UNL A   1      28.390  28.357  23.138  1.00  0.00    -0.074 C 
ATOM     10  C   UNL A   1      29.242  29.258  22.614  1.00  0.00    -0.073 C 
ATOM     11  C   UNL A   1      28.822  26.968  23.532  1.00  0.00     0.045 C 
ATOM     12  C   UNL A   1      28.889  30.680  22.258  1.00  0.00     0.039 C 
ATOM     13  C   UNL A   1      30.677  28.911  22.315  1.00  0.00     0.046 C 
ATOM     14  C   UNL A   1      30.286  26.537  23.287  1.00  0.00     0.097 C 
BRANCH  14  15
ATOM     15  C   UNL A   1      30.658  25.552  24.405  1.00  0.00     0.227 C 
ATOM     16  O   UNL A   1      30.274  25.716  25.564  1.00  0.00    -0.275 OA
ATOM     17  N   UNL A   1      31.331  24.382  24.046  1.00  0.00    -0.339 N 
ATOM     18  C   UNL A   1      31.122  23.251  24.970  1.00  0.00     0.141 C 
ATOM     19  C   UNL A   1      32.641  24.464  23.383  1.00  0.00     0.141 C 
ATOM     20  C   UNL A   1      31.731  21.924  24.503  1.00  0.00     0.138 C 
ATOM     21  C   UNL A   1      33.333  23.121  23.066  1.00  0.00     0.138 C 
ATOM     22  N   UNL A   1      33.130  22.162  24.153  1.00  0.00    -0.368 N 
BRANCH  22  23
ATOM     23  C   UNL A   1      34.101  21.239  24.470  1.00  0.00     0.037 A 
ATOM     24  C   UNL A   1      35.405  21.614  24.812  1.00  0.00     0.026 A 
ATOM     25  C   UNL A   1      33.808  19.871  24.397  1.00  0.00     0.039 A 
ATOM     26  C   UNL A   1      36.387  20.655  25.078  1.00  0.00     0.003 A 
ATOM     27  C   UNL A   1      34.790  18.891  24.627  1.00  0.00     0.058 A 
ATOM     28  C   UNL A   1      36.082  19.300  24.981  1.00  0.00     0.013 A 
BRANCH  27  29
ATOM     29  C   UNL A   1      34.477  17.425  24.477  1.00  0.00     0.416 C 
ATOM     30  F   UNL A   1      35.451  16.626  24.996  1.00  0.00    -0.166 F 
ATOM     31  F   UNL A   1      33.330  17.073  25.126  1.00  0.00    -0.166 F 
ATOM     32  F   UNL A   1      34.310  17.024  23.187  1.00  0.00    -0.166 F 
ENDBRANCH  27  29
ENDBRANCH  22  23
ENDBRANCH  14  15
ENDBRANCH   5   7
ENDBRANCH   4   5
ENDBRANCH   3   4
ENDBRANCH   2   3
ENDBRANCH   1   2
BRANCH   1  33
ATOM     33  C   UNL A   1      34.275  30.970  27.348  1.00  0.00     0.202 C 
BRANCH  33  34
ATOM     34  C   UNL A   1      33.234  32.081  27.411  1.00  0.00     0.261 C 
BRANCH  34  35
ATOM     35  O   UNL A   1      33.926  33.334  27.469  1.00  0.00    -0.460 OA
BRANCH  35  36
ATOM     36  C   UNL A   1      33.552  34.124  28.492  1.00  0.00     0.338 C 
ATOM     37  O   UNL A   1      32.538  34.794  28.571  1.00  0.00    -0.246 OA
BRANCH  36  38
ATOM     38  C   UNL A   1      34.437  33.854  29.637  1.00  0.00     0.060 A 
ATOM     39  C   UNL A   1      35.739  34.355  29.540  1.00  0.00     0.016 A 
ATOM     40  C   UNL A   1      34.037  33.097  30.741  1.00  0.00     0.016 A 
ATOM     41  C   UNL A   1      36.683  34.000  30.493  1.00  0.00     0.010 A 
ATOM     42  C   UNL A   1      34.992  32.740  31.701  1.00  0.00     0.010 A 
ATOM     43  C   UNL A   1      36.331  33.136  31.538  1.00  0.00    -0.014 A 
BRANCH  43  44
ATOM     44  C   UNL A   1      37.435  32.510  32.302  1.00  0.00     0.031 A 
ATOM     45  C   UNL A   1      38.407  31.626  31.569  1.00  0.00     0.074 A 
ATOM     46  C   UNL A   1      37.638  32.823  33.593  1.00  0.00     0.049 A 
ATOM     47  N   UNL A   1      39.553  31.144  31.972  1.00  0.00    -0.248 NA
ATOM     48  C   UNL A   1      38.043  31.241  30.195  1.00  0.00     0.031 C 
ATOM     49  C   UNL A   1      36.752  33.650  34.407  1.00  0.00     0.029 A 
ATOM     50  N   UNL A   1      38.660  32.483  34.441  1.00  0.00    -0.354 N 
ATOM     51  C   UNL A   1      40.043  30.395  30.909  1.00  0.00     0.074 A 
ATOM     52  C   UNL A   1      39.058  30.461  29.853  1.00  0.00     0.031 C 
ATOM     53  C   UNL A   1      37.264  33.747  35.645  1.00  0.00     0.029 A 
ATOM     54  C   UNL A   1      38.515  32.992  35.708  1.00  0.00     0.049 A 
ATOM     55  H   UNL A   1      39.426  31.927  34.167  1.00  0.00     0.167 HD
ATOM     56  C   UNL A   1      41.221  29.736  30.807  1.00  0.00     0.034 A 
ATOM     57  C   UNL A   1      39.306  32.867  36.793  1.00  0.00     0.034 A 
ATOM     58  C   UNL A   1      42.202  29.686  31.857  1.00  0.00     0.049 A 
ATOM     59  C   UNL A   1      40.621  32.148  36.656  1.00  0.00     0.074 A 
ATOM     60  C   UNL A   1      43.448  29.089  31.846  1.00  0.00     0.029 A 
ATOM     61  N   UNL A   1      42.036  30.248  33.115  1.00  0.00    -0.354 N 
ATOM     62  N   UNL A   1      41.142  31.576  35.596  1.00  0.00    -0.248 NA
ATOM     63  C   UNL A   1      41.482  32.099  37.846  1.00  0.00     0.031 C 
ATOM     64  C   UNL A   1      44.027  29.267  33.109  1.00  0.00     0.029 A 
ATOM     65  C   UNL A   1      43.150  29.997  33.897  1.00  0.00     0.049 A 
ATOM     66  H   UNL A   1      41.242  30.751  33.409  1.00  0.00     0.167 HD
ATOM     67  C   UNL A   1      42.396  31.116  35.983  1.00  0.00     0.074 A 
ATOM     68  C   UNL A   1      42.568  31.504  37.369  1.00  0.00     0.031 C 
ATOM     69  C   UNL A   1      43.315  30.423  35.265  1.00  0.00     0.034 A 
BRANCH  56  70
ATOM     70  C   UNL A   1      41.513  29.040  29.504  1.00  0.00     0.023 A 
ATOM     71  C   UNL A   1      42.319  29.680  28.537  1.00  0.00     0.012 A 
ATOM     72  C   UNL A   1      41.006  27.755  29.236  1.00  0.00     0.148 A 
ATOM     73  C   UNL A   1      42.580  29.068  27.311  1.00  0.00     0.002 A 
ATOM     74  C   UNL A   1      41.304  27.134  28.027  1.00  0.00     0.091 A 
ATOM     75  F   UNL A   1      40.219  27.172  30.152  1.00  0.00    -0.205 F 
ATOM     76  C   UNL A   1      42.080  27.793  27.060  1.00  0.00     0.022 A 
BRANCH  74  77
ATOM     77  S   UNL A   1      40.758  25.467  27.643  1.00  0.00     0.127 S 
ATOM     78  O   UNL A   1      41.024  25.390  26.208  1.00  0.00    -0.237 OA
ATOM     79  O   UNL A   1      41.647  24.649  28.471  1.00  0.00    -0.237 OA
ATOM     80  O   UNL A   1      39.355  25.410  28.029  1.00  0.00    -0.744 OA
ENDBRANCH  74  77
ENDBRANCH  56  70
BRANCH  57  81
ATOM     81  C   UNL A   1      38.881  33.491  38.076  1.00  0.00     0.023 A 
ATOM     82  C   UNL A   1      38.198  32.728  39.042  1.00  0.00     0.012 A 
ATOM     83  C   UNL A   1      39.220  34.827  38.371  1.00  0.00     0.148 A 
ATOM     84  C   UNL A   1      37.852  33.288  40.274  1.00  0.00     0.002 A 
ATOM     85  C   UNL A   1      38.925  35.360  39.620  1.00  0.00     0.091 A 
ATOM     86  F   UNL A   1      39.850  35.543  37.429  1.00  0.00    -0.205 F 
ATOM     87  C   UNL A   1      38.229  34.597  40.568  1.00  0.00     0.022 A 
BRANCH  85  88
ATOM     88  S   UNL A   1      39.504  36.982  40.132  1.00  0.00     0.127 S 
ATOM     89  O   UNL A   1      39.070  37.028  41.526  1.00  0.00    -0.237 OA
ATOM     90  O   UNL A   1      40.950  36.862  39.940  1.00  0.00    -0.237 OA
ATOM     91  O   UNL A   1      38.859  37.931  39.236  1.00  0.00    -0.744 OA
ENDBRANCH  85  88
ENDBRANCH  57  81
BRANCH  69  92
ATOM     92  C   UNL A   1      44.594  30.036  35.961  1.00  0.00     0.023 A 
ATOM     93  C   UNL A   1      45.708  30.893  35.893  1.00  0.00     0.012 A 
ATOM     94  C   UNL A   1      44.664  28.868  36.745  1.00  0.00     0.148 A 
ATOM     95  C   UNL A   1      46.887  30.580  36.570  1.00  0.00     0.002 A 
ATOM     96  C   UNL A   1      45.826  28.585  37.454  1.00  0.00     0.091 A 
ATOM     97  F   UNL A   1      43.599  28.054  36.782  1.00  0.00    -0.205 F 
ATOM     98  C   UNL A   1      46.941  29.433  37.359  1.00  0.00     0.022 A 
BRANCH  96  99
ATOM     99  S   UNL A   1      45.951  27.180  38.567  1.00  0.00     0.127 S 
ATOM    100  O   UNL A   1      44.810  27.400  39.454  1.00  0.00    -0.237 OA
ATOM    101  O   UNL A   1      45.806  26.044  37.657  1.00  0.00    -0.237 OA
ATOM    102  O   UNL A   1      47.262  27.284  39.192  1.00  0.00    -0.744 OA
ENDBRANCH  96  99
ENDBRANCH  69  92
ENDBRANCH  43  44
ENDBRANCH  36  38
ENDBRANCH  35  36
ENDBRANCH  34  35
ENDBRANCH  33  34
ENDBRANCH   1  33
TORSDOF 20
ENDMDL
MODEL 3
REMARK VINA RESULT:     -11.4      2.273      2.746
REMARK SMILES CC1=C(C)C[C@@H](C(=O)OCCOCCOC(=O)c2ccc(-c3c4nc(c(-c5cccc(S(=O)(=O)[O-])c5F)c5ccc([nH]5)c(-c5cccc(S(=O)(=O)[O-])c5F)c5nc(c(-c6cccc(S(=O)(=O)[O-])c6F)c6ccc3[nH]6)C=C5)C=C4)cc2)[C@@H](C(=O)N2CCN(c3cccc(C(F)(F)F)c3)CC2)C1
REMARK SMILES IDX 12 1 11 2 10 3 9 4 7 5 8 6 6 7 1 8 2 9 3 10 100 11 4 12 5 13
REMARK SMILES IDX 81 14 82 15 83 16 84 17 85 18 99 19 86 20 98 21 87 22 88 23
REMARK SMILES IDX 89 24 97 25 90 26 92 27 91 28 93 29 94 30 95 31 96 32 13 33
REMARK SMILES IDX 14 34 15 35 16 36 17 37 18 38 19 39 80 40 20 41 79 42 21 43
REMARK SMILES IDX 22 44 23 45 73 46 24 47 78 48 72 49 74 50 25 51 77 52 71 53
REMARK SMILES IDX 70 54 26 56 58 57 38 58 57 59 39 60 42 61 56 62 75 63 40 64
REMARK SMILES IDX 41 65 55 67 76 68 43 69 27 70 28 71 36 72 29 73 31 74 37 75
REMARK SMILES IDX 30 76 32 77 33 78 34 79 35 80 59 81 60 82 68 83 61 84 63 85
REMARK SMILES IDX 69 86 62 87 64 88 65 89 66 90 67 91 44 92 45 93 53 94 46 95
REMARK SMILES IDX 48 96 54 97 47 98 49 99 50 100 51 101 52 102
REMARK H PARENT 74 55 42 66
REMARK Flexibility Score: inf
ROOT
ATOM      1  O   UNL A   1      33.039  30.667  27.548  1.00  0.00    -0.374 OA
ENDROOT
BRANCH   1   2
ATOM      2  C   UNL A   1      32.949  29.498  26.724  1.00  0.00     0.202 C 
BRANCH   2   3
ATOM      3  C   UNL A   1      31.550  29.230  26.160  1.00  0.00     0.261 C 
BRANCH   3   4
ATOM      4  O   UNL A   1      31.394  29.662  24.788  1.00  0.00    -0.463 OA
BRANCH   4   5
ATOM      5  C   UNL A   1      32.083  28.957  23.864  1.00  0.00     0.310 C 
ATOM      6  O   UNL A   1      33.304  28.972  23.731  1.00  0.00    -0.252 OA
BRANCH   5   7
ATOM      7  C   UNL A   1      31.209  28.202  22.889  1.00  0.00     0.116 C 
ATOM      8  C   UNL A   1      26.808  28.261  23.568  1.00  0.00     0.039 C 
ATOM      9  C   UNL A   1      28.270  28.292  23.180  1.00  0.00    -0.074 C 
ATOM     10  C   UNL A   1      28.882  29.287  22.511  1.00  0.00    -0.073 C 
ATOM     11  C   UNL A   1      29.005  27.066  23.657  1.00  0.00     0.045 C 
ATOM     12  C   UNL A   1      28.218  30.565  22.062  1.00  0.00     0.039 C 
ATOM     13  C   UNL A   1      30.336  29.208  22.127  1.00  0.00     0.046 C 
ATOM     14  C   UNL A   1      30.509  26.915  23.333  1.00  0.00     0.097 C 
BRANCH  14  15
ATOM     15  C   UNL A   1      31.145  26.145  24.499  1.00  0.00     0.227 C 
ATOM     16  O   UNL A   1      30.718  26.247  25.650  1.00  0.00    -0.275 OA
ATOM     17  N   UNL A   1      32.140  25.212  24.199  1.00  0.00    -0.339 N 
ATOM     18  C   UNL A   1      32.268  24.120  25.182  1.00  0.00     0.141 C 
ATOM     19  C   UNL A   1      33.373  25.647  23.525  1.00  0.00     0.141 C 
ATOM     20  C   UNL A   1      33.250  23.013  24.783  1.00  0.00     0.138 C 
ATOM     21  C   UNL A   1      34.437  24.557  23.276  1.00  0.00     0.138 C 
ATOM     22  N   UNL A   1      34.517  23.638  24.413  1.00  0.00    -0.368 N 
BRANCH  22  23
ATOM     23  C   UNL A   1      35.716  23.065  24.773  1.00  0.00     0.037 A 
ATOM     24  C   UNL A   1      36.008  21.721  24.518  1.00  0.00     0.026 A 
ATOM     25  C   UNL A   1      36.666  23.824  25.470  1.00  0.00     0.039 A 
ATOM     26  C   UNL A   1      37.212  21.149  24.942  1.00  0.00     0.003 A 
ATOM     27  C   UNL A   1      37.867  23.259  25.934  1.00  0.00     0.058 A 
ATOM     28  C   UNL A   1      38.135  21.913  25.651  1.00  0.00     0.013 A 
BRANCH  27  29
ATOM     29  C   UNL A   1      38.848  24.070  26.742  1.00  0.00     0.416 C 
ATOM     30  F   UNL A   1      39.745  24.735  25.962  1.00  0.00    -0.166 F 
ATOM     31  F   UNL A   1      38.231  25.028  27.491  1.00  0.00    -0.166 F 
ATOM     32  F   UNL A   1      39.585  23.333  27.618  1.00  0.00    -0.166 F 
ENDBRANCH  27  29
ENDBRANCH  22  23
ENDBRANCH  14  15
ENDBRANCH   5   7
ENDBRANCH   4   5
ENDBRANCH   3   4
ENDBRANCH   2   3
ENDBRANCH   1   2
BRANCH   1  33
ATOM     33  C   UNL A   1      32.334  31.809  27.061  1.00  0.00     0.202 C 
BRANCH  33  34
ATOM     34  C   UNL A   1      32.773  33.119  27.705  1.00  0.00     0.261 C 
BRANCH  34  35
ATOM     35  O   UNL A   1      34.192  33.066  27.893  1.00  0.00    -0.460 OA
BRANCH  35  36
ATOM     36  C   UNL A   1      34.581  33.149  29.179  1.00  0.00     0.338 C 
ATOM     37  O   UNL A   1      33.910  33.514  30.128  1.00  0.00    -0.246 OA
BRANCH  36  38
ATOM     38  C   UNL A   1      35.881  32.473  29.317  1.00  0.00     0.060 A 
ATOM     39  C   UNL A   1      35.870  31.250  29.995  1.00  0.00     0.016 A 
ATOM     40  C   UNL A   1      37.076  33.028  28.852  1.00  0.00     0.016 A 
ATOM     41  C   UNL A   1      37.071  30.634  30.317  1.00  0.00     0.010 A 
ATOM     42  C   UNL A   1      38.286  32.404  29.179  1.00  0.00     0.010 A 
ATOM     43  C   UNL A   1      38.285  31.243  29.970  1.00  0.00    -0.014 A 
BRANCH  43  44
ATOM     44  C   UNL A   1      39.509  30.745  30.639  1.00  0.00     0.031 A 
ATOM     45  C   UNL A   1      39.856  31.283  32.001  1.00  0.00     0.074 A 
ATOM     46  C   UNL A   1      40.226  29.746  30.099  1.00  0.00     0.049 A 
ATOM     47  N   UNL A   1      40.745  30.855  32.858  1.00  0.00    -0.248 NA
ATOM     48  C   UNL A   1      39.092  32.455  32.462  1.00  0.00     0.031 C 
ATOM     49  C   UNL A   1      39.995  29.163  28.780  1.00  0.00     0.029 A 
ATOM     50  N   UNL A   1      41.291  29.042  30.599  1.00  0.00    -0.354 N 
ATOM     51  C   UNL A   1      40.654  31.705  33.954  1.00  0.00     0.074 A 
ATOM     52  C   UNL A   1      39.645  32.693  33.643  1.00  0.00     0.031 C 
ATOM     53  C   UNL A   1      40.901  28.193  28.568  1.00  0.00     0.029 A 
ATOM     54  C   UNL A   1      41.771  28.086  29.739  1.00  0.00     0.049 A 
ATOM     55  H   UNL A   1      41.675  29.207  31.491  1.00  0.00     0.167 HD
ATOM     56  C   UNL A   1      41.328  31.653  35.126  1.00  0.00     0.034 A 
ATOM     57  C   UNL A   1      42.793  27.218  29.883  1.00  0.00     0.034 A 
ATOM     58  C   UNL A   1      42.321  30.660  35.433  1.00  0.00     0.049 A 
ATOM     59  C   UNL A   1      43.518  27.160  31.201  1.00  0.00     0.074 A 
ATOM     60  C   UNL A   1      43.032  30.483  36.605  1.00  0.00     0.029 A 
ATOM     61  N   UNL A   1      42.754  29.682  34.549  1.00  0.00    -0.354 N 
ATOM     62  N   UNL A   1      43.316  27.870  32.286  1.00  0.00    -0.248 NA
ATOM     63  C   UNL A   1      44.577  26.150  31.336  1.00  0.00     0.031 C 
ATOM     64  C   UNL A   1      43.915  29.412  36.422  1.00  0.00     0.029 A 
ATOM     65  C   UNL A   1      43.735  28.907  35.143  1.00  0.00     0.049 A 
ATOM     66  H   UNL A   1      42.413  29.556  33.634  1.00  0.00     0.167 HD
ATOM     67  C   UNL A   1      44.205  27.383  33.237  1.00  0.00     0.074 A 
ATOM     68  C   UNL A   1      44.928  26.296  32.608  1.00  0.00     0.031 C 
ATOM     69  C   UNL A   1      44.417  27.805  34.509  1.00  0.00     0.034 A 
BRANCH  56  70
ATOM     70  C   UNL A   1      40.988  32.688  36.166  1.00  0.00     0.023 A 
ATOM     71  C   UNL A   1      41.725  33.891  36.219  1.00  0.00     0.012 A 
ATOM     72  C   UNL A   1      39.939  32.483  37.081  1.00  0.00     0.148 A 
ATOM     73  C   UNL A   1      41.449  34.852  37.191  1.00  0.00     0.002 A 
ATOM     74  C   UNL A   1      39.642  33.464  38.021  1.00  0.00     0.091 A 
ATOM     75  F   UNL A   1      39.266  31.324  37.036  1.00  0.00    -0.205 F 
ATOM     76  C   UNL A   1      40.403  34.643  38.086  1.00  0.00     0.022 A 
BRANCH  74  77
ATOM     77  S   UNL A   1      38.271  33.310  39.171  1.00  0.00     0.127 S 
ATOM     78  O   UNL A   1      38.653  32.123  39.933  1.00  0.00    -0.237 OA
ATOM     79  O   UNL A   1      38.349  34.566  39.920  1.00  0.00    -0.237 OA
ATOM     80  O   UNL A   1      37.077  33.174  38.348  1.00  0.00    -0.744 OA
ENDBRANCH  74  77
ENDBRANCH  56  70
BRANCH  57  81
ATOM     81  C   UNL A   1      43.136  26.307  28.756  1.00  0.00     0.023 A 
ATOM     82  C   UNL A   1      42.394  25.129  28.547  1.00  0.00     0.012 A 
ATOM     83  C   UNL A   1      44.155  26.648  27.844  1.00  0.00     0.148 A 
ATOM     84  C   UNL A   1      42.668  24.302  27.456  1.00  0.00     0.002 A 
ATOM     85  C   UNL A   1      44.383  25.852  26.728  1.00  0.00     0.091 A 
ATOM     86  F   UNL A   1      44.865  27.762  28.073  1.00  0.00    -0.205 F 
ATOM     87  C   UNL A   1      43.650  24.671  26.539  1.00  0.00     0.022 A 
BRANCH  85  88
ATOM     88  S   UNL A   1      45.524  26.331  25.425  1.00  0.00     0.127 S 
ATOM     89  O   UNL A   1      45.451  25.182  24.526  1.00  0.00    -0.237 OA
ATOM     90  O   UNL A   1      44.903  27.553  24.913  1.00  0.00    -0.237 OA
ATOM     91  O   UNL A   1      46.806  26.542  26.082  1.00  0.00    -0.744 OA
ENDBRANCH  85  88
ENDBRANCH  57  81
BRANCH  69  92
ATOM     92  C   UNL A   1      45.474  27.093  35.311  1.00  0.00     0.023 A 
ATOM     93  C   UNL A   1      46.776  27.627  35.375  1.00  0.00     0.012 A 
ATOM     94  C   UNL A   1      45.159  25.945  36.065  1.00  0.00     0.148 A 
ATOM     95  C   UNL A   1      47.758  27.012  36.151  1.00  0.00     0.002 A 
ATOM     96  C   UNL A   1      46.131  25.363  36.872  1.00  0.00     0.091 A 
ATOM     97  F   UNL A   1      43.920  25.440  35.976  1.00  0.00    -0.205 F 
ATOM     98  C   UNL A   1      47.432  25.889  36.907  1.00  0.00     0.022 A 
BRANCH  96  99
ATOM     99  S   UNL A   1      45.772  23.972  37.950  1.00  0.00     0.127 S 
ATOM    100  O   UNL A   1      44.690  24.504  38.775  1.00  0.00    -0.237 OA
ATOM    101  O   UNL A   1      45.362  22.936  37.000  1.00  0.00    -0.237 OA
ATOM    102  O   UNL A   1      47.015  23.682  38.652  1.00  0.00    -0.744 OA
ENDBRANCH  96  99
ENDBRANCH  69  92
ENDBRANCH  43  44
ENDBRANCH  36  38
ENDBRANCH  35  36
ENDBRANCH  34  35
ENDBRANCH  33  34
ENDBRANCH   1  33
TORSDOF 20
ENDMDL
