MODEL 1
REMARK VINA RESULT:     -10.7      0.000      0.000
REMARK SMILES CC(C)(C[NH2+]Cc1ccc2c(c1)OCO2)C(=O)OCCOCCOC(=O)c1ccc(-c2c3nc(c(-c4cccc(S(=O)(=O)[O-])c4F)c4ccc([nH]4)c(-c4cccc(S(=O)(=O)[O-])c4F)c4nc(c(-c5cccc(S(=O)(=O)[O-])c5F)c5ccc2[nH]5)C=C4)C=C3)cc1
REMARK SMILES IDX 20 1 19 2 18 3 16 4 17 5 2 6 1 7 3 8 4 9 5 10 6 13 7 14 8 15
REMARK SMILES IDX 12 16 9 17 11 18 10 19 13 20 15 21 14 22 21 23 22 24 23 25
REMARK SMILES IDX 24 26 25 27 26 28 27 29 28 30 89 31 29 32 88 33 30 34 31 35
REMARK SMILES IDX 32 36 82 37 33 38 87 39 81 40 83 41 34 42 86 43 80 44 79 45
REMARK SMILES IDX 35 47 67 48 47 49 66 50 48 51 51 52 65 53 84 54 49 55 50 56
REMARK SMILES IDX 64 58 85 59 52 60 36 61 37 62 45 63 38 64 40 65 46 66 39 67
REMARK SMILES IDX 41 68 42 69 43 70 44 71 68 72 69 73 77 74 70 75 72 76 78 77
REMARK SMILES IDX 71 78 73 79 74 80 75 81 76 82 53 83 54 84 62 85 55 86 57 87
REMARK SMILES IDX 63 88 56 89 58 90 59 91 60 92 61 93
REMARK H PARENT 5 11 5 12 83 46 51 57
REMARK Flexibility Score: inf
ROOT
ATOM      1  C   UNL A   1      31.867  29.082  23.647  1.00  0.00     0.202 C 
ENDROOT
BRANCH   1   2
ATOM      2  C   UNL A   1      30.415  28.619  23.501  1.00  0.00     0.261 C 
BRANCH   2   3
ATOM      3  O   UNL A   1      30.299  27.187  23.402  1.00  0.00    -0.463 OA
BRANCH   3   4
ATOM      4  C   UNL A   1      31.012  26.475  24.313  1.00  0.00     0.317 C 
ATOM      5  O   UNL A   1      30.993  26.688  25.522  1.00  0.00    -0.251 OA
BRANCH   4   6
ATOM      6  C   UNL A   1      31.917  25.412  23.680  1.00  0.00     0.111 C 
ATOM      7  C   UNL A   1      33.374  25.765  24.038  1.00  0.00     0.029 C 
ATOM      8  C   UNL A   1      31.731  25.558  22.158  1.00  0.00     0.029 C 
BRANCH   6   9
ATOM      9  C   UNL A   1      31.591  23.939  24.067  1.00  0.00     0.279 C 
BRANCH   9  10
ATOM     10  N   UNL A   1      30.454  23.755  24.986  1.00  0.00    -0.342 N 
ATOM     11  H   UNL A   1      29.636  23.473  24.444  1.00  0.00     0.346 HD
ATOM     12  H   UNL A   1      30.295  24.640  25.467  1.00  0.00     0.346 HD
BRANCH  10  13
ATOM     13  C   UNL A   1      30.720  22.729  26.007  1.00  0.00     0.297 C 
BRANCH  13  14
ATOM     14  C   UNL A   1      32.192  22.390  26.095  1.00  0.00     0.010 A 
ATOM     15  C   UNL A   1      33.080  23.249  26.789  1.00  0.00     0.013 A 
ATOM     16  C   UNL A   1      32.701  21.269  25.420  1.00  0.00     0.060 A 
ATOM     17  C   UNL A   1      34.459  23.013  26.789  1.00  0.00     0.051 A 
ATOM     18  C   UNL A   1      34.065  21.072  25.425  1.00  0.00     0.166 A 
ATOM     19  C   UNL A   1      34.921  21.923  26.085  1.00  0.00     0.165 A 
ATOM     20  O   UNL A   1      34.724  20.072  24.780  1.00  0.00    -0.454 OA
ATOM     21  O   UNL A   1      36.225  21.567  25.936  1.00  0.00    -0.454 OA
ATOM     22  C   UNL A   1      36.092  20.423  25.063  1.00  0.00     0.468 C 
ENDBRANCH  13  14
ENDBRANCH  10  13
ENDBRANCH   9  10
ENDBRANCH   6   9
ENDBRANCH   4   6
ENDBRANCH   3   4
ENDBRANCH   2   3
ENDBRANCH   1   2
BRANCH   1  23
ATOM     23  O   UNL A   1      32.200  29.777  24.849  1.00  0.00    -0.374 OA
BRANCH  23  24
ATOM     24  C   UNL A   1      31.138  30.486  25.492  1.00  0.00     0.202 C 
BRANCH  24  25
ATOM     25  C   UNL A   1      31.551  31.672  26.370  1.00  0.00     0.261 C 
BRANCH  25  26
ATOM     26  O   UNL A   1      32.606  31.319  27.286  1.00  0.00    -0.460 OA
BRANCH  26  27
ATOM     27  C   UNL A   1      33.446  32.329  27.605  1.00  0.00     0.338 C 
ATOM     28  O   UNL A   1      33.150  33.506  27.783  1.00  0.00    -0.246 OA
BRANCH  27  29
ATOM     29  C   UNL A   1      34.792  31.807  27.905  1.00  0.00     0.060 A 
ATOM     30  C   UNL A   1      34.924  30.417  28.033  1.00  0.00     0.016 A 
ATOM     31  C   UNL A   1      35.880  32.647  28.147  1.00  0.00     0.016 A 
ATOM     32  C   UNL A   1      36.123  29.867  28.480  1.00  0.00     0.010 A 
ATOM     33  C   UNL A   1      37.082  32.093  28.604  1.00  0.00     0.010 A 
ATOM     34  C   UNL A   1      37.191  30.706  28.820  1.00  0.00    -0.014 A 
BRANCH  34  35
ATOM     35  C   UNL A   1      38.337  30.149  29.579  1.00  0.00     0.031 A 
ATOM     36  C   UNL A   1      38.545  30.599  31.003  1.00  0.00     0.074 A 
ATOM     37  C   UNL A   1      39.162  29.238  29.032  1.00  0.00     0.049 A 
ATOM     38  N   UNL A   1      39.489  30.271  31.846  1.00  0.00    -0.248 NA
ATOM     39  C   UNL A   1      37.554  31.543  31.548  1.00  0.00     0.031 C 
ATOM     40  C   UNL A   1      39.049  28.704  27.675  1.00  0.00     0.029 A 
ATOM     41  N   UNL A   1      40.270  28.614  29.549  1.00  0.00    -0.354 N 
ATOM     42  C   UNL A   1      39.222  30.985  33.009  1.00  0.00     0.074 A 
ATOM     43  C   UNL A   1      38.036  31.775  32.760  1.00  0.00     0.031 C 
ATOM     44  C   UNL A   1      40.065  27.851  27.458  1.00  0.00     0.029 A 
ATOM     45  C   UNL A   1      40.911  27.796  28.649  1.00  0.00     0.049 A 
ATOM     46  H   UNL A   1      40.576  28.741  30.475  1.00  0.00     0.167 HD
ATOM     47  C   UNL A   1      39.889  30.970  34.187  1.00  0.00     0.034 A 
ATOM     48  C   UNL A   1      42.059  27.098  28.770  1.00  0.00     0.034 A 
ATOM     49  C   UNL A   1      41.051  30.166  34.444  1.00  0.00     0.049 A 
ATOM     50  C   UNL A   1      42.802  27.126  30.083  1.00  0.00     0.074 A 
ATOM     51  C   UNL A   1      41.789  30.068  35.610  1.00  0.00     0.029 A 
ATOM     52  N   UNL A   1      41.645  29.319  33.521  1.00  0.00    -0.354 N 
ATOM     53  N   UNL A   1      42.484  27.735  31.200  1.00  0.00    -0.248 NA
ATOM     54  C   UNL A   1      44.046  26.345  30.161  1.00  0.00     0.031 C 
ATOM     55  C   UNL A   1      42.839  29.172  35.388  1.00  0.00     0.029 A 
ATOM     56  C   UNL A   1      42.742  28.695  34.091  1.00  0.00     0.049 A 
ATOM     57  H   UNL A   1      41.334  29.182  32.598  1.00  0.00     0.167 HD
ATOM     58  C   UNL A   1      43.461  27.372  32.124  1.00  0.00     0.074 A 
ATOM     59  C   UNL A   1      44.374  26.482  31.439  1.00  0.00     0.031 C 
ATOM     60  C   UNL A   1      43.596  27.753  33.418  1.00  0.00     0.034 A 
BRANCH  47  61
ATOM     61  C   UNL A   1      39.357  31.826  35.305  1.00  0.00     0.023 A 
ATOM     62  C   UNL A   1      38.432  31.278  36.217  1.00  0.00     0.012 A 
ATOM     63  C   UNL A   1      39.815  33.144  35.492  1.00  0.00     0.148 A 
ATOM     64  C   UNL A   1      37.954  32.036  37.284  1.00  0.00     0.002 A 
ATOM     65  C   UNL A   1      39.364  33.880  36.581  1.00  0.00     0.091 A 
ATOM     66  F   UNL A   1      40.676  33.653  34.600  1.00  0.00    -0.205 F 
ATOM     67  C   UNL A   1      38.427  33.331  37.472  1.00  0.00     0.022 A 
BRANCH  65  68
ATOM     68  S   UNL A   1      39.967  35.531  36.951  1.00  0.00     0.127 S 
ATOM     69  O   UNL A   1      39.287  35.818  38.214  1.00  0.00    -0.237 OA
ATOM     70  O   UNL A   1      41.409  35.313  37.071  1.00  0.00    -0.237 OA
ATOM     71  O   UNL A   1      39.570  36.366  35.826  1.00  0.00    -0.744 OA
ENDBRANCH  65  68
ENDBRANCH  47  61
BRANCH  48  72
ATOM     72  C   UNL A   1      42.565  26.281  27.631  1.00  0.00     0.023 A 
ATOM     73  C   UNL A   1      43.441  26.863  26.693  1.00  0.00     0.012 A 
ATOM     74  C   UNL A   1      42.183  24.936  27.469  1.00  0.00     0.148 A 
ATOM     75  C   UNL A   1      43.898  26.130  25.597  1.00  0.00     0.002 A 
ATOM     76  C   UNL A   1      42.686  24.195  26.405  1.00  0.00     0.091 A 
ATOM     77  F   UNL A   1      41.330  24.404  28.357  1.00  0.00    -0.205 F 
ATOM     78  C   UNL A   1      43.529  24.795  25.458  1.00  0.00     0.022 A 
BRANCH  76  79
ATOM     79  S   UNL A   1      42.360  22.437  26.225  1.00  0.00     0.127 S 
ATOM     80  O   UNL A   1      42.918  21.901  27.464  1.00  0.00    -0.237 OA
ATOM     81  O   UNL A   1      40.899  22.404  26.141  1.00  0.00    -0.237 OA
ATOM     82  O   UNL A   1      43.036  22.041  24.997  1.00  0.00    -0.744 OA
ENDBRANCH  76  79
ENDBRANCH  48  72
BRANCH  60  83
ATOM     83  C   UNL A   1      44.739  27.171  34.208  1.00  0.00     0.023 A 
ATOM     84  C   UNL A   1      45.959  27.869  34.294  1.00  0.00     0.012 A 
ATOM     85  C   UNL A   1      44.568  25.980  34.942  1.00  0.00     0.148 A 
ATOM     86  C   UNL A   1      47.002  27.376  35.079  1.00  0.00     0.002 A 
ATOM     87  C   UNL A   1      45.595  25.519  35.758  1.00  0.00     0.091 A 
ATOM     88  F   UNL A   1      43.404  25.323  34.832  1.00  0.00    -0.205 F 
ATOM     89  C   UNL A   1      46.815  26.210  35.819  1.00  0.00     0.022 A 
BRANCH  87  90
ATOM     90  S   UNL A   1      45.408  24.082  36.819  1.00  0.00     0.127 S 
ATOM     91  O   UNL A   1      46.781  23.862  37.268  1.00  0.00    -0.237 OA
ATOM     92  O   UNL A   1      44.500  24.575  37.854  1.00  0.00    -0.237 OA
ATOM     93  O   UNL A   1      44.849  23.032  35.978  1.00  0.00    -0.744 OA
ENDBRANCH  87  90
ENDBRANCH  60  83
ENDBRANCH  34  35
ENDBRANCH  27  29
ENDBRANCH  26  27
ENDBRANCH  25  26
ENDBRANCH  24  25
ENDBRANCH  23  24
ENDBRANCH   1  23
TORSDOF 21
ENDMDL
MODEL 2
REMARK VINA RESULT:     -10.5      1.878      3.745
REMARK SMILES CC(C)(C[NH2+]Cc1ccc2c(c1)OCO2)C(=O)OCCOCCOC(=O)c1ccc(-c2c3nc(c(-c4cccc(S(=O)(=O)[O-])c4F)c4ccc([nH]4)c(-c4cccc(S(=O)(=O)[O-])c4F)c4nc(c(-c5cccc(S(=O)(=O)[O-])c5F)c5ccc2[nH]5)C=C4)C=C3)cc1
REMARK SMILES IDX 20 1 19 2 18 3 16 4 17 5 2 6 1 7 3 8 4 9 5 10 6 13 7 14 8 15
REMARK SMILES IDX 12 16 9 17 11 18 10 19 13 20 15 21 14 22 21 23 22 24 23 25
REMARK SMILES IDX 24 26 25 27 26 28 27 29 28 30 89 31 29 32 88 33 30 34 31 35
REMARK SMILES IDX 32 36 82 37 33 38 87 39 81 40 83 41 34 42 86 43 80 44 79 45
REMARK SMILES IDX 35 47 67 48 47 49 66 50 48 51 51 52 65 53 84 54 49 55 50 56
REMARK SMILES IDX 64 58 85 59 52 60 36 61 37 62 45 63 38 64 40 65 46 66 39 67
REMARK SMILES IDX 41 68 42 69 43 70 44 71 68 72 69 73 77 74 70 75 72 76 78 77
REMARK SMILES IDX 71 78 73 79 74 80 75 81 76 82 53 83 54 84 62 85 55 86 57 87
REMARK SMILES IDX 63 88 56 89 58 90 59 91 60 92 61 93
REMARK H PARENT 5 11 5 12 83 46 51 57
REMARK Flexibility Score: inf
ROOT
ATOM      1  C   UNL A   1      33.956  29.048  25.632  1.00  0.00     0.202 C 
ENDROOT
BRANCH   1   2
ATOM      2  C   UNL A   1      33.710  27.537  25.668  1.00  0.00     0.261 C 
BRANCH   2   3
ATOM      3  O   UNL A   1      34.005  26.898  24.413  1.00  0.00    -0.463 OA
BRANCH   3   4
ATOM      4  C   UNL A   1      34.141  25.547  24.458  1.00  0.00     0.317 C 
ATOM      5  O   UNL A   1      34.980  24.962  25.138  1.00  0.00    -0.251 OA
BRANCH   4   6
ATOM      6  C   UNL A   1      33.190  24.808  23.511  1.00  0.00     0.111 C 
ATOM      7  C   UNL A   1      33.875  23.491  23.094  1.00  0.00     0.029 C 
ATOM      8  C   UNL A   1      33.051  25.709  22.270  1.00  0.00     0.029 C 
BRANCH   6   9
ATOM      9  C   UNL A   1      31.762  24.538  24.073  1.00  0.00     0.279 C 
BRANCH   9  10
ATOM     10  N   UNL A   1      30.987  25.733  24.451  1.00  0.00    -0.342 N 
ATOM     11  H   UNL A   1      31.427  26.554  24.034  1.00  0.00     0.346 HD
ATOM     12  H   UNL A   1      30.980  25.792  25.469  1.00  0.00     0.346 HD
BRANCH  10  13
ATOM     13  C   UNL A   1      29.590  25.662  23.994  1.00  0.00     0.297 C 
BRANCH  13  14
ATOM     14  C   UNL A   1      29.075  27.012  23.544  1.00  0.00     0.010 A 
ATOM     15  C   UNL A   1      27.720  27.366  23.763  1.00  0.00     0.013 A 
ATOM     16  C   UNL A   1      29.911  27.888  22.832  1.00  0.00     0.060 A 
ATOM     17  C   UNL A   1      27.196  28.560  23.258  1.00  0.00     0.051 A 
ATOM     18  C   UNL A   1      29.362  29.049  22.334  1.00  0.00     0.166 A 
ATOM     19  C   UNL A   1      28.040  29.373  22.534  1.00  0.00     0.165 A 
ATOM     20  O   UNL A   1      30.015  29.975  21.582  1.00  0.00    -0.454 OA
ATOM     21  O   UNL A   1      27.696  30.543  21.932  1.00  0.00    -0.454 OA
ATOM     22  C   UNL A   1      28.941  30.889  21.287  1.00  0.00     0.468 C 
ENDBRANCH  13  14
ENDBRANCH  10  13
ENDBRANCH   9  10
ENDBRANCH   6   9
ENDBRANCH   4   6
ENDBRANCH   3   4
ENDBRANCH   2   3
ENDBRANCH   1   2
BRANCH   1  23
ATOM     23  O   UNL A   1      32.801  29.886  25.617  1.00  0.00    -0.374 OA
BRANCH  23  24
ATOM     24  C   UNL A   1      32.338  30.358  26.885  1.00  0.00     0.202 C 
BRANCH  24  25
ATOM     25  C   UNL A   1      32.034  31.857  26.979  1.00  0.00     0.261 C 
BRANCH  25  26
ATOM     26  O   UNL A   1      33.229  32.654  26.872  1.00  0.00    -0.460 OA
BRANCH  26  27
ATOM     27  C   UNL A   1      33.770  33.032  28.051  1.00  0.00     0.338 C 
ATOM     28  O   UNL A   1      33.241  33.716  28.920  1.00  0.00    -0.246 OA
BRANCH  27  29
ATOM     29  C   UNL A   1      35.061  32.352  28.269  1.00  0.00     0.060 A 
ATOM     30  C   UNL A   1      35.021  30.977  28.540  1.00  0.00     0.016 A 
ATOM     31  C   UNL A   1      36.272  33.045  28.301  1.00  0.00     0.016 A 
ATOM     32  C   UNL A   1      36.179  30.305  28.922  1.00  0.00     0.010 A 
ATOM     33  C   UNL A   1      37.434  32.370  28.693  1.00  0.00     0.010 A 
ATOM     34  C   UNL A   1      37.382  31.010  29.053  1.00  0.00    -0.014 A 
BRANCH  34  35
ATOM     35  C   UNL A   1      38.526  30.371  29.749  1.00  0.00     0.031 A 
ATOM     36  C   UNL A   1      38.828  30.783  31.167  1.00  0.00     0.074 A 
ATOM     37  C   UNL A   1      39.264  29.419  29.151  1.00  0.00     0.049 A 
ATOM     38  N   UNL A   1      39.788  30.383  31.960  1.00  0.00    -0.248 NA
ATOM     39  C   UNL A   1      37.926  31.779  31.771  1.00  0.00     0.031 C 
ATOM     40  C   UNL A   1      39.054  28.914  27.794  1.00  0.00     0.029 A 
ATOM     41  N   UNL A   1      40.354  28.718  29.606  1.00  0.00    -0.354 N 
ATOM     42  C   UNL A   1      39.622  31.094  33.143  1.00  0.00     0.074 A 
ATOM     43  C   UNL A   1      38.478  31.961  32.962  1.00  0.00     0.031 C 
ATOM     44  C   UNL A   1      40.003  28.003  27.517  1.00  0.00     0.029 A 
ATOM     45  C   UNL A   1      40.899  27.876  28.666  1.00  0.00     0.049 A 
ATOM     46  H   UNL A   1      40.710  28.811  30.518  1.00  0.00     0.167 HD
ATOM     47  C   UNL A   1      40.342  31.018  34.287  1.00  0.00     0.034 A 
ATOM     48  C   UNL A   1      42.005  27.106  28.723  1.00  0.00     0.034 A 
ATOM     49  C   UNL A   1      41.461  30.139  34.477  1.00  0.00     0.049 A 
ATOM     50  C   UNL A   1      42.808  27.066  29.998  1.00  0.00     0.074 A 
ATOM     51  C   UNL A   1      42.246  29.977  35.605  1.00  0.00     0.029 A 
ATOM     52  N   UNL A   1      41.956  29.272  33.517  1.00  0.00    -0.354 N 
ATOM     53  N   UNL A   1      42.583  27.675  31.137  1.00  0.00    -0.248 NA
ATOM     54  C   UNL A   1      44.003  26.207  30.006  1.00  0.00     0.031 C 
ATOM     55  C   UNL A   1      43.225  29.020  35.322  1.00  0.00     0.029 A 
ATOM     56  C   UNL A   1      43.036  28.571  34.025  1.00  0.00     0.049 A 
ATOM     57  H   UNL A   1      41.594  29.169  32.608  1.00  0.00     0.167 HD
ATOM     58  C   UNL A   1      43.577  27.238  32.008  1.00  0.00     0.074 A 
ATOM     59  C   UNL A   1      44.398  26.303  31.269  1.00  0.00     0.031 C 
ATOM     60  C   UNL A   1      43.797  27.588  33.299  1.00  0.00     0.034 A 
BRANCH  47  61
ATOM     61  C   UNL A   1      39.918  31.888  35.441  1.00  0.00     0.023 A 
ATOM     62  C   UNL A   1      40.414  33.204  35.536  1.00  0.00     0.012 A 
ATOM     63  C   UNL A   1      38.986  31.429  36.392  1.00  0.00     0.148 A 
ATOM     64  C   UNL A   1      40.007  34.042  36.572  1.00  0.00     0.002 A 
ATOM     65  C   UNL A   1      38.555  32.284  37.399  1.00  0.00     0.091 A 
ATOM     66  F   UNL A   1      38.545  30.167  36.296  1.00  0.00    -0.205 F 
ATOM     67  C   UNL A   1      39.071  33.587  37.496  1.00  0.00     0.022 A 
BRANCH  65  68
ATOM     68  S   UNL A   1      37.298  31.817  38.595  1.00  0.00     0.127 S 
ATOM     69  O   UNL A   1      37.018  30.435  38.204  1.00  0.00    -0.237 OA
ATOM     70  O   UNL A   1      38.012  31.959  39.863  1.00  0.00    -0.237 OA
ATOM     71  O   UNL A   1      36.198  32.753  38.408  1.00  0.00    -0.744 OA
ENDBRANCH  65  68
ENDBRANCH  47  61
BRANCH  48  72
ATOM     72  C   UNL A   1      42.403  26.277  27.550  1.00  0.00     0.023 A 
ATOM     73  C   UNL A   1      43.148  26.861  26.506  1.00  0.00     0.012 A 
ATOM     74  C   UNL A   1      42.048  24.918  27.460  1.00  0.00     0.148 A 
ATOM     75  C   UNL A   1      43.501  26.116  25.381  1.00  0.00     0.002 A 
ATOM     76  C   UNL A   1      42.450  24.166  26.360  1.00  0.00     0.091 A 
ATOM     77  F   UNL A   1      41.319  24.383  28.450  1.00  0.00    -0.205 F 
ATOM     78  C   UNL A   1      43.161  24.768  25.311  1.00  0.00     0.022 A 
BRANCH  76  79
ATOM     79  S   UNL A   1      42.161  22.396  26.255  1.00  0.00     0.127 S 
ATOM     80  O   UNL A   1      42.957  22.032  25.086  1.00  0.00    -0.237 OA
ATOM     81  O   UNL A   1      42.690  21.924  27.535  1.00  0.00    -0.237 OA
ATOM     82  O   UNL A   1      40.718  22.247  26.115  1.00  0.00    -0.744 OA
ENDBRANCH  76  79
ENDBRANCH  48  72
BRANCH  60  83
ATOM     83  C   UNL A   1      44.936  26.924  34.026  1.00  0.00     0.023 A 
ATOM     84  C   UNL A   1      46.224  27.492  33.982  1.00  0.00     0.012 A 
ATOM     85  C   UNL A   1      44.707  25.789  34.830  1.00  0.00     0.148 A 
ATOM     86  C   UNL A   1      47.273  26.925  34.707  1.00  0.00     0.002 A 
ATOM     87  C   UNL A   1      45.746  25.258  35.586  1.00  0.00     0.091 A 
ATOM     88  F   UNL A   1      43.478  25.253  34.844  1.00  0.00    -0.205 F 
ATOM     89  C   UNL A   1      47.030  25.818  35.517  1.00  0.00     0.022 A 
BRANCH  87  90
ATOM     90  S   UNL A   1      45.503  23.893  36.729  1.00  0.00     0.127 S 
ATOM     91  O   UNL A   1      44.562  24.470  37.687  1.00  0.00    -0.237 OA
ATOM     92  O   UNL A   1      44.936  22.859  35.863  1.00  0.00    -0.237 OA
ATOM     93  O   UNL A   1      46.822  23.576  37.261  1.00  0.00    -0.744 OA
ENDBRANCH  87  90
ENDBRANCH  60  83
ENDBRANCH  34  35
ENDBRANCH  27  29
ENDBRANCH  26  27
ENDBRANCH  25  26
ENDBRANCH  24  25
ENDBRANCH  23  24
ENDBRANCH   1  23
TORSDOF 21
ENDMDL
MODEL 3
REMARK VINA RESULT:     -10.5      1.592      2.225
REMARK SMILES CC(C)(C[NH2+]Cc1ccc2c(c1)OCO2)C(=O)OCCOCCOC(=O)c1ccc(-c2c3nc(c(-c4cccc(S(=O)(=O)[O-])c4F)c4ccc([nH]4)c(-c4cccc(S(=O)(=O)[O-])c4F)c4nc(c(-c5cccc(S(=O)(=O)[O-])c5F)c5ccc2[nH]5)C=C4)C=C3)cc1
REMARK SMILES IDX 20 1 19 2 18 3 16 4 17 5 2 6 1 7 3 8 4 9 5 10 6 13 7 14 8 15
REMARK SMILES IDX 12 16 9 17 11 18 10 19 13 20 15 21 14 22 21 23 22 24 23 25
REMARK SMILES IDX 24 26 25 27 26 28 27 29 28 30 89 31 29 32 88 33 30 34 31 35
REMARK SMILES IDX 32 36 82 37 33 38 87 39 81 40 83 41 34 42 86 43 80 44 79 45
REMARK SMILES IDX 35 47 67 48 47 49 66 50 48 51 51 52 65 53 84 54 49 55 50 56
REMARK SMILES IDX 64 58 85 59 52 60 36 61 37 62 45 63 38 64 40 65 46 66 39 67
REMARK SMILES IDX 41 68 42 69 43 70 44 71 68 72 69 73 77 74 70 75 72 76 78 77
REMARK SMILES IDX 71 78 73 79 74 80 75 81 76 82 53 83 54 84 62 85 55 86 57 87
REMARK SMILES IDX 63 88 56 89 58 90 59 91 60 92 61 93
REMARK H PARENT 5 11 5 12 83 46 51 57
REMARK Flexibility Score: inf
ROOT
ATOM      1  C   UNL A   1      32.244  29.787  25.863  1.00  0.00     0.202 C 
ENDROOT
BRANCH   1   2
ATOM      2  C   UNL A   1      31.133  29.591  24.828  1.00  0.00     0.261 C 
BRANCH   2   3
ATOM      3  O   UNL A   1      31.130  28.268  24.262  1.00  0.00    -0.463 OA
BRANCH   3   4
ATOM      4  C   UNL A   1      32.135  27.999  23.388  1.00  0.00     0.317 C 
ATOM      5  O   UNL A   1      32.553  28.798  22.553  1.00  0.00    -0.251 OA
BRANCH   4   6
ATOM      6  C   UNL A   1      32.660  26.564  23.488  1.00  0.00     0.111 C 
ATOM      7  C   UNL A   1      31.507  25.679  24.003  1.00  0.00     0.029 C 
ATOM      8  C   UNL A   1      33.773  26.598  24.553  1.00  0.00     0.029 C 
BRANCH   6   9
ATOM      9  C   UNL A   1      33.265  25.979  22.177  1.00  0.00     0.279 C 
BRANCH   9  10
ATOM     10  N   UNL A   1      32.435  24.981  21.478  1.00  0.00    -0.342 N 
ATOM     11  H   UNL A   1      32.119  25.380  20.594  1.00  0.00     0.346 HD
ATOM     12  H   UNL A   1      31.649  24.749  22.085  1.00  0.00     0.346 HD
BRANCH  10  13
ATOM     13  C   UNL A   1      33.171  23.738  21.199  1.00  0.00     0.297 C 
BRANCH  13  14
ATOM     14  C   UNL A   1      33.360  22.902  22.447  1.00  0.00     0.010 A 
ATOM     15  C   UNL A   1      32.321  22.051  22.897  1.00  0.00     0.013 A 
ATOM     16  C   UNL A   1      34.531  23.027  23.211  1.00  0.00     0.060 A 
ATOM     17  C   UNL A   1      32.431  21.355  24.105  1.00  0.00     0.051 A 
ATOM     18  C   UNL A   1      34.603  22.341  24.404  1.00  0.00     0.166 A 
ATOM     19  C   UNL A   1      33.580  21.533  24.843  1.00  0.00     0.165 A 
ATOM     20  O   UNL A   1      35.638  22.393  25.286  1.00  0.00    -0.454 OA
ATOM     21  O   UNL A   1      33.842  20.978  26.056  1.00  0.00    -0.454 OA
ATOM     22  C   UNL A   1      35.125  21.571  26.353  1.00  0.00     0.468 C 
ENDBRANCH  13  14
ENDBRANCH  10  13
ENDBRANCH   9  10
ENDBRANCH   6   9
ENDBRANCH   4   6
ENDBRANCH   3   4
ENDBRANCH   2   3
ENDBRANCH   1   2
BRANCH   1  23
ATOM     23  O   UNL A   1      32.016  30.770  26.872  1.00  0.00    -0.374 OA
BRANCH  23  24
ATOM     24  C   UNL A   1      31.409  31.993  26.446  1.00  0.00     0.202 C 
BRANCH  24  25
ATOM     25  C   UNL A   1      31.876  33.265  27.162  1.00  0.00     0.261 C 
BRANCH  25  26
ATOM     26  O   UNL A   1      33.307  33.419  27.104  1.00  0.00    -0.460 OA
BRANCH  26  27
ATOM     27  C   UNL A   1      33.894  33.738  28.279  1.00  0.00     0.338 C 
ATOM     28  O   UNL A   1      33.439  34.461  29.158  1.00  0.00    -0.246 OA
BRANCH  27  29
ATOM     29  C   UNL A   1      35.122  32.945  28.476  1.00  0.00     0.060 A 
ATOM     30  C   UNL A   1      34.964  31.613  28.883  1.00  0.00     0.016 A 
ATOM     31  C   UNL A   1      36.397  33.503  28.359  1.00  0.00     0.016 A 
ATOM     32  C   UNL A   1      36.074  30.857  29.251  1.00  0.00     0.010 A 
ATOM     33  C   UNL A   1      37.511  32.744  28.736  1.00  0.00     0.010 A 
ATOM     34  C   UNL A   1      37.348  31.436  29.231  1.00  0.00    -0.014 A 
BRANCH  34  35
ATOM     35  C   UNL A   1      38.471  30.742  29.909  1.00  0.00     0.031 A 
ATOM     36  C   UNL A   1      38.777  31.096  31.341  1.00  0.00     0.074 A 
ATOM     37  C   UNL A   1      39.187  29.792  29.280  1.00  0.00     0.049 A 
ATOM     38  N   UNL A   1      39.722  30.643  32.124  1.00  0.00    -0.248 NA
ATOM     39  C   UNL A   1      37.898  32.093  31.977  1.00  0.00     0.031 C 
ATOM     40  C   UNL A   1      38.971  29.342  27.906  1.00  0.00     0.029 A 
ATOM     41  N   UNL A   1      40.255  29.047  29.715  1.00  0.00    -0.354 N 
ATOM     42  C   UNL A   1      39.568  31.315  33.331  1.00  0.00     0.074 A 
ATOM     43  C   UNL A   1      38.448  32.218  33.176  1.00  0.00     0.031 C 
ATOM     44  C   UNL A   1      39.896  28.416  27.601  1.00  0.00     0.029 A 
ATOM     45  C   UNL A   1      40.782  28.225  28.748  1.00  0.00     0.049 A 
ATOM     46  H   UNL A   1      40.609  29.098  30.631  1.00  0.00     0.167 HD
ATOM     47  C   UNL A   1      40.280  31.180  34.474  1.00  0.00     0.034 A 
ATOM     48  C   UNL A   1      41.867  27.424  28.782  1.00  0.00     0.034 A 
ATOM     49  C   UNL A   1      41.375  30.265  34.638  1.00  0.00     0.049 A 
ATOM     50  C   UNL A   1      42.663  27.317  30.058  1.00  0.00     0.074 A 
ATOM     51  C   UNL A   1      42.149  30.041  35.763  1.00  0.00     0.029 A 
ATOM     52  N   UNL A   1      41.852  29.419  33.650  1.00  0.00    -0.354 N 
ATOM     53  N   UNL A   1      42.448  27.892  31.217  1.00  0.00    -0.248 NA
ATOM     54  C   UNL A   1      43.834  26.427  30.041  1.00  0.00     0.031 C 
ATOM     55  C   UNL A   1      43.104  29.070  35.450  1.00  0.00     0.029 A 
ATOM     56  C   UNL A   1      42.910  28.672  34.137  1.00  0.00     0.049 A 
ATOM     57  H   UNL A   1      41.492  29.359  32.736  1.00  0.00     0.167 HD
ATOM     58  C   UNL A   1      43.426  27.397  32.076  1.00  0.00     0.074 A 
ATOM     59  C   UNL A   1      44.226  26.468  31.308  1.00  0.00     0.031 C 
ATOM     60  C   UNL A   1      43.648  27.696  33.380  1.00  0.00     0.034 A 
BRANCH  47  61
ATOM     61  C   UNL A   1      39.873  32.019  35.657  1.00  0.00     0.023 A 
ATOM     62  C   UNL A   1      40.425  33.306  35.815  1.00  0.00     0.012 A 
ATOM     63  C   UNL A   1      38.904  31.563  36.572  1.00  0.00     0.148 A 
ATOM     64  C   UNL A   1      40.036  34.118  36.879  1.00  0.00     0.002 A 
ATOM     65  C   UNL A   1      38.493  32.394  37.607  1.00  0.00     0.091 A 
ATOM     66  F   UNL A   1      38.410  30.327  36.416  1.00  0.00    -0.205 F 
ATOM     67  C   UNL A   1      39.064  33.667  37.767  1.00  0.00     0.022 A 
BRANCH  65  68
ATOM     68  S   UNL A   1      37.195  31.934  38.760  1.00  0.00     0.127 S 
ATOM     69  O   UNL A   1      36.080  32.758  38.294  1.00  0.00    -0.237 OA
ATOM     70  O   UNL A   1      37.045  30.502  38.502  1.00  0.00    -0.237 OA
ATOM     71  O   UNL A   1      37.701  32.263  40.086  1.00  0.00    -0.744 OA
ENDBRANCH  65  68
ENDBRANCH  47  61
BRANCH  48  72
ATOM     72  C   UNL A   1      42.250  26.626  27.582  1.00  0.00     0.023 A 
ATOM     73  C   UNL A   1      42.880  27.265  26.495  1.00  0.00     0.012 A 
ATOM     74  C   UNL A   1      41.992  25.245  27.508  1.00  0.00     0.148 A 
ATOM     75  C   UNL A   1      43.214  26.548  25.345  1.00  0.00     0.002 A 
ATOM     76  C   UNL A   1      42.376  24.525  26.382  1.00  0.00     0.091 A 
ATOM     77  F   UNL A   1      41.370  24.657  28.541  1.00  0.00    -0.205 F 
ATOM     78  C   UNL A   1      42.972  25.178  25.292  1.00  0.00     0.022 A 
BRANCH  76  79
ATOM     79  S   UNL A   1      42.214  22.739  26.287  1.00  0.00     0.127 S 
ATOM     80  O   UNL A   1      42.651  22.470  24.920  1.00  0.00    -0.237 OA
ATOM     81  O   UNL A   1      43.139  22.292  27.330  1.00  0.00    -0.237 OA
ATOM     82  O   UNL A   1      40.813  22.461  26.575  1.00  0.00    -0.744 OA
ENDBRANCH  76  79
ENDBRANCH  48  72
BRANCH  60  83
ATOM     83  C   UNL A   1      44.766  26.976  34.088  1.00  0.00     0.023 A 
ATOM     84  C   UNL A   1      46.056  27.540  34.118  1.00  0.00     0.012 A 
ATOM     85  C   UNL A   1      44.512  25.787  34.803  1.00  0.00     0.148 A 
ATOM     86  C   UNL A   1      47.083  26.918  34.828  1.00  0.00     0.002 A 
ATOM     87  C   UNL A   1      45.529  25.199  35.546  1.00  0.00     0.091 A 
ATOM     88  F   UNL A   1      43.281  25.259  34.746  1.00  0.00    -0.205 F 
ATOM     89  C   UNL A   1      46.816  25.757  35.550  1.00  0.00     0.022 A 
BRANCH  87  90
ATOM     90  S   UNL A   1      45.252  23.758  36.582  1.00  0.00     0.127 S 
ATOM     91  O   UNL A   1      44.356  22.959  35.748  1.00  0.00    -0.237 OA
ATOM     92  O   UNL A   1      46.602  23.213  36.724  1.00  0.00    -0.237 OA
ATOM     93  O   UNL A   1      44.672  24.260  37.820  1.00  0.00    -0.744 OA
ENDBRANCH  87  90
ENDBRANCH  60  83
ENDBRANCH  34  35
ENDBRANCH  27  29
ENDBRANCH  26  27
ENDBRANCH  25  26
ENDBRANCH  24  25
ENDBRANCH  23  24
ENDBRANCH   1  23
TORSDOF 21
ENDMDL
