MODEL 1
REMARK VINA RESULT:      -9.1      0.000      0.000
REMARK SMILES C=C1C=C[C@H](C(=O)OCCOCCOC(=O)c2ccc(-c3c4nc(c(-c5cccc(S(=O)(=O)[O-])c5F)c5ccc([nH]5)c(-c5cccc(S(=O)(=O)[O-])c5F)c5nc(c(-c6cccc(S(=O)(=O)[O-])c6F)c6ccc3[nH]6)C=C5)C=C4)cc2)C(=S)N1
REMARK SMILES IDX 12 1 11 2 10 3 9 4 8 5 6 6 7 7 5 8 1 9 2 10 3 11 82 12 4 13
REMARK SMILES IDX 80 14 81 16 13 17 14 18 15 19 16 20 17 21 18 22 79 23 19 24
REMARK SMILES IDX 78 25 20 26 21 27 22 28 72 29 23 30 77 31 71 32 73 33 24 34
REMARK SMILES IDX 76 35 70 36 69 37 25 39 57 40 37 41 56 42 38 43 41 44 55 45
REMARK SMILES IDX 74 46 39 47 40 48 54 50 75 51 42 52 26 53 27 54 35 55 28 56
REMARK SMILES IDX 30 57 36 58 29 59 31 60 32 61 33 62 34 63 58 64 59 65 67 66
REMARK SMILES IDX 60 67 62 68 68 69 61 70 63 71 64 72 65 73 66 74 43 75 44 76
REMARK SMILES IDX 52 77 45 78 47 79 53 80 46 81 48 82 49 83 50 84 51 85
REMARK H PARENT 82 15 73 38 41 49
REMARK Flexibility Score: inf
ROOT
ATOM      1  C   UNL A   1      42.267  20.212  26.284  1.00  0.00     0.202 C 
ENDROOT
BRANCH   1   2
ATOM      2  O   UNL A   1      43.673  20.452  26.274  1.00  0.00    -0.374 OA
BRANCH   2   3
ATOM      3  C   UNL A   1      44.295  20.436  24.989  1.00  0.00     0.202 C 
BRANCH   3   4
ATOM      4  C   UNL A   1      45.747  20.925  24.928  1.00  0.00     0.261 C 
BRANCH   4   5
ATOM      5  O   UNL A   1      46.001  22.046  25.797  1.00  0.00    -0.462 OA
BRANCH   5   6
ATOM      6  C   UNL A   1      45.694  23.274  25.295  1.00  0.00     0.319 C 
ATOM      7  O   UNL A   1      45.749  23.575  24.106  1.00  0.00    -0.251 OA
BRANCH   6   8
ATOM      8  C   UNL A   1      45.163  24.228  26.359  1.00  0.00     0.180 C 
ATOM      9  C   UNL A   1      43.880  23.543  30.357  1.00  0.00     0.037 C 
ATOM     10  C   UNL A   1      44.271  23.742  29.093  1.00  0.00     0.031 C 
ATOM     11  C   UNL A   1      43.354  23.630  27.984  1.00  0.00     0.022 C 
ATOM     12  N   UNL A   1      45.569  24.094  28.822  1.00  0.00    -0.350 N 
ATOM     13  C   UNL A   1      43.743  23.866  26.723  1.00  0.00    -0.003 C 
ATOM     14  C   UNL A   1      46.076  24.361  27.576  1.00  0.00     0.098 C 
ATOM     15  H   UNL A   1      46.188  24.158  29.585  1.00  0.00     0.167 HD
ATOM     16  S   UNL A   1      47.655  24.916  27.438  1.00  0.00    -0.064 S 
ENDBRANCH   6   8
ENDBRANCH   5   6
ENDBRANCH   4   5
ENDBRANCH   3   4
ENDBRANCH   2   3
ENDBRANCH   1   2
BRANCH   1  17
ATOM     17  C   UNL A   1      41.379  21.387  25.859  1.00  0.00     0.261 C 
BRANCH  17  18
ATOM     18  O   UNL A   1      40.434  21.738  26.885  1.00  0.00    -0.460 OA
BRANCH  18  19
ATOM     19  C   UNL A   1      39.410  22.524  26.477  1.00  0.00     0.338 C 
ATOM     20  O   UNL A   1      38.364  22.161  25.956  1.00  0.00    -0.246 OA
BRANCH  19  21
ATOM     21  C   UNL A   1      39.641  23.911  26.921  1.00  0.00     0.060 A 
ATOM     22  C   UNL A   1      40.150  24.816  25.980  1.00  0.00     0.016 A 
ATOM     23  C   UNL A   1      39.399  24.314  28.235  1.00  0.00     0.016 A 
ATOM     24  C   UNL A   1      40.443  26.125  26.358  1.00  0.00     0.010 A 
ATOM     25  C   UNL A   1      39.703  25.626  28.614  1.00  0.00     0.010 A 
ATOM     26  C   UNL A   1      40.246  26.532  27.684  1.00  0.00    -0.014 A 
BRANCH  26  27
ATOM     27  C   UNL A   1      40.671  27.884  28.118  1.00  0.00     0.031 A 
ATOM     28  C   UNL A   1      42.133  28.228  28.153  1.00  0.00     0.074 A 
ATOM     29  C   UNL A   1      39.753  28.790  28.502  1.00  0.00     0.049 A 
ATOM     30  N   UNL A   1      42.714  29.326  28.557  1.00  0.00    -0.248 NA
ATOM     31  C   UNL A   1      43.065  27.194  27.671  1.00  0.00     0.031 C 
ATOM     32  C   UNL A   1      38.308  28.574  28.510  1.00  0.00     0.029 A 
ATOM     33  N   UNL A   1      39.907  30.064  28.991  1.00  0.00    -0.354 N 
ATOM     34  C   UNL A   1      44.079  29.111  28.409  1.00  0.00     0.074 A 
ATOM     35  C   UNL A   1      44.240  27.772  27.882  1.00  0.00     0.031 C 
ATOM     36  C   UNL A   1      37.707  29.664  29.017  1.00  0.00     0.029 A 
ATOM     37  C   UNL A   1      38.726  30.639  29.397  1.00  0.00     0.049 A 
ATOM     38  H   UNL A   1      40.778  30.519  29.047  1.00  0.00     0.167 HD
ATOM     39  C   UNL A   1      45.104  29.954  28.678  1.00  0.00     0.034 A 
ATOM     40  C   UNL A   1      38.496  31.805  30.034  1.00  0.00     0.034 A 
ATOM     41  C   UNL A   1      44.938  31.289  29.190  1.00  0.00     0.049 A 
ATOM     42  C   UNL A   1      39.657  32.708  30.358  1.00  0.00     0.074 A 
ATOM     43  C   UNL A   1      45.911  32.242  29.434  1.00  0.00     0.029 A 
ATOM     44  N   UNL A   1      43.726  31.854  29.557  1.00  0.00    -0.354 N 
ATOM     45  N   UNL A   1      40.930  32.545  30.092  1.00  0.00    -0.248 NA
ATOM     46  C   UNL A   1      39.345  33.969  31.049  1.00  0.00     0.031 C 
ATOM     47  C   UNL A   1      45.291  33.368  29.987  1.00  0.00     0.029 A 
ATOM     48  C   UNL A   1      43.928  33.130  30.053  1.00  0.00     0.049 A 
ATOM     49  H   UNL A   1      42.851  31.411  29.476  1.00  0.00     0.167 HD
ATOM     50  C   UNL A   1      41.568  33.690  30.558  1.00  0.00     0.074 A 
ATOM     51  C   UNL A   1      40.536  34.551  31.099  1.00  0.00     0.031 C 
ATOM     52  C   UNL A   1      42.890  33.995  30.555  1.00  0.00     0.034 A 
BRANCH  39  53
ATOM     53  C   UNL A   1      46.504  29.466  28.412  1.00  0.00     0.023 A 
ATOM     54  C   UNL A   1      47.153  29.823  27.213  1.00  0.00     0.012 A 
ATOM     55  C   UNL A   1      47.200  28.713  29.378  1.00  0.00     0.148 A 
ATOM     56  C   UNL A   1      48.463  29.412  26.967  1.00  0.00     0.002 A 
ATOM     57  C   UNL A   1      48.518  28.344  29.144  1.00  0.00     0.091 A 
ATOM     58  F   UNL A   1      46.557  28.367  30.503  1.00  0.00    -0.205 F 
ATOM     59  C   UNL A   1      49.148  28.683  27.935  1.00  0.00     0.022 A 
BRANCH  57  60
ATOM     60  S   UNL A   1      49.512  27.470  30.360  1.00  0.00     0.127 S 
ATOM     61  O   UNL A   1      50.782  27.322  29.650  1.00  0.00    -0.237 OA
ATOM     62  O   UNL A   1      49.542  28.421  31.472  1.00  0.00    -0.237 OA
ATOM     63  O   UNL A   1      48.805  26.228  30.640  1.00  0.00    -0.744 OA
ENDBRANCH  57  60
ENDBRANCH  39  53
BRANCH  40  64
ATOM     64  C   UNL A   1      37.104  32.187  30.402  1.00  0.00     0.023 A 
ATOM     65  C   UNL A   1      36.634  31.938  31.705  1.00  0.00     0.012 A 
ATOM     66  C   UNL A   1      36.252  32.814  29.472  1.00  0.00     0.148 A 
ATOM     67  C   UNL A   1      35.331  32.281  32.067  1.00  0.00     0.002 A 
ATOM     68  C   UNL A   1      34.975  33.205  29.855  1.00  0.00     0.091 A 
ATOM     69  F   UNL A   1      36.712  33.024  28.230  1.00  0.00    -0.205 F 
ATOM     70  C   UNL A   1      34.506  32.924  31.147  1.00  0.00     0.022 A 
BRANCH  68  71
ATOM     71  S   UNL A   1      33.895  34.152  28.777  1.00  0.00     0.127 S 
ATOM     72  O   UNL A   1      32.875  34.619  29.710  1.00  0.00    -0.237 OA
ATOM     73  O   UNL A   1      34.800  35.189  28.280  1.00  0.00    -0.237 OA
ATOM     74  O   UNL A   1      33.439  33.217  27.756  1.00  0.00    -0.744 OA
ENDBRANCH  68  71
ENDBRANCH  40  64
BRANCH  52  75
ATOM     75  C   UNL A   1      43.305  35.322  31.138  1.00  0.00     0.023 A 
ATOM     76  C   UNL A   1      43.598  35.418  32.513  1.00  0.00     0.012 A 
ATOM     77  C   UNL A   1      43.474  36.452  30.315  1.00  0.00     0.148 A 
ATOM     78  C   UNL A   1      44.022  36.627  33.065  1.00  0.00     0.002 A 
ATOM     79  C   UNL A   1      43.945  37.640  30.862  1.00  0.00     0.091 A 
ATOM     80  F   UNL A   1      43.177  36.344  29.012  1.00  0.00    -0.205 F 
ATOM     81  C   UNL A   1      44.207  37.733  32.239  1.00  0.00     0.022 A 
BRANCH  79  82
ATOM     82  S   UNL A   1      44.304  39.091  29.865  1.00  0.00     0.127 S 
ATOM     83  O   UNL A   1      42.982  39.422  29.336  1.00  0.00    -0.237 OA
ATOM     84  O   UNL A   1      44.816  40.031  30.860  1.00  0.00    -0.237 OA
ATOM     85  O   UNL A   1      45.283  38.665  28.873  1.00  0.00    -0.744 OA
ENDBRANCH  79  82
ENDBRANCH  52  75
ENDBRANCH  26  27
ENDBRANCH  19  21
ENDBRANCH  18  19
ENDBRANCH  17  18
ENDBRANCH   1  17
TORSDOF 17
ENDMDL
MODEL 2
REMARK VINA RESULT:      -9.0      3.672      9.999
REMARK SMILES C=C1C=C[C@H](C(=O)OCCOCCOC(=O)c2ccc(-c3c4nc(c(-c5cccc(S(=O)(=O)[O-])c5F)c5ccc([nH]5)c(-c5cccc(S(=O)(=O)[O-])c5F)c5nc(c(-c6cccc(S(=O)(=O)[O-])c6F)c6ccc3[nH]6)C=C5)C=C4)cc2)C(=S)N1
REMARK SMILES IDX 12 1 11 2 10 3 9 4 8 5 6 6 7 7 5 8 1 9 2 10 3 11 82 12 4 13
REMARK SMILES IDX 80 14 81 16 13 17 14 18 15 19 16 20 17 21 18 22 79 23 19 24
REMARK SMILES IDX 78 25 20 26 21 27 22 28 72 29 23 30 77 31 71 32 73 33 24 34
REMARK SMILES IDX 76 35 70 36 69 37 25 39 57 40 37 41 56 42 38 43 41 44 55 45
REMARK SMILES IDX 74 46 39 47 40 48 54 50 75 51 42 52 26 53 27 54 35 55 28 56
REMARK SMILES IDX 30 57 36 58 29 59 31 60 32 61 33 62 34 63 58 64 59 65 67 66
REMARK SMILES IDX 60 67 62 68 68 69 61 70 63 71 64 72 65 73 66 74 43 75 44 76
REMARK SMILES IDX 52 77 45 78 47 79 53 80 46 81 48 82 49 83 50 84 51 85
REMARK H PARENT 82 15 73 38 41 49
REMARK Flexibility Score: inf
ROOT
ATOM      1  C   UNL A   1      35.091  20.702  24.970  1.00  0.00     0.202 C 
ENDROOT
BRANCH   1   2
ATOM      2  O   UNL A   1      34.700  21.827  24.185  1.00  0.00    -0.374 OA
BRANCH   2   3
ATOM      3  C   UNL A   1      33.351  22.264  24.358  1.00  0.00     0.202 C 
BRANCH   3   4
ATOM      4  C   UNL A   1      33.098  23.264  25.493  1.00  0.00     0.261 C 
BRANCH   4   5
ATOM      5  O   UNL A   1      31.728  23.705  25.560  1.00  0.00    -0.462 OA
BRANCH   5   6
ATOM      6  C   UNL A   1      31.234  24.296  24.436  1.00  0.00     0.319 C 
ATOM      7  O   UNL A   1      30.640  23.703  23.540  1.00  0.00    -0.251 OA
BRANCH   6   8
ATOM      8  C   UNL A   1      31.400  25.812  24.449  1.00  0.00     0.180 C 
ATOM      9  C   UNL A   1      34.028  28.332  26.648  1.00  0.00     0.037 C 
ATOM     10  C   UNL A   1      33.196  27.530  25.974  1.00  0.00     0.031 C 
ATOM     11  C   UNL A   1      31.915  27.136  26.510  1.00  0.00     0.022 C 
ATOM     12  N   UNL A   1      33.536  27.079  24.724  1.00  0.00    -0.350 N 
ATOM     13  C   UNL A   1      31.069  26.361  25.816  1.00  0.00    -0.003 C 
ATOM     14  C   UNL A   1      32.753  26.287  23.924  1.00  0.00     0.098 C 
ATOM     15  H   UNL A   1      34.416  27.346  24.372  1.00  0.00     0.167 HD
ATOM     16  S   UNL A   1      33.264  25.943  22.362  1.00  0.00    -0.064 S 
ENDBRANCH   6   8
ENDBRANCH   5   6
ENDBRANCH   4   5
ENDBRANCH   3   4
ENDBRANCH   2   3
ENDBRANCH   1   2
BRANCH   1  17
ATOM     17  C   UNL A   1      36.595  20.410  25.027  1.00  0.00     0.261 C 
BRANCH  17  18
ATOM     18  O   UNL A   1      37.310  21.437  25.737  1.00  0.00    -0.460 OA
BRANCH  18  19
ATOM     19  C   UNL A   1      38.616  21.170  25.969  1.00  0.00     0.338 C 
ATOM     20  O   UNL A   1      39.229  20.157  25.659  1.00  0.00    -0.246 OA
BRANCH  19  21
ATOM     21  C   UNL A   1      39.281  22.372  26.503  1.00  0.00     0.060 A 
ATOM     22  C   UNL A   1      38.769  23.619  26.122  1.00  0.00     0.016 A 
ATOM     23  C   UNL A   1      40.402  22.289  27.332  1.00  0.00     0.016 A 
ATOM     24  C   UNL A   1      39.393  24.790  26.548  1.00  0.00     0.010 A 
ATOM     25  C   UNL A   1      41.032  23.466  27.750  1.00  0.00     0.010 A 
ATOM     26  C   UNL A   1      40.544  24.721  27.344  1.00  0.00    -0.014 A 
BRANCH  26  27
ATOM     27  C   UNL A   1      41.280  25.959  27.697  1.00  0.00     0.031 A 
ATOM     28  C   UNL A   1      40.577  27.053  28.449  1.00  0.00     0.074 A 
ATOM     29  C   UNL A   1      42.564  26.110  27.323  1.00  0.00     0.049 A 
ATOM     30  N   UNL A   1      41.020  28.231  28.798  1.00  0.00    -0.248 NA
ATOM     31  C   UNL A   1      39.189  26.785  28.859  1.00  0.00     0.031 C 
ATOM     32  C   UNL A   1      43.351  25.119  26.592  1.00  0.00     0.029 A 
ATOM     33  N   UNL A   1      43.420  27.172  27.480  1.00  0.00    -0.354 N 
ATOM     34  C   UNL A   1      39.962  28.860  29.442  1.00  0.00     0.074 A 
ATOM     35  C   UNL A   1      38.851  27.933  29.430  1.00  0.00     0.031 C 
ATOM     36  C   UNL A   1      44.565  25.634  26.330  1.00  0.00     0.029 A 
ATOM     37  C   UNL A   1      44.627  26.999  26.847  1.00  0.00     0.049 A 
ATOM     38  H   UNL A   1      43.190  27.979  27.996  1.00  0.00     0.167 HD
ATOM     39  C   UNL A   1      39.922  30.094  30.000  1.00  0.00     0.034 A 
ATOM     40  C   UNL A   1      45.653  27.856  26.672  1.00  0.00     0.034 A 
ATOM     41  C   UNL A   1      41.034  31.007  30.021  1.00  0.00     0.049 A 
ATOM     42  C   UNL A   1      45.569  29.236  27.269  1.00  0.00     0.074 A 
ATOM     43  C   UNL A   1      41.111  32.253  30.619  1.00  0.00     0.029 A 
ATOM     44  N   UNL A   1      42.254  30.786  29.401  1.00  0.00    -0.354 N 
ATOM     45  N   UNL A   1      44.610  29.768  27.988  1.00  0.00    -0.248 NA
ATOM     46  C   UNL A   1      46.719  30.126  27.051  1.00  0.00     0.031 C 
ATOM     47  C   UNL A   1      42.364  32.802  30.325  1.00  0.00     0.029 A 
ATOM     48  C   UNL A   1      43.080  31.883  29.574  1.00  0.00     0.049 A 
ATOM     49  H   UNL A   1      42.496  29.969  28.908  1.00  0.00     0.167 HD
ATOM     50  C   UNL A   1      45.051  31.043  28.331  1.00  0.00     0.074 A 
ATOM     51  C   UNL A   1      46.375  31.192  27.762  1.00  0.00     0.031 C 
ATOM     52  C   UNL A   1      44.411  32.009  29.036  1.00  0.00     0.034 A 
BRANCH  39  53
ATOM     53  C   UNL A   1      38.636  30.528  30.651  1.00  0.00     0.023 A 
ATOM     54  C   UNL A   1      38.440  30.308  32.031  1.00  0.00     0.012 A 
ATOM     55  C   UNL A   1      37.651  31.215  29.914  1.00  0.00     0.148 A 
ATOM     56  C   UNL A   1      37.271  30.739  32.658  1.00  0.00     0.002 A 
ATOM     57  C   UNL A   1      36.509  31.678  30.555  1.00  0.00     0.091 A 
ATOM     58  F   UNL A   1      37.848  31.396  28.600  1.00  0.00    -0.205 F 
ATOM     59  C   UNL A   1      36.312  31.432  31.924  1.00  0.00     0.022 A 
BRANCH  57  60
ATOM     60  S   UNL A   1      35.251  32.649  29.715  1.00  0.00     0.127 S 
ATOM     61  O   UNL A   1      34.745  31.688  28.735  1.00  0.00    -0.237 OA
ATOM     62  O   UNL A   1      34.323  32.957  30.803  1.00  0.00    -0.237 OA
ATOM     63  O   UNL A   1      35.940  33.804  29.158  1.00  0.00    -0.744 OA
ENDBRANCH  57  60
ENDBRANCH  39  53
BRANCH  40  64
ATOM     64  C   UNL A   1      46.854  27.429  25.901  1.00  0.00     0.023 A 
ATOM     65  C   UNL A   1      46.929  27.697  24.521  1.00  0.00     0.012 A 
ATOM     66  C   UNL A   1      47.930  26.777  26.535  1.00  0.00     0.148 A 
ATOM     67  C   UNL A   1      48.042  27.298  23.781  1.00  0.00     0.002 A 
ATOM     68  C   UNL A   1      49.060  26.433  25.803  1.00  0.00     0.091 A 
ATOM     69  F   UNL A   1      47.831  26.513  27.845  1.00  0.00    -0.205 F 
ATOM     70  C   UNL A   1      49.111  26.677  24.422  1.00  0.00     0.022 A 
BRANCH  68  71
ATOM     71  S   UNL A   1      50.532  25.749  26.570  1.00  0.00     0.127 S 
ATOM     72  O   UNL A   1      51.418  25.578  25.423  1.00  0.00    -0.237 OA
ATOM     73  O   UNL A   1      50.916  26.820  27.492  1.00  0.00    -0.237 OA
ATOM     74  O   UNL A   1      50.101  24.521  27.226  1.00  0.00    -0.744 OA
ENDBRANCH  68  71
ENDBRANCH  40  64
BRANCH  52  75
ATOM     75  C   UNL A   1      45.135  33.313  29.253  1.00  0.00     0.023 A 
ATOM     76  C   UNL A   1      45.962  33.473  30.383  1.00  0.00     0.012 A 
ATOM     77  C   UNL A   1      45.054  34.351  28.305  1.00  0.00     0.148 A 
ATOM     78  C   UNL A   1      46.671  34.657  30.581  1.00  0.00     0.002 A 
ATOM     79  C   UNL A   1      45.802  35.510  28.483  1.00  0.00     0.091 A 
ATOM     80  F   UNL A   1      44.250  34.187  27.244  1.00  0.00    -0.205 F 
ATOM     81  C   UNL A   1      46.601  35.669  29.627  1.00  0.00     0.022 A 
BRANCH  79  82
ATOM     82  S   UNL A   1      45.850  36.829  27.265  1.00  0.00     0.127 S 
ATOM     83  O   UNL A   1      46.354  36.127  26.086  1.00  0.00    -0.237 OA
ATOM     84  O   UNL A   1      44.445  37.227  27.184  1.00  0.00    -0.237 OA
ATOM     85  O   UNL A   1      46.738  37.848  27.809  1.00  0.00    -0.744 OA
ENDBRANCH  79  82
ENDBRANCH  52  75
ENDBRANCH  26  27
ENDBRANCH  19  21
ENDBRANCH  18  19
ENDBRANCH  17  18
ENDBRANCH   1  17
TORSDOF 17
ENDMDL
MODEL 3
REMARK VINA RESULT:      -8.9      3.906     10.068
REMARK SMILES C=C1C=C[C@H](C(=O)OCCOCCOC(=O)c2ccc(-c3c4nc(c(-c5cccc(S(=O)(=O)[O-])c5F)c5ccc([nH]5)c(-c5cccc(S(=O)(=O)[O-])c5F)c5nc(c(-c6cccc(S(=O)(=O)[O-])c6F)c6ccc3[nH]6)C=C5)C=C4)cc2)C(=S)N1
REMARK SMILES IDX 12 1 11 2 10 3 9 4 8 5 6 6 7 7 5 8 1 9 2 10 3 11 82 12 4 13
REMARK SMILES IDX 80 14 81 16 13 17 14 18 15 19 16 20 17 21 18 22 79 23 19 24
REMARK SMILES IDX 78 25 20 26 21 27 22 28 72 29 23 30 77 31 71 32 73 33 24 34
REMARK SMILES IDX 76 35 70 36 69 37 25 39 57 40 37 41 56 42 38 43 41 44 55 45
REMARK SMILES IDX 74 46 39 47 40 48 54 50 75 51 42 52 26 53 27 54 35 55 28 56
REMARK SMILES IDX 30 57 36 58 29 59 31 60 32 61 33 62 34 63 58 64 59 65 67 66
REMARK SMILES IDX 60 67 62 68 68 69 61 70 63 71 64 72 65 73 66 74 43 75 44 76
REMARK SMILES IDX 52 77 45 78 47 79 53 80 46 81 48 82 49 83 50 84 51 85
REMARK H PARENT 82 15 73 38 41 49
REMARK Flexibility Score: inf
ROOT
ATOM      1  C   UNL A   1      35.561  21.526  24.617  1.00  0.00     0.202 C 
ENDROOT
BRANCH   1   2
ATOM      2  O   UNL A   1      35.024  22.685  25.253  1.00  0.00    -0.374 OA
BRANCH   2   3
ATOM      3  C   UNL A   1      35.425  23.938  24.697  1.00  0.00     0.202 C 
BRANCH   3   4
ATOM      4  C   UNL A   1      34.307  24.949  24.417  1.00  0.00     0.261 C 
BRANCH   4   5
ATOM      5  O   UNL A   1      33.106  24.684  25.169  1.00  0.00    -0.462 OA
BRANCH   5   6
ATOM      6  C   UNL A   1      31.933  24.837  24.495  1.00  0.00     0.319 C 
ATOM      7  O   UNL A   1      31.529  25.899  24.030  1.00  0.00    -0.251 OA
BRANCH   6   8
ATOM      8  C   UNL A   1      31.203  23.515  24.278  1.00  0.00     0.180 C 
ATOM      9  C   UNL A   1      32.548  19.489  24.542  1.00  0.00     0.037 C 
ATOM     10  C   UNL A   1      32.142  20.759  24.447  1.00  0.00     0.031 C 
ATOM     11  C   UNL A   1      32.255  21.506  23.217  1.00  0.00     0.022 C 
ATOM     12  N   UNL A   1      31.572  21.383  25.528  1.00  0.00    -0.350 N 
ATOM     13  C   UNL A   1      31.813  22.768  23.117  1.00  0.00    -0.003 C 
ATOM     14  C   UNL A   1      31.084  22.664  25.541  1.00  0.00     0.098 C 
ATOM     15  H   UNL A   1      31.509  20.867  26.364  1.00  0.00     0.167 HD
ATOM     16  S   UNL A   1      30.289  23.223  26.909  1.00  0.00    -0.064 S 
ENDBRANCH   6   8
ENDBRANCH   5   6
ENDBRANCH   4   5
ENDBRANCH   3   4
ENDBRANCH   2   3
ENDBRANCH   1   2
BRANCH   1  17
ATOM     17  C   UNL A   1      36.648  20.774  25.393  1.00  0.00     0.261 C 
BRANCH  17  18
ATOM     18  O   UNL A   1      37.961  21.284  25.101  1.00  0.00    -0.460 OA
BRANCH  18  19
ATOM     19  C   UNL A   1      38.913  20.968  26.008  1.00  0.00     0.338 C 
ATOM     20  O   UNL A   1      39.343  19.853  26.270  1.00  0.00    -0.246 OA
BRANCH  19  21
ATOM     21  C   UNL A   1      39.525  22.202  26.536  1.00  0.00     0.060 A 
ATOM     22  C   UNL A   1      39.041  23.424  26.050  1.00  0.00     0.016 A 
ATOM     23  C   UNL A   1      40.570  22.170  27.460  1.00  0.00     0.016 A 
ATOM     24  C   UNL A   1      39.620  24.620  26.468  1.00  0.00     0.010 A 
ATOM     25  C   UNL A   1      41.156  23.372  27.871  1.00  0.00     0.010 A 
ATOM     26  C   UNL A   1      40.699  24.601  27.362  1.00  0.00    -0.014 A 
BRANCH  26  27
ATOM     27  C   UNL A   1      41.397  25.862  27.714  1.00  0.00     0.031 A 
ATOM     28  C   UNL A   1      40.651  26.946  28.438  1.00  0.00     0.074 A 
ATOM     29  C   UNL A   1      42.683  26.041  27.365  1.00  0.00     0.049 A 
ATOM     30  N   UNL A   1      41.057  28.140  28.781  1.00  0.00    -0.248 NA
ATOM     31  C   UNL A   1      39.262  26.648  28.823  1.00  0.00     0.031 C 
ATOM     32  C   UNL A   1      43.510  25.062  26.662  1.00  0.00     0.029 A 
ATOM     33  N   UNL A   1      43.509  27.126  27.525  1.00  0.00    -0.354 N 
ATOM     34  C   UNL A   1      39.970  28.750  29.395  1.00  0.00     0.074 A 
ATOM     35  C   UNL A   1      38.883  27.794  29.373  1.00  0.00     0.031 C 
ATOM     36  C   UNL A   1      44.716  25.604  26.418  1.00  0.00     0.029 A 
ATOM     37  C   UNL A   1      44.733  26.976  26.918  1.00  0.00     0.049 A 
ATOM     38  H   UNL A   1      43.248  27.933  28.026  1.00  0.00     0.167 HD
ATOM     39  C   UNL A   1      39.887  29.988  29.936  1.00  0.00     0.034 A 
ATOM     40  C   UNL A   1      45.740  27.858  26.754  1.00  0.00     0.034 A 
ATOM     41  C   UNL A   1      40.975  30.930  29.968  1.00  0.00     0.049 A 
ATOM     42  C   UNL A   1      45.609  29.242  27.331  1.00  0.00     0.074 A 
ATOM     43  C   UNL A   1      41.009  32.184  30.551  1.00  0.00     0.029 A 
ATOM     44  N   UNL A   1      42.213  30.733  29.375  1.00  0.00    -0.354 N 
ATOM     45  N   UNL A   1      44.623  29.758  28.024  1.00  0.00    -0.248 NA
ATOM     46  C   UNL A   1      46.741  30.158  27.125  1.00  0.00     0.031 C 
ATOM     47  C   UNL A   1      42.253  32.762  30.275  1.00  0.00     0.029 A 
ATOM     48  C   UNL A   1      43.007  31.853  29.552  1.00  0.00     0.049 A 
ATOM     49  H   UNL A   1      42.486  29.916  28.898  1.00  0.00     0.167 HD
ATOM     50  C   UNL A   1      45.024  31.048  28.359  1.00  0.00     0.074 A 
ATOM     51  C   UNL A   1      46.355  31.224  27.815  1.00  0.00     0.031 C 
ATOM     52  C   UNL A   1      44.345  32.005  29.039  1.00  0.00     0.034 A 
BRANCH  39  53
ATOM     53  C   UNL A   1      38.577  30.398  30.556  1.00  0.00     0.023 A 
ATOM     54  C   UNL A   1      38.313  30.086  31.906  1.00  0.00     0.012 A 
ATOM     55  C   UNL A   1      37.638  31.150  29.823  1.00  0.00     0.148 A 
ATOM     56  C   UNL A   1      37.121  30.491  32.507  1.00  0.00     0.002 A 
ATOM     57  C   UNL A   1      36.473  31.587  30.442  1.00  0.00     0.091 A 
ATOM     58  F   UNL A   1      37.900  31.418  28.536  1.00  0.00    -0.205 F 
ATOM     59  C   UNL A   1      36.208  31.249  31.780  1.00  0.00     0.022 A 
BRANCH  57  60
ATOM     60  S   UNL A   1      35.270  32.633  29.614  1.00  0.00     0.127 S 
ATOM     61  O   UNL A   1      36.061  33.834  29.344  1.00  0.00    -0.237 OA
ATOM     62  O   UNL A   1      34.937  31.843  28.429  1.00  0.00    -0.237 OA
ATOM     63  O   UNL A   1      34.173  32.808  30.556  1.00  0.00    -0.744 OA
ENDBRANCH  57  60
ENDBRANCH  39  53
BRANCH  40  64
ATOM     64  C   UNL A   1      46.967  27.452  26.012  1.00  0.00     0.023 A 
ATOM     65  C   UNL A   1      47.095  27.772  24.648  1.00  0.00     0.012 A 
ATOM     66  C   UNL A   1      48.015  26.768  26.660  1.00  0.00     0.148 A 
ATOM     67  C   UNL A   1      48.233  27.394  23.934  1.00  0.00     0.002 A 
ATOM     68  C   UNL A   1      49.170  26.445  25.958  1.00  0.00     0.091 A 
ATOM     69  F   UNL A   1      47.865  26.456  27.955  1.00  0.00    -0.205 F 
ATOM     70  C   UNL A   1      49.274  26.741  24.591  1.00  0.00     0.022 A 
BRANCH  68  71
ATOM     71  S   UNL A   1      50.608  25.722  26.754  1.00  0.00     0.127 S 
ATOM     72  O   UNL A   1      50.937  26.732  27.755  1.00  0.00    -0.237 OA
ATOM     73  O   UNL A   1      50.060  24.476  27.292  1.00  0.00    -0.237 OA
ATOM     74  O   UNL A   1      51.593  25.535  25.696  1.00  0.00    -0.744 OA
ENDBRANCH  68  71
ENDBRANCH  40  64
BRANCH  52  75
ATOM     75  C   UNL A   1      45.031  33.331  29.254  1.00  0.00     0.023 A 
ATOM     76  C   UNL A   1      45.860  33.513  30.379  1.00  0.00     0.012 A 
ATOM     77  C   UNL A   1      44.914  34.367  28.307  1.00  0.00     0.148 A 
ATOM     78  C   UNL A   1      46.534  34.718  30.575  1.00  0.00     0.002 A 
ATOM     79  C   UNL A   1      45.629  35.547  28.483  1.00  0.00     0.091 A 
ATOM     80  F   UNL A   1      44.110  34.180  27.250  1.00  0.00    -0.205 F 
ATOM     81  C   UNL A   1      46.429  35.728  29.622  1.00  0.00     0.022 A 
BRANCH  79  82
ATOM     82  S   UNL A   1      45.631  36.868  27.266  1.00  0.00     0.127 S 
ATOM     83  O   UNL A   1      46.443  37.885  27.932  1.00  0.00    -0.237 OA
ATOM     84  O   UNL A   1      46.275  36.230  26.118  1.00  0.00    -0.237 OA
ATOM     85  O   UNL A   1      44.234  37.226  27.056  1.00  0.00    -0.744 OA
ENDBRANCH  79  82
ENDBRANCH  52  75
ENDBRANCH  26  27
ENDBRANCH  19  21
ENDBRANCH  18  19
ENDBRANCH  17  18
ENDBRANCH   1  17
TORSDOF 17
ENDMDL
