MODEL 1
REMARK VINA RESULT:     -11.0      0.000      0.000
REMARK SMILES O=C(OCCOCCOC(=O)[C@@H]1CCCC[C@H]1C(=O)Nc1ccc(NC(=O)c2ccco2)cc1)c1ccc(-c2c3nc(c(-c4cccc(S(=O)(=O)[O-])c4F)c4ccc([nH]4)c(-c4cccc(S(=O)(=O)[O-])c4F)c4nc(c(-c5cccc(S(=O)(=O)[O-])c5F)c5ccc2[nH]5)C=C4)C=C3)cc1
REMARK SMILES IDX 7 1 6 2 5 3 4 4 3 5 2 6 1 7 35 8 36 9 97 10 37 11 96 12
REMARK SMILES IDX 38 13 39 14 40 15 90 16 41 17 95 18 89 19 91 20 42 21 94 22
REMARK SMILES IDX 88 23 87 24 43 26 75 27 55 28 74 29 56 30 59 31 73 32 92 33
REMARK SMILES IDX 57 34 58 35 72 37 93 38 60 39 44 40 45 41 53 42 46 43 48 44
REMARK SMILES IDX 54 45 47 46 49 47 50 48 51 49 52 50 76 51 77 52 85 53 78 54
REMARK SMILES IDX 80 55 86 56 79 57 81 58 82 59 83 60 84 61 61 62 62 63 70 64
REMARK SMILES IDX 63 65 65 66 71 67 64 68 66 69 67 70 68 71 69 72 8 73 9 74
REMARK SMILES IDX 10 75 11 76 12 77 13 78 17 79 14 80 16 81 15 82 18 83 19 84
REMARK SMILES IDX 20 85 21 87 22 88 34 89 23 90 33 91 24 92 25 93 26 94 27 96
REMARK SMILES IDX 28 97 29 98 32 99 30 100 31 101
REMARK H PARENT 91 25 59 36 20 86 25 95
REMARK Flexibility Score: inf
ROOT
ATOM      1  C   UNL A   1      32.031  30.398  25.857  1.00  0.00     0.202 C 
ENDROOT
BRANCH   1   2
ATOM      2  O   UNL A   1      31.753  31.308  26.926  1.00  0.00    -0.374 OA
BRANCH   2   3
ATOM      3  C   UNL A   1      32.893  31.776  27.642  1.00  0.00     0.202 C 
BRANCH   3   4
ATOM      4  C   UNL A   1      33.323  33.235  27.403  1.00  0.00     0.261 C 
BRANCH   4   5
ATOM      5  O   UNL A   1      32.675  34.148  28.303  1.00  0.00    -0.460 OA
BRANCH   5   6
ATOM      6  C   UNL A   1      33.197  34.740  29.405  1.00  0.00     0.338 C 
ATOM      7  O   UNL A   1      32.665  35.760  29.839  1.00  0.00    -0.246 OA
BRANCH   6   8
ATOM      8  C   UNL A   1      34.382  34.192  30.127  1.00  0.00     0.060 A 
ATOM      9  C   UNL A   1      35.695  34.610  29.912  1.00  0.00     0.016 A 
ATOM     10  C   UNL A   1      34.156  33.231  31.125  1.00  0.00     0.016 A 
ATOM     11  C   UNL A   1      36.762  34.062  30.582  1.00  0.00     0.010 A 
ATOM     12  C   UNL A   1      35.226  32.691  31.844  1.00  0.00     0.010 A 
ATOM     13  C   UNL A   1      36.529  33.102  31.549  1.00  0.00    -0.014 A 
BRANCH  13  14
ATOM     14  C   UNL A   1      37.720  32.484  32.129  1.00  0.00     0.031 A 
ATOM     15  C   UNL A   1      38.425  31.448  31.323  1.00  0.00     0.074 A 
ATOM     16  C   UNL A   1      38.227  33.001  33.259  1.00  0.00     0.049 A 
ATOM     17  N   UNL A   1      39.464  30.734  31.641  1.00  0.00    -0.248 NA
ATOM     18  C   UNL A   1      37.903  31.198  29.967  1.00  0.00     0.031 C 
ATOM     19  C   UNL A   1      37.656  34.137  33.991  1.00  0.00     0.029 A 
ATOM     20  N   UNL A   1      39.343  32.667  33.971  1.00  0.00    -0.354 N 
ATOM     21  C   UNL A   1      39.673  29.893  30.559  1.00  0.00     0.074 A 
ATOM     22  C   UNL A   1      38.693  30.221  29.551  1.00  0.00     0.031 C 
ATOM     23  C   UNL A   1      38.423  34.397  35.059  1.00  0.00     0.029 A 
ATOM     24  C   UNL A   1      39.484  33.400  35.124  1.00  0.00     0.049 A 
ATOM     25  H   UNL A   1      39.979  31.972  33.688  1.00  0.00     0.167 HD
ATOM     26  C   UNL A   1      40.597  28.914  30.446  1.00  0.00     0.034 A 
ATOM     27  C   UNL A   1      40.348  33.232  36.143  1.00  0.00     0.034 A 
ATOM     28  C   UNL A   1      41.556  28.640  31.476  1.00  0.00     0.049 A 
ATOM     29  C   UNL A   1      41.342  32.113  36.017  1.00  0.00     0.074 A 
ATOM     30  C   UNL A   1      42.501  27.637  31.537  1.00  0.00     0.029 A 
ATOM     31  N   UNL A   1      41.681  29.392  32.640  1.00  0.00    -0.354 N 
ATOM     32  N   UNL A   1      41.520  31.285  35.012  1.00  0.00    -0.248 NA
ATOM     33  C   UNL A   1      42.251  31.895  37.147  1.00  0.00     0.031 C 
ATOM     34  C   UNL A   1      43.190  27.777  32.748  1.00  0.00     0.029 A 
ATOM     35  C   UNL A   1      42.685  28.876  33.433  1.00  0.00     0.049 A 
ATOM     36  H   UNL A   1      41.132  30.178  32.866  1.00  0.00     0.167 HD
ATOM     37  C   UNL A   1      42.561  30.448  35.382  1.00  0.00     0.074 A 
ATOM     38  C   UNL A   1      42.993  30.889  36.696  1.00  0.00     0.031 C 
ATOM     39  C   UNL A   1      43.097  29.395  34.716  1.00  0.00     0.034 A 
BRANCH  26  40
ATOM     40  C   UNL A   1      40.536  28.069  29.209  1.00  0.00     0.023 A 
ATOM     41  C   UNL A   1      39.649  26.976  29.141  1.00  0.00     0.012 A 
ATOM     42  C   UNL A   1      41.416  28.314  28.138  1.00  0.00     0.148 A 
ATOM     43  C   UNL A   1      39.663  26.121  28.038  1.00  0.00     0.002 A 
ATOM     44  C   UNL A   1      41.404  27.475  27.030  1.00  0.00     0.091 A 
ATOM     45  F   UNL A   1      42.288  29.326  28.243  1.00  0.00    -0.205 F 
ATOM     46  C   UNL A   1      40.535  26.372  26.981  1.00  0.00     0.022 A 
BRANCH  44  47
ATOM     47  S   UNL A   1      42.479  27.754  25.618  1.00  0.00     0.127 S 
ATOM     48  O   UNL A   1      42.239  26.553  24.820  1.00  0.00    -0.237 OA
ATOM     49  O   UNL A   1      41.934  28.986  25.047  1.00  0.00    -0.237 OA
ATOM     50  O   UNL A   1      43.820  27.893  26.172  1.00  0.00    -0.744 OA
ENDBRANCH  44  47
ENDBRANCH  26  40
BRANCH  27  51
ATOM     51  C   UNL A   1      40.258  34.124  37.332  1.00  0.00     0.023 A 
ATOM     52  C   UNL A   1      40.755  35.438  37.266  1.00  0.00     0.012 A 
ATOM     53  C   UNL A   1      39.569  33.713  38.495  1.00  0.00     0.148 A 
ATOM     54  C   UNL A   1      40.566  36.324  38.330  1.00  0.00     0.002 A 
ATOM     55  C   UNL A   1      39.327  34.618  39.522  1.00  0.00     0.091 A 
ATOM     56  F   UNL A   1      39.125  32.449  38.557  1.00  0.00    -0.205 F 
ATOM     57  C   UNL A   1      39.837  35.922  39.447  1.00  0.00     0.022 A 
BRANCH  55  58
ATOM     58  S   UNL A   1      38.254  34.222  40.908  1.00  0.00     0.127 S 
ATOM     59  O   UNL A   1      39.142  33.437  41.762  1.00  0.00    -0.237 OA
ATOM     60  O   UNL A   1      37.916  35.549  41.426  1.00  0.00    -0.237 OA
ATOM     61  O   UNL A   1      37.125  33.505  40.331  1.00  0.00    -0.744 OA
ENDBRANCH  55  58
ENDBRANCH  27  51
BRANCH  39  62
ATOM     62  C   UNL A   1      44.214  28.659  35.393  1.00  0.00     0.023 A 
ATOM     63  C   UNL A   1      45.541  29.068  35.171  1.00  0.00     0.012 A 
ATOM     64  C   UNL A   1      43.933  27.666  36.350  1.00  0.00     0.148 A 
ATOM     65  C   UNL A   1      46.582  28.493  35.894  1.00  0.00     0.002 A 
ATOM     66  C   UNL A   1      44.971  27.127  37.095  1.00  0.00     0.091 A 
ATOM     67  F   UNL A   1      42.658  27.285  36.522  1.00  0.00    -0.205 F 
ATOM     68  C   UNL A   1      46.295  27.535  36.866  1.00  0.00     0.022 A 
BRANCH  66  69
ATOM     69  S   UNL A   1      44.680  25.966  38.432  1.00  0.00     0.127 S 
ATOM     70  O   UNL A   1      44.105  24.828  37.718  1.00  0.00    -0.237 OA
ATOM     71  O   UNL A   1      46.030  25.743  38.951  1.00  0.00    -0.237 OA
ATOM     72  O   UNL A   1      43.783  26.641  39.361  1.00  0.00    -0.744 OA
ENDBRANCH  66  69
ENDBRANCH  39  62
ENDBRANCH  13  14
ENDBRANCH   6   8
ENDBRANCH   5   6
ENDBRANCH   4   5
ENDBRANCH   3   4
ENDBRANCH   2   3
ENDBRANCH   1   2
BRANCH   1  73
ATOM     73  C   UNL A   1      32.767  29.165  26.372  1.00  0.00     0.261 C 
BRANCH  73  74
ATOM     74  O   UNL A   1      32.629  28.084  25.427  1.00  0.00    -0.463 OA
BRANCH  74  75
ATOM     75  C   UNL A   1      33.441  27.015  25.611  1.00  0.00     0.309 C 
ATOM     76  O   UNL A   1      34.402  26.963  26.369  1.00  0.00    -0.252 OA
BRANCH  75  77
ATOM     77  C   UNL A   1      33.055  25.857  24.716  1.00  0.00     0.111 C 
ATOM     78  C   UNL A   1      33.561  26.166  23.302  1.00  0.00     0.016 C 
ATOM     79  C   UNL A   1      31.564  25.486  24.737  1.00  0.00     0.093 C 
ATOM     80  C   UNL A   1      33.262  25.006  22.361  1.00  0.00     0.001 C 
ATOM     81  C   UNL A   1      31.246  24.374  23.727  1.00  0.00     0.014 C 
ATOM     82  C   UNL A   1      31.770  24.705  22.334  1.00  0.00     0.001 C 
BRANCH  79  83
ATOM     83  C   UNL A   1      30.824  25.144  26.038  1.00  0.00     0.228 C 
ATOM     84  O   UNL A   1      29.977  25.951  26.451  1.00  0.00    -0.274 OA
ATOM     85  N   UNL A   1      30.868  23.963  26.715  1.00  0.00    -0.326 N 
ATOM     86  H   UNL A   1      30.175  23.890  27.412  1.00  0.00     0.169 HD
BRANCH  85  87
ATOM     87  C   UNL A   1      31.684  22.836  26.630  1.00  0.00     0.041 A 
ATOM     88  C   UNL A   1      31.378  21.890  25.658  1.00  0.00     0.028 A 
ATOM     89  C   UNL A   1      32.737  22.574  27.488  1.00  0.00     0.028 A 
ATOM     90  C   UNL A   1      32.286  20.867  25.372  1.00  0.00     0.028 A 
ATOM     91  C   UNL A   1      33.671  21.584  27.176  1.00  0.00     0.028 A 
ATOM     92  C   UNL A   1      33.508  20.800  26.034  1.00  0.00     0.041 A 
BRANCH  92  93
ATOM     93  N   UNL A   1      34.613  20.035  25.629  1.00  0.00    -0.319 N 
ATOM     94  C   UNL A   1      35.842  20.374  25.096  1.00  0.00     0.291 C 
ATOM     95  H   UNL A   1      34.488  19.066  25.747  1.00  0.00     0.170 HD
ATOM     96  O   UNL A   1      36.632  19.450  24.877  1.00  0.00    -0.265 OA
BRANCH  94  97
ATOM     97  C   UNL A   1      36.187  21.753  24.853  1.00  0.00     0.191 A 
ATOM     98  C   UNL A   1      35.926  22.620  23.805  1.00  0.00     0.056 A 
ATOM     99  O   UNL A   1      36.936  22.398  25.798  1.00  0.00    -0.459 OA
ATOM    100  C   UNL A   1      36.599  23.831  24.104  1.00  0.00     0.043 A 
ATOM    101  C   UNL A   1      37.190  23.645  25.333  1.00  0.00     0.196 A 
ENDBRANCH  94  97
ENDBRANCH  92  93
ENDBRANCH  85  87
ENDBRANCH  79  83
ENDBRANCH  75  77
ENDBRANCH  74  75
ENDBRANCH  73  74
ENDBRANCH   1  73
TORSDOF 21
ENDMDL
MODEL 2
REMARK VINA RESULT:     -10.9      5.568      8.845
REMARK SMILES O=C(OCCOCCOC(=O)[C@@H]1CCCC[C@H]1C(=O)Nc1ccc(NC(=O)c2ccco2)cc1)c1ccc(-c2c3nc(c(-c4cccc(S(=O)(=O)[O-])c4F)c4ccc([nH]4)c(-c4cccc(S(=O)(=O)[O-])c4F)c4nc(c(-c5cccc(S(=O)(=O)[O-])c5F)c5ccc2[nH]5)C=C4)C=C3)cc1
REMARK SMILES IDX 7 1 6 2 5 3 4 4 3 5 2 6 1 7 35 8 36 9 97 10 37 11 96 12
REMARK SMILES IDX 38 13 39 14 40 15 90 16 41 17 95 18 89 19 91 20 42 21 94 22
REMARK SMILES IDX 88 23 87 24 43 26 75 27 55 28 74 29 56 30 59 31 73 32 92 33
REMARK SMILES IDX 57 34 58 35 72 37 93 38 60 39 44 40 45 41 53 42 46 43 48 44
REMARK SMILES IDX 54 45 47 46 49 47 50 48 51 49 52 50 76 51 77 52 85 53 78 54
REMARK SMILES IDX 80 55 86 56 79 57 81 58 82 59 83 60 84 61 61 62 62 63 70 64
REMARK SMILES IDX 63 65 65 66 71 67 64 68 66 69 67 70 68 71 69 72 8 73 9 74
REMARK SMILES IDX 10 75 11 76 12 77 13 78 17 79 14 80 16 81 15 82 18 83 19 84
REMARK SMILES IDX 20 85 21 87 22 88 34 89 23 90 33 91 24 92 25 93 26 94 27 96
REMARK SMILES IDX 28 97 29 98 32 99 30 100 31 101
REMARK H PARENT 91 25 59 36 20 86 25 95
REMARK Flexibility Score: inf
ROOT
ATOM      1  C   UNL A   1      36.588  23.670  25.899  1.00  0.00     0.202 C 
ENDROOT
BRANCH   1   2
ATOM      2  O   UNL A   1      36.996  22.695  24.935  1.00  0.00    -0.374 OA
BRANCH   2   3
ATOM      3  C   UNL A   1      36.985  21.344  25.389  1.00  0.00     0.202 C 
BRANCH   3   4
ATOM      4  C   UNL A   1      38.208  20.476  25.042  1.00  0.00     0.261 C 
BRANCH   4   5
ATOM      5  O   UNL A   1      38.972  20.122  26.206  1.00  0.00    -0.460 OA
BRANCH   5   6
ATOM      6  C   UNL A   1      40.245  20.479  26.505  1.00  0.00     0.338 C 
ATOM      7  O   UNL A   1      41.132  19.631  26.434  1.00  0.00    -0.246 OA
BRANCH   6   8
ATOM      8  C   UNL A   1      40.619  21.869  26.898  1.00  0.00     0.060 A 
ATOM      9  C   UNL A   1      40.173  23.017  26.245  1.00  0.00     0.016 A 
ATOM     10  C   UNL A   1      41.433  22.033  28.030  1.00  0.00     0.016 A 
ATOM     11  C   UNL A   1      40.561  24.279  26.625  1.00  0.00     0.010 A 
ATOM     12  C   UNL A   1      41.807  23.312  28.453  1.00  0.00     0.010 A 
ATOM     13  C   UNL A   1      41.379  24.428  27.730  1.00  0.00    -0.014 A 
BRANCH  13  14
ATOM     14  C   UNL A   1      41.844  25.788  27.995  1.00  0.00     0.031 A 
ATOM     15  C   UNL A   1      43.183  26.177  27.471  1.00  0.00     0.074 A 
ATOM     16  C   UNL A   1      40.982  26.671  28.523  1.00  0.00     0.049 A 
ATOM     17  N   UNL A   1      43.823  27.300  27.618  1.00  0.00    -0.248 NA
ATOM     18  C   UNL A   1      43.889  25.174  26.653  1.00  0.00     0.031 C 
ATOM     19  C   UNL A   1      39.595  26.368  28.894  1.00  0.00     0.029 A 
ATOM     20  N   UNL A   1      41.127  27.996  28.814  1.00  0.00    -0.354 N 
ATOM     21  C   UNL A   1      45.039  27.112  26.980  1.00  0.00     0.074 A 
ATOM     22  C   UNL A   1      45.031  25.793  26.395  1.00  0.00     0.031 C 
ATOM     23  C   UNL A   1      39.020  27.480  29.375  1.00  0.00     0.029 A 
ATOM     24  C   UNL A   1      40.020  28.540  29.417  1.00  0.00     0.049 A 
ATOM     25  H   UNL A   1      41.942  28.510  28.613  1.00  0.00     0.167 HD
ATOM     26  C   UNL A   1      46.077  27.975  26.922  1.00  0.00     0.034 A 
ATOM     27  C   UNL A   1      39.866  29.747  29.992  1.00  0.00     0.034 A 
ATOM     28  C   UNL A   1      46.025  29.280  27.512  1.00  0.00     0.049 A 
ATOM     29  C   UNL A   1      41.044  30.678  29.953  1.00  0.00     0.074 A 
ATOM     30  C   UNL A   1      47.020  30.233  27.599  1.00  0.00     0.029 A 
ATOM     31  N   UNL A   1      44.895  29.811  28.123  1.00  0.00    -0.354 N 
ATOM     32  N   UNL A   1      42.215  30.491  29.386  1.00  0.00    -0.248 NA
ATOM     33  C   UNL A   1      40.896  31.974  30.621  1.00  0.00     0.031 C 
ATOM     34  C   UNL A   1      46.490  31.338  28.276  1.00  0.00     0.029 A 
ATOM     35  C   UNL A   1      45.162  31.080  28.597  1.00  0.00     0.049 A 
ATOM     36  H   UNL A   1      44.029  29.350  28.206  1.00  0.00     0.167 HD
ATOM     37  C   UNL A   1      42.947  31.644  29.624  1.00  0.00     0.074 A 
ATOM     38  C   UNL A   1      42.073  32.536  30.366  1.00  0.00     0.031 C 
ATOM     39  C   UNL A   1      44.228  31.936  29.289  1.00  0.00     0.034 A 
BRANCH  26  40
ATOM     40  C   UNL A   1      47.329  27.478  26.263  1.00  0.00     0.023 A 
ATOM     41  C   UNL A   1      47.521  27.657  24.878  1.00  0.00     0.012 A 
ATOM     42  C   UNL A   1      48.286  26.762  27.007  1.00  0.00     0.148 A 
ATOM     43  C   UNL A   1      48.631  27.103  24.240  1.00  0.00     0.002 A 
ATOM     44  C   UNL A   1      49.404  26.237  26.369  1.00  0.00     0.091 A 
ATOM     45  F   UNL A   1      48.062  26.557  28.312  1.00  0.00    -0.205 F 
ATOM     46  C   UNL A   1      49.575  26.398  24.984  1.00  0.00     0.022 A 
BRANCH  44  47
ATOM     47  S   UNL A   1      50.677  25.344  27.268  1.00  0.00     0.127 S 
ATOM     48  O   UNL A   1      49.920  24.219  27.815  1.00  0.00    -0.237 OA
ATOM     49  O   UNL A   1      51.619  24.986  26.206  1.00  0.00    -0.237 OA
ATOM     50  O   UNL A   1      51.203  26.291  28.241  1.00  0.00    -0.744 OA
ENDBRANCH  44  47
ENDBRANCH  26  40
BRANCH  27  51
ATOM     51  C   UNL A   1      38.573  30.083  30.652  1.00  0.00     0.023 A 
ATOM     52  C   UNL A   1      38.384  29.799  32.017  1.00  0.00     0.012 A 
ATOM     53  C   UNL A   1      37.570  30.796  29.958  1.00  0.00     0.148 A 
ATOM     54  C   UNL A   1      37.226  30.220  32.677  1.00  0.00     0.002 A 
ATOM     55  C   UNL A   1      36.452  31.269  30.635  1.00  0.00     0.091 A 
ATOM     56  F   UNL A   1      37.749  31.035  28.651  1.00  0.00    -0.205 F 
ATOM     57  C   UNL A   1      36.271  30.970  31.993  1.00  0.00     0.022 A 
BRANCH  55  58
ATOM     58  S   UNL A   1      35.270  32.382  29.863  1.00  0.00     0.127 S 
ATOM     59  O   UNL A   1      34.338  32.638  30.958  1.00  0.00    -0.237 OA
ATOM     60  O   UNL A   1      36.114  33.520  29.494  1.00  0.00    -0.237 OA
ATOM     61  O   UNL A   1      34.734  31.649  28.725  1.00  0.00    -0.744 OA
ENDBRANCH  55  58
ENDBRANCH  27  51
BRANCH  39  62
ATOM     62  C   UNL A   1      44.755  33.274  29.711  1.00  0.00     0.023 A 
ATOM     63  C   UNL A   1      45.433  33.390  30.938  1.00  0.00     0.012 A 
ATOM     64  C   UNL A   1      44.700  34.369  28.830  1.00  0.00     0.148 A 
ATOM     65  C   UNL A   1      46.051  34.587  31.287  1.00  0.00     0.002 A 
ATOM     66  C   UNL A   1      45.353  35.546  29.166  1.00  0.00     0.091 A 
ATOM     67  F   UNL A   1      44.028  34.231  27.678  1.00  0.00    -0.205 F 
ATOM     68  C   UNL A   1      46.025  35.659  30.395  1.00  0.00     0.022 A 
BRANCH  66  69
ATOM     69  S   UNL A   1      45.454  36.936  28.036  1.00  0.00     0.127 S 
ATOM     70  O   UNL A   1      46.120  36.333  26.882  1.00  0.00    -0.237 OA
ATOM     71  O   UNL A   1      44.045  37.269  27.824  1.00  0.00    -0.237 OA
ATOM     72  O   UNL A   1      46.217  37.964  28.732  1.00  0.00    -0.744 OA
ENDBRANCH  66  69
ENDBRANCH  39  62
ENDBRANCH  13  14
ENDBRANCH   6   8
ENDBRANCH   5   6
ENDBRANCH   4   5
ENDBRANCH   3   4
ENDBRANCH   2   3
ENDBRANCH   1   2
BRANCH   1  73
ATOM     73  C   UNL A   1      35.073  23.853  25.877  1.00  0.00     0.261 C 
BRANCH  73  74
ATOM     74  O   UNL A   1      34.751  25.204  25.486  1.00  0.00    -0.463 OA
BRANCH  74  75
ATOM     75  C   UNL A   1      34.495  25.406  24.171  1.00  0.00     0.309 C 
ATOM     76  O   UNL A   1      34.989  24.785  23.239  1.00  0.00    -0.252 OA
BRANCH  75  77
ATOM     77  C   UNL A   1      33.532  26.554  23.957  1.00  0.00     0.111 C 
ATOM     78  C   UNL A   1      33.689  27.525  25.134  1.00  0.00     0.016 C 
ATOM     79  C   UNL A   1      32.069  26.144  23.727  1.00  0.00     0.093 C 
ATOM     80  C   UNL A   1      32.791  28.742  24.947  1.00  0.00     0.001 C 
ATOM     81  C   UNL A   1      31.150  27.369  23.623  1.00  0.00     0.014 C 
ATOM     82  C   UNL A   1      31.336  28.320  24.800  1.00  0.00     0.001 C 
BRANCH  79  83
ATOM     83  C   UNL A   1      31.658  25.171  22.612  1.00  0.00     0.228 C 
ATOM     84  O   UNL A   1      31.255  25.654  21.543  1.00  0.00    -0.274 OA
ATOM     85  N   UNL A   1      31.843  23.822  22.598  1.00  0.00    -0.326 N 
ATOM     86  H   UNL A   1      31.684  23.418  21.714  1.00  0.00     0.169 HD
BRANCH  85  87
ATOM     87  C   UNL A   1      32.212  22.892  23.569  1.00  0.00     0.041 A 
ATOM     88  C   UNL A   1      31.494  22.883  24.759  1.00  0.00     0.028 A 
ATOM     89  C   UNL A   1      33.282  22.023  23.445  1.00  0.00     0.028 A 
ATOM     90  C   UNL A   1      31.661  21.832  25.665  1.00  0.00     0.028 A 
ATOM     91  C   UNL A   1      33.420  20.945  24.322  1.00  0.00     0.028 A 
ATOM     92  C   UNL A   1      32.523  20.779  25.376  1.00  0.00     0.041 A 
BRANCH  92  93
ATOM     93  N   UNL A   1      32.543  19.539  26.034  1.00  0.00    -0.319 N 
ATOM     94  C   UNL A   1      32.685  18.241  25.581  1.00  0.00     0.291 C 
ATOM     95  H   UNL A   1      32.433  19.606  27.009  1.00  0.00     0.170 HD
ATOM     96  O   UNL A   1      32.700  17.348  26.434  1.00  0.00    -0.265 OA
BRANCH  94  97
ATOM     97  C   UNL A   1      32.851  17.963  24.175  1.00  0.00     0.191 A 
ATOM     98  C   UNL A   1      33.848  17.332  23.450  1.00  0.00     0.056 A 
ATOM     99  O   UNL A   1      31.872  18.393  23.322  1.00  0.00    -0.459 OA
ATOM    100  C   UNL A   1      33.482  17.436  22.084  1.00  0.00     0.043 A 
ATOM    101  C   UNL A   1      32.267  18.082  22.063  1.00  0.00     0.196 A 
ENDBRANCH  94  97
ENDBRANCH  92  93
ENDBRANCH  85  87
ENDBRANCH  79  83
ENDBRANCH  75  77
ENDBRANCH  74  75
ENDBRANCH  73  74
ENDBRANCH   1  73
TORSDOF 21
ENDMDL
MODEL 3
REMARK VINA RESULT:     -10.8      6.198     10.248
REMARK SMILES O=C(OCCOCCOC(=O)[C@@H]1CCCC[C@H]1C(=O)Nc1ccc(NC(=O)c2ccco2)cc1)c1ccc(-c2c3nc(c(-c4cccc(S(=O)(=O)[O-])c4F)c4ccc([nH]4)c(-c4cccc(S(=O)(=O)[O-])c4F)c4nc(c(-c5cccc(S(=O)(=O)[O-])c5F)c5ccc2[nH]5)C=C4)C=C3)cc1
REMARK SMILES IDX 7 1 6 2 5 3 4 4 3 5 2 6 1 7 35 8 36 9 97 10 37 11 96 12
REMARK SMILES IDX 38 13 39 14 40 15 90 16 41 17 95 18 89 19 91 20 42 21 94 22
REMARK SMILES IDX 88 23 87 24 43 26 75 27 55 28 74 29 56 30 59 31 73 32 92 33
REMARK SMILES IDX 57 34 58 35 72 37 93 38 60 39 44 40 45 41 53 42 46 43 48 44
REMARK SMILES IDX 54 45 47 46 49 47 50 48 51 49 52 50 76 51 77 52 85 53 78 54
REMARK SMILES IDX 80 55 86 56 79 57 81 58 82 59 83 60 84 61 61 62 62 63 70 64
REMARK SMILES IDX 63 65 65 66 71 67 64 68 66 69 67 70 68 71 69 72 8 73 9 74
REMARK SMILES IDX 10 75 11 76 12 77 13 78 17 79 14 80 16 81 15 82 18 83 19 84
REMARK SMILES IDX 20 85 21 87 22 88 34 89 23 90 33 91 24 92 25 93 26 94 27 96
REMARK SMILES IDX 28 97 29 98 32 99 30 100 31 101
REMARK H PARENT 91 25 59 36 20 86 25 95
REMARK Flexibility Score: inf
ROOT
ATOM      1  C   UNL A   1      38.313  23.030  25.983  1.00  0.00     0.202 C 
ENDROOT
BRANCH   1   2
ATOM      2  O   UNL A   1      39.288  22.003  26.192  1.00  0.00    -0.374 OA
BRANCH   2   3
ATOM      3  C   UNL A   1      39.121  20.831  25.398  1.00  0.00     0.202 C 
BRANCH   3   4
ATOM      4  C   UNL A   1      39.453  19.481  26.059  1.00  0.00     0.261 C 
BRANCH   4   5
ATOM      5  O   UNL A   1      40.731  18.973  25.646  1.00  0.00    -0.460 OA
BRANCH   5   6
ATOM      6  C   UNL A   1      41.949  19.257  26.170  1.00  0.00     0.338 C 
ATOM      7  O   UNL A   1      42.721  18.333  26.415  1.00  0.00    -0.246 OA
BRANCH   6   8
ATOM      8  C   UNL A   1      42.400  20.653  26.444  1.00  0.00     0.060 A 
ATOM      9  C   UNL A   1      42.502  21.209  27.718  1.00  0.00     0.016 A 
ATOM     10  C   UNL A   1      42.797  21.440  25.352  1.00  0.00     0.016 A 
ATOM     11  C   UNL A   1      42.900  22.508  27.926  1.00  0.00     0.010 A 
ATOM     12  C   UNL A   1      43.241  22.751  25.548  1.00  0.00     0.010 A 
ATOM     13  C   UNL A   1      43.270  23.281  26.841  1.00  0.00    -0.014 A 
BRANCH  13  14
ATOM     14  C   UNL A   1      43.563  24.683  27.132  1.00  0.00     0.031 A 
ATOM     15  C   UNL A   1      44.885  25.218  26.701  1.00  0.00     0.074 A 
ATOM     16  C   UNL A   1      42.575  25.463  27.597  1.00  0.00     0.049 A 
ATOM     17  N   UNL A   1      45.386  26.404  26.887  1.00  0.00    -0.248 NA
ATOM     18  C   UNL A   1      45.751  24.302  25.937  1.00  0.00     0.031 C 
ATOM     19  C   UNL A   1      41.208  25.009  27.873  1.00  0.00     0.029 A 
ATOM     20  N   UNL A   1      42.554  26.796  27.892  1.00  0.00    -0.354 N 
ATOM     21  C   UNL A   1      46.656  26.353  26.335  1.00  0.00     0.074 A 
ATOM     22  C   UNL A   1      46.833  25.043  25.755  1.00  0.00     0.031 C 
ATOM     23  C   UNL A   1      40.482  26.049  28.308  1.00  0.00     0.029 A 
ATOM     24  C   UNL A   1      41.355  27.212  28.416  1.00  0.00     0.049 A 
ATOM     25  H   UNL A   1      43.320  27.397  27.745  1.00  0.00     0.167 HD
ATOM     26  C   UNL A   1      47.595  27.325  26.345  1.00  0.00     0.034 A 
ATOM     27  C   UNL A   1      41.030  28.393  28.974  1.00  0.00     0.034 A 
ATOM     28  C   UNL A   1      47.359  28.614  26.925  1.00  0.00     0.049 A 
ATOM     29  C   UNL A   1      42.099  29.447  29.012  1.00  0.00     0.074 A 
ATOM     30  C   UNL A   1      48.235  29.670  27.077  1.00  0.00     0.029 A 
ATOM     31  N   UNL A   1      46.138  29.016  27.455  1.00  0.00    -0.354 N 
ATOM     32  N   UNL A   1      43.319  29.393  28.528  1.00  0.00    -0.248 NA
ATOM     33  C   UNL A   1      41.764  30.717  29.664  1.00  0.00     0.031 C 
ATOM     34  C   UNL A   1      47.542  30.707  27.712  1.00  0.00     0.029 A 
ATOM     35  C   UNL A   1      46.232  30.304  27.941  1.00  0.00     0.049 A 
ATOM     36  H   UNL A   1      45.325  28.462  27.480  1.00  0.00     0.167 HD
ATOM     37  C   UNL A   1      43.902  30.618  28.811  1.00  0.00     0.074 A 
ATOM     38  C   UNL A   1      42.886  31.406  29.488  1.00  0.00     0.031 C 
ATOM     39  C   UNL A   1      45.164  31.050  28.564  1.00  0.00     0.034 A 
BRANCH  26  40
ATOM     40  C   UNL A   1      48.936  26.971  25.776  1.00  0.00     0.023 A 
ATOM     41  C   UNL A   1      49.914  26.363  26.589  1.00  0.00     0.012 A 
ATOM     42  C   UNL A   1      49.255  27.313  24.448  1.00  0.00     0.148 A 
ATOM     43  C   UNL A   1      51.198  26.130  26.097  1.00  0.00     0.002 A 
ATOM     44  C   UNL A   1      50.529  27.052  23.956  1.00  0.00     0.091 A 
ATOM     45  F   UNL A   1      48.330  27.938  23.706  1.00  0.00    -0.205 F 
ATOM     46  C   UNL A   1      51.505  26.469  24.780  1.00  0.00     0.022 A 
BRANCH  44  47
ATOM     47  S   UNL A   1      50.987  27.434  22.262  1.00  0.00     0.127 S 
ATOM     48  O   UNL A   1      50.918  28.894  22.257  1.00  0.00    -0.237 OA
ATOM     49  O   UNL A   1      52.342  26.888  22.172  1.00  0.00    -0.237 OA
ATOM     50  O   UNL A   1      50.009  26.747  21.430  1.00  0.00    -0.744 OA
ENDBRANCH  44  47
ENDBRANCH  26  40
BRANCH  27  51
ATOM     51  C   UNL A   1      39.665  28.582  29.542  1.00  0.00     0.023 A 
ATOM     52  C   UNL A   1      39.366  28.103  30.830  1.00  0.00     0.012 A 
ATOM     53  C   UNL A   1      38.696  29.345  28.855  1.00  0.00     0.148 A 
ATOM     54  C   UNL A   1      38.132  28.382  31.423  1.00  0.00     0.002 A 
ATOM     55  C   UNL A   1      37.496  29.675  29.476  1.00  0.00     0.091 A 
ATOM     56  F   UNL A   1      38.982  29.772  27.617  1.00  0.00    -0.205 F 
ATOM     57  C   UNL A   1      37.206  29.183  30.757  1.00  0.00     0.022 A 
BRANCH  55  58
ATOM     58  S   UNL A   1      36.334  30.838  28.749  1.00  0.00     0.127 S 
ATOM     59  O   UNL A   1      35.393  31.048  29.846  1.00  0.00    -0.237 OA
ATOM     60  O   UNL A   1      37.194  31.985  28.448  1.00  0.00    -0.237 OA
ATOM     61  O   UNL A   1      35.803  30.169  27.570  1.00  0.00    -0.744 OA
ENDBRANCH  55  58
ENDBRANCH  27  51
BRANCH  39  62
ATOM     62  C   UNL A   1      45.510  32.436  29.017  1.00  0.00     0.023 A 
ATOM     63  C   UNL A   1      46.161  32.614  30.251  1.00  0.00     0.012 A 
ATOM     64  C   UNL A   1      45.318  33.533  28.157  1.00  0.00     0.148 A 
ATOM     65  C   UNL A   1      46.617  33.874  30.628  1.00  0.00     0.002 A 
ATOM     66  C   UNL A   1      45.811  34.777  28.521  1.00  0.00     0.091 A 
ATOM     67  F   UNL A   1      44.676  33.332  26.997  1.00  0.00    -0.205 F 
ATOM     68  C   UNL A   1      46.457  34.951  29.757  1.00  0.00     0.022 A 
BRANCH  66  69
ATOM     69  S   UNL A   1      45.736  36.191  27.419  1.00  0.00     0.127 S 
ATOM     70  O   UNL A   1      44.338  36.165  26.996  1.00  0.00    -0.237 OA
ATOM     71  O   UNL A   1      46.086  37.299  28.309  1.00  0.00    -0.237 OA
ATOM     72  O   UNL A   1      46.713  35.932  26.369  1.00  0.00    -0.744 OA
ENDBRANCH  66  69
ENDBRANCH  39  62
ENDBRANCH  13  14
ENDBRANCH   6   8
ENDBRANCH   5   6
ENDBRANCH   4   5
ENDBRANCH   3   4
ENDBRANCH   2   3
ENDBRANCH   1   2
BRANCH   1  73
ATOM     73  C   UNL A   1      37.495  22.753  24.724  1.00  0.00     0.261 C 
BRANCH  73  74
ATOM     74  O   UNL A   1      36.412  23.699  24.629  1.00  0.00    -0.463 OA
BRANCH  74  75
ATOM     75  C   UNL A   1      35.276  23.258  24.036  1.00  0.00     0.309 C 
ATOM     76  O   UNL A   1      35.133  23.021  22.843  1.00  0.00    -0.252 OA
BRANCH  75  77
ATOM     77  C   UNL A   1      34.140  23.126  25.027  1.00  0.00     0.111 C 
ATOM     78  C   UNL A   1      34.740  23.175  26.438  1.00  0.00     0.016 C 
ATOM     79  C   UNL A   1      33.231  21.905  24.819  1.00  0.00     0.093 C 
ATOM     80  C   UNL A   1      33.639  23.112  27.489  1.00  0.00     0.001 C 
ATOM     81  C   UNL A   1      32.174  21.794  25.926  1.00  0.00     0.014 C 
ATOM     82  C   UNL A   1      32.798  21.855  27.315  1.00  0.00     0.001 C 
BRANCH  79  83
ATOM     83  C   UNL A   1      32.523  21.631  23.484  1.00  0.00     0.228 C 
ATOM     84  O   UNL A   1      32.457  20.455  23.095  1.00  0.00    -0.274 OA
ATOM     85  N   UNL A   1      31.801  22.519  22.746  1.00  0.00    -0.326 N 
ATOM     86  H   UNL A   1      31.275  22.093  22.031  1.00  0.00     0.169 HD
BRANCH  85  87
ATOM     87  C   UNL A   1      31.648  23.904  22.790  1.00  0.00     0.041 A 
ATOM     88  C   UNL A   1      32.515  24.674  22.024  1.00  0.00     0.028 A 
ATOM     89  C   UNL A   1      30.730  24.559  23.593  1.00  0.00     0.028 A 
ATOM     90  C   UNL A   1      32.264  26.038  21.845  1.00  0.00     0.028 A 
ATOM     91  C   UNL A   1      30.445  25.909  23.381  1.00  0.00     0.028 A 
ATOM     92  C   UNL A   1      31.138  26.629  22.408  1.00  0.00     0.041 A 
BRANCH  92  93
ATOM     93  N   UNL A   1      30.612  27.881  22.053  1.00  0.00    -0.319 N 
ATOM     94  C   UNL A   1      30.747  29.143  22.599  1.00  0.00     0.291 C 
ATOM     95  H   UNL A   1      30.031  27.855  21.260  1.00  0.00     0.170 HD
ATOM     96  O   UNL A   1      30.174  30.070  22.018  1.00  0.00    -0.265 OA
BRANCH  94  97
ATOM     97  C   UNL A   1      31.561  29.358  23.771  1.00  0.00     0.191 A 
ATOM     98  C   UNL A   1      32.908  29.167  24.032  1.00  0.00     0.056 A 
ATOM     99  O   UNL A   1      30.943  29.830  24.896  1.00  0.00    -0.459 OA
ATOM    100  C   UNL A   1      33.103  29.485  25.400  1.00  0.00     0.043 A 
ATOM    101  C   UNL A   1      31.878  29.891  25.875  1.00  0.00     0.196 A 
ENDBRANCH  94  97
ENDBRANCH  92  93
ENDBRANCH  85  87
ENDBRANCH  79  83
ENDBRANCH  75  77
ENDBRANCH  74  75
ENDBRANCH  73  74
ENDBRANCH   1  73
TORSDOF 21
ENDMDL
