MODEL 1
REMARK VINA RESULT:     -12.2      0.000      0.000
REMARK SMILES CC1=C([C@H](NC(=O)[C@@H]2[C@H](C)c3cc(F)ccc3N2C)C(=O)OCCOCCOC(=O)c2ccc(-c3c4nc(c(-c5cccc(S(=O)(=O)[O-])c5F)c5ccc([nH]5)c(-c5cccc(S(=O)(=O)[O-])c5F)c5nc(c(-c6cccc(S(=O)(=O)[O-])c6F)c6ccc3[nH]6)C=C5)C=C4)cc2)[C@@H](C)N=N1
REMARK SMILES IDX 26 1 25 2 24 3 23 4 22 5 20 6 21 7 4 8 3 9 1 10 2 11 97 12
REMARK SMILES IDX 94 13 96 14 95 15 5 16 6 17 7 19 8 20 9 21 18 22 11 23 10 24
REMARK SMILES IDX 17 25 19 26 12 27 16 28 13 29 15 30 14 31 27 32 28 33 29 34
REMARK SMILES IDX 30 35 31 36 32 37 93 38 33 39 92 40 34 41 35 42 36 43 86 44
REMARK SMILES IDX 37 45 91 46 85 47 87 48 38 49 90 50 84 51 83 52 39 54 71 55
REMARK SMILES IDX 51 56 70 57 52 58 55 59 69 60 88 61 53 62 54 63 68 65 89 66
REMARK SMILES IDX 56 67 40 68 41 69 49 70 42 71 44 72 50 73 43 74 45 75 46 76
REMARK SMILES IDX 47 77 48 78 72 79 73 80 81 81 74 82 76 83 82 84 75 85 77 86
REMARK SMILES IDX 78 87 79 88 80 89 57 90 58 91 66 92 59 93 61 94 67 95 60 96
REMARK SMILES IDX 62 97 63 98 64 99 65 100
REMARK H PARENT 5 18 87 53 55 64
REMARK Flexibility Score: inf
ROOT
ATOM      1  C   UNL A   1      40.295  21.116  26.101  1.00  0.00     0.202 C 
ENDROOT
BRANCH   1   2
ATOM      2  O   UNL A   1      38.962  21.426  26.542  1.00  0.00    -0.374 OA
BRANCH   2   3
ATOM      3  C   UNL A   1      38.067  22.159  25.579  1.00  0.00     0.202 C 
BRANCH   3   4
ATOM      4  C   UNL A   1      36.739  23.893  25.770  1.00  0.00     0.261 C 
BRANCH   4   5
ATOM      5  O   UNL A   1      35.533  24.421  24.721  1.00  0.00    -0.461 OA
BRANCH   5   6
ATOM      6  C   UNL A   1      34.807  23.677  23.828  1.00  0.00     0.333 C 
ATOM      7  O   UNL A   1      35.323  23.155  22.843  1.00  0.00    -0.249 OA
BRANCH   6   8
ATOM      8  C   UNL A   1      33.199  23.269  24.331  1.00  0.00     0.223 C 
BRANCH   8   9
ATOM      9  C   UNL A   1      33.321  22.038  25.107  1.00  0.00     0.012 C 
ATOM     10  C   UNL A   1      32.780  20.323  23.342  1.00  0.00     0.069 C 
ATOM     11  C   UNL A   1      33.104  20.783  24.725  1.00  0.00     0.064 C 
ATOM     12  N   UNL A   1      33.150  19.936  25.801  1.00  0.00    -0.160 NA
ATOM     13  C   UNL A   1      33.652  22.011  26.545  1.00  0.00     0.156 C 
ATOM     14  N   UNL A   1      33.349  20.597  26.870  1.00  0.00    -0.181 NA
ATOM     15  C   UNL A   1      32.880  23.036  27.361  1.00  0.00     0.040 C 
ENDBRANCH   8   9
BRANCH   8  16
ATOM     16  N   UNL A   1      31.847  23.106  23.644  1.00  0.00    -0.337 N 
ATOM     17  C   UNL A   1      30.889  24.083  23.381  1.00  0.00     0.244 C 
ATOM     18  H   UNL A   1      31.623  22.194  23.348  1.00  0.00     0.164 HD
ATOM     19  O   UNL A   1      29.784  23.847  22.921  1.00  0.00    -0.273 OA
BRANCH  17  20
ATOM     20  C   UNL A   1      31.462  25.392  23.713  1.00  0.00     0.178 C 
ATOM     21  C   UNL A   1      30.575  26.044  24.840  1.00  0.00     0.050 C 
ATOM     22  N   UNL A   1      32.134  26.375  22.851  1.00  0.00    -0.362 N 
ATOM     23  C   UNL A   1      31.437  27.146  25.223  1.00  0.00    -0.016 A 
ATOM     24  C   UNL A   1      29.096  26.157  24.648  1.00  0.00     0.015 C 
ATOM     25  C   UNL A   1      32.622  27.214  23.890  1.00  0.00     0.041 A 
ATOM     26  C   UNL A   1      32.806  25.894  21.655  1.00  0.00     0.144 C 
ATOM     27  C   UNL A   1      31.641  28.047  26.753  1.00  0.00     0.045 A 
ATOM     28  C   UNL A   1      34.016  28.263  24.116  1.00  0.00     0.029 A 
ATOM     29  C   UNL A   1      33.051  29.119  26.944  1.00  0.00     0.123 A 
ATOM     30  C   UNL A   1      34.236  29.251  25.615  1.00  0.00     0.041 A 
ATOM     31  F   UNL A   1      33.228  29.824  28.066  1.00  0.00    -0.207 F 
ENDBRANCH  17  20
ENDBRANCH   8  16
ENDBRANCH   6   8
ENDBRANCH   5   6
ENDBRANCH   4   5
ENDBRANCH   3   4
ENDBRANCH   2   3
ENDBRANCH   1   2
BRANCH   1  32
ATOM     32  C   UNL A   1      41.626  22.012  26.064  1.00  0.00     0.261 C 
BRANCH  32  33
ATOM     33  O   UNL A   1      41.664  23.423  26.507  1.00  0.00    -0.460 OA
BRANCH  33  34
ATOM     34  C   UNL A   1      41.901  23.853  27.791  1.00  0.00     0.338 C 
ATOM     35  O   UNL A   1      41.925  23.100  28.751  1.00  0.00    -0.246 OA
BRANCH  34  36
ATOM     36  C   UNL A   1      42.457  25.319  27.851  1.00  0.00     0.060 A 
ATOM     37  C   UNL A   1      43.263  25.892  28.872  1.00  0.00     0.016 A 
ATOM     38  C   UNL A   1      41.681  26.232  27.120  1.00  0.00     0.016 A 
ATOM     39  C   UNL A   1      42.986  27.224  29.368  1.00  0.00     0.010 A 
ATOM     40  C   UNL A   1      41.403  27.540  27.619  1.00  0.00     0.010 A 
ATOM     41  C   UNL A   1      41.911  28.007  28.851  1.00  0.00    -0.014 A 
BRANCH  41  42
ATOM     42  C   UNL A   1      41.589  29.421  29.350  1.00  0.00     0.031 A 
ATOM     43  C   UNL A   1      42.790  30.193  28.963  1.00  0.00     0.074 A 
ATOM     44  C   UNL A   1      40.527  30.089  29.939  1.00  0.00     0.049 A 
ATOM     45  N   UNL A   1      43.732  30.569  29.770  1.00  0.00    -0.248 NA
ATOM     46  C   UNL A   1      43.177  30.179  27.540  1.00  0.00     0.031 C 
ATOM     47  C   UNL A   1      39.271  29.608  30.511  1.00  0.00     0.029 A 
ATOM     48  N   UNL A   1      40.288  31.460  30.095  1.00  0.00    -0.354 N 
ATOM     49  C   UNL A   1      44.675  31.119  28.919  1.00  0.00     0.074 A 
ATOM     50  C   UNL A   1      44.453  30.547  27.618  1.00  0.00     0.031 C 
ATOM     51  C   UNL A   1      38.303  30.549  30.572  1.00  0.00     0.029 A 
ATOM     52  C   UNL A   1      38.913  31.818  30.266  1.00  0.00     0.049 A 
ATOM     53  H   UNL A   1      41.012  32.127  30.086  1.00  0.00     0.167 HD
ATOM     54  C   UNL A   1      45.226  32.326  29.200  1.00  0.00     0.034 A 
ATOM     55  C   UNL A   1      38.293  33.037  30.390  1.00  0.00     0.034 A 
ATOM     56  C   UNL A   1      45.092  32.670  30.587  1.00  0.00     0.049 A 
ATOM     57  C   UNL A   1      39.334  33.998  30.758  1.00  0.00     0.074 A 
ATOM     58  C   UNL A   1      45.507  32.128  31.785  1.00  0.00     0.029 A 
ATOM     59  N   UNL A   1      44.043  33.500  30.873  1.00  0.00    -0.354 N 
ATOM     60  N   UNL A   1      39.887  34.021  31.932  1.00  0.00    -0.248 NA
ATOM     61  C   UNL A   1      40.079  34.570  29.660  1.00  0.00     0.031 C 
ATOM     62  C   UNL A   1      44.458  32.395  32.712  1.00  0.00     0.029 A 
ATOM     63  C   UNL A   1      43.491  33.169  32.077  1.00  0.00     0.049 A 
ATOM     64  H   UNL A   1      43.732  34.232  30.292  1.00  0.00     0.167 HD
ATOM     65  C   UNL A   1      41.233  34.113  31.630  1.00  0.00     0.074 A 
ATOM     66  C   UNL A   1      41.288  34.502  30.217  1.00  0.00     0.031 C 
ATOM     67  C   UNL A   1      42.153  33.545  32.458  1.00  0.00     0.034 A 
BRANCH  54  68
ATOM     68  C   UNL A   1      45.408  33.343  28.105  1.00  0.00     0.023 A 
ATOM     69  C   UNL A   1      44.275  33.804  27.426  1.00  0.00     0.012 A 
ATOM     70  C   UNL A   1      46.677  33.727  27.591  1.00  0.00     0.148 A 
ATOM     71  C   UNL A   1      44.398  34.672  26.335  1.00  0.00     0.002 A 
ATOM     72  C   UNL A   1      46.794  34.663  26.577  1.00  0.00     0.091 A 
ATOM     73  F   UNL A   1      47.778  33.085  27.995  1.00  0.00    -0.205 F 
ATOM     74  C   UNL A   1      45.651  35.133  25.935  1.00  0.00     0.022 A 
BRANCH  72  75
ATOM     75  S   UNL A   1      48.392  35.303  26.055  1.00  0.00     0.127 S 
ATOM     76  O   UNL A   1      49.119  35.343  27.319  1.00  0.00    -0.237 OA
ATOM     77  O   UNL A   1      48.832  34.271  25.116  1.00  0.00    -0.237 OA
ATOM     78  O   UNL A   1      48.111  36.591  25.434  1.00  0.00    -0.744 OA
ENDBRANCH  72  75
ENDBRANCH  54  68
BRANCH  55  79
ATOM     79  C   UNL A   1      36.997  33.564  29.826  1.00  0.00     0.023 A 
ATOM     80  C   UNL A   1      36.546  33.105  28.554  1.00  0.00     0.012 A 
ATOM     81  C   UNL A   1      36.054  34.215  30.638  1.00  0.00     0.148 A 
ATOM     82  C   UNL A   1      35.196  33.176  28.175  1.00  0.00     0.002 A 
ATOM     83  C   UNL A   1      34.710  34.279  30.259  1.00  0.00     0.091 A 
ATOM     84  F   UNL A   1      36.452  34.702  31.818  1.00  0.00    -0.205 F 
ATOM     85  C   UNL A   1      34.271  33.736  29.044  1.00  0.00     0.022 A 
BRANCH  83  86
ATOM     86  S   UNL A   1      33.456  34.978  31.341  1.00  0.00     0.127 S 
ATOM     87  O   UNL A   1      33.381  33.980  32.409  1.00  0.00    -0.237 OA
ATOM     88  O   UNL A   1      34.065  36.246  31.730  1.00  0.00    -0.237 OA
ATOM     89  O   UNL A   1      32.248  35.079  30.531  1.00  0.00    -0.744 OA
ENDBRANCH  83  86
ENDBRANCH  55  79
BRANCH  67  90
ATOM     90  C   UNL A   1      41.719  33.172  33.851  1.00  0.00     0.023 A 
ATOM     91  C   UNL A   1      41.688  34.068  34.942  1.00  0.00     0.012 A 
ATOM     92  C   UNL A   1      41.159  31.893  33.999  1.00  0.00     0.148 A 
ATOM     93  C   UNL A   1      41.082  33.691  36.149  1.00  0.00     0.002 A 
ATOM     94  C   UNL A   1      40.538  31.533  35.185  1.00  0.00     0.091 A 
ATOM     95  F   UNL A   1      41.205  31.067  32.945  1.00  0.00    -0.205 F 
ATOM     96  C   UNL A   1      40.493  32.430  36.264  1.00  0.00     0.022 A 
BRANCH  94  97
ATOM     97  S   UNL A   1      39.709  29.954  35.358  1.00  0.00     0.127 S 
ATOM     98  O   UNL A   1      38.877  30.176  36.538  1.00  0.00    -0.237 OA
ATOM     99  O   UNL A   1      38.974  29.851  34.097  1.00  0.00    -0.237 OA
ATOM    100  O   UNL A   1      40.761  28.957  35.521  1.00  0.00    -0.744 OA
ENDBRANCH  94  97
ENDBRANCH  67  90
ENDBRANCH  41  42
ENDBRANCH  34  36
ENDBRANCH  33  34
ENDBRANCH  32  33
ENDBRANCH   1  32
TORSDOF 20
ENDMDL
MODEL 2
REMARK VINA RESULT:     -12.1      2.179      3.736
REMARK SMILES CC1=C([C@H](NC(=O)[C@@H]2[C@H](C)c3cc(F)ccc3N2C)C(=O)OCCOCCOC(=O)c2ccc(-c3c4nc(c(-c5cccc(S(=O)(=O)[O-])c5F)c5ccc([nH]5)c(-c5cccc(S(=O)(=O)[O-])c5F)c5nc(c(-c6cccc(S(=O)(=O)[O-])c6F)c6ccc3[nH]6)C=C5)C=C4)cc2)[C@@H](C)N=N1
REMARK SMILES IDX 26 1 25 2 24 3 23 4 22 5 20 6 21 7 4 8 3 9 1 10 2 11 97 12
REMARK SMILES IDX 94 13 96 14 95 15 5 16 6 17 7 19 8 20 9 21 18 22 11 23 10 24
REMARK SMILES IDX 17 25 19 26 12 27 16 28 13 29 15 30 14 31 27 32 28 33 29 34
REMARK SMILES IDX 30 35 31 36 32 37 93 38 33 39 92 40 34 41 35 42 36 43 86 44
REMARK SMILES IDX 37 45 91 46 85 47 87 48 38 49 90 50 84 51 83 52 39 54 71 55
REMARK SMILES IDX 51 56 70 57 52 58 55 59 69 60 88 61 53 62 54 63 68 65 89 66
REMARK SMILES IDX 56 67 40 68 41 69 49 70 42 71 44 72 50 73 43 74 45 75 46 76
REMARK SMILES IDX 47 77 48 78 72 79 73 80 81 81 74 82 76 83 82 84 75 85 77 86
REMARK SMILES IDX 78 87 79 88 80 89 57 90 58 91 66 92 59 93 61 94 67 95 60 96
REMARK SMILES IDX 62 97 63 98 64 99 65 100
REMARK H PARENT 5 18 87 53 55 64
REMARK Flexibility Score: inf
ROOT
ATOM      1  C   UNL A   1      38.160  21.825  25.929  1.00  0.00     0.202 C 
ENDROOT
BRANCH   1   2
ATOM      2  O   UNL A   1      37.361  22.649  25.064  1.00  0.00    -0.374 OA
BRANCH   2   3
ATOM      3  C   UNL A   1      36.152  23.315  25.665  1.00  0.00     0.202 C 
BRANCH   3   4
ATOM      4  C   UNL A   1      34.757  24.848  24.949  1.00  0.00     0.261 C 
BRANCH   4   5
ATOM      5  O   UNL A   1      34.248  26.256  25.718  1.00  0.00    -0.461 OA
BRANCH   5   6
ATOM      6  C   UNL A   1      33.599  27.330  25.169  1.00  0.00     0.333 C 
ATOM      7  O   UNL A   1      34.108  28.019  24.288  1.00  0.00    -0.249 OA
BRANCH   6   8
ATOM      8  C   UNL A   1      31.919  27.470  25.571  1.00  0.00     0.223 C 
BRANCH   8   9
ATOM      9  C   UNL A   1      31.699  28.877  25.895  1.00  0.00     0.012 C 
ATOM     10  C   UNL A   1      30.619  29.680  23.765  1.00  0.00     0.069 C 
ATOM     11  C   UNL A   1      31.194  29.843  25.134  1.00  0.00     0.064 C 
ATOM     12  N   UNL A   1      31.326  31.061  25.747  1.00  0.00    -0.160 NA
ATOM     13  C   UNL A   1      32.100  29.489  27.177  1.00  0.00     0.156 C 
ATOM     14  N   UNL A   1      31.931  30.928  26.859  1.00  0.00    -0.181 NA
ATOM     15  C   UNL A   1      33.498  29.092  27.623  1.00  0.00     0.040 C 
ENDBRANCH   8   9
BRANCH   8  16
ATOM     16  N   UNL A   1      30.955  26.751  26.509  1.00  0.00    -0.337 N 
ATOM     17  C   UNL A   1      30.224  25.589  26.269  1.00  0.00     0.244 C 
ATOM     18  H   UNL A   1      30.835  27.158  27.397  1.00  0.00     0.164 HD
ATOM     19  O   UNL A   1      29.391  25.137  27.038  1.00  0.00    -0.273 OA
BRANCH  17  20
ATOM     20  C   UNL A   1      30.663  25.023  24.989  1.00  0.00     0.178 C 
ATOM     21  C   UNL A   1      30.122  25.946  23.833  1.00  0.00     0.050 C 
ATOM     22  N   UNL A   1      30.839  23.619  24.587  1.00  0.00    -0.362 N 
ATOM     23  C   UNL A   1      30.879  25.410  22.717  1.00  0.00    -0.016 A 
ATOM     24  C   UNL A   1      28.668  26.291  23.779  1.00  0.00     0.015 C 
ATOM     25  C   UNL A   1      31.513  23.871  23.362  1.00  0.00     0.041 A 
ATOM     26  C   UNL A   1      31.129  22.640  25.621  1.00  0.00     0.144 C 
ATOM     27  C   UNL A   1      31.448  26.131  21.184  1.00  0.00     0.045 A 
ATOM     28  C   UNL A   1      32.718  23.037  22.388  1.00  0.00     0.029 A 
ATOM     29  C   UNL A   1      32.653  25.252  20.209  1.00  0.00     0.123 A 
ATOM     30  C   UNL A   1      33.277  23.686  20.796  1.00  0.00     0.041 A 
ATOM     31  F   UNL A   1      33.088  25.750  19.048  1.00  0.00    -0.207 F 
ENDBRANCH  17  20
ENDBRANCH   8  16
ENDBRANCH   6   8
ENDBRANCH   5   6
ENDBRANCH   4   5
ENDBRANCH   3   4
ENDBRANCH   2   3
ENDBRANCH   1   2
BRANCH   1  32
ATOM     32  C   UNL A   1      39.749  21.762  26.148  1.00  0.00     0.261 C 
BRANCH  32  33
ATOM     33  O   UNL A   1      40.570  22.952  26.462  1.00  0.00    -0.460 OA
BRANCH  33  34
ATOM     34  C   UNL A   1      41.866  23.160  26.053  1.00  0.00     0.338 C 
ATOM     35  O   UNL A   1      42.509  22.330  25.429  1.00  0.00    -0.246 OA
BRANCH  34  36
ATOM     36  C   UNL A   1      42.309  24.661  26.168  1.00  0.00     0.060 A 
ATOM     37  C   UNL A   1      43.328  25.196  27.002  1.00  0.00     0.016 A 
ATOM     38  C   UNL A   1      41.293  25.562  25.814  1.00  0.00     0.016 A 
ATOM     39  C   UNL A   1      43.108  26.422  27.739  1.00  0.00     0.010 A 
ATOM     40  C   UNL A   1      41.075  26.765  26.551  1.00  0.00     0.010 A 
ATOM     41  C   UNL A   1      41.877  27.137  27.652  1.00  0.00    -0.014 A 
BRANCH  41  42
ATOM     42  C   UNL A   1      41.609  28.440  28.416  1.00  0.00     0.031 A 
ATOM     43  C   UNL A   1      42.836  29.229  28.172  1.00  0.00     0.074 A 
ATOM     44  C   UNL A   1      40.574  29.020  29.133  1.00  0.00     0.049 A 
ATOM     45  N   UNL A   1      43.793  29.409  29.027  1.00  0.00    -0.248 NA
ATOM     46  C   UNL A   1      43.218  29.474  26.769  1.00  0.00     0.031 C 
ATOM     47  C   UNL A   1      39.303  28.482  29.615  1.00  0.00     0.029 A 
ATOM     48  N   UNL A   1      40.386  30.342  29.552  1.00  0.00    -0.354 N 
ATOM     49  C   UNL A   1      44.754  30.078  28.288  1.00  0.00     0.074 A 
ATOM     50  C   UNL A   1      44.507  29.776  26.904  1.00  0.00     0.031 C 
ATOM     51  C   UNL A   1      38.370  29.428  29.866  1.00  0.00     0.029 A 
ATOM     52  C   UNL A   1      39.026  30.709  29.803  1.00  0.00     0.049 A 
ATOM     53  H   UNL A   1      41.134  30.973  29.664  1.00  0.00     0.167 HD
ATOM     54  C   UNL A   1      45.350  31.188  28.790  1.00  0.00     0.034 A 
ATOM     55  C   UNL A   1      38.451  31.903  30.164  1.00  0.00     0.034 A 
ATOM     56  C   UNL A   1      45.232  31.264  30.218  1.00  0.00     0.049 A 
ATOM     57  C   UNL A   1      39.528  32.738  30.700  1.00  0.00     0.074 A 
ATOM     58  C   UNL A   1      45.631  30.488  31.286  1.00  0.00     0.029 A 
ATOM     59  N   UNL A   1      44.216  32.060  30.669  1.00  0.00    -0.354 N 
ATOM     60  N   UNL A   1      40.086  32.515  31.850  1.00  0.00    -0.248 NA
ATOM     61  C   UNL A   1      40.290  33.484  29.724  1.00  0.00     0.031 C 
ATOM     62  C   UNL A   1      44.596  30.609  32.257  1.00  0.00     0.029 A 
ATOM     63  C   UNL A   1      43.656  31.524  31.792  1.00  0.00     0.049 A 
ATOM     64  H   UNL A   1      43.930  32.901  30.243  1.00  0.00     0.167 HD
ATOM     65  C   UNL A   1      41.433  32.616  31.558  1.00  0.00     0.074 A 
ATOM     66  C   UNL A   1      41.497  33.266  30.246  1.00  0.00     0.031 C 
ATOM     67  C   UNL A   1      42.333  31.867  32.252  1.00  0.00     0.034 A 
BRANCH  54  68
ATOM     68  C   UNL A   1      45.566  32.390  27.908  1.00  0.00     0.023 A 
ATOM     69  C   UNL A   1      44.446  33.102  27.464  1.00  0.00     0.012 A 
ATOM     70  C   UNL A   1      46.825  32.738  27.347  1.00  0.00     0.148 A 
ATOM     71  C   UNL A   1      44.585  34.164  26.563  1.00  0.00     0.002 A 
ATOM     72  C   UNL A   1      46.973  33.850  26.536  1.00  0.00     0.091 A 
ATOM     73  F   UNL A   1      47.866  31.912  27.492  1.00  0.00    -0.205 F 
ATOM     74  C   UNL A   1      45.848  34.564  26.130  1.00  0.00     0.022 A 
BRANCH  72  75
ATOM     75  S   UNL A   1      48.589  34.414  25.982  1.00  0.00     0.127 S 
ATOM     76  O   UNL A   1      48.274  34.951  24.663  1.00  0.00    -0.237 OA
ATOM     77  O   UNL A   1      48.920  35.413  26.998  1.00  0.00    -0.237 OA
ATOM     78  O   UNL A   1      49.443  33.233  26.007  1.00  0.00    -0.744 OA
ENDBRANCH  72  75
ENDBRANCH  54  68
BRANCH  55  79
ATOM     79  C   UNL A   1      37.174  32.574  29.725  1.00  0.00     0.023 A 
ATOM     80  C   UNL A   1      36.531  32.147  28.527  1.00  0.00     0.012 A 
ATOM     81  C   UNL A   1      36.413  33.355  30.611  1.00  0.00     0.148 A 
ATOM     82  C   UNL A   1      35.166  32.376  28.294  1.00  0.00     0.002 A 
ATOM     83  C   UNL A   1      35.053  33.577  30.378  1.00  0.00     0.091 A 
ATOM     84  F   UNL A   1      36.996  33.815  31.723  1.00  0.00    -0.205 F 
ATOM     85  C   UNL A   1      34.418  33.066  29.237  1.00  0.00     0.022 A 
BRANCH  83  86
ATOM     86  S   UNL A   1      34.021  34.450  31.563  1.00  0.00     0.127 S 
ATOM     87  O   UNL A   1      32.891  34.871  30.733  1.00  0.00    -0.237 OA
ATOM     88  O   UNL A   1      33.713  33.398  32.528  1.00  0.00    -0.237 OA
ATOM     89  O   UNL A   1      34.838  35.548  32.064  1.00  0.00    -0.744 OA
ENDBRANCH  83  86
ENDBRANCH  55  79
BRANCH  67  90
ATOM     90  C   UNL A   1      41.890  31.249  33.552  1.00  0.00     0.023 A 
ATOM     91  C   UNL A   1      41.416  29.925  33.683  1.00  0.00     0.012 A 
ATOM     92  C   UNL A   1      42.136  32.006  34.708  1.00  0.00     0.148 A 
ATOM     93  C   UNL A   1      41.217  29.369  34.955  1.00  0.00     0.002 A 
ATOM     94  C   UNL A   1      41.963  31.445  35.963  1.00  0.00     0.091 A 
ATOM     95  F   UNL A   1      42.585  33.259  34.548  1.00  0.00    -0.205 F 
ATOM     96  C   UNL A   1      41.506  30.123  36.094  1.00  0.00     0.022 A 
BRANCH  94  97
ATOM     97  S   UNL A   1      42.385  32.348  37.451  1.00  0.00     0.127 S 
ATOM     98  O   UNL A   1      41.311  33.337  37.522  1.00  0.00    -0.237 OA
ATOM     99  O   UNL A   1      42.328  31.304  38.474  1.00  0.00    -0.237 OA
ATOM    100  O   UNL A   1      43.717  32.898  37.231  1.00  0.00    -0.744 OA
ENDBRANCH  94  97
ENDBRANCH  67  90
ENDBRANCH  41  42
ENDBRANCH  34  36
ENDBRANCH  33  34
ENDBRANCH  32  33
ENDBRANCH   1  32
TORSDOF 20
ENDMDL
MODEL 3
REMARK VINA RESULT:     -12.0      2.745      4.117
REMARK SMILES CC1=C([C@H](NC(=O)[C@@H]2[C@H](C)c3cc(F)ccc3N2C)C(=O)OCCOCCOC(=O)c2ccc(-c3c4nc(c(-c5cccc(S(=O)(=O)[O-])c5F)c5ccc([nH]5)c(-c5cccc(S(=O)(=O)[O-])c5F)c5nc(c(-c6cccc(S(=O)(=O)[O-])c6F)c6ccc3[nH]6)C=C5)C=C4)cc2)[C@@H](C)N=N1
REMARK SMILES IDX 26 1 25 2 24 3 23 4 22 5 20 6 21 7 4 8 3 9 1 10 2 11 97 12
REMARK SMILES IDX 94 13 96 14 95 15 5 16 6 17 7 19 8 20 9 21 18 22 11 23 10 24
REMARK SMILES IDX 17 25 19 26 12 27 16 28 13 29 15 30 14 31 27 32 28 33 29 34
REMARK SMILES IDX 30 35 31 36 32 37 93 38 33 39 92 40 34 41 35 42 36 43 86 44
REMARK SMILES IDX 37 45 91 46 85 47 87 48 38 49 90 50 84 51 83 52 39 54 71 55
REMARK SMILES IDX 51 56 70 57 52 58 55 59 69 60 88 61 53 62 54 63 68 65 89 66
REMARK SMILES IDX 56 67 40 68 41 69 49 70 42 71 44 72 50 73 43 74 45 75 46 76
REMARK SMILES IDX 47 77 48 78 72 79 73 80 81 81 74 82 76 83 82 84 75 85 77 86
REMARK SMILES IDX 78 87 79 88 80 89 57 90 58 91 66 92 59 93 61 94 67 95 60 96
REMARK SMILES IDX 62 97 63 98 64 99 65 100
REMARK H PARENT 5 18 87 53 55 64
REMARK Flexibility Score: inf
ROOT
ATOM      1  C   UNL A   1      38.822  22.126  26.278  1.00  0.00     0.202 C 
ENDROOT
BRANCH   1   2
ATOM      2  O   UNL A   1      37.890  22.733  25.368  1.00  0.00    -0.374 OA
BRANCH   2   3
ATOM      3  C   UNL A   1      37.037  23.855  25.897  1.00  0.00     0.202 C 
BRANCH   3   4
ATOM      4  C   UNL A   1      35.201  24.822  25.188  1.00  0.00     0.261 C 
BRANCH   4   5
ATOM      5  O   UNL A   1      34.367  26.122  25.855  1.00  0.00    -0.461 OA
BRANCH   5   6
ATOM      6  C   UNL A   1      33.687  27.115  25.199  1.00  0.00     0.333 C 
ATOM      7  O   UNL A   1      34.180  27.731  24.257  1.00  0.00    -0.249 OA
BRANCH   6   8
ATOM      8  C   UNL A   1      32.000  27.238  25.576  1.00  0.00     0.223 C 
BRANCH   8   9
ATOM      9  C   UNL A   1      31.761  28.642  25.900  1.00  0.00     0.012 C 
ATOM     10  C   UNL A   1      30.695  29.436  23.759  1.00  0.00     0.069 C 
ATOM     11  C   UNL A   1      31.254  29.603  25.134  1.00  0.00     0.064 C 
ATOM     12  N   UNL A   1      31.365  30.821  25.750  1.00  0.00    -0.160 NA
ATOM     13  C   UNL A   1      32.141  29.257  27.187  1.00  0.00     0.156 C 
ATOM     14  N   UNL A   1      31.960  30.694  26.869  1.00  0.00    -0.181 NA
ATOM     15  C   UNL A   1      33.539  28.875  27.648  1.00  0.00     0.040 C 
ENDBRANCH   8   9
BRANCH   8  16
ATOM     16  N   UNL A   1      31.030  26.507  26.499  1.00  0.00    -0.337 N 
ATOM     17  C   UNL A   1      30.281  25.362  26.232  1.00  0.00     0.244 C 
ATOM     18  H   UNL A   1      30.919  26.892  27.398  1.00  0.00     0.164 HD
ATOM     19  O   UNL A   1      29.445  24.902  26.992  1.00  0.00    -0.273 OA
BRANCH  17  20
ATOM     20  C   UNL A   1      30.707  24.825  24.934  1.00  0.00     0.178 C 
ATOM     21  C   UNL A   1      30.172  25.786  23.807  1.00  0.00     0.050 C 
ATOM     22  N   UNL A   1      30.863  23.431  24.495  1.00  0.00    -0.362 N 
ATOM     23  C   UNL A   1      30.917  25.270  22.673  1.00  0.00    -0.016 A 
ATOM     24  C   UNL A   1      28.723  26.151  23.768  1.00  0.00     0.015 C 
ATOM     25  C   UNL A   1      31.534  23.706  23.273  1.00  0.00     0.041 A 
ATOM     26  C   UNL A   1      31.145  22.421  25.501  1.00  0.00     0.144 C 
ATOM     27  C   UNL A   1      31.488  26.024  21.157  1.00  0.00     0.045 A 
ATOM     28  C   UNL A   1      32.724  22.882  22.272  1.00  0.00     0.029 A 
ATOM     29  C   UNL A   1      32.677  25.156  20.153  1.00  0.00     0.123 A 
ATOM     30  C   UNL A   1      33.284  23.566  20.694  1.00  0.00     0.041 A 
ATOM     31  F   UNL A   1      33.114  25.678  19.003  1.00  0.00    -0.207 F 
ENDBRANCH  17  20
ENDBRANCH   8  16
ENDBRANCH   6   8
ENDBRANCH   5   6
ENDBRANCH   4   5
ENDBRANCH   3   4
ENDBRANCH   2   3
ENDBRANCH   1   2
BRANCH   1  32
ATOM     32  C   UNL A   1      40.400  21.862  26.149  1.00  0.00     0.261 C 
BRANCH  32  33
ATOM     33  O   UNL A   1      41.421  22.848  26.565  1.00  0.00    -0.460 OA
BRANCH  33  34
ATOM     34  C   UNL A   1      42.409  23.366  25.761  1.00  0.00     0.338 C 
ATOM     35  O   UNL A   1      42.892  22.753  24.822  1.00  0.00    -0.246 OA
BRANCH  34  36
ATOM     36  C   UNL A   1      42.608  24.910  25.954  1.00  0.00     0.060 A 
ATOM     37  C   UNL A   1      43.680  25.563  26.620  1.00  0.00     0.016 A 
ATOM     38  C   UNL A   1      41.402  25.628  25.919  1.00  0.00     0.016 A 
ATOM     39  C   UNL A   1      43.426  26.666  27.521  1.00  0.00     0.010 A 
ATOM     40  C   UNL A   1      41.153  26.709  26.819  1.00  0.00     0.010 A 
ATOM     41  C   UNL A   1      42.103  27.141  27.769  1.00  0.00    -0.014 A 
BRANCH  41  42
ATOM     42  C   UNL A   1      41.795  28.308  28.716  1.00  0.00     0.031 A 
ATOM     43  C   UNL A   1      42.743  29.354  28.275  1.00  0.00     0.074 A 
ATOM     44  C   UNL A   1      40.887  28.609  29.719  1.00  0.00     0.049 A 
ATOM     45  N   UNL A   1      43.834  29.684  28.891  1.00  0.00    -0.248 NA
ATOM     46  C   UNL A   1      42.697  29.759  26.858  1.00  0.00     0.031 C 
ATOM     47  C   UNL A   1      39.911  27.783  30.428  1.00  0.00     0.029 A 
ATOM     48  N   UNL A   1      40.563  29.832  30.315  1.00  0.00    -0.354 N 
ATOM     49  C   UNL A   1      44.426  30.587  28.023  1.00  0.00     0.074 A 
ATOM     50  C   UNL A   1      43.895  30.321  26.714  1.00  0.00     0.031 C 
ATOM     51  C   UNL A   1      38.910  28.490  30.998  1.00  0.00     0.029 A 
ATOM     52  C   UNL A   1      39.268  29.884  30.924  1.00  0.00     0.049 A 
ATOM     53  H   UNL A   1      41.178  30.601  30.316  1.00  0.00     0.167 HD
ATOM     54  C   UNL A   1      44.906  31.766  28.489  1.00  0.00     0.034 A 
ATOM     55  C   UNL A   1      38.587  30.903  31.543  1.00  0.00     0.034 A 
ATOM     56  C   UNL A   1      45.146  31.730  29.903  1.00  0.00     0.049 A 
ATOM     57  C   UNL A   1      39.584  31.916  31.895  1.00  0.00     0.074 A 
ATOM     58  C   UNL A   1      45.948  30.994  30.751  1.00  0.00     0.029 A 
ATOM     59  N   UNL A   1      44.147  32.261  30.669  1.00  0.00    -0.354 N 
ATOM     60  N   UNL A   1      40.451  31.750  32.847  1.00  0.00    -0.248 NA
ATOM     61  C   UNL A   1      39.912  32.865  30.855  1.00  0.00     0.031 C 
ATOM     62  C   UNL A   1      45.193  30.832  31.949  1.00  0.00     0.029 A 
ATOM     63  C   UNL A   1      44.008  31.551  31.827  1.00  0.00     0.049 A 
ATOM     64  H   UNL A   1      43.604  33.045  30.421  1.00  0.00     0.167 HD
ATOM     65  C   UNL A   1      41.632  32.153  32.255  1.00  0.00     0.074 A 
ATOM     66  C   UNL A   1      41.231  32.880  31.046  1.00  0.00     0.031 C 
ATOM     67  C   UNL A   1      42.807  31.575  32.625  1.00  0.00     0.034 A 
BRANCH  54  68
ATOM     68  C   UNL A   1      44.652  33.037  27.721  1.00  0.00     0.023 A 
ATOM     69  C   UNL A   1      45.488  33.343  26.641  1.00  0.00     0.012 A 
ATOM     70  C   UNL A   1      43.734  34.039  28.140  1.00  0.00     0.148 A 
ATOM     71  C   UNL A   1      45.359  34.558  25.959  1.00  0.00     0.002 A 
ATOM     72  C   UNL A   1      43.540  35.195  27.404  1.00  0.00     0.091 A 
ATOM     73  F   UNL A   1      43.137  33.934  29.331  1.00  0.00    -0.205 F 
ATOM     74  C   UNL A   1      44.362  35.466  26.312  1.00  0.00     0.022 A 
BRANCH  72  75
ATOM     75  S   UNL A   1      42.246  36.375  27.812  1.00  0.00     0.127 S 
ATOM     76  O   UNL A   1      41.074  35.510  27.887  1.00  0.00    -0.237 OA
ATOM     77  O   UNL A   1      42.715  36.900  29.094  1.00  0.00    -0.237 OA
ATOM     78  O   UNL A   1      42.254  37.353  26.730  1.00  0.00    -0.744 OA
ENDBRANCH  72  75
ENDBRANCH  54  68
BRANCH  55  79
ATOM     79  C   UNL A   1      37.136  31.311  31.499  1.00  0.00     0.023 A 
ATOM     80  C   UNL A   1      36.420  31.494  32.718  1.00  0.00     0.012 A 
ATOM     81  C   UNL A   1      36.560  31.849  30.336  1.00  0.00     0.148 A 
ATOM     82  C   UNL A   1      35.261  32.284  32.787  1.00  0.00     0.002 A 
ATOM     83  C   UNL A   1      35.409  32.639  30.410  1.00  0.00     0.091 A 
ATOM     84  F   UNL A   1      37.178  31.656  29.167  1.00  0.00    -0.205 F 
ATOM     85  C   UNL A   1      34.773  32.884  31.635  1.00  0.00     0.022 A 
BRANCH  83  86
ATOM     86  S   UNL A   1      34.730  33.458  28.961  1.00  0.00     0.127 S 
ATOM     87  O   UNL A   1      33.556  34.135  29.514  1.00  0.00    -0.237 OA
ATOM     88  O   UNL A   1      35.824  34.345  28.575  1.00  0.00    -0.237 OA
ATOM     89  O   UNL A   1      34.418  32.392  28.017  1.00  0.00    -0.744 OA
ENDBRANCH  83  86
ENDBRANCH  55  79
BRANCH  67  90
ATOM     90  C   UNL A   1      42.841  30.799  33.916  1.00  0.00     0.023 A 
ATOM     91  C   UNL A   1      43.037  31.380  35.188  1.00  0.00     0.012 A 
ATOM     92  C   UNL A   1      42.484  29.445  33.829  1.00  0.00     0.148 A 
ATOM     93  C   UNL A   1      42.853  30.616  36.349  1.00  0.00     0.002 A 
ATOM     94  C   UNL A   1      42.278  28.699  34.979  1.00  0.00     0.091 A 
ATOM     95  F   UNL A   1      42.306  28.925  32.606  1.00  0.00    -0.205 F 
ATOM     96  C   UNL A   1      42.457  29.280  36.244  1.00  0.00     0.022 A 
BRANCH  94  97
ATOM     97  S   UNL A   1      41.705  27.004  34.897  1.00  0.00     0.127 S 
ATOM     98  O   UNL A   1      41.384  26.724  36.295  1.00  0.00    -0.237 OA
ATOM     99  O   UNL A   1      40.546  27.112  34.010  1.00  0.00    -0.237 OA
ATOM    100  O   UNL A   1      42.808  26.225  34.348  1.00  0.00    -0.744 OA
ENDBRANCH  94  97
ENDBRANCH  67  90
ENDBRANCH  41  42
ENDBRANCH  34  36
ENDBRANCH  33  34
ENDBRANCH  32  33
ENDBRANCH   1  32
TORSDOF 20
ENDMDL
