MODEL 1
REMARK VINA RESULT:     -11.8      0.000      0.000
REMARK SMILES C[C@@H](C(=O)OCCOCCOC(=O)c1ccc(-c2c3nc(c(-c4cccc(S(=O)(=O)[O-])c4F)c4ccc([nH]4)c(-c4cccc(S(=O)(=O)[O-])c4F)c4nc(c(-c5cccc(S(=O)(=O)[O-])c5F)c5ccc2[nH]5)C=C4)C=C3)cc1)c1ccc(-c2ccn(C(F)F)c(=O)c2)cc1
REMARK SMILES IDX 8 1 7 2 6 3 5 4 3 5 4 6 2 7 1 8 77 9 78 10 92 11 79 12 91 13
REMARK SMILES IDX 80 14 81 15 82 16 90 17 83 18 88 19 84 20 89 21 85 22 86 23
REMARK SMILES IDX 87 24 9 25 10 26 11 27 12 28 13 29 14 30 15 31 76 32 16 33
REMARK SMILES IDX 75 34 17 35 18 36 19 37 69 38 20 39 74 40 68 41 70 42 21 43
REMARK SMILES IDX 73 44 67 45 66 46 22 48 54 49 34 50 53 51 35 52 38 53 52 54
REMARK SMILES IDX 71 55 36 56 37 57 51 59 72 60 39 61 23 62 24 63 32 64 25 65
REMARK SMILES IDX 27 66 33 67 26 68 28 69 29 70 30 71 31 72 55 73 56 74 64 75
REMARK SMILES IDX 57 76 59 77 65 78 58 79 60 80 61 81 62 82 63 83 40 84 41 85
REMARK SMILES IDX 49 86 42 87 44 88 50 89 43 90 45 91 46 92 47 93 48 94
REMARK H PARENT 70 47 38 58
REMARK Flexibility Score: inf
ROOT
ATOM      1  O   UNL A   1      34.809  19.264  24.642  1.00  0.00    -0.374 OA
ENDROOT
BRANCH   1   2
ATOM      2  C   UNL A   1      33.405  19.540  24.638  1.00  0.00     0.202 C 
BRANCH   2   3
ATOM      3  C   UNL A   1      33.017  21.021  24.591  1.00  0.00     0.261 C 
BRANCH   3   4
ATOM      4  O   UNL A   1      32.329  21.390  25.797  1.00  0.00    -0.463 OA
BRANCH   4   5
ATOM      5  C   UNL A   1      32.535  22.659  26.239  1.00  0.00     0.313 C 
ATOM      6  O   UNL A   1      32.221  23.061  27.355  1.00  0.00    -0.252 OA
BRANCH   5   7
ATOM      7  C   UNL A   1      33.313  23.512  25.230  1.00  0.00     0.126 C 
ATOM      8  C   UNL A   1      34.621  24.109  25.766  1.00  0.00     0.025 C 
BRANCH   7   9
ATOM      9  C   UNL A   1      32.454  24.593  24.568  1.00  0.00    -0.034 A 
ATOM     10  C   UNL A   1      31.054  24.480  24.600  1.00  0.00     0.005 A 
ATOM     11  C   UNL A   1      33.009  25.716  23.935  1.00  0.00     0.005 A 
ATOM     12  C   UNL A   1      30.238  25.482  24.063  1.00  0.00     0.009 A 
ATOM     13  C   UNL A   1      32.196  26.716  23.396  1.00  0.00     0.009 A 
ATOM     14  C   UNL A   1      30.804  26.619  23.478  1.00  0.00    -0.018 A 
BRANCH  14  15
ATOM     15  C   UNL A   1      29.976  27.751  23.023  1.00  0.00    -0.011 A 
ATOM     16  C   UNL A   1      30.520  28.930  22.377  1.00  0.00     0.027 A 
ATOM     17  C   UNL A   1      28.665  27.712  23.317  1.00  0.00     0.080 A 
ATOM     18  C   UNL A   1      29.734  29.981  22.114  1.00  0.00     0.095 A 
ATOM     19  C   UNL A   1      27.773  28.863  23.008  1.00  0.00     0.255 A 
ATOM     20  N   UNL A   1      28.388  29.962  22.430  1.00  0.00    -0.258 N 
ATOM     21  O   UNL A   1      26.583  28.779  23.293  1.00  0.00    -0.269 OA
BRANCH  20  22
ATOM     22  C   UNL A   1      27.561  31.116  22.190  1.00  0.00     0.451 C 
ATOM     23  F   UNL A   1      27.333  31.809  23.333  1.00  0.00    -0.185 F 
ATOM     24  F   UNL A   1      28.145  31.957  21.300  1.00  0.00    -0.185 F 
ENDBRANCH  20  22
ENDBRANCH  14  15
ENDBRANCH   7   9
ENDBRANCH   5   7
ENDBRANCH   4   5
ENDBRANCH   3   4
ENDBRANCH   2   3
ENDBRANCH   1   2
BRANCH   1  25
ATOM     25  C   UNL A   1      35.682  20.339  24.994  1.00  0.00     0.202 C 
BRANCH  25  26
ATOM     26  C   UNL A   1      37.186  20.049  24.983  1.00  0.00     0.261 C 
BRANCH  26  27
ATOM     27  O   UNL A   1      37.968  21.216  25.282  1.00  0.00    -0.460 OA
BRANCH  27  28
ATOM     28  C   UNL A   1      39.082  20.975  26.014  1.00  0.00     0.338 C 
ATOM     29  O   UNL A   1      39.706  19.923  26.079  1.00  0.00    -0.246 OA
BRANCH  28  30
ATOM     30  C   UNL A   1      39.583  22.226  26.609  1.00  0.00     0.060 A 
ATOM     31  C   UNL A   1      39.025  23.424  26.142  1.00  0.00     0.016 A 
ATOM     32  C   UNL A   1      40.616  22.242  27.547  1.00  0.00     0.016 A 
ATOM     33  C   UNL A   1      39.540  24.645  26.568  1.00  0.00     0.010 A 
ATOM     34  C   UNL A   1      41.137  23.470  27.968  1.00  0.00     0.010 A 
ATOM     35  C   UNL A   1      40.628  24.674  27.448  1.00  0.00    -0.014 A 
BRANCH  35  36
ATOM     36  C   UNL A   1      41.324  25.959  27.699  1.00  0.00     0.031 A 
ATOM     37  C   UNL A   1      40.620  27.025  28.493  1.00  0.00     0.074 A 
ATOM     38  C   UNL A   1      42.571  26.166  27.239  1.00  0.00     0.049 A 
ATOM     39  N   UNL A   1      41.040  28.214  28.837  1.00  0.00    -0.248 NA
ATOM     40  C   UNL A   1      39.262  26.708  28.965  1.00  0.00     0.031 C 
ATOM     41  C   UNL A   1      43.355  25.208  26.463  1.00  0.00     0.029 A 
ATOM     42  N   UNL A   1      43.389  27.263  27.348  1.00  0.00    -0.354 N 
ATOM     43  C   UNL A   1      39.992  28.798  29.537  1.00  0.00     0.074 A 
ATOM     44  C   UNL A   1      38.910  27.838  29.560  1.00  0.00     0.031 C 
ATOM     45  C   UNL A   1      44.535  25.767  26.144  1.00  0.00     0.029 A 
ATOM     46  C   UNL A   1      44.580  27.128  26.677  1.00  0.00     0.049 A 
ATOM     47  H   UNL A   1      43.146  28.069  27.859  1.00  0.00     0.167 HD
ATOM     48  C   UNL A   1      39.939  30.019  30.121  1.00  0.00     0.034 A 
ATOM     49  C   UNL A   1      45.585  28.009  26.499  1.00  0.00     0.034 A 
ATOM     50  C   UNL A   1      41.025  30.960  30.118  1.00  0.00     0.049 A 
ATOM     51  C   UNL A   1      45.494  29.367  27.146  1.00  0.00     0.074 A 
ATOM     52  C   UNL A   1      41.091  32.199  30.733  1.00  0.00     0.029 A 
ATOM     53  N   UNL A   1      42.230  30.775  29.460  1.00  0.00    -0.354 N 
ATOM     54  N   UNL A   1      44.550  29.856  27.914  1.00  0.00    -0.248 NA
ATOM     55  C   UNL A   1      46.622  30.285  26.929  1.00  0.00     0.031 C 
ATOM     56  C   UNL A   1      42.328  32.774  30.423  1.00  0.00     0.029 A 
ATOM     57  C   UNL A   1      43.041  31.883  29.637  1.00  0.00     0.049 A 
ATOM     58  H   UNL A   1      42.473  29.974  28.942  1.00  0.00     0.167 HD
ATOM     59  C   UNL A   1      44.984  31.118  28.301  1.00  0.00     0.074 A 
ATOM     60  C   UNL A   1      46.287  31.314  27.696  1.00  0.00     0.031 C 
ATOM     61  C   UNL A   1      44.358  32.040  29.075  1.00  0.00     0.034 A 
BRANCH  48  62
ATOM     62  C   UNL A   1      38.671  30.394  30.838  1.00  0.00     0.023 A 
ATOM     63  C   UNL A   1      38.508  30.052  32.196  1.00  0.00     0.012 A 
ATOM     64  C   UNL A   1      37.664  31.132  30.185  1.00  0.00     0.148 A 
ATOM     65  C   UNL A   1      37.351  30.412  32.885  1.00  0.00     0.002 A 
ATOM     66  C   UNL A   1      36.531  31.522  30.890  1.00  0.00     0.091 A 
ATOM     67  F   UNL A   1      37.825  31.425  28.888  1.00  0.00    -0.205 F 
ATOM     68  C   UNL A   1      36.368  31.155  32.236  1.00  0.00     0.022 A 
BRANCH  66  69
ATOM     69  S   UNL A   1      35.244  32.542  30.161  1.00  0.00     0.127 S 
ATOM     70  O   UNL A   1      34.310  32.681  31.278  1.00  0.00    -0.237 OA
ATOM     71  O   UNL A   1      35.973  33.763  29.821  1.00  0.00    -0.237 OA
ATOM     72  O   UNL A   1      34.743  31.795  29.016  1.00  0.00    -0.744 OA
ENDBRANCH  66  69
ENDBRANCH  48  62
BRANCH  49  73
ATOM     73  C   UNL A   1      46.786  27.619  25.709  1.00  0.00     0.023 A 
ATOM     74  C   UNL A   1      46.817  27.871  24.323  1.00  0.00     0.012 A 
ATOM     75  C   UNL A   1      47.902  27.019  26.323  1.00  0.00     0.148 A 
ATOM     76  C   UNL A   1      47.929  27.510  23.560  1.00  0.00     0.002 A 
ATOM     77  C   UNL A   1      49.026  26.711  25.567  1.00  0.00     0.091 A 
ATOM     78  F   UNL A   1      47.843  26.769  27.639  1.00  0.00    -0.205 F 
ATOM     79  C   UNL A   1      49.037  26.941  24.184  1.00  0.00     0.022 A 
BRANCH  77  80
ATOM     80  S   UNL A   1      50.543  26.096  26.309  1.00  0.00     0.127 S 
ATOM     81  O   UNL A   1      51.410  25.952  25.142  1.00  0.00    -0.237 OA
ATOM     82  O   UNL A   1      50.902  27.189  27.214  1.00  0.00    -0.237 OA
ATOM     83  O   UNL A   1      50.175  24.858  26.983  1.00  0.00    -0.744 OA
ENDBRANCH  77  80
ENDBRANCH  49  73
BRANCH  61  84
ATOM     84  C   UNL A   1      45.079  33.335  29.346  1.00  0.00     0.023 A 
ATOM     85  C   UNL A   1      45.892  33.457  30.490  1.00  0.00     0.012 A 
ATOM     86  C   UNL A   1      45.015  34.400  28.426  1.00  0.00     0.148 A 
ATOM     87  C   UNL A   1      46.608  34.630  30.729  1.00  0.00     0.002 A 
ATOM     88  C   UNL A   1      45.768  35.548  28.646  1.00  0.00     0.091 A 
ATOM     89  F   UNL A   1      44.221  34.272  27.353  1.00  0.00    -0.205 F 
ATOM     90  C   UNL A   1      46.556  35.669  29.802  1.00  0.00     0.022 A 
BRANCH  88  91
ATOM     91  S   UNL A   1      45.837  36.894  27.458  1.00  0.00     0.127 S 
ATOM     92  O   UNL A   1      46.197  36.188  26.229  1.00  0.00    -0.237 OA
ATOM     93  O   UNL A   1      44.467  37.406  27.487  1.00  0.00    -0.237 OA
ATOM     94  O   UNL A   1      46.839  37.822  27.963  1.00  0.00    -0.744 OA
ENDBRANCH  88  91
ENDBRANCH  61  84
ENDBRANCH  35  36
ENDBRANCH  28  30
ENDBRANCH  27  28
ENDBRANCH  26  27
ENDBRANCH  25  26
ENDBRANCH   1  25
TORSDOF 20
ENDMDL
MODEL 2
REMARK VINA RESULT:     -11.1      2.977      3.763
REMARK SMILES C[C@@H](C(=O)OCCOCCOC(=O)c1ccc(-c2c3nc(c(-c4cccc(S(=O)(=O)[O-])c4F)c4ccc([nH]4)c(-c4cccc(S(=O)(=O)[O-])c4F)c4nc(c(-c5cccc(S(=O)(=O)[O-])c5F)c5ccc2[nH]5)C=C4)C=C3)cc1)c1ccc(-c2ccn(C(F)F)c(=O)c2)cc1
REMARK SMILES IDX 8 1 7 2 6 3 5 4 3 5 4 6 2 7 1 8 77 9 78 10 92 11 79 12 91 13
REMARK SMILES IDX 80 14 81 15 82 16 90 17 83 18 88 19 84 20 89 21 85 22 86 23
REMARK SMILES IDX 87 24 9 25 10 26 11 27 12 28 13 29 14 30 15 31 76 32 16 33
REMARK SMILES IDX 75 34 17 35 18 36 19 37 69 38 20 39 74 40 68 41 70 42 21 43
REMARK SMILES IDX 73 44 67 45 66 46 22 48 54 49 34 50 53 51 35 52 38 53 52 54
REMARK SMILES IDX 71 55 36 56 37 57 51 59 72 60 39 61 23 62 24 63 32 64 25 65
REMARK SMILES IDX 27 66 33 67 26 68 28 69 29 70 30 71 31 72 55 73 56 74 64 75
REMARK SMILES IDX 57 76 59 77 65 78 58 79 60 80 61 81 62 82 63 83 40 84 41 85
REMARK SMILES IDX 49 86 42 87 44 88 50 89 43 90 45 91 46 92 47 93 48 94
REMARK H PARENT 70 47 38 58
REMARK Flexibility Score: inf
ROOT
ATOM      1  O   UNL A   1      35.160  20.005  24.839  1.00  0.00    -0.374 OA
ENDROOT
BRANCH   1   2
ATOM      2  C   UNL A   1      33.754  20.050  25.106  1.00  0.00     0.202 C 
BRANCH   2   3
ATOM      3  C   UNL A   1      33.295  21.143  26.075  1.00  0.00     0.261 C 
BRANCH   3   4
ATOM      4  O   UNL A   1      31.993  21.622  25.698  1.00  0.00    -0.463 OA
BRANCH   4   5
ATOM      5  C   UNL A   1      31.610  22.805  26.247  1.00  0.00     0.313 C 
ATOM      6  O   UNL A   1      31.566  23.025  27.453  1.00  0.00    -0.252 OA
BRANCH   5   7
ATOM      7  C   UNL A   1      31.349  23.884  25.189  1.00  0.00     0.126 C 
ATOM      8  C   UNL A   1      31.773  23.503  23.765  1.00  0.00     0.025 C 
BRANCH   7   9
ATOM      9  C   UNL A   1      31.913  25.254  25.576  1.00  0.00    -0.034 A 
ATOM     10  C   UNL A   1      31.061  26.221  26.133  1.00  0.00     0.005 A 
ATOM     11  C   UNL A   1      33.268  25.586  25.412  1.00  0.00     0.005 A 
ATOM     12  C   UNL A   1      31.557  27.460  26.558  1.00  0.00     0.009 A 
ATOM     13  C   UNL A   1      33.764  26.822  25.835  1.00  0.00     0.009 A 
ATOM     14  C   UNL A   1      32.917  27.759  26.434  1.00  0.00    -0.018 A 
BRANCH  14  15
ATOM     15  C   UNL A   1      33.493  28.996  26.990  1.00  0.00    -0.011 A 
ATOM     16  C   UNL A   1      32.746  30.232  27.132  1.00  0.00     0.027 A 
ATOM     17  C   UNL A   1      34.804  28.987  27.285  1.00  0.00     0.080 A 
ATOM     18  C   UNL A   1      33.364  31.356  27.514  1.00  0.00     0.095 A 
ATOM     19  C   UNL A   1      35.500  30.224  27.734  1.00  0.00     0.255 A 
ATOM     20  N   UNL A   1      34.717  31.365  27.801  1.00  0.00    -0.258 N 
ATOM     21  O   UNL A   1      36.697  30.164  27.995  1.00  0.00    -0.269 OA
BRANCH  20  22
ATOM     22  C   UNL A   1      35.383  32.589  28.161  1.00  0.00     0.451 C 
ATOM     23  F   UNL A   1      34.897  33.643  27.460  1.00  0.00    -0.185 F 
ATOM     24  F   UNL A   1      35.228  32.857  29.482  1.00  0.00    -0.185 F 
ENDBRANCH  20  22
ENDBRANCH  14  15
ENDBRANCH   7   9
ENDBRANCH   5   7
ENDBRANCH   4   5
ENDBRANCH   3   4
ENDBRANCH   2   3
ENDBRANCH   1   2
BRANCH   1  25
ATOM     25  C   UNL A   1      35.894  21.217  25.016  1.00  0.00     0.202 C 
BRANCH  25  26
ATOM     26  C   UNL A   1      37.399  21.170  24.735  1.00  0.00     0.261 C 
BRANCH  26  27
ATOM     27  O   UNL A   1      38.100  22.271  25.332  1.00  0.00    -0.460 OA
BRANCH  27  28
ATOM     28  C   UNL A   1      39.007  21.918  26.274  1.00  0.00     0.338 C 
ATOM     29  O   UNL A   1      39.366  20.783  26.560  1.00  0.00    -0.246 OA
BRANCH  28  30
ATOM     30  C   UNL A   1      39.673  23.116  26.816  1.00  0.00     0.060 A 
ATOM     31  C   UNL A   1      39.306  24.353  26.270  1.00  0.00     0.016 A 
ATOM     32  C   UNL A   1      40.676  23.035  27.783  1.00  0.00     0.016 A 
ATOM     33  C   UNL A   1      39.985  25.509  26.645  1.00  0.00     0.010 A 
ATOM     34  C   UNL A   1      41.362  24.196  28.154  1.00  0.00     0.010 A 
ATOM     35  C   UNL A   1      41.046  25.430  27.555  1.00  0.00    -0.014 A 
BRANCH  35  36
ATOM     36  C   UNL A   1      41.917  26.613  27.758  1.00  0.00     0.031 A 
ATOM     37  C   UNL A   1      41.397  27.769  28.566  1.00  0.00     0.074 A 
ATOM     38  C   UNL A   1      43.159  26.648  27.243  1.00  0.00     0.049 A 
ATOM     39  N   UNL A   1      41.985  28.895  28.875  1.00  0.00    -0.248 NA
ATOM     40  C   UNL A   1      40.030  27.640  29.100  1.00  0.00     0.031 C 
ATOM     41  C   UNL A   1      43.774  25.587  26.448  1.00  0.00     0.029 A 
ATOM     42  N   UNL A   1      44.120  27.626  27.302  1.00  0.00    -0.354 N 
ATOM     43  C   UNL A   1      41.056  29.619  29.610  1.00  0.00     0.074 A 
ATOM     44  C   UNL A   1      39.859  28.813  29.693  1.00  0.00     0.031 C 
ATOM     45  C   UNL A   1      45.002  25.981  26.071  1.00  0.00     0.029 A 
ATOM     46  C   UNL A   1      45.252  27.328  26.582  1.00  0.00     0.049 A 
ATOM     47  H   UNL A   1      44.008  28.462  27.811  1.00  0.00     0.167 HD
ATOM     48  C   UNL A   1      41.192  30.841  30.179  1.00  0.00     0.034 A 
ATOM     49  C   UNL A   1      46.356  28.066  26.350  1.00  0.00     0.034 A 
ATOM     50  C   UNL A   1      42.392  31.629  30.116  1.00  0.00     0.049 A 
ATOM     51  C   UNL A   1      46.474  29.429  26.981  1.00  0.00     0.074 A 
ATOM     52  C   UNL A   1      42.649  32.853  30.710  1.00  0.00     0.029 A 
ATOM     53  N   UNL A   1      43.532  31.280  29.410  1.00  0.00    -0.354 N 
ATOM     54  N   UNL A   1      45.638  30.046  27.781  1.00  0.00    -0.248 NA
ATOM     55  C   UNL A   1      47.704  30.186  26.703  1.00  0.00     0.031 C 
ATOM     56  C   UNL A   1      43.936  33.255  30.340  1.00  0.00     0.029 A 
ATOM     57  C   UNL A   1      44.490  32.271  29.537  1.00  0.00     0.049 A 
ATOM     58  H   UNL A   1      43.643  30.449  28.894  1.00  0.00     0.167 HD
ATOM     59  C   UNL A   1      46.253  31.243  28.131  1.00  0.00     0.074 A 
ATOM     60  C   UNL A   1      47.543  31.257  27.469  1.00  0.00     0.031 C 
ATOM     61  C   UNL A   1      45.790  32.246  28.918  1.00  0.00     0.034 A 
BRANCH  48  62
ATOM     62  C   UNL A   1      40.017  31.388  30.944  1.00  0.00     0.023 A 
ATOM     63  C   UNL A   1      38.997  32.078  30.258  1.00  0.00     0.012 A 
ATOM     64  C   UNL A   1      39.896  31.174  32.331  1.00  0.00     0.148 A 
ATOM     65  C   UNL A   1      37.888  32.572  30.944  1.00  0.00     0.002 A 
ATOM     66  C   UNL A   1      38.768  31.634  33.002  1.00  0.00     0.091 A 
ATOM     67  F   UNL A   1      40.888  30.540  32.969  1.00  0.00    -0.205 F 
ATOM     68  C   UNL A   1      37.769  32.342  32.312  1.00  0.00     0.022 A 
BRANCH  66  69
ATOM     69  S   UNL A   1      38.491  31.324  34.749  1.00  0.00     0.127 S 
ATOM     70  O   UNL A   1      39.582  32.081  35.360  1.00  0.00    -0.237 OA
ATOM     71  O   UNL A   1      37.161  31.896  34.957  1.00  0.00    -0.237 OA
ATOM     72  O   UNL A   1      38.562  29.879  34.915  1.00  0.00    -0.744 OA
ENDBRANCH  66  69
ENDBRANCH  48  62
BRANCH  49  73
ATOM     73  C   UNL A   1      47.458  27.512  25.515  1.00  0.00     0.023 A 
ATOM     74  C   UNL A   1      48.433  26.688  26.109  1.00  0.00     0.012 A 
ATOM     75  C   UNL A   1      47.533  27.780  24.134  1.00  0.00     0.148 A 
ATOM     76  C   UNL A   1      49.478  26.161  25.348  1.00  0.00     0.002 A 
ATOM     77  C   UNL A   1      48.545  27.208  23.372  1.00  0.00     0.091 A 
ATOM     78  F   UNL A   1      46.607  28.583  23.592  1.00  0.00    -0.205 F 
ATOM     79  C   UNL A   1      49.528  26.412  23.979  1.00  0.00     0.022 A 
BRANCH  77  80
ATOM     80  S   UNL A   1      48.611  27.373  21.584  1.00  0.00     0.127 S 
ATOM     81  O   UNL A   1      48.750  25.982  21.160  1.00  0.00    -0.237 OA
ATOM     82  O   UNL A   1      47.313  27.982  21.289  1.00  0.00    -0.237 OA
ATOM     83  O   UNL A   1      49.753  28.236  21.312  1.00  0.00    -0.744 OA
ENDBRANCH  77  80
ENDBRANCH  49  73
BRANCH  61  84
ATOM     84  C   UNL A   1      46.688  33.435  29.140  1.00  0.00     0.023 A 
ATOM     85  C   UNL A   1      47.605  33.430  30.209  1.00  0.00     0.012 A 
ATOM     86  C   UNL A   1      46.679  34.521  28.242  1.00  0.00     0.148 A 
ATOM     87  C   UNL A   1      48.480  34.499  30.398  1.00  0.00     0.002 A 
ATOM     88  C   UNL A   1      47.585  35.561  28.408  1.00  0.00     0.091 A 
ATOM     89  F   UNL A   1      45.786  34.516  27.241  1.00  0.00    -0.205 F 
ATOM     90  C   UNL A   1      48.479  35.558  29.491  1.00  0.00     0.022 A 
BRANCH  88  91
ATOM     91  S   UNL A   1      47.720  36.915  27.235  1.00  0.00     0.127 S 
ATOM     92  O   UNL A   1      47.965  36.201  25.983  1.00  0.00    -0.237 OA
ATOM     93  O   UNL A   1      46.401  37.543  27.329  1.00  0.00    -0.237 OA
ATOM     94  O   UNL A   1      48.819  37.746  27.707  1.00  0.00    -0.744 OA
ENDBRANCH  88  91
ENDBRANCH  61  84
ENDBRANCH  35  36
ENDBRANCH  28  30
ENDBRANCH  27  28
ENDBRANCH  26  27
ENDBRANCH  25  26
ENDBRANCH   1  25
TORSDOF 20
ENDMDL
MODEL 3
REMARK VINA RESULT:     -10.9      2.930      8.247
REMARK SMILES C[C@@H](C(=O)OCCOCCOC(=O)c1ccc(-c2c3nc(c(-c4cccc(S(=O)(=O)[O-])c4F)c4ccc([nH]4)c(-c4cccc(S(=O)(=O)[O-])c4F)c4nc(c(-c5cccc(S(=O)(=O)[O-])c5F)c5ccc2[nH]5)C=C4)C=C3)cc1)c1ccc(-c2ccn(C(F)F)c(=O)c2)cc1
REMARK SMILES IDX 8 1 7 2 6 3 5 4 3 5 4 6 2 7 1 8 77 9 78 10 92 11 79 12 91 13
REMARK SMILES IDX 80 14 81 15 82 16 90 17 83 18 88 19 84 20 89 21 85 22 86 23
REMARK SMILES IDX 87 24 9 25 10 26 11 27 12 28 13 29 14 30 15 31 76 32 16 33
REMARK SMILES IDX 75 34 17 35 18 36 19 37 69 38 20 39 74 40 68 41 70 42 21 43
REMARK SMILES IDX 73 44 67 45 66 46 22 48 54 49 34 50 53 51 35 52 38 53 52 54
REMARK SMILES IDX 71 55 36 56 37 57 51 59 72 60 39 61 23 62 24 63 32 64 25 65
REMARK SMILES IDX 27 66 33 67 26 68 28 69 29 70 30 71 31 72 55 73 56 74 64 75
REMARK SMILES IDX 57 76 59 77 65 78 58 79 60 80 61 81 62 82 63 83 40 84 41 85
REMARK SMILES IDX 49 86 42 87 44 88 50 89 43 90 45 91 46 92 47 93 48 94
REMARK H PARENT 70 47 38 58
REMARK Flexibility Score: inf
ROOT
ATOM      1  O   UNL A   1      35.242  20.596  25.292  1.00  0.00    -0.374 OA
ENDROOT
BRANCH   1   2
ATOM      2  C   UNL A   1      33.964  21.040  24.822  1.00  0.00     0.202 C 
BRANCH   2   3
ATOM      3  C   UNL A   1      33.274  22.107  25.676  1.00  0.00     0.261 C 
BRANCH   3   4
ATOM      4  O   UNL A   1      31.854  22.073  25.456  1.00  0.00    -0.463 OA
BRANCH   4   5
ATOM      5  C   UNL A   1      31.132  23.053  26.062  1.00  0.00     0.313 C 
ATOM      6  O   UNL A   1      30.840  23.058  27.253  1.00  0.00    -0.252 OA
BRANCH   5   7
ATOM      7  C   UNL A   1      30.819  24.219  25.117  1.00  0.00     0.126 C 
ATOM      8  C   UNL A   1      31.064  23.925  23.631  1.00  0.00     0.025 C 
BRANCH   7   9
ATOM      9  C   UNL A   1      31.498  25.527  25.532  1.00  0.00    -0.034 A 
ATOM     10  C   UNL A   1      30.755  26.509  26.206  1.00  0.00     0.005 A 
ATOM     11  C   UNL A   1      32.855  25.786  25.278  1.00  0.00     0.005 A 
ATOM     12  C   UNL A   1      31.361  27.688  26.657  1.00  0.00     0.009 A 
ATOM     13  C   UNL A   1      33.461  26.963  25.726  1.00  0.00     0.009 A 
ATOM     14  C   UNL A   1      32.724  27.912  26.441  1.00  0.00    -0.018 A 
BRANCH  14  15
ATOM     15  C   UNL A   1      33.419  29.078  27.016  1.00  0.00    -0.011 A 
ATOM     16  C   UNL A   1      32.781  30.362  27.233  1.00  0.00     0.027 A 
ATOM     17  C   UNL A   1      34.736  28.953  27.255  1.00  0.00     0.080 A 
ATOM     18  C   UNL A   1      33.502  31.418  27.627  1.00  0.00     0.095 A 
ATOM     19  C   UNL A   1      35.546  30.113  27.718  1.00  0.00     0.255 A 
ATOM     20  N   UNL A   1      34.861  31.309  27.858  1.00  0.00    -0.258 N 
ATOM     21  O   UNL A   1      36.744  29.948  27.927  1.00  0.00    -0.269 OA
BRANCH  20  22
ATOM     22  C   UNL A   1      35.637  32.461  28.232  1.00  0.00     0.451 C 
ATOM     23  F   UNL A   1      35.643  33.396  27.251  1.00  0.00    -0.185 F 
ATOM     24  F   UNL A   1      35.142  33.037  29.356  1.00  0.00    -0.185 F 
ENDBRANCH  20  22
ENDBRANCH  14  15
ENDBRANCH   7   9
ENDBRANCH   5   7
ENDBRANCH   4   5
ENDBRANCH   3   4
ENDBRANCH   2   3
ENDBRANCH   1   2
BRANCH   1  25
ATOM     25  C   UNL A   1      36.395  21.136  24.645  1.00  0.00     0.202 C 
BRANCH  25  26
ATOM     26  C   UNL A   1      37.761  20.779  25.241  1.00  0.00     0.261 C 
BRANCH  26  27
ATOM     27  O   UNL A   1      38.536  21.944  25.565  1.00  0.00    -0.460 OA
BRANCH  27  28
ATOM     28  C   UNL A   1      39.534  21.728  26.454  1.00  0.00     0.338 C 
ATOM     29  O   UNL A   1      40.088  20.662  26.692  1.00  0.00    -0.246 OA
BRANCH  28  30
ATOM     30  C   UNL A   1      40.021  23.008  26.997  1.00  0.00     0.060 A 
ATOM     31  C   UNL A   1      39.550  24.180  26.391  1.00  0.00     0.016 A 
ATOM     32  C   UNL A   1      40.962  23.069  28.025  1.00  0.00     0.016 A 
ATOM     33  C   UNL A   1      40.065  25.417  26.769  1.00  0.00     0.010 A 
ATOM     34  C   UNL A   1      41.485  24.312  28.399  1.00  0.00     0.010 A 
ATOM     35  C   UNL A   1      41.068  25.485  27.744  1.00  0.00    -0.014 A 
BRANCH  35  36
ATOM     36  C   UNL A   1      41.782  26.767  27.960  1.00  0.00     0.031 A 
ATOM     37  C   UNL A   1      43.183  26.917  27.434  1.00  0.00     0.074 A 
ATOM     38  C   UNL A   1      41.184  27.786  28.601  1.00  0.00     0.049 A 
ATOM     39  N   UNL A   1      43.986  27.945  27.502  1.00  0.00    -0.248 NA
ATOM     40  C   UNL A   1      43.755  25.753  26.736  1.00  0.00     0.031 C 
ATOM     41  C   UNL A   1      39.830  27.760  29.150  1.00  0.00     0.029 A 
ATOM     42  N   UNL A   1      41.650  29.039  28.912  1.00  0.00    -0.354 N 
ATOM     43  C   UNL A   1      45.166  27.546  26.886  1.00  0.00     0.074 A 
ATOM     44  C   UNL A   1      44.979  26.177  26.459  1.00  0.00     0.031 C 
ATOM     45  C   UNL A   1      39.582  28.936  29.753  1.00  0.00     0.029 A 
ATOM     46  C   UNL A   1      40.765  29.788  29.648  1.00  0.00     0.049 A 
ATOM     47  H   UNL A   1      42.536  29.369  28.633  1.00  0.00     0.167 HD
ATOM     48  C   UNL A   1      46.298  28.260  26.680  1.00  0.00     0.034 A 
ATOM     49  C   UNL A   1      40.902  31.015  30.190  1.00  0.00     0.034 A 
ATOM     50  C   UNL A   1      46.471  29.628  27.083  1.00  0.00     0.049 A 
ATOM     51  C   UNL A   1      42.179  31.781  29.960  1.00  0.00     0.074 A 
ATOM     52  C   UNL A   1      47.559  30.457  26.868  1.00  0.00     0.029 A 
ATOM     53  N   UNL A   1      45.540  30.368  27.794  1.00  0.00    -0.354 N 
ATOM     54  N   UNL A   1      43.235  31.438  29.263  1.00  0.00    -0.248 NA
ATOM     55  C   UNL A   1      42.270  33.119  30.564  1.00  0.00     0.031 C 
ATOM     56  C   UNL A   1      47.294  31.690  27.473  1.00  0.00     0.029 A 
ATOM     57  C   UNL A   1      46.033  31.637  28.042  1.00  0.00     0.049 A 
ATOM     58  H   UNL A   1      44.658  30.038  28.081  1.00  0.00     0.167 HD
ATOM     59  C   UNL A   1      44.099  32.526  29.314  1.00  0.00     0.074 A 
ATOM     60  C   UNL A   1      43.434  33.549  30.096  1.00  0.00     0.031 C 
ATOM     61  C   UNL A   1      45.336  32.664  28.774  1.00  0.00     0.034 A 
BRANCH  48  62
ATOM     62  C   UNL A   1      47.431  27.578  25.961  1.00  0.00     0.023 A 
ATOM     63  C   UNL A   1      47.523  27.669  24.558  1.00  0.00     0.012 A 
ATOM     64  C   UNL A   1      48.433  26.895  26.678  1.00  0.00     0.148 A 
ATOM     65  C   UNL A   1      48.578  27.065  23.875  1.00  0.00     0.002 A 
ATOM     66  C   UNL A   1      49.504  26.331  25.993  1.00  0.00     0.091 A 
ATOM     67  F   UNL A   1      48.315  26.798  28.009  1.00  0.00    -0.205 F 
ATOM     68  C   UNL A   1      49.572  26.406  24.592  1.00  0.00     0.022 A 
BRANCH  66  69
ATOM     69  S   UNL A   1      50.870  25.523  26.835  1.00  0.00     0.127 S 
ATOM     70  O   UNL A   1      50.181  24.456  27.559  1.00  0.00    -0.237 OA
ATOM     71  O   UNL A   1      51.696  25.067  25.717  1.00  0.00    -0.237 OA
ATOM     72  O   UNL A   1      51.488  26.547  27.667  1.00  0.00    -0.744 OA
ENDBRANCH  66  69
ENDBRANCH  48  62
BRANCH  49  73
ATOM     73  C   UNL A   1      39.780  31.614  30.966  1.00  0.00     0.023 A 
ATOM     74  C   UNL A   1      38.807  32.383  30.300  1.00  0.00     0.012 A 
ATOM     75  C   UNL A   1      39.662  31.409  32.355  1.00  0.00     0.148 A 
ATOM     76  C   UNL A   1      37.749  32.959  31.007  1.00  0.00     0.002 A 
ATOM     77  C   UNL A   1      38.578  31.940  33.043  1.00  0.00     0.091 A 
ATOM     78  F   UNL A   1      40.610  30.691  32.973  1.00  0.00    -0.205 F 
ATOM     79  C   UNL A   1      37.629  32.728  32.375  1.00  0.00     0.022 A 
BRANCH  77  80
ATOM     80  S   UNL A   1      38.275  31.586  34.779  1.00  0.00     0.127 S 
ATOM     81  O   UNL A   1      37.028  32.307  35.018  1.00  0.00    -0.237 OA
ATOM     82  O   UNL A   1      38.153  30.127  34.773  1.00  0.00    -0.237 OA
ATOM     83  O   UNL A   1      39.444  32.086  35.490  1.00  0.00    -0.744 OA
ENDBRANCH  77  80
ENDBRANCH  49  73
BRANCH  61  84
ATOM     84  C   UNL A   1      46.048  33.976  28.977  1.00  0.00     0.023 A 
ATOM     85  C   UNL A   1      45.868  35.020  28.049  1.00  0.00     0.012 A 
ATOM     86  C   UNL A   1      46.828  34.201  30.128  1.00  0.00     0.148 A 
ATOM     87  C   UNL A   1      46.478  36.259  28.249  1.00  0.00     0.002 A 
ATOM     88  C   UNL A   1      47.393  35.452  30.345  1.00  0.00     0.091 A 
ATOM     89  F   UNL A   1      47.002  33.189  30.991  1.00  0.00    -0.205 F 
ATOM     90  C   UNL A   1      47.229  36.479  29.402  1.00  0.00     0.022 A 
BRANCH  88  91
ATOM     91  S   UNL A   1      48.293  35.852  31.848  1.00  0.00     0.127 S 
ATOM     92  O   UNL A   1      48.640  37.255  31.623  1.00  0.00    -0.237 OA
ATOM     93  O   UNL A   1      47.283  35.634  32.885  1.00  0.00    -0.237 OA
ATOM     94  O   UNL A   1      49.419  34.929  31.899  1.00  0.00    -0.744 OA
ENDBRANCH  88  91
ENDBRANCH  61  84
ENDBRANCH  35  36
ENDBRANCH  28  30
ENDBRANCH  27  28
ENDBRANCH  26  27
ENDBRANCH  25  26
ENDBRANCH   1  25
TORSDOF 20
ENDMDL
