MODEL 1
REMARK VINA RESULT:     -10.0      0.000      0.000
REMARK SMILES CC(C)C[C@H](CNC(=O)Nc1ccccc1Br)C(=O)OCCOCCOC(=O)c1ccc(-c2c3nc(c(-c4cccc(S(=O)(=O)[O-])c4F)c4ccc([nH]4)c(-c4cccc(S(=O)(=O)[O-])c4F)c4nc(c(-c5cccc(S(=O)(=O)[O-])c5F)c5ccc2[nH]5)C=C4)C=C3)cc1
REMARK SMILES IDX 23 1 22 2 21 3 20 4 18 5 19 6 5 7 4 8 2 9 1 10 3 11 6 12
REMARK SMILES IDX 7 13 8 14 9 16 10 17 11 19 12 20 16 21 13 22 15 23 17 24
REMARK SMILES IDX 14 25 24 26 25 27 26 28 27 29 28 30 29 31 30 32 91 33 31 34
REMARK SMILES IDX 90 35 32 36 33 37 34 38 84 39 35 40 89 41 83 42 85 43 36 44
REMARK SMILES IDX 88 45 82 46 81 47 37 49 69 50 49 51 68 52 50 53 53 54 67 55
REMARK SMILES IDX 86 56 51 57 52 58 66 60 87 61 54 62 38 63 39 64 47 65 40 66
REMARK SMILES IDX 42 67 48 68 41 69 43 70 44 71 45 72 46 73 70 74 71 75 79 76
REMARK SMILES IDX 72 77 74 78 80 79 73 80 75 81 76 82 77 83 78 84 55 85 56 86
REMARK SMILES IDX 64 87 57 88 59 89 65 90 58 91 60 92 61 93 62 94 63 95
REMARK H PARENT 7 15 10 18 85 48 53 59
REMARK Flexibility Score: inf
ROOT
ATOM      1  O   UNL A   1      31.408  29.587  25.687  1.00  0.00    -0.374 OA
ENDROOT
BRANCH   1   2
ATOM      2  C   UNL A   1      32.068  28.910  24.617  1.00  0.00     0.202 C 
BRANCH   2   3
ATOM      3  C   UNL A   1      33.551  28.581  24.809  1.00  0.00     0.261 C 
BRANCH   3   4
ATOM      4  O   UNL A   1      33.938  27.333  24.202  1.00  0.00    -0.463 OA
BRANCH   4   5
ATOM      5  C   UNL A   1      33.898  26.266  25.035  1.00  0.00     0.310 C 
ATOM      6  O   UNL A   1      33.717  26.332  26.248  1.00  0.00    -0.252 OA
BRANCH   5   7
ATOM      7  C   UNL A   1      34.059  24.942  24.325  1.00  0.00     0.119 C 
BRANCH   7   8
ATOM      8  C   UNL A   1      35.483  24.455  24.029  1.00  0.00     0.020 C 
BRANCH   8   9
ATOM      9  C   UNL A   1      35.964  23.155  24.694  1.00  0.00    -0.017 C 
ATOM     10  C   UNL A   1      36.853  22.286  23.804  1.00  0.00     0.007 C 
ATOM     11  C   UNL A   1      36.742  23.513  25.965  1.00  0.00     0.007 C 
ENDBRANCH   8   9
ENDBRANCH   7   8
BRANCH   7  12
ATOM     12  C   UNL A   1      33.053  24.792  23.171  1.00  0.00     0.133 C 
BRANCH  12  13
ATOM     13  N   UNL A   1      31.715  25.335  23.359  1.00  0.00    -0.337 N 
ATOM     14  C   UNL A   1      30.590  24.790  23.881  1.00  0.00     0.319 C 
ATOM     15  H   UNL A   1      31.609  26.265  23.051  1.00  0.00     0.165 HD
ATOM     16  O   UNL A   1      29.516  25.363  23.699  1.00  0.00    -0.249 OA
ATOM     17  N   UNL A   1      30.588  23.578  24.489  1.00  0.00    -0.307 N 
ATOM     18  H   UNL A   1      29.715  23.124  24.503  1.00  0.00     0.171 HD
BRANCH  17  19
ATOM     19  C   UNL A   1      31.631  22.868  25.101  1.00  0.00     0.057 A 
ATOM     20  C   UNL A   1      31.971  23.273  26.398  1.00  0.00     0.027 A 
ATOM     21  C   UNL A   1      32.261  21.743  24.541  1.00  0.00     0.041 A 
ATOM     22  C   UNL A   1      32.815  22.483  27.180  1.00  0.00     0.002 A 
ATOM     23  C   UNL A   1      33.122  20.967  25.324  1.00  0.00     0.018 A 
ATOM     24  Br  UNL A   1      32.060  21.253  22.716  1.00  0.00    -0.049 Br
ATOM     25  C   UNL A   1      33.372  21.321  26.651  1.00  0.00     0.001 A 
ENDBRANCH  17  19
ENDBRANCH  12  13
ENDBRANCH   7  12
ENDBRANCH   5   7
ENDBRANCH   4   5
ENDBRANCH   3   4
ENDBRANCH   2   3
ENDBRANCH   1   2
BRANCH   1  26
ATOM     26  C   UNL A   1      30.936  30.906  25.425  1.00  0.00     0.202 C 
BRANCH  26  27
ATOM     27  C   UNL A   1      31.329  31.991  26.435  1.00  0.00     0.261 C 
BRANCH  27  28
ATOM     28  O   UNL A   1      32.499  31.624  27.188  1.00  0.00    -0.460 OA
BRANCH  28  29
ATOM     29  C   UNL A   1      33.314  32.659  27.499  1.00  0.00     0.338 C 
ATOM     30  O   UNL A   1      32.991  33.837  27.622  1.00  0.00    -0.246 OA
BRANCH  29  31
ATOM     31  C   UNL A   1      34.650  32.171  27.884  1.00  0.00     0.060 A 
ATOM     32  C   UNL A   1      34.753  30.820  28.246  1.00  0.00     0.016 A 
ATOM     33  C   UNL A   1      35.760  33.015  27.969  1.00  0.00     0.016 A 
ATOM     34  C   UNL A   1      35.945  30.326  28.769  1.00  0.00     0.010 A 
ATOM     35  C   UNL A   1      36.954  32.517  28.503  1.00  0.00     0.010 A 
ATOM     36  C   UNL A   1      37.035  31.185  28.951  1.00  0.00    -0.014 A 
BRANCH  36  37
ATOM     37  C   UNL A   1      38.181  30.724  29.772  1.00  0.00     0.031 A 
ATOM     38  C   UNL A   1      39.130  29.711  29.189  1.00  0.00     0.074 A 
ATOM     39  C   UNL A   1      38.400  31.226  30.999  1.00  0.00     0.049 A 
ATOM     40  N   UNL A   1      40.207  29.186  29.713  1.00  0.00    -0.248 NA
ATOM     41  C   UNL A   1      38.826  29.224  27.831  1.00  0.00     0.031 C 
ATOM     42  C   UNL A   1      37.559  32.216  31.669  1.00  0.00     0.029 A 
ATOM     43  N   UNL A   1      39.392  30.955  31.909  1.00  0.00    -0.354 N 
ATOM     44  C   UNL A   1      40.692  28.291  28.768  1.00  0.00     0.074 A 
ATOM     45  C   UNL A   1      39.788  28.335  27.639  1.00  0.00     0.031 C 
ATOM     46  C   UNL A   1      38.055  32.450  32.896  1.00  0.00     0.029 A 
ATOM     47  C   UNL A   1      39.236  31.614  33.104  1.00  0.00     0.049 A 
ATOM     48  H   UNL A   1      40.143  30.345  31.722  1.00  0.00     0.167 HD
ATOM     49  C   UNL A   1      41.801  27.515  28.823  1.00  0.00     0.034 A 
ATOM     50  C   UNL A   1      39.955  31.537  34.243  1.00  0.00     0.034 A 
ATOM     51  C   UNL A   1      42.713  27.492  29.933  1.00  0.00     0.049 A 
ATOM     52  C   UNL A   1      41.177  30.655  34.285  1.00  0.00     0.074 A 
ATOM     53  C   UNL A   1      43.892  26.778  30.062  1.00  0.00     0.029 A 
ATOM     54  N   UNL A   1      42.545  28.203  31.111  1.00  0.00    -0.354 N 
ATOM     55  N   UNL A   1      41.693  29.913  33.335  1.00  0.00    -0.248 NA
ATOM     56  C   UNL A   1      41.936  30.627  35.544  1.00  0.00     0.031 C 
ATOM     57  C   UNL A   1      44.424  27.040  31.329  1.00  0.00     0.029 A 
ATOM     58  C   UNL A   1      43.591  27.937  31.978  1.00  0.00     0.049 A 
ATOM     59  H   UNL A   1      41.793  28.809  31.302  1.00  0.00     0.167 HD
ATOM     60  C   UNL A   1      42.853  29.359  33.869  1.00  0.00     0.074 A 
ATOM     61  C   UNL A   1      42.973  29.868  35.219  1.00  0.00     0.031 C 
ATOM     62  C   UNL A   1      43.729  28.494  33.299  1.00  0.00     0.034 A 
BRANCH  49  63
ATOM     63  C   UNL A   1      42.107  26.647  27.633  1.00  0.00     0.023 A 
ATOM     64  C   UNL A   1      42.812  27.187  26.538  1.00  0.00     0.012 A 
ATOM     65  C   UNL A   1      41.750  25.284  27.622  1.00  0.00     0.148 A 
ATOM     66  C   UNL A   1      43.135  26.391  25.439  1.00  0.00     0.002 A 
ATOM     67  C   UNL A   1      42.110  24.488  26.541  1.00  0.00     0.091 A 
ATOM     68  F   UNL A   1      41.059  24.796  28.662  1.00  0.00    -0.205 F 
ATOM     69  C   UNL A   1      42.793  25.041  25.446  1.00  0.00     0.022 A 
BRANCH  67  70
ATOM     70  S   UNL A   1      41.783  22.723  26.489  1.00  0.00     0.127 S 
ATOM     71  O   UNL A   1      42.491  22.256  27.679  1.00  0.00    -0.237 OA
ATOM     72  O   UNL A   1      40.325  22.675  26.589  1.00  0.00    -0.237 OA
ATOM     73  O   UNL A   1      42.319  22.253  25.218  1.00  0.00    -0.744 OA
ENDBRANCH  67  70
ENDBRANCH  49  63
BRANCH  50  74
ATOM     74  C   UNL A   1      39.558  32.349  35.427  1.00  0.00     0.023 A 
ATOM     75  C   UNL A   1      38.733  31.782  36.418  1.00  0.00     0.012 A 
ATOM     76  C   UNL A   1      40.012  33.674  35.587  1.00  0.00     0.148 A 
ATOM     77  C   UNL A   1      38.344  32.528  37.531  1.00  0.00     0.002 A 
ATOM     78  C   UNL A   1      39.666  34.392  36.725  1.00  0.00     0.091 A 
ATOM     79  F   UNL A   1      40.779  34.202  34.623  1.00  0.00    -0.205 F 
ATOM     80  C   UNL A   1      38.819  33.828  37.691  1.00  0.00     0.022 A 
BRANCH  78  81
ATOM     81  S   UNL A   1      40.336  36.022  37.075  1.00  0.00     0.127 S 
ATOM     82  O   UNL A   1      41.765  35.741  37.185  1.00  0.00    -0.237 OA
ATOM     83  O   UNL A   1      39.945  36.770  35.879  1.00  0.00    -0.237 OA
ATOM     84  O   UNL A   1      39.678  36.462  38.297  1.00  0.00    -0.744 OA
ENDBRANCH  78  81
ENDBRANCH  50  74
BRANCH  62  85
ATOM     85  C   UNL A   1      44.920  28.062  34.115  1.00  0.00     0.023 A 
ATOM     86  C   UNL A   1      46.102  28.828  34.089  1.00  0.00     0.012 A 
ATOM     87  C   UNL A   1      44.839  26.945  34.969  1.00  0.00     0.148 A 
ATOM     88  C   UNL A   1      47.196  28.471  34.875  1.00  0.00     0.002 A 
ATOM     89  C   UNL A   1      45.916  26.622  35.787  1.00  0.00     0.091 A 
ATOM     90  F   UNL A   1      43.713  26.217  34.969  1.00  0.00    -0.205 F 
ATOM     91  C   UNL A   1      47.100  27.377  35.733  1.00  0.00     0.022 A 
BRANCH  89  92
ATOM     92  S   UNL A   1      45.845  25.289  36.989  1.00  0.00     0.127 S 
ATOM     93  O   UNL A   1      46.894  25.678  37.930  1.00  0.00    -0.237 OA
ATOM     94  O   UNL A   1      44.483  25.410  37.511  1.00  0.00    -0.237 OA
ATOM     95  O   UNL A   1      46.095  24.064  36.241  1.00  0.00    -0.744 OA
ENDBRANCH  89  92
ENDBRANCH  62  85
ENDBRANCH  36  37
ENDBRANCH  29  31
ENDBRANCH  28  29
ENDBRANCH  27  28
ENDBRANCH  26  27
ENDBRANCH   1  26
TORSDOF 22
ENDMDL
MODEL 2
REMARK VINA RESULT:      -9.9      5.463     10.340
REMARK SMILES CC(C)C[C@H](CNC(=O)Nc1ccccc1Br)C(=O)OCCOCCOC(=O)c1ccc(-c2c3nc(c(-c4cccc(S(=O)(=O)[O-])c4F)c4ccc([nH]4)c(-c4cccc(S(=O)(=O)[O-])c4F)c4nc(c(-c5cccc(S(=O)(=O)[O-])c5F)c5ccc2[nH]5)C=C4)C=C3)cc1
REMARK SMILES IDX 23 1 22 2 21 3 20 4 18 5 19 6 5 7 4 8 2 9 1 10 3 11 6 12
REMARK SMILES IDX 7 13 8 14 9 16 10 17 11 19 12 20 16 21 13 22 15 23 17 24
REMARK SMILES IDX 14 25 24 26 25 27 26 28 27 29 28 30 29 31 30 32 91 33 31 34
REMARK SMILES IDX 90 35 32 36 33 37 34 38 84 39 35 40 89 41 83 42 85 43 36 44
REMARK SMILES IDX 88 45 82 46 81 47 37 49 69 50 49 51 68 52 50 53 53 54 67 55
REMARK SMILES IDX 86 56 51 57 52 58 66 60 87 61 54 62 38 63 39 64 47 65 40 66
REMARK SMILES IDX 42 67 48 68 41 69 43 70 44 71 45 72 46 73 70 74 71 75 79 76
REMARK SMILES IDX 72 77 74 78 80 79 73 80 75 81 76 82 77 83 78 84 55 85 56 86
REMARK SMILES IDX 64 87 57 88 59 89 65 90 58 91 60 92 61 93 62 94 63 95
REMARK H PARENT 7 15 10 18 85 48 53 59
REMARK Flexibility Score: inf
ROOT
ATOM      1  O   UNL A   1      36.642  21.561  25.648  1.00  0.00    -0.374 OA
ENDROOT
BRANCH   1   2
ATOM      2  C   UNL A   1      35.835  20.595  24.974  1.00  0.00     0.202 C 
BRANCH   2   3
ATOM      3  C   UNL A   1      34.353  20.933  24.786  1.00  0.00     0.261 C 
BRANCH   3   4
ATOM      4  O   UNL A   1      34.132  22.294  24.369  1.00  0.00    -0.463 OA
BRANCH   4   5
ATOM      5  C   UNL A   1      33.009  22.482  23.636  1.00  0.00     0.310 C 
ATOM      6  O   UNL A   1      32.716  21.846  22.628  1.00  0.00    -0.252 OA
BRANCH   5   7
ATOM      7  C   UNL A   1      32.094  23.544  24.200  1.00  0.00     0.119 C 
BRANCH   7   8
ATOM      8  C   UNL A   1      31.144  23.143  25.336  1.00  0.00     0.020 C 
BRANCH   8   9
ATOM      9  C   UNL A   1      31.502  23.566  26.771  1.00  0.00    -0.017 C 
ATOM     10  C   UNL A   1      32.517  22.654  27.461  1.00  0.00     0.007 C 
ATOM     11  C   UNL A   1      32.066  24.991  26.735  1.00  0.00     0.007 C 
ENDBRANCH   8   9
ENDBRANCH   7   8
BRANCH   7  12
ATOM     12  C   UNL A   1      31.471  24.406  23.088  1.00  0.00     0.133 C 
BRANCH  12  13
ATOM     13  N   UNL A   1      32.220  24.563  21.850  1.00  0.00    -0.337 N 
ATOM     14  C   UNL A   1      32.689  25.667  21.217  1.00  0.00     0.319 C 
ATOM     15  H   UNL A   1      32.421  23.716  21.388  1.00  0.00     0.165 HD
ATOM     16  O   UNL A   1      33.072  25.562  20.052  1.00  0.00    -0.249 OA
ATOM     17  N   UNL A   1      32.637  26.899  21.780  1.00  0.00    -0.307 N 
ATOM     18  H   UNL A   1      32.654  27.647  21.140  1.00  0.00     0.171 HD
BRANCH  17  19
ATOM     19  C   UNL A   1      32.561  27.279  23.127  1.00  0.00     0.057 A 
ATOM     20  C   UNL A   1      33.733  27.116  23.877  1.00  0.00     0.027 A 
ATOM     21  C   UNL A   1      31.443  27.893  23.718  1.00  0.00     0.041 A 
ATOM     22  C   UNL A   1      33.838  27.687  25.146  1.00  0.00     0.002 A 
ATOM     23  C   UNL A   1      31.549  28.445  24.999  1.00  0.00     0.018 A 
ATOM     24  Br  UNL A   1      29.737  27.945  22.882  1.00  0.00    -0.049 Br
ATOM     25  C   UNL A   1      32.755  28.369  25.697  1.00  0.00     0.001 A 
ENDBRANCH  17  19
ENDBRANCH  12  13
ENDBRANCH   7  12
ENDBRANCH   5   7
ENDBRANCH   4   5
ENDBRANCH   3   4
ENDBRANCH   2   3
ENDBRANCH   1   2
BRANCH   1  26
ATOM     26  C   UNL A   1      38.034  21.571  25.338  1.00  0.00     0.202 C 
BRANCH  26  27
ATOM     27  C   UNL A   1      38.771  20.231  25.444  1.00  0.00     0.261 C 
BRANCH  27  28
ATOM     28  O   UNL A   1      39.630  20.179  26.596  1.00  0.00    -0.460 OA
BRANCH  28  29
ATOM     29  C   UNL A   1      40.925  19.900  26.319  1.00  0.00     0.338 C 
ATOM     30  O   UNL A   1      41.366  18.862  25.836  1.00  0.00    -0.246 OA
BRANCH  29  31
ATOM     31  C   UNL A   1      41.762  21.102  26.485  1.00  0.00     0.060 A 
ATOM     32  C   UNL A   1      42.081  21.478  27.796  1.00  0.00     0.016 A 
ATOM     33  C   UNL A   1      42.163  21.889  25.403  1.00  0.00     0.016 A 
ATOM     34  C   UNL A   1      42.734  22.684  28.038  1.00  0.00     0.010 A 
ATOM     35  C   UNL A   1      42.811  23.105  25.650  1.00  0.00     0.010 A 
ATOM     36  C   UNL A   1      43.054  23.530  26.969  1.00  0.00    -0.014 A 
BRANCH  36  37
ATOM     37  C   UNL A   1      43.472  24.923  27.258  1.00  0.00     0.031 A 
ATOM     38  C   UNL A   1      42.469  25.872  27.858  1.00  0.00     0.074 A 
ATOM     39  C   UNL A   1      44.733  25.328  27.031  1.00  0.00     0.049 A 
ATOM     40  N   UNL A   1      42.619  27.121  28.212  1.00  0.00    -0.248 NA
ATOM     41  C   UNL A   1      41.113  25.341  28.089  1.00  0.00     0.031 C 
ATOM     42  C   UNL A   1      45.797  24.502  26.463  1.00  0.00     0.029 A 
ATOM     43  N   UNL A   1      45.327  26.550  27.236  1.00  0.00    -0.354 N 
ATOM     44  C   UNL A   1      41.378  27.534  28.681  1.00  0.00     0.074 A 
ATOM     45  C   UNL A   1      40.481  26.406  28.558  1.00  0.00     0.031 C 
ATOM     46  C   UNL A   1      46.908  25.248  26.338  1.00  0.00     0.029 A 
ATOM     47  C   UNL A   1      46.629  26.607  26.801  1.00  0.00     0.049 A 
ATOM     48  H   UNL A   1      44.863  27.311  27.654  1.00  0.00     0.167 HD
ATOM     49  C   UNL A   1      41.019  28.738  29.187  1.00  0.00     0.034 A 
ATOM     50  C   UNL A   1      47.490  27.644  26.763  1.00  0.00     0.034 A 
ATOM     51  C   UNL A   1      41.917  29.850  29.335  1.00  0.00     0.049 A 
ATOM     52  C   UNL A   1      47.063  28.978  27.320  1.00  0.00     0.074 A 
ATOM     53  C   UNL A   1      41.662  31.095  29.884  1.00  0.00     0.029 A 
ATOM     54  N   UNL A   1      43.240  29.860  28.920  1.00  0.00    -0.354 N 
ATOM     55  N   UNL A   1      45.925  29.314  27.878  1.00  0.00    -0.248 NA
ATOM     56  C   UNL A   1      48.051  30.066  27.274  1.00  0.00     0.031 C 
ATOM     57  C   UNL A   1      42.825  31.865  29.780  1.00  0.00     0.029 A 
ATOM     58  C   UNL A   1      43.812  31.091  29.190  1.00  0.00     0.049 A 
ATOM     59  H   UNL A   1      43.705  29.102  28.498  1.00  0.00     0.167 HD
ATOM     60  C   UNL A   1      46.072  30.638  28.279  1.00  0.00     0.074 A 
ATOM     61  C   UNL A   1      47.417  31.036  27.919  1.00  0.00     0.031 C 
ATOM     62  C   UNL A   1      45.169  31.456  28.877  1.00  0.00     0.034 A 
BRANCH  49  63
ATOM     63  C   UNL A   1      39.597  28.907  29.649  1.00  0.00     0.023 A 
ATOM     64  C   UNL A   1      39.228  28.480  30.941  1.00  0.00     0.012 A 
ATOM     65  C   UNL A   1      38.641  29.541  28.831  1.00  0.00     0.148 A 
ATOM     66  C   UNL A   1      37.923  28.657  31.402  1.00  0.00     0.002 A 
ATOM     67  C   UNL A   1      37.354  29.748  29.311  1.00  0.00     0.091 A 
ATOM     68  F   UNL A   1      39.006  29.916  27.597  1.00  0.00    -0.205 F 
ATOM     69  C   UNL A   1      36.991  29.300  30.591  1.00  0.00     0.022 A 
BRANCH  67  70
ATOM     70  S   UNL A   1      36.103  30.633  28.375  1.00  0.00     0.127 S 
ATOM     71  O   UNL A   1      35.067  30.837  29.385  1.00  0.00    -0.237 OA
ATOM     72  O   UNL A   1      36.815  31.848  27.979  1.00  0.00    -0.237 OA
ATOM     73  O   UNL A   1      35.736  29.759  27.269  1.00  0.00    -0.744 OA
ENDBRANCH  67  70
ENDBRANCH  49  63
BRANCH  50  74
ATOM     74  C   UNL A   1      48.861  27.450  26.212  1.00  0.00     0.023 A 
ATOM     75  C   UNL A   1      49.912  27.073  27.070  1.00  0.00     0.012 A 
ATOM     76  C   UNL A   1      49.123  27.618  24.837  1.00  0.00     0.148 A 
ATOM     77  C   UNL A   1      51.204  26.894  26.575  1.00  0.00     0.002 A 
ATOM     78  C   UNL A   1      50.401  27.384  24.342  1.00  0.00     0.091 A 
ATOM     79  F   UNL A   1      48.115  27.998  24.041  1.00  0.00    -0.205 F 
ATOM     80  C   UNL A   1      51.447  27.037  25.211  1.00  0.00     0.022 A 
BRANCH  78  81
ATOM     81  S   UNL A   1      50.773  27.420  22.585  1.00  0.00     0.127 S 
ATOM     82  O   UNL A   1      49.640  26.688  22.024  1.00  0.00    -0.237 OA
ATOM     83  O   UNL A   1      50.776  28.857  22.308  1.00  0.00    -0.237 OA
ATOM     84  O   UNL A   1      52.074  26.781  22.447  1.00  0.00    -0.744 OA
ENDBRANCH  78  81
ENDBRANCH  50  74
BRANCH  62  85
ATOM     85  C   UNL A   1      45.608  32.858  29.215  1.00  0.00     0.023 A 
ATOM     86  C   UNL A   1      46.265  33.111  30.435  1.00  0.00     0.012 A 
ATOM     87  C   UNL A   1      45.443  33.906  28.288  1.00  0.00     0.148 A 
ATOM     88  C   UNL A   1      46.723  34.392  30.741  1.00  0.00     0.002 A 
ATOM     89  C   UNL A   1      45.943  35.170  28.580  1.00  0.00     0.091 A 
ATOM     90  F   UNL A   1      44.800  33.652  27.140  1.00  0.00    -0.205 F 
ATOM     91  C   UNL A   1      46.573  35.418  29.811  1.00  0.00     0.022 A 
BRANCH  89  92
ATOM     92  S   UNL A   1      45.879  36.525  27.401  1.00  0.00     0.127 S 
ATOM     93  O   UNL A   1      44.519  37.024  27.594  1.00  0.00    -0.237 OA
ATOM     94  O   UNL A   1      46.931  37.417  27.893  1.00  0.00    -0.237 OA
ATOM     95  O   UNL A   1      46.153  35.934  26.099  1.00  0.00    -0.744 OA
ENDBRANCH  89  92
ENDBRANCH  62  85
ENDBRANCH  36  37
ENDBRANCH  29  31
ENDBRANCH  28  29
ENDBRANCH  27  28
ENDBRANCH  26  27
ENDBRANCH   1  26
TORSDOF 22
ENDMDL
MODEL 3
REMARK VINA RESULT:      -9.9      1.543      1.968
REMARK SMILES CC(C)C[C@H](CNC(=O)Nc1ccccc1Br)C(=O)OCCOCCOC(=O)c1ccc(-c2c3nc(c(-c4cccc(S(=O)(=O)[O-])c4F)c4ccc([nH]4)c(-c4cccc(S(=O)(=O)[O-])c4F)c4nc(c(-c5cccc(S(=O)(=O)[O-])c5F)c5ccc2[nH]5)C=C4)C=C3)cc1
REMARK SMILES IDX 23 1 22 2 21 3 20 4 18 5 19 6 5 7 4 8 2 9 1 10 3 11 6 12
REMARK SMILES IDX 7 13 8 14 9 16 10 17 11 19 12 20 16 21 13 22 15 23 17 24
REMARK SMILES IDX 14 25 24 26 25 27 26 28 27 29 28 30 29 31 30 32 91 33 31 34
REMARK SMILES IDX 90 35 32 36 33 37 34 38 84 39 35 40 89 41 83 42 85 43 36 44
REMARK SMILES IDX 88 45 82 46 81 47 37 49 69 50 49 51 68 52 50 53 53 54 67 55
REMARK SMILES IDX 86 56 51 57 52 58 66 60 87 61 54 62 38 63 39 64 47 65 40 66
REMARK SMILES IDX 42 67 48 68 41 69 43 70 44 71 45 72 46 73 70 74 71 75 79 76
REMARK SMILES IDX 72 77 74 78 80 79 73 80 75 81 76 82 77 83 78 84 55 85 56 86
REMARK SMILES IDX 64 87 57 88 59 89 65 90 58 91 60 92 61 93 62 94 63 95
REMARK H PARENT 7 15 10 18 85 48 53 59
REMARK Flexibility Score: inf
ROOT
ATOM      1  O   UNL A   1      31.439  29.540  25.843  1.00  0.00    -0.374 OA
ENDROOT
BRANCH   1   2
ATOM      2  C   UNL A   1      32.254  28.827  24.913  1.00  0.00     0.202 C 
BRANCH   2   3
ATOM      3  C   UNL A   1      33.662  28.440  25.373  1.00  0.00     0.261 C 
BRANCH   3   4
ATOM      4  O   UNL A   1      34.125  27.202  24.799  1.00  0.00    -0.463 OA
BRANCH   4   5
ATOM      5  C   UNL A   1      33.794  26.095  25.506  1.00  0.00     0.310 C 
ATOM      6  O   UNL A   1      33.108  26.094  26.524  1.00  0.00    -0.252 OA
BRANCH   5   7
ATOM      7  C   UNL A   1      34.319  24.815  24.898  1.00  0.00     0.119 C 
BRANCH   7   8
ATOM      8  C   UNL A   1      35.696  24.316  25.355  1.00  0.00     0.020 C 
BRANCH   8   9
ATOM      9  C   UNL A   1      35.770  22.999  26.146  1.00  0.00    -0.017 C 
ATOM     10  C   UNL A   1      34.658  22.824  27.181  1.00  0.00     0.007 C 
ATOM     11  C   UNL A   1      35.709  21.830  25.157  1.00  0.00     0.007 C 
ENDBRANCH   8   9
ENDBRANCH   7   8
BRANCH   7  12
ATOM     12  C   UNL A   1      34.063  24.760  23.382  1.00  0.00     0.133 C 
BRANCH  12  13
ATOM     13  N   UNL A   1      33.159  25.747  22.809  1.00  0.00    -0.337 N 
ATOM     14  C   UNL A   1      31.886  25.642  22.354  1.00  0.00     0.319 C 
ATOM     15  H   UNL A   1      33.540  26.652  22.737  1.00  0.00     0.165 HD
ATOM     16  O   UNL A   1      31.421  26.562  21.680  1.00  0.00    -0.249 OA
ATOM     17  N   UNL A   1      31.153  24.512  22.511  1.00  0.00    -0.307 N 
ATOM     18  H   UNL A   1      30.421  24.401  21.862  1.00  0.00     0.171 HD
BRANCH  17  19
ATOM     19  C   UNL A   1      31.270  23.477  23.450  1.00  0.00     0.057 A 
ATOM     20  C   UNL A   1      31.844  22.288  22.983  1.00  0.00     0.027 A 
ATOM     21  C   UNL A   1      30.950  23.601  24.813  1.00  0.00     0.041 A 
ATOM     22  C   UNL A   1      32.229  21.295  23.885  1.00  0.00     0.002 A 
ATOM     23  C   UNL A   1      31.320  22.593  25.708  1.00  0.00     0.018 A 
ATOM     24  Br  UNL A   1      29.952  25.062  25.506  1.00  0.00    -0.049 Br
ATOM     25  C   UNL A   1      31.988  21.457  25.247  1.00  0.00     0.001 A 
ENDBRANCH  17  19
ENDBRANCH  12  13
ENDBRANCH   7  12
ENDBRANCH   5   7
ENDBRANCH   4   5
ENDBRANCH   3   4
ENDBRANCH   2   3
ENDBRANCH   1   2
BRANCH   1  26
ATOM     26  C   UNL A   1      31.046  30.862  25.480  1.00  0.00     0.202 C 
BRANCH  26  27
ATOM     27  C   UNL A   1      31.403  31.980  26.467  1.00  0.00     0.261 C 
BRANCH  27  28
ATOM     28  O   UNL A   1      32.535  31.635  27.284  1.00  0.00    -0.460 OA
BRANCH  28  29
ATOM     29  C   UNL A   1      33.357  32.671  27.571  1.00  0.00     0.338 C 
ATOM     30  O   UNL A   1      33.041  33.852  27.679  1.00  0.00    -0.246 OA
BRANCH  29  31
ATOM     31  C   UNL A   1      34.695  32.182  27.952  1.00  0.00     0.060 A 
ATOM     32  C   UNL A   1      34.796  30.836  28.330  1.00  0.00     0.016 A 
ATOM     33  C   UNL A   1      35.808  33.023  28.018  1.00  0.00     0.016 A 
ATOM     34  C   UNL A   1      35.990  30.344  28.850  1.00  0.00     0.010 A 
ATOM     35  C   UNL A   1      37.005  32.528  28.550  1.00  0.00     0.010 A 
ATOM     36  C   UNL A   1      37.085  31.201  29.013  1.00  0.00    -0.014 A 
BRANCH  36  37
ATOM     37  C   UNL A   1      38.235  30.746  29.831  1.00  0.00     0.031 A 
ATOM     38  C   UNL A   1      39.186  29.736  29.246  1.00  0.00     0.074 A 
ATOM     39  C   UNL A   1      38.456  31.252  31.056  1.00  0.00     0.049 A 
ATOM     40  N   UNL A   1      40.266  29.216  29.768  1.00  0.00    -0.248 NA
ATOM     41  C   UNL A   1      38.878  29.245  27.891  1.00  0.00     0.031 C 
ATOM     42  C   UNL A   1      37.614  32.240  31.727  1.00  0.00     0.029 A 
ATOM     43  N   UNL A   1      39.453  30.986  31.963  1.00  0.00    -0.354 N 
ATOM     44  C   UNL A   1      40.752  28.321  28.822  1.00  0.00     0.074 A 
ATOM     45  C   UNL A   1      39.844  28.359  27.697  1.00  0.00     0.031 C 
ATOM     46  C   UNL A   1      38.113  32.478  32.952  1.00  0.00     0.029 A 
ATOM     47  C   UNL A   1      39.299  31.647  33.157  1.00  0.00     0.049 A 
ATOM     48  H   UNL A   1      40.205  30.379  31.775  1.00  0.00     0.167 HD
ATOM     49  C   UNL A   1      41.864  27.549  28.875  1.00  0.00     0.034 A 
ATOM     50  C   UNL A   1      40.022  31.575  34.293  1.00  0.00     0.034 A 
ATOM     51  C   UNL A   1      42.780  27.532  29.982  1.00  0.00     0.049 A 
ATOM     52  C   UNL A   1      41.248  30.698  34.333  1.00  0.00     0.074 A 
ATOM     53  C   UNL A   1      43.961  26.823  30.109  1.00  0.00     0.029 A 
ATOM     54  N   UNL A   1      42.613  28.245  31.159  1.00  0.00    -0.354 N 
ATOM     55  N   UNL A   1      41.763  29.956  33.382  1.00  0.00    -0.248 NA
ATOM     56  C   UNL A   1      42.010  30.675  35.590  1.00  0.00     0.031 C 
ATOM     57  C   UNL A   1      44.498  27.090  31.373  1.00  0.00     0.029 A 
ATOM     58  C   UNL A   1      43.663  27.984  32.023  1.00  0.00     0.049 A 
ATOM     59  H   UNL A   1      41.860  28.848  31.352  1.00  0.00     0.167 HD
ATOM     60  C   UNL A   1      42.926  29.407  33.913  1.00  0.00     0.074 A 
ATOM     61  C   UNL A   1      43.050  29.920  35.263  1.00  0.00     0.031 C 
ATOM     62  C   UNL A   1      43.804  28.545  33.342  1.00  0.00     0.034 A 
BRANCH  49  63
ATOM     63  C   UNL A   1      42.169  26.680  27.686  1.00  0.00     0.023 A 
ATOM     64  C   UNL A   1      42.956  27.189  26.633  1.00  0.00     0.012 A 
ATOM     65  C   UNL A   1      41.728  25.342  27.636  1.00  0.00     0.148 A 
ATOM     66  C   UNL A   1      43.278  26.389  25.537  1.00  0.00     0.002 A 
ATOM     67  C   UNL A   1      42.086  24.540  26.560  1.00  0.00     0.091 A 
ATOM     68  F   UNL A   1      40.960  24.885  28.635  1.00  0.00    -0.205 F 
ATOM     69  C   UNL A   1      42.852  25.064  25.506  1.00  0.00     0.022 A 
BRANCH  67  70
ATOM     70  S   UNL A   1      41.652  22.800  26.463  1.00  0.00     0.127 S 
ATOM     71  O   UNL A   1      42.329  22.395  25.233  1.00  0.00    -0.237 OA
ATOM     72  O   UNL A   1      42.243  22.265  27.689  1.00  0.00    -0.237 OA
ATOM     73  O   UNL A   1      40.197  22.751  26.421  1.00  0.00    -0.744 OA
ENDBRANCH  67  70
ENDBRANCH  49  63
BRANCH  50  74
ATOM     74  C   UNL A   1      39.626  32.388  35.478  1.00  0.00     0.023 A 
ATOM     75  C   UNL A   1      38.913  31.785  36.532  1.00  0.00     0.012 A 
ATOM     76  C   UNL A   1      39.971  33.751  35.573  1.00  0.00     0.148 A 
ATOM     77  C   UNL A   1      38.527  32.531  37.646  1.00  0.00     0.002 A 
ATOM     78  C   UNL A   1      39.631  34.473  36.711  1.00  0.00     0.091 A 
ATOM     79  F   UNL A   1      40.631  34.312  34.551  1.00  0.00    -0.205 F 
ATOM     80  C   UNL A   1      38.895  33.870  37.742  1.00  0.00     0.022 A 
BRANCH  78  81
ATOM     81  S   UNL A   1      40.176  36.165  36.974  1.00  0.00     0.127 S 
ATOM     82  O   UNL A   1      39.766  36.809  35.729  1.00  0.00    -0.237 OA
ATOM     83  O   UNL A   1      39.398  36.551  38.153  1.00  0.00    -0.237 OA
ATOM     84  O   UNL A   1      41.612  36.084  37.205  1.00  0.00    -0.744 OA
ENDBRANCH  78  81
ENDBRANCH  50  74
BRANCH  62  85
ATOM     85  C   UNL A   1      44.999  28.119  34.155  1.00  0.00     0.023 A 
ATOM     86  C   UNL A   1      44.932  26.951  34.939  1.00  0.00     0.012 A 
ATOM     87  C   UNL A   1      46.213  28.830  34.077  1.00  0.00     0.148 A 
ATOM     88  C   UNL A   1      46.044  26.514  35.658  1.00  0.00     0.002 A 
ATOM     89  C   UNL A   1      47.332  28.363  34.758  1.00  0.00     0.091 A 
ATOM     90  F   UNL A   1      46.255  29.948  33.339  1.00  0.00    -0.205 F 
ATOM     91  C   UNL A   1      47.246  27.212  35.559  1.00  0.00     0.022 A 
BRANCH  89  92
ATOM     92  S   UNL A   1      48.942  29.144  34.610  1.00  0.00     0.127 S 
ATOM     93  O   UNL A   1      48.694  30.456  35.207  1.00  0.00    -0.237 OA
ATOM     94  O   UNL A   1      49.793  28.262  35.412  1.00  0.00    -0.237 OA
ATOM     95  O   UNL A   1      49.254  29.150  33.188  1.00  0.00    -0.744 OA
ENDBRANCH  89  92
ENDBRANCH  62  85
ENDBRANCH  36  37
ENDBRANCH  29  31
ENDBRANCH  28  29
ENDBRANCH  27  28
ENDBRANCH  26  27
ENDBRANCH   1  26
TORSDOF 22
ENDMDL
