MODEL 1
REMARK VINA RESULT:     -11.1      0.000      0.000
REMARK SMILES O=C(CC[N@H+]1CCC[C@@H](C(=O)OCCOCCOC(=O)c2ccc(-c3c4nc(c(-c5cccc(S(=O)(=O)[O-])c5F)c5ccc([nH]5)c(-c5cccc(S(=O)(=O)[O-])c5F)c5nc(c(-c6cccc(S(=O)(=O)[O-])c6F)c6ccc3[nH]6)C=C5)C=C4)cc2)C1)Nc1cccc(F)c1
REMARK SMILES IDX 14 1 13 2 12 3 10 4 11 5 9 6 5 7 6 8 84 9 7 11 8 12 4 13
REMARK SMILES IDX 3 14 2 15 1 16 85 17 86 19 87 20 92 21 88 22 90 23 89 24
REMARK SMILES IDX 91 25 15 26 16 27 17 28 18 29 19 30 20 31 21 32 22 33 83 34
REMARK SMILES IDX 23 35 82 36 24 37 25 38 26 39 76 40 27 41 81 42 75 43 77 44
REMARK SMILES IDX 28 45 80 46 74 47 73 48 29 50 61 51 41 52 60 53 42 54 45 55
REMARK SMILES IDX 59 56 78 57 43 58 44 59 58 61 79 62 46 63 30 64 31 65 39 66
REMARK SMILES IDX 32 67 34 68 40 69 33 70 35 71 36 72 37 73 38 74 62 75 63 76
REMARK SMILES IDX 71 77 64 78 66 79 72 80 65 81 67 82 68 83 69 84 70 85 47 86
REMARK SMILES IDX 48 87 56 88 49 89 51 90 57 91 50 92 52 93 53 94 54 95 55 96
REMARK H PARENT 5 10 85 18 77 49 45 60
REMARK Flexibility Score: inf
ROOT
ATOM      1  C   UNL A   1      32.858  29.583  26.797  1.00  0.00     0.202 C 
ENDROOT
BRANCH   1   2
ATOM      2  C   UNL A   1      33.481  28.775  25.652  1.00  0.00     0.261 C 
BRANCH   2   3
ATOM      3  O   UNL A   1      33.182  29.357  24.369  1.00  0.00    -0.463 OA
BRANCH   3   4
ATOM      4  C   UNL A   1      33.263  28.542  23.283  1.00  0.00     0.314 C 
ATOM      5  O   UNL A   1      34.278  28.332  22.632  1.00  0.00    -0.252 OA
BRANCH   4   6
ATOM      6  C   UNL A   1      31.916  27.931  22.928  1.00  0.00     0.154 C 
ATOM      7  N   UNL A   1      30.524  25.820  23.205  1.00  0.00    -0.334 N 
ATOM      8  C   UNL A   1      29.377  26.612  23.635  1.00  0.00     0.262 C 
ATOM      9  C   UNL A   1      31.857  26.420  23.204  1.00  0.00     0.277 C 
ATOM     10  H   UNL A   1      30.411  25.861  22.192  1.00  0.00     0.348 HD
ATOM     11  C   UNL A   1      29.465  28.092  23.274  1.00  0.00     0.062 C 
ATOM     12  C   UNL A   1      30.811  28.686  23.655  1.00  0.00     0.027 C 
BRANCH   7  13
ATOM     13  C   UNL A   1      30.424  24.384  23.519  1.00  0.00     0.272 C 
BRANCH  13  14
ATOM     14  C   UNL A   1      31.549  23.678  24.293  1.00  0.00     0.161 C 
BRANCH  14  15
ATOM     15  C   UNL A   1      32.150  22.402  23.709  1.00  0.00     0.230 C 
ATOM     16  O   UNL A   1      32.442  22.362  22.517  1.00  0.00    -0.275 OA
ATOM     17  N   UNL A   1      32.422  21.424  24.638  1.00  0.00    -0.326 N 
ATOM     18  H   UNL A   1      32.003  21.550  25.520  1.00  0.00     0.169 HD
BRANCH  17  19
ATOM     19  C   UNL A   1      33.213  20.269  24.502  1.00  0.00     0.044 A 
ATOM     20  C   UNL A   1      32.566  19.091  24.096  1.00  0.00     0.026 A 
ATOM     21  C   UNL A   1      34.569  20.224  24.791  1.00  0.00     0.065 A 
ATOM     22  C   UNL A   1      33.259  17.881  24.007  1.00  0.00     0.005 A 
ATOM     23  C   UNL A   1      35.255  19.017  24.691  1.00  0.00     0.125 A 
ATOM     24  C   UNL A   1      34.614  17.843  24.313  1.00  0.00     0.039 A 
ATOM     25  F   UNL A   1      36.562  18.995  24.972  1.00  0.00    -0.207 F 
ENDBRANCH  17  19
ENDBRANCH  14  15
ENDBRANCH  13  14
ENDBRANCH   7  13
ENDBRANCH   4   6
ENDBRANCH   3   4
ENDBRANCH   2   3
ENDBRANCH   1   2
BRANCH   1  26
ATOM     26  O   UNL A   1      31.516  30.025  26.569  1.00  0.00    -0.374 OA
BRANCH  26  27
ATOM     27  C   UNL A   1      31.362  31.394  26.201  1.00  0.00     0.202 C 
BRANCH  27  28
ATOM     28  C   UNL A   1      31.611  32.424  27.309  1.00  0.00     0.261 C 
BRANCH  28  29
ATOM     29  O   UNL A   1      32.685  33.319  26.978  1.00  0.00    -0.460 OA
BRANCH  29  30
ATOM     30  C   UNL A   1      33.340  33.818  28.054  1.00  0.00     0.338 C 
ATOM     31  O   UNL A   1      32.935  34.692  28.814  1.00  0.00    -0.246 OA
BRANCH  30  32
ATOM     32  C   UNL A   1      34.579  33.064  28.324  1.00  0.00     0.060 A 
ATOM     33  C   UNL A   1      34.440  31.811  28.935  1.00  0.00     0.016 A 
ATOM     34  C   UNL A   1      35.849  33.590  28.077  1.00  0.00     0.016 A 
ATOM     35  C   UNL A   1      35.563  31.113  29.370  1.00  0.00     0.010 A 
ATOM     36  C   UNL A   1      36.977  32.883  28.516  1.00  0.00     0.010 A 
ATOM     37  C   UNL A   1      36.840  31.664  29.204  1.00  0.00    -0.014 A 
BRANCH  37  38
ATOM     38  C   UNL A   1      38.003  31.035  29.885  1.00  0.00     0.031 A 
ATOM     39  C   UNL A   1      38.332  31.446  31.299  1.00  0.00     0.074 A 
ATOM     40  C   UNL A   1      38.737  30.087  29.275  1.00  0.00     0.049 A 
ATOM     41  N   UNL A   1      39.289  31.021  32.085  1.00  0.00    -0.248 NA
ATOM     42  C   UNL A   1      37.459  32.459  31.916  1.00  0.00     0.031 C 
ATOM     43  C   UNL A   1      38.515  29.584  27.920  1.00  0.00     0.029 A 
ATOM     44  N   UNL A   1      39.843  29.397  29.708  1.00  0.00    -0.354 N 
ATOM     45  C   UNL A   1      39.134  31.712  33.281  1.00  0.00     0.074 A 
ATOM     46  C   UNL A   1      38.016  32.613  33.109  1.00  0.00     0.031 C 
ATOM     47  C   UNL A   1      39.490  28.712  27.609  1.00  0.00     0.029 A 
ATOM     48  C   UNL A   1      40.402  28.591  28.744  1.00  0.00     0.049 A 
ATOM     49  H   UNL A   1      40.202  29.473  30.622  1.00  0.00     0.167 HD
ATOM     50  C   UNL A   1      39.832  31.581  34.436  1.00  0.00     0.034 A 
ATOM     51  C   UNL A   1      41.527  27.848  28.770  1.00  0.00     0.034 A 
ATOM     52  C   UNL A   1      40.932  30.674  34.616  1.00  0.00     0.049 A 
ATOM     53  C   UNL A   1      42.316  27.760  30.051  1.00  0.00     0.074 A 
ATOM     54  C   UNL A   1      41.692  30.456  35.751  1.00  0.00     0.029 A 
ATOM     55  N   UNL A   1      41.430  29.832  33.635  1.00  0.00    -0.354 N 
ATOM     56  N   UNL A   1      42.081  28.329  31.209  1.00  0.00    -0.248 NA
ATOM     57  C   UNL A   1      43.492  26.878  30.048  1.00  0.00     0.031 C 
ATOM     58  C   UNL A   1      42.656  29.487  35.455  1.00  0.00     0.029 A 
ATOM     59  C   UNL A   1      42.482  29.087  34.139  1.00  0.00     0.049 A 
ATOM     60  H   UNL A   1      41.087  29.773  32.714  1.00  0.00     0.167 HD
ATOM     61  C   UNL A   1      43.036  27.824  32.084  1.00  0.00     0.074 A 
ATOM     62  C   UNL A   1      43.849  26.898  31.324  1.00  0.00     0.031 C 
ATOM     63  C   UNL A   1      43.229  28.108  33.396  1.00  0.00     0.034 A 
BRANCH  50  64
ATOM     64  C   UNL A   1      39.380  32.393  35.622  1.00  0.00     0.023 A 
ATOM     65  C   UNL A   1      38.510  31.804  36.564  1.00  0.00     0.012 A 
ATOM     66  C   UNL A   1      39.866  33.695  35.849  1.00  0.00     0.148 A 
ATOM     67  C   UNL A   1      38.112  32.506  37.700  1.00  0.00     0.002 A 
ATOM     68  C   UNL A   1      39.496  34.373  37.005  1.00  0.00     0.091 A 
ATOM     69  F   UNL A   1      40.678  34.243  34.934  1.00  0.00    -0.205 F 
ATOM     70  C   UNL A   1      38.614  33.784  37.926  1.00  0.00     0.022 A 
BRANCH  68  71
ATOM     71  S   UNL A   1      40.142  35.995  37.432  1.00  0.00     0.127 S 
ATOM     72  O   UNL A   1      41.571  35.715  37.578  1.00  0.00    -0.237 OA
ATOM     73  O   UNL A   1      39.795  36.784  36.250  1.00  0.00    -0.237 OA
ATOM     74  O   UNL A   1      39.458  36.394  38.653  1.00  0.00    -0.744 OA
ENDBRANCH  68  71
ENDBRANCH  50  64
BRANCH  51  75
ATOM     75  C   UNL A   1      41.946  27.071  27.569  1.00  0.00     0.023 A 
ATOM     76  C   UNL A   1      42.525  27.743  26.475  1.00  0.00     0.012 A 
ATOM     77  C   UNL A   1      41.760  25.677  27.496  1.00  0.00     0.148 A 
ATOM     78  C   UNL A   1      42.865  27.050  25.312  1.00  0.00     0.002 A 
ATOM     79  C   UNL A   1      42.151  24.984  26.354  1.00  0.00     0.091 A 
ATOM     80  F   UNL A   1      41.191  25.051  28.537  1.00  0.00    -0.205 F 
ATOM     81  C   UNL A   1      42.685  25.671  25.254  1.00  0.00     0.022 A 
BRANCH  79  82
ATOM     82  S   UNL A   1      42.077  23.192  26.257  1.00  0.00     0.127 S 
ATOM     83  O   UNL A   1      42.635  22.937  24.932  1.00  0.00    -0.237 OA
ATOM     84  O   UNL A   1      42.930  22.785  27.374  1.00  0.00    -0.237 OA
ATOM     85  O   UNL A   1      40.670  22.856  26.438  1.00  0.00    -0.744 OA
ENDBRANCH  79  82
ENDBRANCH  51  75
BRANCH  63  86
ATOM     86  C   UNL A   1      44.313  27.353  34.122  1.00  0.00     0.023 A 
ATOM     87  C   UNL A   1      45.531  27.990  34.431  1.00  0.00     0.012 A 
ATOM     88  C   UNL A   1      44.099  26.027  34.548  1.00  0.00     0.148 A 
ATOM     89  C   UNL A   1      46.535  27.305  35.114  1.00  0.00     0.002 A 
ATOM     90  C   UNL A   1      45.085  25.367  35.271  1.00  0.00     0.091 A 
ATOM     91  F   UNL A   1      42.942  25.429  34.228  1.00  0.00    -0.205 F 
ATOM     92  C   UNL A   1      46.309  25.999  35.543  1.00  0.00     0.022 A 
BRANCH  90  93
ATOM     93  S   UNL A   1      44.838  23.719  35.943  1.00  0.00     0.127 S 
ATOM     94  O   UNL A   1      45.885  22.959  35.264  1.00  0.00    -0.237 OA
ATOM     95  O   UNL A   1      45.064  23.925  37.374  1.00  0.00    -0.237 OA
ATOM     96  O   UNL A   1      43.469  23.353  35.599  1.00  0.00    -0.744 OA
ENDBRANCH  90  93
ENDBRANCH  63  86
ENDBRANCH  37  38
ENDBRANCH  30  32
ENDBRANCH  29  30
ENDBRANCH  28  29
ENDBRANCH  27  28
ENDBRANCH  26  27
ENDBRANCH   1  26
TORSDOF 21
ENDMDL
MODEL 2
REMARK VINA RESULT:     -10.8      3.243      4.978
REMARK SMILES O=C(CC[N@H+]1CCC[C@@H](C(=O)OCCOCCOC(=O)c2ccc(-c3c4nc(c(-c5cccc(S(=O)(=O)[O-])c5F)c5ccc([nH]5)c(-c5cccc(S(=O)(=O)[O-])c5F)c5nc(c(-c6cccc(S(=O)(=O)[O-])c6F)c6ccc3[nH]6)C=C5)C=C4)cc2)C1)Nc1cccc(F)c1
REMARK SMILES IDX 14 1 13 2 12 3 10 4 11 5 9 6 5 7 6 8 84 9 7 11 8 12 4 13
REMARK SMILES IDX 3 14 2 15 1 16 85 17 86 19 87 20 92 21 88 22 90 23 89 24
REMARK SMILES IDX 91 25 15 26 16 27 17 28 18 29 19 30 20 31 21 32 22 33 83 34
REMARK SMILES IDX 23 35 82 36 24 37 25 38 26 39 76 40 27 41 81 42 75 43 77 44
REMARK SMILES IDX 28 45 80 46 74 47 73 48 29 50 61 51 41 52 60 53 42 54 45 55
REMARK SMILES IDX 59 56 78 57 43 58 44 59 58 61 79 62 46 63 30 64 31 65 39 66
REMARK SMILES IDX 32 67 34 68 40 69 33 70 35 71 36 72 37 73 38 74 62 75 63 76
REMARK SMILES IDX 71 77 64 78 66 79 72 80 65 81 67 82 68 83 69 84 70 85 47 86
REMARK SMILES IDX 48 87 56 88 49 89 51 90 57 91 50 92 52 93 53 94 54 95 55 96
REMARK H PARENT 5 10 85 18 77 49 45 60
REMARK Flexibility Score: inf
ROOT
ATOM      1  C   UNL A   1      34.915  32.166  28.069  1.00  0.00     0.202 C 
ENDROOT
BRANCH   1   2
ATOM      2  C   UNL A   1      33.836  31.156  27.660  1.00  0.00     0.261 C 
BRANCH   2   3
ATOM      3  O   UNL A   1      34.415  29.958  27.109  1.00  0.00    -0.463 OA
BRANCH   3   4
ATOM      4  C   UNL A   1      33.602  28.874  26.988  1.00  0.00     0.314 C 
ATOM      5  O   UNL A   1      32.687  28.588  27.749  1.00  0.00    -0.252 OA
BRANCH   4   6
ATOM      6  C   UNL A   1      33.983  28.007  25.797  1.00  0.00     0.154 C 
ATOM      7  N   UNL A   1      33.413  25.819  24.633  1.00  0.00    -0.334 N 
ATOM      8  C   UNL A   1      33.338  26.502  23.346  1.00  0.00     0.262 C 
ATOM      9  C   UNL A   1      33.374  26.597  25.868  1.00  0.00     0.277 C 
ATOM     10  H   UNL A   1      34.413  25.626  24.684  1.00  0.00     0.348 HD
ATOM     11  C   UNL A   1      34.018  27.869  23.321  1.00  0.00     0.062 C 
ATOM     12  C   UNL A   1      33.607  28.724  24.508  1.00  0.00     0.027 C 
BRANCH   7  13
ATOM     13  C   UNL A   1      32.789  24.483  24.648  1.00  0.00     0.272 C 
BRANCH  13  14
ATOM     14  C   UNL A   1      31.534  24.222  25.498  1.00  0.00     0.161 C 
BRANCH  14  15
ATOM     15  C   UNL A   1      30.382  25.221  25.427  1.00  0.00     0.230 C 
ATOM     16  O   UNL A   1      29.911  25.675  26.466  1.00  0.00    -0.275 OA
ATOM     17  N   UNL A   1      30.048  25.614  24.152  1.00  0.00    -0.326 N 
ATOM     18  H   UNL A   1      30.416  25.058  23.427  1.00  0.00     0.169 HD
BRANCH  17  19
ATOM     19  C   UNL A   1      29.253  26.699  23.739  1.00  0.00     0.044 A 
ATOM     20  C   UNL A   1      29.907  27.780  23.128  1.00  0.00     0.026 A 
ATOM     21  C   UNL A   1      27.883  26.774  23.947  1.00  0.00     0.065 A 
ATOM     22  C   UNL A   1      29.207  28.930  22.755  1.00  0.00     0.005 A 
ATOM     23  C   UNL A   1      27.191  27.920  23.564  1.00  0.00     0.125 A 
ATOM     24  C   UNL A   1      27.838  29.002  22.981  1.00  0.00     0.039 A 
ATOM     25  F   UNL A   1      25.871  27.972  23.771  1.00  0.00    -0.207 F 
ENDBRANCH  17  19
ENDBRANCH  14  15
ENDBRANCH  13  14
ENDBRANCH   7  13
ENDBRANCH   4   6
ENDBRANCH   3   4
ENDBRANCH   2   3
ENDBRANCH   1   2
BRANCH   1  26
ATOM     26  O   UNL A   1      34.474  33.202  28.951  1.00  0.00    -0.374 OA
BRANCH  26  27
ATOM     27  C   UNL A   1      33.572  34.156  28.395  1.00  0.00     0.202 C 
BRANCH  27  28
ATOM     28  C   UNL A   1      33.204  35.343  29.293  1.00  0.00     0.261 C 
BRANCH  28  29
ATOM     29  O   UNL A   1      32.477  34.926  30.461  1.00  0.00    -0.460 OA
BRANCH  29  30
ATOM     30  C   UNL A   1      32.811  35.598  31.589  1.00  0.00     0.338 C 
ATOM     31  O   UNL A   1      32.229  36.572  32.056  1.00  0.00    -0.246 OA
BRANCH  30  32
ATOM     32  C   UNL A   1      33.900  34.919  32.315  1.00  0.00     0.060 A 
ATOM     33  C   UNL A   1      35.127  35.590  32.392  1.00  0.00     0.016 A 
ATOM     34  C   UNL A   1      33.770  33.628  32.831  1.00  0.00     0.016 A 
ATOM     35  C   UNL A   1      36.247  34.949  32.915  1.00  0.00     0.010 A 
ATOM     36  C   UNL A   1      34.900  32.986  33.358  1.00  0.00     0.010 A 
ATOM     37  C   UNL A   1      36.154  33.625  33.362  1.00  0.00    -0.014 A 
BRANCH  37  38
ATOM     38  C   UNL A   1      37.395  32.872  33.686  1.00  0.00     0.031 A 
ATOM     39  C   UNL A   1      38.226  33.305  34.868  1.00  0.00     0.074 A 
ATOM     40  C   UNL A   1      37.763  31.796  32.966  1.00  0.00     0.049 A 
ATOM     41  N   UNL A   1      39.333  32.789  35.337  1.00  0.00    -0.248 NA
ATOM     42  C   UNL A   1      37.738  34.466  35.633  1.00  0.00     0.031 C 
ATOM     43  C   UNL A   1      37.040  31.260  31.813  1.00  0.00     0.029 A 
ATOM     44  N   UNL A   1      38.859  30.978  33.081  1.00  0.00    -0.354 N 
ATOM     45  C   UNL A   1      39.672  33.557  36.445  1.00  0.00     0.074 A 
ATOM     46  C   UNL A   1      38.678  34.600  36.558  1.00  0.00     0.031 C 
ATOM     47  C   UNL A   1      37.743  30.240  31.289  1.00  0.00     0.029 A 
ATOM     48  C   UNL A   1      38.961  30.049  32.071  1.00  0.00     0.049 A 
ATOM     49  H   UNL A   1      39.511  31.049  33.816  1.00  0.00     0.167 HD
ATOM     50  C   UNL A   1      40.697  33.388  37.316  1.00  0.00     0.034 A 
ATOM     51  C   UNL A   1      39.933  29.154  31.802  1.00  0.00     0.034 A 
ATOM     52  C   UNL A   1      41.677  32.341  37.216  1.00  0.00     0.049 A 
ATOM     53  C   UNL A   1      41.090  29.020  32.759  1.00  0.00     0.074 A 
ATOM     54  C   UNL A   1      42.743  32.076  38.058  1.00  0.00     0.029 A 
ATOM     55  N   UNL A   1      41.713  31.386  36.214  1.00  0.00    -0.354 N 
ATOM     56  N   UNL A   1      41.327  29.678  33.868  1.00  0.00    -0.248 NA
ATOM     57  C   UNL A   1      42.083  27.978  32.459  1.00  0.00     0.031 C 
ATOM     58  C   UNL A   1      43.429  30.963  37.560  1.00  0.00     0.029 A 
ATOM     59  C   UNL A   1      42.777  30.524  36.419  1.00  0.00     0.049 A 
ATOM     60  H   UNL A   1      41.076  31.328  35.466  1.00  0.00     0.167 HD
ATOM     61  C   UNL A   1      42.454  29.087  34.429  1.00  0.00     0.074 A 
ATOM     62  C   UNL A   1      42.848  28.014  33.541  1.00  0.00     0.031 C 
ATOM     63  C   UNL A   1      43.109  29.408  35.573  1.00  0.00     0.034 A 
BRANCH  50  64
ATOM     64  C   UNL A   1      40.770  34.318  38.499  1.00  0.00     0.023 A 
ATOM     65  C   UNL A   1      41.655  35.416  38.452  1.00  0.00     0.012 A 
ATOM     66  C   UNL A   1      39.923  34.160  39.612  1.00  0.00     0.148 A 
ATOM     67  C   UNL A   1      41.713  36.328  39.505  1.00  0.00     0.002 A 
ATOM     68  C   UNL A   1      39.958  35.095  40.640  1.00  0.00     0.091 A 
ATOM     69  F   UNL A   1      39.101  33.101  39.644  1.00  0.00    -0.205 F 
ATOM     70  C   UNL A   1      40.858  36.174  40.592  1.00  0.00     0.022 A 
BRANCH  68  71
ATOM     71  S   UNL A   1      38.849  35.034  42.052  1.00  0.00     0.127 S 
ATOM     72  O   UNL A   1      39.269  33.794  42.705  1.00  0.00    -0.237 OA
ATOM     73  O   UNL A   1      39.205  36.254  42.776  1.00  0.00    -0.237 OA
ATOM     74  O   UNL A   1      37.499  35.021  41.506  1.00  0.00    -0.744 OA
ENDBRANCH  68  71
ENDBRANCH  50  64
BRANCH  51  75
ATOM     75  C   UNL A   1      39.829  28.261  30.613  1.00  0.00     0.023 A 
ATOM     76  C   UNL A   1      38.966  27.149  30.654  1.00  0.00     0.012 A 
ATOM     77  C   UNL A   1      40.588  28.496  29.450  1.00  0.00     0.148 A 
ATOM     78  C   UNL A   1      38.899  26.259  29.581  1.00  0.00     0.002 A 
ATOM     79  C   UNL A   1      40.475  27.636  28.362  1.00  0.00     0.091 A 
ATOM     80  F   UNL A   1      41.418  29.549  29.429  1.00  0.00    -0.205 F 
ATOM     81  C   UNL A   1      39.647  26.505  28.434  1.00  0.00     0.022 A 
BRANCH  79  82
ATOM     82  S   UNL A   1      41.302  27.962  26.801  1.00  0.00     0.127 S 
ATOM     83  O   UNL A   1      42.700  28.046  27.212  1.00  0.00    -0.237 OA
ATOM     84  O   UNL A   1      40.960  26.775  26.015  1.00  0.00    -0.237 OA
ATOM     85  O   UNL A   1      40.703  29.193  26.299  1.00  0.00    -0.744 OA
ENDBRANCH  79  82
ENDBRANCH  51  75
BRANCH  63  86
ATOM     86  C   UNL A   1      44.275  28.544  35.977  1.00  0.00     0.023 A 
ATOM     87  C   UNL A   1      45.569  28.839  35.504  1.00  0.00     0.012 A 
ATOM     88  C   UNL A   1      44.095  27.472  36.874  1.00  0.00     0.148 A 
ATOM     89  C   UNL A   1      46.657  28.054  35.882  1.00  0.00     0.002 A 
ATOM     90  C   UNL A   1      45.191  26.725  37.284  1.00  0.00     0.091 A 
ATOM     91  F   UNL A   1      42.853  27.193  37.298  1.00  0.00    -0.205 F 
ATOM     92  C   UNL A   1      46.471  27.005  36.779  1.00  0.00     0.022 A 
BRANCH  90  93
ATOM     93  S   UNL A   1      45.053  25.418  38.510  1.00  0.00     0.127 S 
ATOM     94  O   UNL A   1      44.264  24.418  37.794  1.00  0.00    -0.237 OA
ATOM     95  O   UNL A   1      46.451  25.046  38.733  1.00  0.00    -0.237 OA
ATOM     96  O   UNL A   1      44.404  26.026  39.665  1.00  0.00    -0.744 OA
ENDBRANCH  90  93
ENDBRANCH  63  86
ENDBRANCH  37  38
ENDBRANCH  30  32
ENDBRANCH  29  30
ENDBRANCH  28  29
ENDBRANCH  27  28
ENDBRANCH  26  27
ENDBRANCH   1  26
TORSDOF 21
ENDMDL
MODEL 3
REMARK VINA RESULT:     -10.6      3.166      5.203
REMARK SMILES O=C(CC[N@H+]1CCC[C@@H](C(=O)OCCOCCOC(=O)c2ccc(-c3c4nc(c(-c5cccc(S(=O)(=O)[O-])c5F)c5ccc([nH]5)c(-c5cccc(S(=O)(=O)[O-])c5F)c5nc(c(-c6cccc(S(=O)(=O)[O-])c6F)c6ccc3[nH]6)C=C5)C=C4)cc2)C1)Nc1cccc(F)c1
REMARK SMILES IDX 14 1 13 2 12 3 10 4 11 5 9 6 5 7 6 8 84 9 7 11 8 12 4 13
REMARK SMILES IDX 3 14 2 15 1 16 85 17 86 19 87 20 92 21 88 22 90 23 89 24
REMARK SMILES IDX 91 25 15 26 16 27 17 28 18 29 19 30 20 31 21 32 22 33 83 34
REMARK SMILES IDX 23 35 82 36 24 37 25 38 26 39 76 40 27 41 81 42 75 43 77 44
REMARK SMILES IDX 28 45 80 46 74 47 73 48 29 50 61 51 41 52 60 53 42 54 45 55
REMARK SMILES IDX 59 56 78 57 43 58 44 59 58 61 79 62 46 63 30 64 31 65 39 66
REMARK SMILES IDX 32 67 34 68 40 69 33 70 35 71 36 72 37 73 38 74 62 75 63 76
REMARK SMILES IDX 71 77 64 78 66 79 72 80 65 81 67 82 68 83 69 84 70 85 47 86
REMARK SMILES IDX 48 87 56 88 49 89 51 90 57 91 50 92 52 93 53 94 54 95 55 96
REMARK H PARENT 5 10 85 18 77 49 45 60
REMARK Flexibility Score: inf
ROOT
ATOM      1  C   UNL A   1      31.424  27.043  25.696  1.00  0.00     0.202 C 
ENDROOT
BRANCH   1   2
ATOM      2  C   UNL A   1      31.216  26.291  27.016  1.00  0.00     0.261 C 
BRANCH   2   3
ATOM      3  O   UNL A   1      31.778  24.965  26.963  1.00  0.00    -0.463 OA
BRANCH   3   4
ATOM      4  C   UNL A   1      30.942  23.950  26.613  1.00  0.00     0.314 C 
ATOM      5  O   UNL A   1      29.870  23.702  27.147  1.00  0.00    -0.252 OA
BRANCH   4   6
ATOM      6  C   UNL A   1      31.514  23.108  25.482  1.00  0.00     0.154 C 
ATOM      7  N   UNL A   1      32.597  23.284  23.188  1.00  0.00    -0.334 N 
ATOM      8  C   UNL A   1      33.658  22.370  23.599  1.00  0.00     0.262 C 
ATOM      9  C   UNL A   1      31.759  23.921  24.201  1.00  0.00     0.277 C 
ATOM     10  H   UNL A   1      31.883  22.619  22.890  1.00  0.00     0.348 HD
ATOM     11  C   UNL A   1      33.328  21.544  24.840  1.00  0.00     0.062 C 
ATOM     12  C   UNL A   1      32.777  22.408  25.962  1.00  0.00     0.027 C 
BRANCH   7  13
ATOM     13  C   UNL A   1      32.899  24.055  21.968  1.00  0.00     0.272 C 
BRANCH  13  14
ATOM     14  C   UNL A   1      33.029  25.586  22.031  1.00  0.00     0.161 C 
BRANCH  14  15
ATOM     15  C   UNL A   1      31.865  26.439  21.534  1.00  0.00     0.230 C 
ATOM     16  O   UNL A   1      31.293  26.135  20.491  1.00  0.00    -0.275 OA
ATOM     17  N   UNL A   1      31.485  27.441  22.398  1.00  0.00    -0.326 N 
ATOM     18  H   UNL A   1      32.126  27.646  23.117  1.00  0.00     0.169 HD
BRANCH  17  19
ATOM     19  C   UNL A   1      30.309  28.213  22.396  1.00  0.00     0.044 A 
ATOM     20  C   UNL A   1      30.378  29.487  21.810  1.00  0.00     0.026 A 
ATOM     21  C   UNL A   1      29.117  27.805  22.978  1.00  0.00     0.065 A 
ATOM     22  C   UNL A   1      29.279  30.351  21.829  1.00  0.00     0.005 A 
ATOM     23  C   UNL A   1      28.025  28.668  22.985  1.00  0.00     0.125 A 
ATOM     24  C   UNL A   1      28.095  29.938  22.428  1.00  0.00     0.039 A 
ATOM     25  F   UNL A   1      26.884  28.256  23.548  1.00  0.00    -0.207 F 
ENDBRANCH  17  19
ENDBRANCH  14  15
ENDBRANCH  13  14
ENDBRANCH   7  13
ENDBRANCH   4   6
ENDBRANCH   3   4
ENDBRANCH   2   3
ENDBRANCH   1   2
BRANCH   1  26
ATOM     26  O   UNL A   1      32.786  27.177  25.280  1.00  0.00    -0.374 OA
BRANCH  26  27
ATOM     27  C   UNL A   1      33.170  28.463  24.797  1.00  0.00     0.202 C 
BRANCH  27  28
ATOM     28  C   UNL A   1      33.272  29.575  25.847  1.00  0.00     0.261 C 
BRANCH  28  29
ATOM     29  O   UNL A   1      34.246  29.271  26.859  1.00  0.00    -0.460 OA
BRANCH  29  30
ATOM     30  C   UNL A   1      34.555  30.317  27.662  1.00  0.00     0.338 C 
ATOM     31  O   UNL A   1      33.836  31.278  27.917  1.00  0.00    -0.246 OA
BRANCH  30  32
ATOM     32  C   UNL A   1      35.840  30.102  28.352  1.00  0.00     0.060 A 
ATOM     33  C   UNL A   1      37.006  30.345  27.614  1.00  0.00     0.016 A 
ATOM     34  C   UNL A   1      35.922  29.590  29.649  1.00  0.00     0.016 A 
ATOM     35  C   UNL A   1      38.252  30.010  28.138  1.00  0.00     0.010 A 
ATOM     36  C   UNL A   1      37.178  29.255  30.173  1.00  0.00     0.010 A 
ATOM     37  C   UNL A   1      38.346  29.420  29.405  1.00  0.00    -0.014 A 
BRANCH  37  38
ATOM     38  C   UNL A   1      39.642  28.843  29.851  1.00  0.00     0.031 A 
ATOM     39  C   UNL A   1      40.358  29.470  31.022  1.00  0.00     0.074 A 
ATOM     40  C   UNL A   1      40.162  27.756  29.252  1.00  0.00     0.049 A 
ATOM     41  N   UNL A   1      41.488  29.125  31.584  1.00  0.00    -0.248 NA
ATOM     42  C   UNL A   1      39.707  30.632  31.653  1.00  0.00     0.031 C 
ATOM     43  C   UNL A   1      39.563  27.042  28.125  1.00  0.00     0.029 A 
ATOM     44  N   UNL A   1      41.333  27.079  29.490  1.00  0.00    -0.354 N 
ATOM     45  C   UNL A   1      41.682  30.022  32.628  1.00  0.00     0.074 A 
ATOM     46  C   UNL A   1      40.576  30.952  32.601  1.00  0.00     0.031 C 
ATOM     47  C   UNL A   1      40.399  26.065  27.730  1.00  0.00     0.029 A 
ATOM     48  C   UNL A   1      41.588  26.082  28.578  1.00  0.00     0.049 A 
ATOM     49  H   UNL A   1      41.933  27.288  30.242  1.00  0.00     0.167 HD
ATOM     50  C   UNL A   1      42.672  30.047  33.555  1.00  0.00     0.034 A 
ATOM     51  C   UNL A   1      42.664  25.282  28.436  1.00  0.00     0.034 A 
ATOM     52  C   UNL A   1      43.764  29.113  33.596  1.00  0.00     0.049 A 
ATOM     53  C   UNL A   1      43.776  25.365  29.450  1.00  0.00     0.074 A 
ATOM     54  C   UNL A   1      44.806  29.046  34.504  1.00  0.00     0.029 A 
ATOM     55  N   UNL A   1      43.956  28.083  32.690  1.00  0.00    -0.354 N 
ATOM     56  N   UNL A   1      43.882  26.141  30.501  1.00  0.00    -0.248 NA
ATOM     57  C   UNL A   1      44.891  24.419  29.292  1.00  0.00     0.031 C 
ATOM     58  C   UNL A   1      45.633  27.977  34.143  1.00  0.00     0.029 A 
ATOM     59  C   UNL A   1      45.094  27.368  33.021  1.00  0.00     0.049 A 
ATOM     60  H   UNL A   1      43.369  27.887  31.924  1.00  0.00     0.167 HD
ATOM     61  C   UNL A   1      45.034  25.733  31.163  1.00  0.00     0.074 A 
ATOM     62  C   UNL A   1      45.588  24.636  30.398  1.00  0.00     0.031 C 
ATOM     63  C   UNL A   1      45.589  26.226  32.299  1.00  0.00     0.034 A 
BRANCH  50  64
ATOM     64  C   UNL A   1      42.581  31.081  34.647  1.00  0.00     0.023 A 
ATOM     65  C   UNL A   1      41.976  30.731  35.872  1.00  0.00     0.012 A 
ATOM     66  C   UNL A   1      43.153  32.359  34.498  1.00  0.00     0.148 A 
ATOM     67  C   UNL A   1      41.920  31.645  36.924  1.00  0.00     0.002 A 
ATOM     68  C   UNL A   1      43.128  33.250  35.565  1.00  0.00     0.091 A 
ATOM     69  F   UNL A   1      43.709  32.678  33.320  1.00  0.00    -0.205 F 
ATOM     70  C   UNL A   1      42.505  32.898  36.774  1.00  0.00     0.022 A 
BRANCH  68  71
ATOM     71  S   UNL A   1      43.918  34.863  35.505  1.00  0.00     0.127 S 
ATOM     72  O   UNL A   1      45.306  34.503  35.212  1.00  0.00    -0.237 OA
ATOM     73  O   UNL A   1      43.212  35.511  34.399  1.00  0.00    -0.237 OA
ATOM     74  O   UNL A   1      43.696  35.471  36.809  1.00  0.00    -0.744 OA
ENDBRANCH  68  71
ENDBRANCH  50  64
BRANCH  51  75
ATOM     75  C   UNL A   1      42.720  24.281  27.332  1.00  0.00     0.023 A 
ATOM     76  C   UNL A   1      43.385  24.606  26.134  1.00  0.00     0.012 A 
ATOM     77  C   UNL A   1      42.106  23.020  27.454  1.00  0.00     0.148 A 
ATOM     78  C   UNL A   1      43.396  23.715  25.061  1.00  0.00     0.002 A 
ATOM     79  C   UNL A   1      42.167  22.114  26.399  1.00  0.00     0.091 A 
ATOM     80  F   UNL A   1      41.460  22.729  28.593  1.00  0.00    -0.205 F 
ATOM     81  C   UNL A   1      42.793  22.468  25.194  1.00  0.00     0.022 A 
BRANCH  79  82
ATOM     82  S   UNL A   1      41.533  20.440  26.545  1.00  0.00     0.127 S 
ATOM     83  O   UNL A   1      40.090  20.657  26.494  1.00  0.00    -0.237 OA
ATOM     84  O   UNL A   1      42.101  19.789  25.363  1.00  0.00    -0.237 OA
ATOM     85  O   UNL A   1      42.064  19.937  27.807  1.00  0.00    -0.744 OA
ENDBRANCH  79  82
ENDBRANCH  51  75
BRANCH  63  86
ATOM     86  C   UNL A   1      46.819  25.538  32.832  1.00  0.00     0.023 A 
ATOM     87  C   UNL A   1      46.701  24.576  33.855  1.00  0.00     0.012 A 
ATOM     88  C   UNL A   1      48.086  25.806  32.278  1.00  0.00     0.148 A 
ATOM     89  C   UNL A   1      47.830  23.924  34.347  1.00  0.00     0.002 A 
ATOM     90  C   UNL A   1      49.201  25.117  32.740  1.00  0.00     0.091 A 
ATOM     91  F   UNL A   1      48.183  26.740  31.320  1.00  0.00    -0.205 F 
ATOM     92  C   UNL A   1      49.077  24.185  33.783  1.00  0.00     0.022 A 
BRANCH  90  93
ATOM     93  S   UNL A   1      50.826  25.325  32.004  1.00  0.00     0.127 S 
ATOM     94  O   UNL A   1      51.637  24.408  32.803  1.00  0.00    -0.237 OA
ATOM     95  O   UNL A   1      50.604  24.895  30.622  1.00  0.00    -0.237 OA
ATOM     96  O   UNL A   1      51.148  26.739  32.147  1.00  0.00    -0.744 OA
ENDBRANCH  90  93
ENDBRANCH  63  86
ENDBRANCH  37  38
ENDBRANCH  30  32
ENDBRANCH  29  30
ENDBRANCH  28  29
ENDBRANCH  27  28
ENDBRANCH  26  27
ENDBRANCH   1  26
TORSDOF 21
ENDMDL
