MODEL 1
REMARK VINA RESULT:     -11.4      0.000      0.000
REMARK SMILES Cc1ccc(C(=O)OCCOCCOC(=O)c2ccc(-c3c4nc(c(-c5cccc(S(=O)(=O)[O-])c5F)c5ccc([nH]5)c(-c5cccc(S(=O)(=O)[O-])c5F)c5nc(c(-c6cccc(S(=O)(=O)[O-])c6F)c6ccc3[nH]6)C=C5)C=C4)cc2)c(Oc2cccc(F)c2C(N)=O)c1
REMARK SMILES IDX 11 1 10 2 9 3 8 4 6 5 7 6 5 7 1 8 2 9 3 10 92 11 4 12 80 13
REMARK SMILES IDX 81 14 82 15 83 16 88 17 84 18 86 19 85 20 87 21 89 22 90 23
REMARK SMILES IDX 91 24 12 27 13 28 14 29 15 30 16 31 17 32 18 33 79 34 19 35
REMARK SMILES IDX 78 36 20 37 21 38 22 39 72 40 23 41 77 42 71 43 73 44 24 45
REMARK SMILES IDX 76 46 70 47 69 48 25 50 57 51 37 52 56 53 38 54 41 55 55 56
REMARK SMILES IDX 74 57 39 58 40 59 54 61 75 62 42 63 26 64 27 65 35 66 28 67
REMARK SMILES IDX 30 68 36 69 29 70 31 71 32 72 33 73 34 74 58 75 59 76 67 77
REMARK SMILES IDX 60 78 62 79 68 80 61 81 63 82 64 83 65 84 66 85 43 86 44 87
REMARK SMILES IDX 52 88 45 89 47 90 53 91 46 92 48 93 49 94 50 95 51 96
REMARK H PARENT 90 25 90 26 73 49 41 60
REMARK Flexibility Score: inf
ROOT
ATOM      1  O   UNL A   1      33.335  29.099  25.842  1.00  0.00    -0.374 OA
ENDROOT
BRANCH   1   2
ATOM      2  C   UNL A   1      33.723  28.171  24.871  1.00  0.00     0.202 C 
BRANCH   2   3
ATOM      3  C   UNL A   1      33.278  26.691  25.051  1.00  0.00     0.261 C 
BRANCH   3   4
ATOM      4  O   UNL A   1      34.276  25.827  25.522  1.00  0.00    -0.460 OA
BRANCH   4   5
ATOM      5  C   UNL A   1      33.737  24.615  25.752  1.00  0.00     0.342 C 
ATOM      6  O   UNL A   1      32.555  24.316  25.800  1.00  0.00    -0.246 OA
BRANCH   5   7
ATOM      7  C   UNL A   1      34.806  23.667  25.514  1.00  0.00     0.102 A 
ATOM      8  C   UNL A   1      38.335  21.335  25.576  1.00  0.00     0.044 C 
ATOM      9  C   UNL A   1      37.086  22.145  25.487  1.00  0.00    -0.047 A 
ATOM     10  C   UNL A   1      37.191  23.537  25.529  1.00  0.00     0.004 A 
ATOM     11  C   UNL A   1      35.832  21.516  25.428  1.00  0.00     0.051 A 
ATOM     12  C   UNL A   1      36.050  24.300  25.513  1.00  0.00     0.020 A 
ATOM     13  C   UNL A   1      34.664  22.267  25.493  1.00  0.00     0.142 A 
BRANCH  13  14
ATOM     14  O   UNL A   1      33.404  21.715  25.635  1.00  0.00    -0.455 OA
BRANCH  14  15
ATOM     15  C   UNL A   1      32.936  20.809  24.703  1.00  0.00     0.143 A 
ATOM     16  C   UNL A   1      32.915  19.470  25.122  1.00  0.00     0.048 A 
ATOM     17  C   UNL A   1      32.587  21.130  23.377  1.00  0.00     0.117 A 
ATOM     18  C   UNL A   1      32.556  18.448  24.242  1.00  0.00     0.007 A 
ATOM     19  C   UNL A   1      32.212  20.089  22.513  1.00  0.00     0.139 A 
ATOM     20  C   UNL A   1      32.202  18.760  22.935  1.00  0.00     0.040 A 
ATOM     21  F   UNL A   1      31.868  20.324  21.238  1.00  0.00    -0.206 F 
BRANCH  17  22
ATOM     22  C   UNL A   1      32.519  22.510  22.837  1.00  0.00     0.255 C 
ATOM     23  N   UNL A   1      31.357  23.202  22.992  1.00  0.00    -0.365 N 
ATOM     24  O   UNL A   1      33.457  23.028  22.241  1.00  0.00    -0.269 OA
ATOM     25  H   UNL A   1      30.600  22.792  23.469  1.00  0.00     0.159 HD
ATOM     26  H   UNL A   1      31.274  24.113  22.628  1.00  0.00     0.159 HD
ENDBRANCH  17  22
ENDBRANCH  14  15
ENDBRANCH  13  14
ENDBRANCH   5   7
ENDBRANCH   4   5
ENDBRANCH   3   4
ENDBRANCH   2   3
ENDBRANCH   1   2
BRANCH   1  27
ATOM     27  C   UNL A   1      33.987  28.813  27.046  1.00  0.00     0.202 C 
BRANCH  27  28
ATOM     28  C   UNL A   1      35.282  29.603  27.479  1.00  0.00     0.261 C 
BRANCH  28  29
ATOM     29  O   UNL A   1      35.490  31.124  27.859  1.00  0.00    -0.460 OA
BRANCH  29  30
ATOM     30  C   UNL A   1      35.741  32.424  28.195  1.00  0.00     0.338 C 
ATOM     31  O   UNL A   1      35.440  33.281  27.364  1.00  0.00    -0.246 OA
BRANCH  30  32
ATOM     32  C   UNL A   1      36.468  32.927  29.456  1.00  0.00     0.060 A 
ATOM     33  C   UNL A   1      37.529  33.833  29.405  1.00  0.00     0.016 A 
ATOM     34  C   UNL A   1      36.308  32.413  30.708  1.00  0.00     0.016 A 
ATOM     35  C   UNL A   1      38.702  33.594  30.165  1.00  0.00     0.010 A 
ATOM     36  C   UNL A   1      37.482  32.028  31.346  1.00  0.00     0.010 A 
ATOM     37  C   UNL A   1      38.738  32.439  30.888  1.00  0.00    -0.014 A 
BRANCH  37  38
ATOM     38  C   UNL A   1      39.897  31.594  31.257  1.00  0.00     0.031 A 
ATOM     39  C   UNL A   1      39.999  30.336  30.464  1.00  0.00     0.074 A 
ATOM     40  C   UNL A   1      40.957  32.064  32.001  1.00  0.00     0.049 A 
ATOM     41  N   UNL A   1      40.768  29.340  30.722  1.00  0.00    -0.248 NA
ATOM     42  C   UNL A   1      39.141  30.061  29.300  1.00  0.00     0.031 C 
ATOM     43  C   UNL A   1      42.371  31.644  31.876  1.00  0.00     0.029 A 
ATOM     44  N   UNL A   1      41.084  33.099  32.935  1.00  0.00    -0.354 N 
ATOM     45  C   UNL A   1      40.802  28.563  29.575  1.00  0.00     0.074 A 
ATOM     46  C   UNL A   1      39.632  28.916  28.839  1.00  0.00     0.031 C 
ATOM     47  C   UNL A   1      43.140  32.261  32.797  1.00  0.00     0.029 A 
ATOM     48  C   UNL A   1      42.253  32.967  33.703  1.00  0.00     0.049 A 
ATOM     49  H   UNL A   1      40.434  33.831  33.040  1.00  0.00     0.167 HD
ATOM     50  C   UNL A   1      41.939  27.880  29.277  1.00  0.00     0.034 A 
ATOM     51  C   UNL A   1      42.259  32.737  35.059  1.00  0.00     0.034 A 
ATOM     52  C   UNL A   1      42.896  28.035  30.390  1.00  0.00     0.049 A 
ATOM     53  C   UNL A   1      42.540  31.258  35.350  1.00  0.00     0.074 A 
ATOM     54  C   UNL A   1      44.069  28.756  30.540  1.00  0.00     0.029 A 
ATOM     55  N   UNL A   1      42.490  27.692  31.680  1.00  0.00    -0.354 N 
ATOM     56  N   UNL A   1      42.678  30.378  34.395  1.00  0.00    -0.248 NA
ATOM     57  C   UNL A   1      42.753  30.643  36.661  1.00  0.00     0.031 C 
ATOM     58  C   UNL A   1      44.305  28.917  31.940  1.00  0.00     0.029 A 
ATOM     59  C   UNL A   1      43.294  28.279  32.644  1.00  0.00     0.049 A 
ATOM     60  H   UNL A   1      41.726  27.103  31.880  1.00  0.00     0.167 HD
ATOM     61  C   UNL A   1      42.918  29.137  34.884  1.00  0.00     0.074 A 
ATOM     62  C   UNL A   1      42.978  29.356  36.322  1.00  0.00     0.031 C 
ATOM     63  C   UNL A   1      43.023  28.045  34.066  1.00  0.00     0.034 A 
BRANCH  50  64
ATOM     64  C   UNL A   1      42.315  27.271  27.923  1.00  0.00     0.023 A 
ATOM     65  C   UNL A   1      42.030  28.070  26.792  1.00  0.00     0.012 A 
ATOM     66  C   UNL A   1      42.873  25.992  27.631  1.00  0.00     0.148 A 
ATOM     67  C   UNL A   1      42.256  27.644  25.478  1.00  0.00     0.002 A 
ATOM     68  C   UNL A   1      43.137  25.578  26.316  1.00  0.00     0.091 A 
ATOM     69  F   UNL A   1      43.129  25.121  28.605  1.00  0.00    -0.205 F 
ATOM     70  C   UNL A   1      42.817  26.401  25.237  1.00  0.00     0.022 A 
BRANCH  68  71
ATOM     71  S   UNL A   1      43.896  23.988  25.904  1.00  0.00     0.127 S 
ATOM     72  O   UNL A   1      43.035  23.501  24.826  1.00  0.00    -0.237 OA
ATOM     73  O   UNL A   1      45.236  24.386  25.473  1.00  0.00    -0.237 OA
ATOM     74  O   UNL A   1      43.863  23.180  27.118  1.00  0.00    -0.744 OA
ENDBRANCH  68  71
ENDBRANCH  50  64
BRANCH  51  75
ATOM     75  C   UNL A   1      41.367  33.670  35.812  1.00  0.00     0.023 A 
ATOM     76  C   UNL A   1      41.656  35.057  35.669  1.00  0.00     0.012 A 
ATOM     77  C   UNL A   1      40.059  33.288  36.097  1.00  0.00     0.148 A 
ATOM     78  C   UNL A   1      40.651  36.016  35.566  1.00  0.00     0.002 A 
ATOM     79  C   UNL A   1      39.055  34.237  35.928  1.00  0.00     0.091 A 
ATOM     80  F   UNL A   1      39.793  31.991  36.295  1.00  0.00    -0.205 F 
ATOM     81  C   UNL A   1      39.342  35.598  35.666  1.00  0.00     0.022 A 
BRANCH  79  82
ATOM     82  S   UNL A   1      37.570  33.716  35.083  1.00  0.00     0.127 S 
ATOM     83  O   UNL A   1      37.994  32.577  34.279  1.00  0.00    -0.237 OA
ATOM     84  O   UNL A   1      36.848  33.373  36.303  1.00  0.00    -0.237 OA
ATOM     85  O   UNL A   1      37.077  34.864  34.339  1.00  0.00    -0.744 OA
ENDBRANCH  79  82
ENDBRANCH  51  75
BRANCH  63  86
ATOM     86  C   UNL A   1      42.896  26.624  34.559  1.00  0.00     0.023 A 
ATOM     87  C   UNL A   1      41.716  26.157  35.168  1.00  0.00     0.012 A 
ATOM     88  C   UNL A   1      43.900  25.663  34.284  1.00  0.00     0.148 A 
ATOM     89  C   UNL A   1      41.584  24.835  35.593  1.00  0.00     0.002 A 
ATOM     90  C   UNL A   1      43.700  24.320  34.570  1.00  0.00     0.091 A 
ATOM     91  F   UNL A   1      45.074  26.042  33.759  1.00  0.00    -0.205 F 
ATOM     92  C   UNL A   1      42.569  23.911  35.276  1.00  0.00     0.022 A 
BRANCH  90  93
ATOM     93  S   UNL A   1      44.797  23.050  33.929  1.00  0.00     0.127 S 
ATOM     94  O   UNL A   1      44.214  21.841  34.506  1.00  0.00    -0.237 OA
ATOM     95  O   UNL A   1      44.612  23.191  32.484  1.00  0.00    -0.237 OA
ATOM     96  O   UNL A   1      46.129  23.402  34.400  1.00  0.00    -0.744 OA
ENDBRANCH  90  93
ENDBRANCH  63  86
ENDBRANCH  37  38
ENDBRANCH  30  32
ENDBRANCH  29  30
ENDBRANCH  28  29
ENDBRANCH  27  28
ENDBRANCH   1  27
TORSDOF 20
ENDMDL
MODEL 2
REMARK VINA RESULT:     -10.9      4.822      8.073
REMARK SMILES Cc1ccc(C(=O)OCCOCCOC(=O)c2ccc(-c3c4nc(c(-c5cccc(S(=O)(=O)[O-])c5F)c5ccc([nH]5)c(-c5cccc(S(=O)(=O)[O-])c5F)c5nc(c(-c6cccc(S(=O)(=O)[O-])c6F)c6ccc3[nH]6)C=C5)C=C4)cc2)c(Oc2cccc(F)c2C(N)=O)c1
REMARK SMILES IDX 11 1 10 2 9 3 8 4 6 5 7 6 5 7 1 8 2 9 3 10 92 11 4 12 80 13
REMARK SMILES IDX 81 14 82 15 83 16 88 17 84 18 86 19 85 20 87 21 89 22 90 23
REMARK SMILES IDX 91 24 12 27 13 28 14 29 15 30 16 31 17 32 18 33 79 34 19 35
REMARK SMILES IDX 78 36 20 37 21 38 22 39 72 40 23 41 77 42 71 43 73 44 24 45
REMARK SMILES IDX 76 46 70 47 69 48 25 50 57 51 37 52 56 53 38 54 41 55 55 56
REMARK SMILES IDX 74 57 39 58 40 59 54 61 75 62 42 63 26 64 27 65 35 66 28 67
REMARK SMILES IDX 30 68 36 69 29 70 31 71 32 72 33 73 34 74 58 75 59 76 67 77
REMARK SMILES IDX 60 78 62 79 68 80 61 81 63 82 64 83 65 84 66 85 43 86 44 87
REMARK SMILES IDX 52 88 45 89 47 90 53 91 46 92 48 93 49 94 50 95 51 96
REMARK H PARENT 90 25 90 26 73 49 41 60
REMARK Flexibility Score: inf
ROOT
ATOM      1  O   UNL A   1      35.244  22.481  24.846  1.00  0.00    -0.374 OA
ENDROOT
BRANCH   1   2
ATOM      2  C   UNL A   1      35.113  23.379  23.782  1.00  0.00     0.202 C 
BRANCH   2   3
ATOM      3  C   UNL A   1      33.718  23.526  23.113  1.00  0.00     0.261 C 
BRANCH   3   4
ATOM      4  O   UNL A   1      32.949  24.603  23.577  1.00  0.00    -0.460 OA
BRANCH   4   5
ATOM      5  C   UNL A   1      33.488  25.753  23.131  1.00  0.00     0.342 C 
ATOM      6  O   UNL A   1      33.865  26.017  22.001  1.00  0.00    -0.246 OA
BRANCH   5   7
ATOM      7  C   UNL A   1      33.151  26.748  24.128  1.00  0.00     0.102 A 
ATOM      8  C   UNL A   1      33.115  29.839  27.016  1.00  0.00     0.044 C 
ATOM      9  C   UNL A   1      33.073  28.723  26.028  1.00  0.00    -0.047 A 
ATOM     10  C   UNL A   1      34.001  27.687  26.154  1.00  0.00     0.004 A 
ATOM     11  C   UNL A   1      32.160  28.750  24.961  1.00  0.00     0.051 A 
ATOM     12  C   UNL A   1      34.021  26.682  25.219  1.00  0.00     0.020 A 
ATOM     13  C   UNL A   1      32.218  27.787  23.960  1.00  0.00     0.142 A 
BRANCH  13  14
ATOM     14  O   UNL A   1      31.489  27.855  22.787  1.00  0.00    -0.455 OA
BRANCH  14  15
ATOM     15  C   UNL A   1      30.127  28.080  22.830  1.00  0.00     0.143 A 
ATOM     16  C   UNL A   1      29.689  29.249  22.191  1.00  0.00     0.048 A 
ATOM     17  C   UNL A   1      29.205  27.284  23.537  1.00  0.00     0.117 A 
ATOM     18  C   UNL A   1      28.349  29.639  22.247  1.00  0.00     0.007 A 
ATOM     19  C   UNL A   1      27.859  27.686  23.566  1.00  0.00     0.139 A 
ATOM     20  C   UNL A   1      27.434  28.854  22.935  1.00  0.00     0.040 A 
ATOM     21  F   UNL A   1      26.929  26.975  24.221  1.00  0.00    -0.206 F 
BRANCH  17  22
ATOM     22  C   UNL A   1      29.539  26.002  24.204  1.00  0.00     0.255 C 
ATOM     23  N   UNL A   1      29.848  24.934  23.420  1.00  0.00    -0.365 N 
ATOM     24  O   UNL A   1      29.521  25.873  25.423  1.00  0.00    -0.269 OA
ATOM     25  H   UNL A   1      29.864  25.031  22.440  1.00  0.00     0.159 HD
ATOM     26  H   UNL A   1      30.056  24.064  23.831  1.00  0.00     0.159 HD
ENDBRANCH  17  22
ENDBRANCH  14  15
ENDBRANCH  13  14
ENDBRANCH   5   7
ENDBRANCH   4   5
ENDBRANCH   3   4
ENDBRANCH   2   3
ENDBRANCH   1   2
BRANCH   1  27
ATOM     27  C   UNL A   1      36.038  21.401  24.449  1.00  0.00     0.202 C 
BRANCH  27  28
ATOM     28  C   UNL A   1      37.432  21.119  25.133  1.00  0.00     0.261 C 
BRANCH  28  29
ATOM     29  O   UNL A   1      38.381  22.060  25.978  1.00  0.00    -0.460 OA
BRANCH  29  30
ATOM     30  C   UNL A   1      39.196  22.825  26.763  1.00  0.00     0.338 C 
ATOM     31  O   UNL A   1      38.668  23.750  27.379  1.00  0.00    -0.246 OA
BRANCH  30  32
ATOM     32  C   UNL A   1      40.730  22.726  26.870  1.00  0.00     0.060 A 
ATOM     33  C   UNL A   1      41.397  22.643  28.094  1.00  0.00     0.016 A 
ATOM     34  C   UNL A   1      41.600  22.908  25.836  1.00  0.00     0.016 A 
ATOM     35  C   UNL A   1      42.536  23.454  28.336  1.00  0.00     0.010 A 
ATOM     36  C   UNL A   1      42.599  23.847  26.061  1.00  0.00     0.010 A 
ATOM     37  C   UNL A   1      42.894  24.317  27.344  1.00  0.00    -0.014 A 
BRANCH  37  38
ATOM     38  C   UNL A   1      43.548  25.643  27.441  1.00  0.00     0.031 A 
ATOM     39  C   UNL A   1      45.037  25.581  27.407  1.00  0.00     0.074 A 
ATOM     40  C   UNL A   1      42.872  26.826  27.240  1.00  0.00     0.049 A 
ATOM     41  N   UNL A   1      45.840  26.544  27.687  1.00  0.00    -0.248 NA
ATOM     42  C   UNL A   1      45.772  24.341  27.109  1.00  0.00     0.031 C 
ATOM     43  C   UNL A   1      43.427  28.064  26.650  1.00  0.00     0.029 A 
ATOM     44  N   UNL A   1      41.527  27.191  27.370  1.00  0.00    -0.354 N 
ATOM     45  C   UNL A   1      47.083  26.172  27.199  1.00  0.00     0.074 A 
ATOM     46  C   UNL A   1      47.035  24.751  27.072  1.00  0.00     0.031 C 
ATOM     47  C   UNL A   1      42.510  29.053  26.652  1.00  0.00     0.029 A 
ATOM     48  C   UNL A   1      41.368  28.587  27.417  1.00  0.00     0.049 A 
ATOM     49  H   UNL A   1      40.783  26.549  27.421  1.00  0.00     0.167 HD
ATOM     50  C   UNL A   1      47.926  27.136  26.744  1.00  0.00     0.034 A 
ATOM     51  C   UNL A   1      40.895  29.269  28.513  1.00  0.00     0.034 A 
ATOM     52  C   UNL A   1      47.329  28.459  27.012  1.00  0.00     0.049 A 
ATOM     53  C   UNL A   1      42.053  29.910  29.286  1.00  0.00     0.074 A 
ATOM     54  C   UNL A   1      46.741  29.417  26.202  1.00  0.00     0.029 A 
ATOM     55  N   UNL A   1      46.948  28.774  28.316  1.00  0.00    -0.354 N 
ATOM     56  N   UNL A   1      43.299  29.737  28.937  1.00  0.00    -0.248 NA
ATOM     57  C   UNL A   1      41.953  30.819  30.429  1.00  0.00     0.031 C 
ATOM     58  C   UNL A   1      45.929  30.249  27.032  1.00  0.00     0.029 A 
ATOM     59  C   UNL A   1      46.037  29.819  28.346  1.00  0.00     0.049 A 
ATOM     60  H   UNL A   1      47.286  28.311  29.117  1.00  0.00     0.167 HD
ATOM     61  C   UNL A   1      44.150  30.394  29.762  1.00  0.00     0.074 A 
ATOM     62  C   UNL A   1      43.254  31.082  30.679  1.00  0.00     0.031 C 
ATOM     63  C   UNL A   1      45.509  30.293  29.629  1.00  0.00     0.034 A 
BRANCH  50  64
ATOM     64  C   UNL A   1      49.159  26.933  25.857  1.00  0.00     0.023 A 
ATOM     65  C   UNL A   1      50.291  26.385  26.502  1.00  0.00     0.012 A 
ATOM     66  C   UNL A   1      49.347  27.259  24.483  1.00  0.00     0.148 A 
ATOM     67  C   UNL A   1      51.518  26.188  25.856  1.00  0.00     0.002 A 
ATOM     68  C   UNL A   1      50.564  27.026  23.823  1.00  0.00     0.091 A 
ATOM     69  F   UNL A   1      48.376  27.838  23.779  1.00  0.00    -0.205 F 
ATOM     70  C   UNL A   1      51.654  26.499  24.514  1.00  0.00     0.022 A 
BRANCH  68  71
ATOM     71  S   UNL A   1      50.828  27.369  22.066  1.00  0.00     0.127 S 
ATOM     72  O   UNL A   1      49.761  26.591  21.433  1.00  0.00    -0.237 OA
ATOM     73  O   UNL A   1      50.638  28.818  22.000  1.00  0.00    -0.237 OA
ATOM     74  O   UNL A   1      52.178  26.918  21.748  1.00  0.00    -0.744 OA
ENDBRANCH  68  71
ENDBRANCH  50  64
BRANCH  51  75
ATOM     75  C   UNL A   1      39.632  28.686  29.061  1.00  0.00     0.023 A 
ATOM     76  C   UNL A   1      39.771  27.912  30.248  1.00  0.00     0.012 A 
ATOM     77  C   UNL A   1      38.420  29.324  28.820  1.00  0.00     0.148 A 
ATOM     78  C   UNL A   1      38.836  27.965  31.280  1.00  0.00     0.002 A 
ATOM     79  C   UNL A   1      37.520  29.428  29.876  1.00  0.00     0.091 A 
ATOM     80  F   UNL A   1      38.262  30.001  27.675  1.00  0.00    -0.205 F 
ATOM     81  C   UNL A   1      37.719  28.752  31.104  1.00  0.00     0.022 A 
BRANCH  79  82
ATOM     82  S   UNL A   1      36.737  31.013  30.131  1.00  0.00     0.127 S 
ATOM     83  O   UNL A   1      37.785  31.983  29.843  1.00  0.00    -0.237 OA
ATOM     84  O   UNL A   1      35.753  30.837  29.070  1.00  0.00    -0.237 OA
ATOM     85  O   UNL A   1      36.227  31.023  31.493  1.00  0.00    -0.744 OA
ENDBRANCH  79  82
ENDBRANCH  51  75
BRANCH  63  86
ATOM     86  C   UNL A   1      46.479  30.667  30.724  1.00  0.00     0.023 A 
ATOM     87  C   UNL A   1      46.686  29.836  31.840  1.00  0.00     0.012 A 
ATOM     88  C   UNL A   1      47.335  31.788  30.589  1.00  0.00     0.148 A 
ATOM     89  C   UNL A   1      47.608  30.162  32.835  1.00  0.00     0.002 A 
ATOM     90  C   UNL A   1      48.353  32.021  31.503  1.00  0.00     0.091 A 
ATOM     91  F   UNL A   1      47.159  32.657  29.584  1.00  0.00    -0.205 F 
ATOM     92  C   UNL A   1      48.456  31.245  32.657  1.00  0.00     0.022 A 
BRANCH  90  93
ATOM     93  S   UNL A   1      49.649  33.221  31.177  1.00  0.00     0.127 S 
ATOM     94  O   UNL A   1      50.142  32.774  29.876  1.00  0.00    -0.237 OA
ATOM     95  O   UNL A   1      48.900  34.477  31.151  1.00  0.00    -0.237 OA
ATOM     96  O   UNL A   1      50.585  33.104  32.287  1.00  0.00    -0.744 OA
ENDBRANCH  90  93
ENDBRANCH  63  86
ENDBRANCH  37  38
ENDBRANCH  30  32
ENDBRANCH  29  30
ENDBRANCH  28  29
ENDBRANCH  27  28
ENDBRANCH   1  27
TORSDOF 20
ENDMDL
MODEL 3
REMARK VINA RESULT:     -10.7      3.921      9.740
REMARK SMILES Cc1ccc(C(=O)OCCOCCOC(=O)c2ccc(-c3c4nc(c(-c5cccc(S(=O)(=O)[O-])c5F)c5ccc([nH]5)c(-c5cccc(S(=O)(=O)[O-])c5F)c5nc(c(-c6cccc(S(=O)(=O)[O-])c6F)c6ccc3[nH]6)C=C5)C=C4)cc2)c(Oc2cccc(F)c2C(N)=O)c1
REMARK SMILES IDX 11 1 10 2 9 3 8 4 6 5 7 6 5 7 1 8 2 9 3 10 92 11 4 12 80 13
REMARK SMILES IDX 81 14 82 15 83 16 88 17 84 18 86 19 85 20 87 21 89 22 90 23
REMARK SMILES IDX 91 24 12 27 13 28 14 29 15 30 16 31 17 32 18 33 79 34 19 35
REMARK SMILES IDX 78 36 20 37 21 38 22 39 72 40 23 41 77 42 71 43 73 44 24 45
REMARK SMILES IDX 76 46 70 47 69 48 25 50 57 51 37 52 56 53 38 54 41 55 55 56
REMARK SMILES IDX 74 57 39 58 40 59 54 61 75 62 42 63 26 64 27 65 35 66 28 67
REMARK SMILES IDX 30 68 36 69 29 70 31 71 32 72 33 73 34 74 58 75 59 76 67 77
REMARK SMILES IDX 60 78 62 79 68 80 61 81 63 82 64 83 65 84 66 85 43 86 44 87
REMARK SMILES IDX 52 88 45 89 47 90 53 91 46 92 48 93 49 94 50 95 51 96
REMARK H PARENT 90 25 90 26 73 49 41 60
REMARK Flexibility Score: inf
ROOT
ATOM      1  O   UNL A   1      36.593  21.483  25.045  1.00  0.00    -0.374 OA
ENDROOT
BRANCH   1   2
ATOM      2  C   UNL A   1      37.041  22.717  24.564  1.00  0.00     0.202 C 
BRANCH   2   3
ATOM      3  C   UNL A   1      36.513  23.201  23.184  1.00  0.00     0.261 C 
BRANCH   3   4
ATOM      4  O   UNL A   1      35.287  22.646  22.790  1.00  0.00    -0.460 OA
BRANCH   4   5
ATOM      5  C   UNL A   1      34.336  23.597  22.843  1.00  0.00     0.342 C 
ATOM      6  O   UNL A   1      33.826  24.201  21.914  1.00  0.00    -0.246 OA
BRANCH   5   7
ATOM      7  C   UNL A   1      33.736  23.469  24.155  1.00  0.00     0.102 A 
ATOM      8  C   UNL A   1      32.612  22.369  28.082  1.00  0.00     0.044 C 
ATOM      9  C   UNL A   1      32.945  22.780  26.689  1.00  0.00    -0.047 A 
ATOM     10  C   UNL A   1      33.036  21.792  25.706  1.00  0.00     0.004 A 
ATOM     11  C   UNL A   1      33.223  24.124  26.390  1.00  0.00     0.051 A 
ATOM     12  C   UNL A   1      33.404  22.141  24.430  1.00  0.00     0.020 A 
ATOM     13  C   UNL A   1      33.675  24.485  25.126  1.00  0.00     0.142 A 
BRANCH  13  14
ATOM     14  O   UNL A   1      34.151  25.746  24.814  1.00  0.00    -0.455 OA
BRANCH  14  15
ATOM     15  C   UNL A   1      33.420  26.867  25.155  1.00  0.00     0.143 A 
ATOM     16  C   UNL A   1      33.857  27.544  26.303  1.00  0.00     0.048 A 
ATOM     17  C   UNL A   1      32.248  27.291  24.498  1.00  0.00     0.117 A 
ATOM     18  C   UNL A   1      33.145  28.634  26.808  1.00  0.00     0.007 A 
ATOM     19  C   UNL A   1      31.558  28.400  25.013  1.00  0.00     0.139 A 
ATOM     20  C   UNL A   1      31.994  29.063  26.160  1.00  0.00     0.040 A 
ATOM     21  F   UNL A   1      30.436  28.858  24.437  1.00  0.00    -0.206 F 
BRANCH  17  22
ATOM     22  C   UNL A   1      31.721  26.691  23.249  1.00  0.00     0.255 C 
ATOM     23  N   UNL A   1      30.694  25.803  23.349  1.00  0.00    -0.365 N 
ATOM     24  O   UNL A   1      32.193  26.948  22.147  1.00  0.00    -0.269 OA
ATOM     25  H   UNL A   1      30.310  25.592  24.231  1.00  0.00     0.159 HD
ATOM     26  H   UNL A   1      30.334  25.372  22.541  1.00  0.00     0.159 HD
ENDBRANCH  17  22
ENDBRANCH  14  15
ENDBRANCH  13  14
ENDBRANCH   5   7
ENDBRANCH   4   5
ENDBRANCH   3   4
ENDBRANCH   2   3
ENDBRANCH   1   2
BRANCH   1  27
ATOM     27  C   UNL A   1      37.604  20.529  24.894  1.00  0.00     0.202 C 
BRANCH  27  28
ATOM     28  C   UNL A   1      39.041  20.761  25.504  1.00  0.00     0.261 C 
BRANCH  28  29
ATOM     29  O   UNL A   1      39.588  21.889  26.468  1.00  0.00    -0.460 OA
BRANCH  29  30
ATOM     30  C   UNL A   1      40.094  22.893  27.244  1.00  0.00     0.338 C 
ATOM     31  O   UNL A   1      39.280  23.633  27.797  1.00  0.00    -0.246 OA
BRANCH  30  32
ATOM     32  C   UNL A   1      41.578  23.271  27.410  1.00  0.00     0.060 A 
ATOM     33  C   UNL A   1      42.251  23.170  28.629  1.00  0.00     0.016 A 
ATOM     34  C   UNL A   1      42.329  23.919  26.475  1.00  0.00     0.016 A 
ATOM     35  C   UNL A   1      43.068  24.239  29.078  1.00  0.00     0.010 A 
ATOM     36  C   UNL A   1      42.973  25.067  26.923  1.00  0.00     0.010 A 
ATOM     37  C   UNL A   1      43.115  25.347  28.286  1.00  0.00    -0.014 A 
BRANCH  37  38
ATOM     38  C   UNL A   1      43.306  26.767  28.663  1.00  0.00     0.031 A 
ATOM     39  C   UNL A   1      42.041  27.556  28.688  1.00  0.00     0.074 A 
ATOM     40  C   UNL A   1      44.457  27.233  29.259  1.00  0.00     0.049 A 
ATOM     41  N   UNL A   1      41.951  28.835  28.769  1.00  0.00    -0.248 NA
ATOM     42  C   UNL A   1      40.716  26.935  28.541  1.00  0.00     0.031 C 
ATOM     43  C   UNL A   1      44.552  28.329  30.248  1.00  0.00     0.029 A 
ATOM     44  N   UNL A   1      45.784  26.787  29.252  1.00  0.00    -0.354 N 
ATOM     45  C   UNL A   1      40.636  29.115  29.108  1.00  0.00     0.074 A 
ATOM     46  C   UNL A   1      39.890  27.958  28.731  1.00  0.00     0.031 C 
ATOM     47  C   UNL A   1      45.836  28.568  30.583  1.00  0.00     0.029 A 
ATOM     48  C   UNL A   1      46.672  27.783  29.693  1.00  0.00     0.049 A 
ATOM     49  H   UNL A   1      46.061  25.884  28.972  1.00  0.00     0.167 HD
ATOM     50  C   UNL A   1      40.373  30.203  29.879  1.00  0.00     0.034 A 
ATOM     51  C   UNL A   1      47.636  28.358  28.899  1.00  0.00     0.034 A 
ATOM     52  C   UNL A   1      41.624  30.959  30.084  1.00  0.00     0.049 A 
ATOM     53  C   UNL A   1      47.176  29.735  28.408  1.00  0.00     0.074 A 
ATOM     54  C   UNL A   1      42.466  31.124  31.170  1.00  0.00     0.029 A 
ATOM     55  N   UNL A   1      42.356  31.364  28.967  1.00  0.00    -0.354 N 
ATOM     56  N   UNL A   1      45.991  30.209  28.687  1.00  0.00    -0.248 NA
ATOM     57  C   UNL A   1      47.963  30.711  27.653  1.00  0.00     0.031 C 
ATOM     58  C   UNL A   1      43.739  31.544  30.676  1.00  0.00     0.029 A 
ATOM     59  C   UNL A   1      43.670  31.658  29.295  1.00  0.00     0.049 A 
ATOM     60  H   UNL A   1      41.983  31.435  28.058  1.00  0.00     0.167 HD
ATOM     61  C   UNL A   1      45.801  31.439  28.150  1.00  0.00     0.074 A 
ATOM     62  C   UNL A   1      47.082  31.726  27.523  1.00  0.00     0.031 C 
ATOM     63  C   UNL A   1      44.605  32.096  28.253  1.00  0.00     0.034 A 
BRANCH  50  64
ATOM     64  C   UNL A   1      39.081  30.490  30.650  1.00  0.00     0.023 A 
ATOM     65  C   UNL A   1      38.746  29.550  31.652  1.00  0.00     0.012 A 
ATOM     66  C   UNL A   1      38.140  31.546  30.476  1.00  0.00     0.148 A 
ATOM     67  C   UNL A   1      37.572  29.628  32.411  1.00  0.00     0.002 A 
ATOM     68  C   UNL A   1      36.982  31.649  31.263  1.00  0.00     0.091 A 
ATOM     69  F   UNL A   1      38.310  32.462  29.523  1.00  0.00    -0.205 F 
ATOM     70  C   UNL A   1      36.692  30.682  32.224  1.00  0.00     0.022 A 
BRANCH  68  71
ATOM     71  S   UNL A   1      35.792  33.004  31.115  1.00  0.00     0.127 S 
ATOM     72  O   UNL A   1      36.317  33.985  32.067  1.00  0.00    -0.237 OA
ATOM     73  O   UNL A   1      35.933  33.390  29.711  1.00  0.00    -0.237 OA
ATOM     74  O   UNL A   1      34.487  32.456  31.467  1.00  0.00    -0.744 OA
ENDBRANCH  68  71
ENDBRANCH  50  64
BRANCH  51  75
ATOM     75  C   UNL A   1      48.466  27.351  28.169  1.00  0.00     0.023 A 
ATOM     76  C   UNL A   1      49.174  26.422  28.983  1.00  0.00     0.012 A 
ATOM     77  C   UNL A   1      48.104  26.967  26.882  1.00  0.00     0.148 A 
ATOM     78  C   UNL A   1      49.305  25.080  28.633  1.00  0.00     0.002 A 
ATOM     79  C   UNL A   1      48.177  25.615  26.563  1.00  0.00     0.091 A 
ATOM     80  F   UNL A   1      47.494  27.858  26.089  1.00  0.00    -0.205 F 
ATOM     81  C   UNL A   1      48.776  24.669  27.430  1.00  0.00     0.022 A 
BRANCH  79  82
ATOM     82  S   UNL A   1      46.791  24.903  25.690  1.00  0.00     0.127 S 
ATOM     83  O   UNL A   1      46.685  23.551  26.222  1.00  0.00    -0.237 OA
ATOM     84  O   UNL A   1      45.815  25.850  26.216  1.00  0.00    -0.237 OA
ATOM     85  O   UNL A   1      47.087  24.999  24.269  1.00  0.00    -0.744 OA
ENDBRANCH  79  82
ENDBRANCH  51  75
BRANCH  63  86
ATOM     86  C   UNL A   1      44.216  33.255  27.366  1.00  0.00     0.023 A 
ATOM     87  C   UNL A   1      44.023  33.091  25.982  1.00  0.00     0.012 A 
ATOM     88  C   UNL A   1      43.875  34.515  27.918  1.00  0.00     0.148 A 
ATOM     89  C   UNL A   1      43.630  34.153  25.166  1.00  0.00     0.002 A 
ATOM     90  C   UNL A   1      43.338  35.518  27.126  1.00  0.00     0.091 A 
ATOM     91  F   UNL A   1      44.087  34.763  29.218  1.00  0.00    -0.205 F 
ATOM     92  C   UNL A   1      43.268  35.362  25.742  1.00  0.00     0.022 A 
BRANCH  90  93
ATOM     93  S   UNL A   1      42.589  36.983  27.846  1.00  0.00     0.127 S 
ATOM     94  O   UNL A   1      43.737  37.613  28.492  1.00  0.00    -0.237 OA
ATOM     95  O   UNL A   1      42.092  37.683  26.660  1.00  0.00    -0.237 OA
ATOM     96  O   UNL A   1      41.544  36.497  28.736  1.00  0.00    -0.744 OA
ENDBRANCH  90  93
ENDBRANCH  63  86
ENDBRANCH  37  38
ENDBRANCH  30  32
ENDBRANCH  29  30
ENDBRANCH  28  29
ENDBRANCH  27  28
ENDBRANCH   1  27
TORSDOF 20
ENDMDL
