MODEL 1
REMARK VINA RESULT:      -8.7      0.000      0.000
REMARK SMILES CCCCCCCCNC(=O)Oc1cccc(-c2ccc([C@@H](C)C(=O)OCCOCCOC(=O)c3ccc(-c4c5nc(c(-c6cccc(S(=O)(=O)[O-])c6F)c6ccc([nH]6)c(-c6cccc(S(=O)(=O)[O-])c6F)c6nc(c(-c7cccc(S(=O)(=O)[O-])c7F)c7ccc4[nH]7)C=C6)C=C5)cc3)cc2F)c1
REMARK SMILES IDX 24 1 25 2 22 3 23 4 21 5 18 6 19 7 99 8 20 9 98 10 100 11
REMARK SMILES IDX 17 12 13 13 14 14 101 15 15 16 16 17 12 18 10 19 9 20 11 22
REMARK SMILES IDX 8 23 7 24 6 25 5 26 4 27 3 28 2 29 1 30 26 31 27 32 28 33
REMARK SMILES IDX 29 34 30 35 31 36 32 37 33 38 34 39 35 40 36 41 97 42 37 43
REMARK SMILES IDX 96 44 38 45 39 46 40 47 90 48 41 49 95 50 89 51 91 52 42 53
REMARK SMILES IDX 94 54 88 55 87 56 43 58 75 59 55 60 74 61 56 62 59 63 73 64
REMARK SMILES IDX 92 65 57 66 58 67 72 69 93 70 60 71 44 72 45 73 53 74 46 75
REMARK SMILES IDX 48 76 54 77 47 78 49 79 50 80 51 81 52 82 76 83 77 84 85 85
REMARK SMILES IDX 78 86 80 87 86 88 79 89 81 90 82 91 83 92 84 93 61 94 62 95
REMARK SMILES IDX 70 96 63 97 65 98 71 99 64 100 66 101 67 102 68 103 69 104
REMARK H PARENT 9 21 91 57 59 68
REMARK Flexibility Score: inf
ROOT
ATOM      1  C   UNL A   1      30.905  28.752  23.161  1.00  0.00     0.313 C 
ATOM      2  O   UNL A   1      31.452  29.407  22.279  1.00  0.00    -0.252 OA
ENDROOT
BRANCH   1   3
ATOM      3  C   UNL A   1      30.223  27.426  22.863  1.00  0.00     0.126 C 
ATOM      4  C   UNL A   1      28.845  27.408  23.516  1.00  0.00     0.025 C 
BRANCH   3   5
ATOM      5  C   UNL A   1      31.001  26.143  23.139  1.00  0.00    -0.031 A 
ATOM      6  C   UNL A   1      32.497  23.828  23.893  1.00  0.00     0.018 A 
ATOM      7  C   UNL A   1      32.999  24.752  22.961  1.00  0.00     0.012 A 
ATOM      8  C   UNL A   1      31.215  24.068  24.400  1.00  0.00     0.131 A 
ATOM      9  C   UNL A   1      32.266  25.891  22.592  1.00  0.00     0.005 A 
ATOM     10  C   UNL A   1      30.477  25.198  24.035  1.00  0.00     0.044 A 
ATOM     11  F   UNL A   1      30.669  23.227  25.293  1.00  0.00    -0.206 F 
BRANCH   6  12
ATOM     12  C   UNL A   1      33.310  22.687  24.349  1.00  0.00    -0.012 A 
ATOM     13  C   UNL A   1      35.267  21.772  25.459  1.00  0.00     0.133 A 
ATOM     14  C   UNL A   1      34.873  20.473  25.154  1.00  0.00     0.047 A 
ATOM     15  C   UNL A   1      34.511  22.874  25.051  1.00  0.00     0.056 A 
ATOM     16  C   UNL A   1      33.688  20.269  24.456  1.00  0.00     0.004 A 
ATOM     17  C   UNL A   1      32.915  21.365  24.061  1.00  0.00     0.009 A 
BRANCH  13  18
ATOM     18  O   UNL A   1      36.509  21.926  26.094  1.00  0.00    -0.410 OA
BRANCH  18  19
ATOM     19  C   UNL A   1      37.643  21.609  25.370  1.00  0.00     0.412 C 
ATOM     20  N   UNL A   1      38.662  22.500  25.545  1.00  0.00    -0.321 N 
ATOM     21  H   UNL A   1      39.490  22.328  25.040  1.00  0.00     0.167 HD
ATOM     22  O   UNL A   1      37.782  20.638  24.623  1.00  0.00    -0.224 OA
BRANCH  20  23
ATOM     23  C   UNL A   1      38.655  23.674  26.396  1.00  0.00     0.119 C 
BRANCH  23  24
ATOM     24  C   UNL A   1      40.047  23.980  26.951  1.00  0.00     0.021 C 
BRANCH  24  25
ATOM     25  C   UNL A   1      40.072  25.018  28.081  1.00  0.00     0.002 C 
BRANCH  25  26
ATOM     26  C   UNL A   1      39.230  26.274  27.834  1.00  0.00     0.000 C 
BRANCH  26  27
ATOM     27  C   UNL A   1      39.993  27.598  27.947  1.00  0.00    -0.000 C 
BRANCH  27  28
ATOM     28  C   UNL A   1      39.176  28.849  27.606  1.00  0.00    -0.000 C 
BRANCH  28  29
ATOM     29  C   UNL A   1      37.853  28.995  28.366  1.00  0.00    -0.003 C 
ATOM     30  C   UNL A   1      37.120  30.291  28.056  1.00  0.00     0.004 C 
ENDBRANCH  28  29
ENDBRANCH  27  28
ENDBRANCH  26  27
ENDBRANCH  25  26
ENDBRANCH  24  25
ENDBRANCH  23  24
ENDBRANCH  20  23
ENDBRANCH  18  19
ENDBRANCH  13  18
ENDBRANCH   6  12
ENDBRANCH   3   5
ENDBRANCH   1   3
BRANCH   1  31
ATOM     31  O   UNL A   1      30.826  29.129  24.463  1.00  0.00    -0.463 OA
BRANCH  31  32
ATOM     32  C   UNL A   1      32.067  29.479  25.096  1.00  0.00     0.261 C 
BRANCH  32  33
ATOM     33  C   UNL A   1      31.835  30.147  26.454  1.00  0.00     0.202 C 
BRANCH  33  34
ATOM     34  O   UNL A   1      32.243  31.509  26.576  1.00  0.00    -0.374 OA
BRANCH  34  35
ATOM     35  C   UNL A   1      33.343  31.793  27.442  1.00  0.00     0.202 C 
BRANCH  35  36
ATOM     36  C   UNL A   1      33.506  33.240  27.923  1.00  0.00     0.261 C 
BRANCH  36  37
ATOM     37  O   UNL A   1      33.318  33.379  29.341  1.00  0.00    -0.460 OA
BRANCH  37  38
ATOM     38  C   UNL A   1      34.069  34.350  29.917  1.00  0.00     0.338 C 
ATOM     39  O   UNL A   1      33.728  35.496  30.161  1.00  0.00    -0.246 OA
BRANCH  38  40
ATOM     40  C   UNL A   1      35.334  33.780  30.418  1.00  0.00     0.060 A 
ATOM     41  C   UNL A   1      35.242  32.682  31.284  1.00  0.00     0.016 A 
ATOM     42  C   UNL A   1      36.573  34.350  30.123  1.00  0.00     0.016 A 
ATOM     43  C   UNL A   1      36.383  32.188  31.909  1.00  0.00     0.010 A 
ATOM     44  C   UNL A   1      37.719  33.855  30.756  1.00  0.00     0.010 A 
ATOM     45  C   UNL A   1      37.621  32.802  31.686  1.00  0.00    -0.014 A 
BRANCH  45  46
ATOM     46  C   UNL A   1      38.775  32.445  32.547  1.00  0.00     0.031 A 
ATOM     47  C   UNL A   1      39.847  31.544  31.994  1.00  0.00     0.074 A 
ATOM     48  C   UNL A   1      38.882  32.931  33.797  1.00  0.00     0.049 A 
ATOM     49  N   UNL A   1      40.929  31.093  32.572  1.00  0.00    -0.248 NA
ATOM     50  C   UNL A   1      39.673  31.091  30.604  1.00  0.00     0.031 C 
ATOM     51  C   UNL A   1      37.920  33.825  34.439  1.00  0.00     0.029 A 
ATOM     52  N   UNL A   1      39.842  32.721  34.755  1.00  0.00    -0.354 N 
ATOM     53  C   UNL A   1      41.549  30.279  31.631  1.00  0.00     0.074 A 
ATOM     54  C   UNL A   1      40.714  30.288  30.449  1.00  0.00     0.031 C 
ATOM     55  C   UNL A   1      38.327  34.068  35.698  1.00  0.00     0.029 A 
ATOM     56  C   UNL A   1      39.561  33.329  35.956  1.00  0.00     0.049 A 
ATOM     57  H   UNL A   1      40.653  32.186  34.597  1.00  0.00     0.167 HD
ATOM     58  C   UNL A   1      42.715  29.597  31.733  1.00  0.00     0.034 A 
ATOM     59  C   UNL A   1      40.215  33.276  37.133  1.00  0.00     0.034 A 
ATOM     60  C   UNL A   1      43.554  29.605  32.901  1.00  0.00     0.049 A 
ATOM     61  C   UNL A   1      41.492  32.484  37.234  1.00  0.00     0.074 A 
ATOM     62  C   UNL A   1      44.777  28.985  33.086  1.00  0.00     0.029 A 
ATOM     63  N   UNL A   1      43.251  30.254  34.087  1.00  0.00    -0.354 N 
ATOM     64  N   UNL A   1      42.123  31.810  36.302  1.00  0.00    -0.248 NA
ATOM     65  C   UNL A   1      42.166  32.472  38.541  1.00  0.00     0.031 C 
ATOM     66  C   UNL A   1      45.199  29.234  34.397  1.00  0.00     0.029 A 
ATOM     67  C   UNL A   1      44.255  30.037  35.016  1.00  0.00     0.049 A 
ATOM     68  H   UNL A   1      42.441  30.791  34.247  1.00  0.00     0.167 HD
ATOM     69  C   UNL A   1      43.284  31.327  36.897  1.00  0.00     0.074 A 
ATOM     70  C   UNL A   1      43.276  31.799  38.267  1.00  0.00     0.031 C 
ATOM     71  C   UNL A   1      44.262  30.554  36.362  1.00  0.00     0.034 A 
BRANCH  58  72
ATOM     72  C   UNL A   1      43.159  28.797  30.536  1.00  0.00     0.023 A 
ATOM     73  C   UNL A   1      42.870  27.419  30.469  1.00  0.00     0.012 A 
ATOM     74  C   UNL A   1      43.829  29.414  29.461  1.00  0.00     0.148 A 
ATOM     75  C   UNL A   1      43.276  26.660  29.372  1.00  0.00     0.002 A 
ATOM     76  C   UNL A   1      44.190  28.660  28.351  1.00  0.00     0.091 A 
ATOM     77  F   UNL A   1      44.115  30.721  29.551  1.00  0.00    -0.205 F 
ATOM     78  C   UNL A   1      43.927  27.282  28.310  1.00  0.00     0.022 A 
BRANCH  76  79
ATOM     79  S   UNL A   1      44.960  29.388  26.900  1.00  0.00     0.127 S 
ATOM     80  O   UNL A   1      46.297  29.706  27.402  1.00  0.00    -0.237 OA
ATOM     81  O   UNL A   1      44.918  28.284  25.941  1.00  0.00    -0.237 OA
ATOM     82  O   UNL A   1      44.136  30.533  26.541  1.00  0.00    -0.744 OA
ENDBRANCH  76  79
ENDBRANCH  58  72
BRANCH  59  83
ATOM     83  C   UNL A   1      39.688  34.029  38.307  1.00  0.00     0.023 A 
ATOM     84  C   UNL A   1      40.020  35.388  38.465  1.00  0.00     0.012 A 
ATOM     85  C   UNL A   1      38.842  33.414  39.249  1.00  0.00     0.148 A 
ATOM     86  C   UNL A   1      39.537  36.115  39.553  1.00  0.00     0.002 A 
ATOM     87  C   UNL A   1      38.319  34.157  40.301  1.00  0.00     0.091 A 
ATOM     88  F   UNL A   1      38.551  32.114  39.089  1.00  0.00    -0.205 F 
ATOM     89  C   UNL A   1      38.679  35.504  40.465  1.00  0.00     0.022 A 
BRANCH  87  90
ATOM     90  S   UNL A   1      37.109  33.491  41.449  1.00  0.00     0.127 S 
ATOM     91  O   UNL A   1      37.879  32.450  42.125  1.00  0.00    -0.237 OA
ATOM     92  O   UNL A   1      36.800  34.661  42.269  1.00  0.00    -0.237 OA
ATOM     93  O   UNL A   1      36.000  33.023  40.627  1.00  0.00    -0.744 OA
ENDBRANCH  87  90
ENDBRANCH  59  83
BRANCH  71  94
ATOM     94  C   UNL A   1      45.433  30.194  37.241  1.00  0.00     0.023 A 
ATOM     95  C   UNL A   1      45.414  28.997  37.983  1.00  0.00     0.012 A 
ATOM     96  C   UNL A   1      46.586  31.006  37.267  1.00  0.00     0.148 A 
ATOM     97  C   UNL A   1      46.511  28.629  38.763  1.00  0.00     0.002 A 
ATOM     98  C   UNL A   1      47.693  30.608  38.007  1.00  0.00     0.091 A 
ATOM     99  F   UNL A   1      46.579  32.150  36.568  1.00  0.00    -0.205 F 
ATOM    100  C   UNL A   1      47.653  29.427  38.765  1.00  0.00     0.022 A 
BRANCH  98 101
ATOM    101  S   UNL A   1      49.241  31.520  37.991  1.00  0.00     0.127 S 
ATOM    102  O   UNL A   1      49.603  31.467  36.575  1.00  0.00    -0.237 OA
ATOM    103  O   UNL A   1      48.828  32.842  38.465  1.00  0.00    -0.237 OA
ATOM    104  O   UNL A   1      50.137  30.807  38.892  1.00  0.00    -0.744 OA
ENDBRANCH  98 101
ENDBRANCH  71  94
ENDBRANCH  45  46
ENDBRANCH  38  40
ENDBRANCH  37  38
ENDBRANCH  36  37
ENDBRANCH  35  36
ENDBRANCH  34  35
ENDBRANCH  33  34
ENDBRANCH  32  33
ENDBRANCH  31  32
ENDBRANCH   1  31
TORSDOF 28
ENDMDL
MODEL 2
REMARK VINA RESULT:      -8.5      6.220     12.466
REMARK SMILES CCCCCCCCNC(=O)Oc1cccc(-c2ccc([C@@H](C)C(=O)OCCOCCOC(=O)c3ccc(-c4c5nc(c(-c6cccc(S(=O)(=O)[O-])c6F)c6ccc([nH]6)c(-c6cccc(S(=O)(=O)[O-])c6F)c6nc(c(-c7cccc(S(=O)(=O)[O-])c7F)c7ccc4[nH]7)C=C6)C=C5)cc3)cc2F)c1
REMARK SMILES IDX 24 1 25 2 22 3 23 4 21 5 18 6 19 7 99 8 20 9 98 10 100 11
REMARK SMILES IDX 17 12 13 13 14 14 101 15 15 16 16 17 12 18 10 19 9 20 11 22
REMARK SMILES IDX 8 23 7 24 6 25 5 26 4 27 3 28 2 29 1 30 26 31 27 32 28 33
REMARK SMILES IDX 29 34 30 35 31 36 32 37 33 38 34 39 35 40 36 41 97 42 37 43
REMARK SMILES IDX 96 44 38 45 39 46 40 47 90 48 41 49 95 50 89 51 91 52 42 53
REMARK SMILES IDX 94 54 88 55 87 56 43 58 75 59 55 60 74 61 56 62 59 63 73 64
REMARK SMILES IDX 92 65 57 66 58 67 72 69 93 70 60 71 44 72 45 73 53 74 46 75
REMARK SMILES IDX 48 76 54 77 47 78 49 79 50 80 51 81 52 82 76 83 77 84 85 85
REMARK SMILES IDX 78 86 80 87 86 88 79 89 81 90 82 91 83 92 84 93 61 94 62 95
REMARK SMILES IDX 70 96 63 97 65 98 71 99 64 100 66 101 67 102 68 103 69 104
REMARK H PARENT 9 21 91 57 59 68
REMARK Flexibility Score: inf
ROOT
ATOM      1  C   UNL A   1      43.938  22.154  24.738  1.00  0.00     0.313 C 
ATOM      2  O   UNL A   1      42.779  22.510  24.551  1.00  0.00    -0.252 OA
ENDROOT
BRANCH   1   3
ATOM      3  C   UNL A   1      44.995  23.116  25.258  1.00  0.00     0.126 C 
ATOM      4  C   UNL A   1      46.371  22.659  24.785  1.00  0.00     0.025 C 
BRANCH   3   5
ATOM      5  C   UNL A   1      44.985  23.453  26.746  1.00  0.00    -0.031 A 
ATOM      6  C   UNL A   1      44.790  24.260  29.480  1.00  0.00     0.018 A 
ATOM      7  C   UNL A   1      45.948  24.510  28.724  1.00  0.00     0.012 A 
ATOM      8  C   UNL A   1      43.757  23.558  28.848  1.00  0.00     0.131 A 
ATOM      9  C   UNL A   1      46.044  24.116  27.380  1.00  0.00     0.005 A 
ATOM     10  C   UNL A   1      43.846  23.160  27.512  1.00  0.00     0.044 A 
ATOM     11  F   UNL A   1      42.621  23.281  29.509  1.00  0.00    -0.206 F 
BRANCH   6  12
ATOM     12  C   UNL A   1      44.657  24.760  30.859  1.00  0.00    -0.012 A 
ATOM     13  C   UNL A   1      44.590  24.400  33.260  1.00  0.00     0.133 A 
ATOM     14  C   UNL A   1      44.336  25.749  33.489  1.00  0.00     0.047 A 
ATOM     15  C   UNL A   1      44.733  23.898  31.964  1.00  0.00     0.056 A 
ATOM     16  C   UNL A   1      44.255  26.617  32.406  1.00  0.00     0.004 A 
ATOM     17  C   UNL A   1      44.416  26.126  31.106  1.00  0.00     0.009 A 
BRANCH  13  18
ATOM     18  O   UNL A   1      44.583  23.555  34.380  1.00  0.00    -0.410 OA
BRANCH  18  19
ATOM     19  C   UNL A   1      43.518  23.659  35.256  1.00  0.00     0.412 C 
ATOM     20  N   UNL A   1      43.896  23.660  36.568  1.00  0.00    -0.321 N 
ATOM     21  H   UNL A   1      43.173  23.718  37.234  1.00  0.00     0.167 HD
ATOM     22  O   UNL A   1      42.328  23.742  34.947  1.00  0.00    -0.224 OA
BRANCH  20  23
ATOM     23  C   UNL A   1      45.249  23.584  37.083  1.00  0.00     0.119 C 
BRANCH  23  24
ATOM     24  C   UNL A   1      46.160  22.767  36.166  1.00  0.00     0.021 C 
BRANCH  24  25
ATOM     25  C   UNL A   1      47.578  22.542  36.707  1.00  0.00     0.002 C 
BRANCH  25  26
ATOM     26  C   UNL A   1      47.818  21.179  37.365  1.00  0.00     0.000 C 
BRANCH  26  27
ATOM     27  C   UNL A   1      49.085  20.451  36.905  1.00  0.00    -0.000 C 
BRANCH  27  28
ATOM     28  C   UNL A   1      50.049  21.294  36.061  1.00  0.00    -0.000 C 
BRANCH  28  29
ATOM     29  C   UNL A   1      49.911  21.125  34.545  1.00  0.00    -0.003 C 
ATOM     30  C   UNL A   1      50.661  19.918  34.002  1.00  0.00     0.004 C 
ENDBRANCH  28  29
ENDBRANCH  27  28
ENDBRANCH  26  27
ENDBRANCH  25  26
ENDBRANCH  24  25
ENDBRANCH  23  24
ENDBRANCH  20  23
ENDBRANCH  18  19
ENDBRANCH  13  18
ENDBRANCH   6  12
ENDBRANCH   3   5
ENDBRANCH   1   3
BRANCH   1  31
ATOM     31  O   UNL A   1      44.409  20.904  24.492  1.00  0.00    -0.463 OA
BRANCH  31  32
ATOM     32  C   UNL A   1      44.356  19.980  25.591  1.00  0.00     0.261 C 
BRANCH  32  33
ATOM     33  C   UNL A   1      43.275  18.916  25.378  1.00  0.00     0.202 C 
BRANCH  33  34
ATOM     34  O   UNL A   1      42.235  18.856  26.352  1.00  0.00    -0.374 OA
BRANCH  34  35
ATOM     35  C   UNL A   1      41.105  19.709  26.163  1.00  0.00     0.202 C 
BRANCH  35  36
ATOM     36  C   UNL A   1      41.086  21.035  26.934  1.00  0.00     0.261 C 
BRANCH  36  37
ATOM     37  O   UNL A   1      39.755  21.479  27.244  1.00  0.00    -0.460 OA
BRANCH  37  38
ATOM     38  C   UNL A   1      39.242  22.378  26.367  1.00  0.00     0.338 C 
ATOM     39  O   UNL A   1      38.556  22.140  25.386  1.00  0.00    -0.246 OA
BRANCH  38  40
ATOM     40  C   UNL A   1      39.450  23.749  26.869  1.00  0.00     0.060 A 
ATOM     41  C   UNL A   1      39.801  24.727  25.930  1.00  0.00     0.016 A 
ATOM     42  C   UNL A   1      39.388  24.058  28.229  1.00  0.00     0.016 A 
ATOM     43  C   UNL A   1      40.155  26.006  26.352  1.00  0.00     0.010 A 
ATOM     44  C   UNL A   1      39.748  25.343  28.652  1.00  0.00     0.010 A 
ATOM     45  C   UNL A   1      40.177  26.308  27.719  1.00  0.00    -0.014 A 
BRANCH  45  46
ATOM     46  C   UNL A   1      40.802  27.574  28.174  1.00  0.00     0.031 A 
ATOM     47  C   UNL A   1      39.927  28.650  28.758  1.00  0.00     0.074 A 
ATOM     48  C   UNL A   1      42.132  27.758  28.090  1.00  0.00     0.049 A 
ATOM     49  N   UNL A   1      40.255  29.835  29.202  1.00  0.00    -0.248 NA
ATOM     50  C   UNL A   1      38.488  28.350  28.851  1.00  0.00     0.031 C 
ATOM     51  C   UNL A   1      43.086  26.786  27.561  1.00  0.00     0.029 A 
ATOM     52  N   UNL A   1      42.904  28.840  28.433  1.00  0.00    -0.354 N 
ATOM     53  C   UNL A   1      39.064  30.434  29.597  1.00  0.00     0.074 A 
ATOM     54  C   UNL A   1      38.004  29.487  29.328  1.00  0.00     0.031 C 
ATOM     55  C   UNL A   1      44.317  27.326  27.592  1.00  0.00     0.029 A 
ATOM     56  C   UNL A   1      44.233  28.687  28.118  1.00  0.00     0.049 A 
ATOM     57  H   UNL A   1      42.540  29.647  28.862  1.00  0.00     0.167 HD
ATOM     58  C   UNL A   1      38.870  31.656  30.150  1.00  0.00     0.034 A 
ATOM     59  C   UNL A   1      45.259  29.554  28.222  1.00  0.00     0.034 A 
ATOM     60  C   UNL A   1      39.927  32.588  30.436  1.00  0.00     0.049 A 
ATOM     61  C   UNL A   1      45.014  30.920  28.809  1.00  0.00     0.074 A 
ATOM     62  C   UNL A   1      39.838  33.831  31.038  1.00  0.00     0.029 A 
ATOM     63  N   UNL A   1      41.263  32.387  30.129  1.00  0.00    -0.354 N 
ATOM     64  N   UNL A   1      43.902  31.430  29.281  1.00  0.00    -0.248 NA
ATOM     65  C   UNL A   1      46.174  31.820  28.907  1.00  0.00     0.031 C 
ATOM     66  C   UNL A   1      41.118  34.395  31.067  1.00  0.00     0.029 A 
ATOM     67  C   UNL A   1      42.009  33.489  30.513  1.00  0.00     0.049 A 
ATOM     68  H   UNL A   1      41.630  31.580  29.701  1.00  0.00     0.167 HD
ATOM     69  C   UNL A   1      44.234  32.691  29.766  1.00  0.00     0.074 A 
ATOM     70  C   UNL A   1      45.655  32.861  29.544  1.00  0.00     0.031 C 
ATOM     71  C   UNL A   1      43.433  33.627  30.334  1.00  0.00     0.034 A 
BRANCH  58  72
ATOM     72  C   UNL A   1      37.457  32.044  30.497  1.00  0.00     0.023 A 
ATOM     73  C   UNL A   1      36.969  31.820  31.801  1.00  0.00     0.012 A 
ATOM     74  C   UNL A   1      36.622  32.662  29.546  1.00  0.00     0.148 A 
ATOM     75  C   UNL A   1      35.662  32.168  32.141  1.00  0.00     0.002 A 
ATOM     76  C   UNL A   1      35.335  33.048  29.905  1.00  0.00     0.091 A 
ATOM     77  F   UNL A   1      37.094  32.846  28.304  1.00  0.00    -0.205 F 
ATOM     78  C   UNL A   1      34.849  32.790  31.196  1.00  0.00     0.022 A 
BRANCH  76  79
ATOM     79  S   UNL A   1      34.243  33.926  28.782  1.00  0.00     0.127 S 
ATOM     80  O   UNL A   1      33.888  32.873  27.830  1.00  0.00    -0.237 OA
ATOM     81  O   UNL A   1      33.154  34.337  29.668  1.00  0.00    -0.237 OA
ATOM     82  O   UNL A   1      35.027  35.025  28.237  1.00  0.00    -0.744 OA
ENDBRANCH  76  79
ENDBRANCH  58  72
BRANCH  59  83
ATOM     83  C   UNL A   1      46.626  29.140  27.794  1.00  0.00     0.023 A 
ATOM     84  C   UNL A   1      47.662  29.076  28.744  1.00  0.00     0.012 A 
ATOM     85  C   UNL A   1      46.895  28.786  26.457  1.00  0.00     0.148 A 
ATOM     86  C   UNL A   1      48.948  28.688  28.368  1.00  0.00     0.002 A 
ATOM     87  C   UNL A   1      48.164  28.348  26.100  1.00  0.00     0.091 A 
ATOM     88  F   UNL A   1      45.898  28.870  25.565  1.00  0.00    -0.205 F 
ATOM     89  C   UNL A   1      49.197  28.315  27.049  1.00  0.00     0.022 A 
BRANCH  87  90
ATOM     90  S   UNL A   1      48.546  27.727  24.458  1.00  0.00     0.127 S 
ATOM     91  O   UNL A   1      47.458  28.291  23.664  1.00  0.00    -0.237 OA
ATOM     92  O   UNL A   1      49.861  28.318  24.213  1.00  0.00    -0.237 OA
ATOM     93  O   UNL A   1      48.552  26.274  24.576  1.00  0.00    -0.744 OA
ENDBRANCH  87  90
ENDBRANCH  59  83
BRANCH  71  94
ATOM     94  C   UNL A   1      44.072  34.913  30.795  1.00  0.00     0.023 A 
ATOM     95  C   UNL A   1      44.728  34.964  32.041  1.00  0.00     0.012 A 
ATOM     96  C   UNL A   1      44.090  36.046  29.957  1.00  0.00     0.148 A 
ATOM     97  C   UNL A   1      45.365  36.134  32.458  1.00  0.00     0.002 A 
ATOM     98  C   UNL A   1      44.768  37.191  30.358  1.00  0.00     0.091 A 
ATOM     99  F   UNL A   1      43.445  35.983  28.783  1.00  0.00    -0.205 F 
ATOM    100  C   UNL A   1      45.395  37.241  31.613  1.00  0.00     0.022 A 
BRANCH  98 101
ATOM    101  S   UNL A   1      44.944  38.629  29.296  1.00  0.00     0.127 S 
ATOM    102  O   UNL A   1      45.886  38.141  28.290  1.00  0.00    -0.237 OA
ATOM    103  O   UNL A   1      43.579  38.824  28.808  1.00  0.00    -0.237 OA
ATOM    104  O   UNL A   1      45.440  39.701  30.149  1.00  0.00    -0.744 OA
ENDBRANCH  98 101
ENDBRANCH  71  94
ENDBRANCH  45  46
ENDBRANCH  38  40
ENDBRANCH  37  38
ENDBRANCH  36  37
ENDBRANCH  35  36
ENDBRANCH  34  35
ENDBRANCH  33  34
ENDBRANCH  32  33
ENDBRANCH  31  32
ENDBRANCH   1  31
TORSDOF 28
ENDMDL
MODEL 3
REMARK VINA RESULT:      -8.3      4.979      7.619
REMARK SMILES CCCCCCCCNC(=O)Oc1cccc(-c2ccc([C@@H](C)C(=O)OCCOCCOC(=O)c3ccc(-c4c5nc(c(-c6cccc(S(=O)(=O)[O-])c6F)c6ccc([nH]6)c(-c6cccc(S(=O)(=O)[O-])c6F)c6nc(c(-c7cccc(S(=O)(=O)[O-])c7F)c7ccc4[nH]7)C=C6)C=C5)cc3)cc2F)c1
REMARK SMILES IDX 24 1 25 2 22 3 23 4 21 5 18 6 19 7 99 8 20 9 98 10 100 11
REMARK SMILES IDX 17 12 13 13 14 14 101 15 15 16 16 17 12 18 10 19 9 20 11 22
REMARK SMILES IDX 8 23 7 24 6 25 5 26 4 27 3 28 2 29 1 30 26 31 27 32 28 33
REMARK SMILES IDX 29 34 30 35 31 36 32 37 33 38 34 39 35 40 36 41 97 42 37 43
REMARK SMILES IDX 96 44 38 45 39 46 40 47 90 48 41 49 95 50 89 51 91 52 42 53
REMARK SMILES IDX 94 54 88 55 87 56 43 58 75 59 55 60 74 61 56 62 59 63 73 64
REMARK SMILES IDX 92 65 57 66 58 67 72 69 93 70 60 71 44 72 45 73 53 74 46 75
REMARK SMILES IDX 48 76 54 77 47 78 49 79 50 80 51 81 52 82 76 83 77 84 85 85
REMARK SMILES IDX 78 86 80 87 86 88 79 89 81 90 82 91 83 92 84 93 61 94 62 95
REMARK SMILES IDX 70 96 63 97 65 98 71 99 64 100 66 101 67 102 68 103 69 104
REMARK H PARENT 9 21 91 57 59 68
REMARK Flexibility Score: inf
ROOT
ATOM      1  C   UNL A   1      31.010  28.764  23.248  1.00  0.00     0.313 C 
ATOM      2  O   UNL A   1      31.569  29.444  22.392  1.00  0.00    -0.252 OA
ENDROOT
BRANCH   1   3
ATOM      3  C   UNL A   1      30.241  27.502  22.889  1.00  0.00     0.126 C 
ATOM      4  C   UNL A   1      28.843  27.573  23.492  1.00  0.00     0.025 C 
BRANCH   3   5
ATOM      5  C   UNL A   1      30.910  26.157  23.154  1.00  0.00    -0.031 A 
ATOM      6  C   UNL A   1      32.272  23.745  23.856  1.00  0.00     0.018 A 
ATOM      7  C   UNL A   1      32.612  24.468  22.700  1.00  0.00     0.012 A 
ATOM      8  C   UNL A   1      31.208  24.234  24.622  1.00  0.00     0.131 A 
ATOM      9  C   UNL A   1      31.946  25.654  22.356  1.00  0.00     0.005 A 
ATOM     10  C   UNL A   1      30.537  25.413  24.284  1.00  0.00     0.044 A 
ATOM     11  F   UNL A   1      30.825  23.595  25.740  1.00  0.00    -0.206 F 
BRANCH   6  12
ATOM     12  C   UNL A   1      33.038  22.555  24.264  1.00  0.00    -0.012 A 
ATOM     13  C   UNL A   1      34.941  21.516  25.361  1.00  0.00     0.133 A 
ATOM     14  C   UNL A   1      34.512  20.249  24.976  1.00  0.00     0.047 A 
ATOM     15  C   UNL A   1      34.228  22.663  25.000  1.00  0.00     0.056 A 
ATOM     16  C   UNL A   1      33.337  20.124  24.244  1.00  0.00     0.004 A 
ATOM     17  C   UNL A   1      32.608  21.265  23.895  1.00  0.00     0.009 A 
BRANCH  13  18
ATOM     18  O   UNL A   1      36.172  21.594  26.028  1.00  0.00    -0.410 OA
BRANCH  18  19
ATOM     19  C   UNL A   1      37.321  21.546  25.261  1.00  0.00     0.412 C 
ATOM     20  N   UNL A   1      38.215  22.533  25.564  1.00  0.00    -0.321 N 
ATOM     21  H   UNL A   1      39.046  22.552  25.036  1.00  0.00     0.167 HD
ATOM     22  O   UNL A   1      37.572  20.725  24.376  1.00  0.00    -0.224 OA
BRANCH  20  23
ATOM     23  C   UNL A   1      38.069  23.555  26.582  1.00  0.00     0.119 C 
BRANCH  23  24
ATOM     24  C   UNL A   1      39.333  24.406  26.716  1.00  0.00     0.021 C 
BRANCH  24  25
ATOM     25  C   UNL A   1      39.386  25.283  27.974  1.00  0.00     0.002 C 
BRANCH  25  26
ATOM     26  C   UNL A   1      39.493  26.789  27.716  1.00  0.00     0.000 C 
BRANCH  26  27
ATOM     27  C   UNL A   1      40.857  27.265  27.208  1.00  0.00    -0.000 C 
BRANCH  27  28
ATOM     28  C   UNL A   1      41.066  28.783  27.229  1.00  0.00    -0.000 C 
BRANCH  28  29
ATOM     29  C   UNL A   1      42.409  29.267  26.674  1.00  0.00    -0.003 C 
ATOM     30  C   UNL A   1      43.228  28.162  26.025  1.00  0.00     0.004 C 
ENDBRANCH  28  29
ENDBRANCH  27  28
ENDBRANCH  26  27
ENDBRANCH  25  26
ENDBRANCH  24  25
ENDBRANCH  23  24
ENDBRANCH  20  23
ENDBRANCH  18  19
ENDBRANCH  13  18
ENDBRANCH   6  12
ENDBRANCH   3   5
ENDBRANCH   1   3
BRANCH   1  31
ATOM     31  O   UNL A   1      30.993  29.057  24.573  1.00  0.00    -0.463 OA
BRANCH  31  32
ATOM     32  C   UNL A   1      32.255  29.420  25.157  1.00  0.00     0.261 C 
BRANCH  32  33
ATOM     33  C   UNL A   1      32.089  29.890  26.605  1.00  0.00     0.202 C 
BRANCH  33  34
ATOM     34  O   UNL A   1      32.539  31.211  26.904  1.00  0.00    -0.374 OA
BRANCH  34  35
ATOM     35  C   UNL A   1      33.751  31.341  27.650  1.00  0.00     0.202 C 
BRANCH  35  36
ATOM     36  C   UNL A   1      33.870  32.542  28.596  1.00  0.00     0.261 C 
BRANCH  36  37
ATOM     37  O   UNL A   1      34.283  32.166  29.921  1.00  0.00    -0.460 OA
BRANCH  37  38
ATOM     38  C   UNL A   1      35.126  33.044  30.518  1.00  0.00     0.338 C 
ATOM     39  O   UNL A   1      34.822  34.024  31.178  1.00  0.00    -0.246 OA
BRANCH  38  40
ATOM     40  C   UNL A   1      36.513  32.545  30.443  1.00  0.00     0.060 A 
ATOM     41  C   UNL A   1      37.293  32.646  31.602  1.00  0.00     0.016 A 
ATOM     42  C   UNL A   1      37.065  32.068  29.254  1.00  0.00     0.016 A 
ATOM     43  C   UNL A   1      38.648  32.332  31.562  1.00  0.00     0.010 A 
ATOM     44  C   UNL A   1      38.430  31.756  29.214  1.00  0.00     0.010 A 
ATOM     45  C   UNL A   1      39.235  31.930  30.356  1.00  0.00    -0.014 A 
BRANCH  45  46
ATOM     46  C   UNL A   1      40.713  31.853  30.257  1.00  0.00     0.031 A 
ATOM     47  C   UNL A   1      41.492  33.112  29.985  1.00  0.00     0.074 A 
ATOM     48  C   UNL A   1      41.358  30.685  30.427  1.00  0.00     0.049 A 
ATOM     49  N   UNL A   1      42.781  33.275  29.844  1.00  0.00    -0.248 NA
ATOM     50  C   UNL A   1      40.711  34.354  29.854  1.00  0.00     0.031 C 
ATOM     51  C   UNL A   1      40.719  29.402  30.711  1.00  0.00     0.029 A 
ATOM     52  N   UNL A   1      42.697  30.390  30.363  1.00  0.00    -0.354 N 
ATOM     53  C   UNL A   1      42.965  34.626  29.576  1.00  0.00     0.074 A 
ATOM     54  C   UNL A   1      41.653  35.237  29.561  1.00  0.00     0.031 C 
ATOM     55  C   UNL A   1      41.666  28.449  30.774  1.00  0.00     0.029 A 
ATOM     56  C   UNL A   1      42.971  29.051  30.510  1.00  0.00     0.049 A 
ATOM     57  H   UNL A   1      43.393  31.072  30.226  1.00  0.00     0.167 HD
ATOM     58  C   UNL A   1      44.121  35.304  29.376  1.00  0.00     0.034 A 
ATOM     59  C   UNL A   1      44.140  28.386  30.419  1.00  0.00     0.034 A 
ATOM     60  C   UNL A   1      45.426  34.700  29.411  1.00  0.00     0.049 A 
ATOM     61  C   UNL A   1      45.409  29.155  30.163  1.00  0.00     0.074 A 
ATOM     62  C   UNL A   1      46.660  35.309  29.268  1.00  0.00     0.029 A 
ATOM     63  N   UNL A   1      45.666  33.347  29.590  1.00  0.00    -0.354 N 
ATOM     64  N   UNL A   1      45.579  30.448  30.022  1.00  0.00    -0.248 NA
ATOM     65  C   UNL A   1      46.655  28.376  30.084  1.00  0.00     0.031 C 
ATOM     66  C   UNL A   1      47.646  34.318  29.329  1.00  0.00     0.029 A 
ATOM     67  C   UNL A   1      47.027  33.096  29.544  1.00  0.00     0.049 A 
ATOM     68  H   UNL A   1      44.971  32.663  29.729  1.00  0.00     0.167 HD
ATOM     69  C   UNL A   1      46.949  30.642  29.878  1.00  0.00     0.074 A 
ATOM     70  C   UNL A   1      47.565  29.333  29.963  1.00  0.00     0.031 C 
ATOM     71  C   UNL A   1      47.634  31.796  29.681  1.00  0.00     0.034 A 
BRANCH  58  72
ATOM     72  C   UNL A   1      44.022  36.785  29.118  1.00  0.00     0.023 A 
ATOM     73  C   UNL A   1      43.833  37.255  27.802  1.00  0.00     0.012 A 
ATOM     74  C   UNL A   1      44.080  37.710  30.179  1.00  0.00     0.148 A 
ATOM     75  C   UNL A   1      43.744  38.622  27.541  1.00  0.00     0.002 A 
ATOM     76  C   UNL A   1      43.945  39.068  29.916  1.00  0.00     0.091 A 
ATOM     77  F   UNL A   1      44.283  37.247  31.421  1.00  0.00    -0.205 F 
ATOM     78  C   UNL A   1      43.790  39.527  28.598  1.00  0.00     0.022 A 
BRANCH  76  79
ATOM     79  S   UNL A   1      43.911  40.304  31.219  1.00  0.00     0.127 S 
ATOM     80  O   UNL A   1      42.802  39.831  32.047  1.00  0.00    -0.237 OA
ATOM     81  O   UNL A   1      45.232  40.148  31.827  1.00  0.00    -0.237 OA
ATOM     82  O   UNL A   1      43.698  41.581  30.554  1.00  0.00    -0.744 OA
ENDBRANCH  76  79
ENDBRANCH  58  72
BRANCH  59  83
ATOM     83  C   UNL A   1      44.167  26.907  30.611  1.00  0.00     0.023 A 
ATOM     84  C   UNL A   1      43.981  26.060  29.503  1.00  0.00     0.012 A 
ATOM     85  C   UNL A   1      44.402  26.341  31.879  1.00  0.00     0.148 A 
ATOM     86  C   UNL A   1      44.005  24.673  29.657  1.00  0.00     0.002 A 
ATOM     87  C   UNL A   1      44.479  24.960  32.017  1.00  0.00     0.091 A 
ATOM     88  F   UNL A   1      44.560  27.166  32.924  1.00  0.00    -0.205 F 
ATOM     89  C   UNL A   1      44.264  24.123  30.910  1.00  0.00     0.022 A 
BRANCH  87  90
ATOM     90  S   UNL A   1      44.934  24.167  33.563  1.00  0.00     0.127 S 
ATOM     91  O   UNL A   1      46.252  24.740  33.818  1.00  0.00    -0.237 OA
ATOM     92  O   UNL A   1      43.875  24.631  34.459  1.00  0.00    -0.237 OA
ATOM     93  O   UNL A   1      44.910  22.734  33.295  1.00  0.00    -0.744 OA
ENDBRANCH  87  90
ENDBRANCH  59  83
BRANCH  71  94
ATOM     94  C   UNL A   1      49.136  31.714  29.582  1.00  0.00     0.023 A 
ATOM     95  C   UNL A   1      49.923  31.772  30.749  1.00  0.00     0.012 A 
ATOM     96  C   UNL A   1      49.762  31.498  28.337  1.00  0.00     0.148 A 
ATOM     97  C   UNL A   1      51.311  31.650  30.675  1.00  0.00     0.002 A 
ATOM     98  C   UNL A   1      51.140  31.327  28.277  1.00  0.00     0.091 A 
ATOM     99  F   UNL A   1      48.998  31.462  27.235  1.00  0.00    -0.205 F 
ATOM    100  C   UNL A   1      51.917  31.415  29.443  1.00  0.00     0.022 A 
BRANCH  98 101
ATOM    101  S   UNL A   1      51.995  30.924  26.750  1.00  0.00     0.127 S 
ATOM    102  O   UNL A   1      52.429  29.551  27.006  1.00  0.00    -0.237 OA
ATOM    103  O   UNL A   1      50.931  31.050  25.754  1.00  0.00    -0.237 OA
ATOM    104  O   UNL A   1      53.066  31.903  26.617  1.00  0.00    -0.744 OA
ENDBRANCH  98 101
ENDBRANCH  71  94
ENDBRANCH  45  46
ENDBRANCH  38  40
ENDBRANCH  37  38
ENDBRANCH  36  37
ENDBRANCH  35  36
ENDBRANCH  34  35
ENDBRANCH  33  34
ENDBRANCH  32  33
ENDBRANCH  31  32
ENDBRANCH   1  31
TORSDOF 28
ENDMDL
