MODEL 1
REMARK VINA RESULT:     -10.4      0.000      0.000
REMARK SMILES CC(=O)[C@@H]1CCCC[N@H+]1CC(C)(C)C(=O)OCCOCCOC(=O)c1ccc(-c2c3nc(c(-c4cccc(S(=O)(=O)[O-])c4F)c4ccc([nH]4)c(-c4cccc(S(=O)(=O)[O-])c4F)c4nc(c(-c5cccc(S(=O)(=O)[O-])c5F)c5ccc2[nH]5)C=C4)C=C3)cc1
REMARK SMILES IDX 19 1 18 2 17 3 16 4 14 5 15 6 11 7 12 8 13 9 10 10 9 11 4 12
REMARK SMILES IDX 5 13 6 14 8 15 7 17 2 18 1 19 3 20 20 21 21 22 22 23 23 24
REMARK SMILES IDX 24 25 25 26 26 27 87 28 27 29 86 30 28 31 29 32 30 33 80 34
REMARK SMILES IDX 31 35 85 36 79 37 81 38 32 39 84 40 78 41 77 42 33 44 65 45
REMARK SMILES IDX 45 46 64 47 46 48 49 49 63 50 82 51 47 52 48 53 62 55 83 56
REMARK SMILES IDX 50 57 34 58 35 59 43 60 36 61 38 62 44 63 37 64 39 65 40 66
REMARK SMILES IDX 41 67 42 68 66 69 67 70 75 71 68 72 70 73 76 74 69 75 71 76
REMARK SMILES IDX 72 77 73 78 74 79 51 80 52 81 60 82 53 83 55 84 61 85 54 86
REMARK SMILES IDX 56 87 57 88 58 89 59 90
REMARK H PARENT 9 16 81 43 49 54
REMARK Flexibility Score: inf
ROOT
ATOM      1  O   UNL A   1      34.779  19.706  24.609  1.00  0.00    -0.374 OA
ENDROOT
BRANCH   1   2
ATOM      2  C   UNL A   1      33.433  19.917  25.020  1.00  0.00     0.202 C 
BRANCH   2   3
ATOM      3  C   UNL A   1      33.021  21.298  25.556  1.00  0.00     0.261 C 
BRANCH   3   4
ATOM      4  O   UNL A   1      32.788  22.260  24.521  1.00  0.00    -0.463 OA
BRANCH   4   5
ATOM      5  C   UNL A   1      32.877  23.564  24.892  1.00  0.00     0.317 C 
ATOM      6  O   UNL A   1      33.848  24.051  25.465  1.00  0.00    -0.251 OA
BRANCH   5   7
ATOM      7  C   UNL A   1      31.620  24.370  24.550  1.00  0.00     0.111 C 
ATOM      8  C   UNL A   1      30.794  24.402  25.846  1.00  0.00     0.029 C 
ATOM      9  C   UNL A   1      30.708  23.668  23.507  1.00  0.00     0.029 C 
BRANCH   7  10
ATOM     10  C   UNL A   1      31.973  25.785  23.954  1.00  0.00     0.281 C 
BRANCH  10  11
ATOM     11  N   UNL A   1      31.214  27.035  24.166  1.00  0.00    -0.325 N 
ATOM     12  C   UNL A   1      31.992  28.185  24.656  1.00  0.00     0.251 C 
ATOM     13  C   UNL A   1      31.187  29.488  24.787  1.00  0.00     0.074 C 
ATOM     14  C   UNL A   1      30.382  29.771  23.532  1.00  0.00     0.012 C 
ATOM     15  C   UNL A   1      30.222  27.302  23.120  1.00  0.00     0.262 C 
ATOM     16  H   UNL A   1      30.641  26.851  24.989  1.00  0.00     0.348 HD
ATOM     17  C   UNL A   1      29.441  28.605  23.293  1.00  0.00     0.062 C 
BRANCH  12  18
ATOM     18  C   UNL A   1      32.555  27.884  26.065  1.00  0.00     0.186 C 
ATOM     19  C   UNL A   1      31.559  27.849  27.196  1.00  0.00     0.094 C 
ATOM     20  O   UNL A   1      33.741  27.619  26.284  1.00  0.00    -0.293 OA
ENDBRANCH  12  18
ENDBRANCH  10  11
ENDBRANCH   7  10
ENDBRANCH   5   7
ENDBRANCH   4   5
ENDBRANCH   3   4
ENDBRANCH   2   3
ENDBRANCH   1   2
BRANCH   1  21
ATOM     21  C   UNL A   1      35.816  20.433  25.265  1.00  0.00     0.202 C 
BRANCH  21  22
ATOM     22  C   UNL A   1      37.290  20.105  24.979  1.00  0.00     0.261 C 
BRANCH  22  23
ATOM     23  O   UNL A   1      38.174  21.219  25.190  1.00  0.00    -0.460 OA
BRANCH  23  24
ATOM     24  C   UNL A   1      39.219  20.960  26.017  1.00  0.00     0.338 C 
ATOM     25  O   UNL A   1      39.835  19.915  26.121  1.00  0.00    -0.246 OA
BRANCH  24  26
ATOM     26  C   UNL A   1      39.679  22.211  26.643  1.00  0.00     0.060 A 
ATOM     27  C   UNL A   1      39.133  23.411  26.165  1.00  0.00     0.016 A 
ATOM     28  C   UNL A   1      40.691  22.219  27.603  1.00  0.00     0.016 A 
ATOM     29  C   UNL A   1      39.623  24.629  26.620  1.00  0.00     0.010 A 
ATOM     30  C   UNL A   1      41.196  23.445  28.044  1.00  0.00     0.010 A 
ATOM     31  C   UNL A   1      40.690  24.652  27.524  1.00  0.00    -0.014 A 
BRANCH  31  32
ATOM     32  C   UNL A   1      41.386  25.933  27.777  1.00  0.00     0.031 A 
ATOM     33  C   UNL A   1      40.666  27.003  28.549  1.00  0.00     0.074 A 
ATOM     34  C   UNL A   1      42.645  26.127  27.349  1.00  0.00     0.049 A 
ATOM     35  N   UNL A   1      41.068  28.204  28.872  1.00  0.00    -0.248 NA
ATOM     36  C   UNL A   1      39.308  26.677  29.021  1.00  0.00     0.031 C 
ATOM     37  C   UNL A   1      43.445  25.152  26.609  1.00  0.00     0.029 A 
ATOM     38  N   UNL A   1      43.463  27.223  27.456  1.00  0.00    -0.354 N 
ATOM     39  C   UNL A   1      40.004  28.790  29.547  1.00  0.00     0.074 A 
ATOM     40  C   UNL A   1      38.937  27.815  29.588  1.00  0.00     0.031 C 
ATOM     41  C   UNL A   1      44.629  25.707  26.298  1.00  0.00     0.029 A 
ATOM     42  C   UNL A   1      44.657  27.082  26.792  1.00  0.00     0.049 A 
ATOM     43  H   UNL A   1      43.217  28.032  27.961  1.00  0.00     0.167 HD
ATOM     44  C   UNL A   1      39.928  30.026  30.091  1.00  0.00     0.034 A 
ATOM     45  C   UNL A   1      45.645  27.975  26.582  1.00  0.00     0.034 A 
ATOM     46  C   UNL A   1      41.001  30.981  30.065  1.00  0.00     0.049 A 
ATOM     47  C   UNL A   1      45.523  29.353  27.179  1.00  0.00     0.074 A 
ATOM     48  C   UNL A   1      41.046  32.239  30.637  1.00  0.00     0.029 A 
ATOM     49  N   UNL A   1      42.212  30.792  29.417  1.00  0.00    -0.354 N 
ATOM     50  N   UNL A   1      44.562  29.852  27.919  1.00  0.00    -0.248 NA
ATOM     51  C   UNL A   1      46.638  30.282  26.941  1.00  0.00     0.031 C 
ATOM     52  C   UNL A   1      42.270  32.826  30.300  1.00  0.00     0.029 A 
ATOM     53  C   UNL A   1      43.004  31.917  29.555  1.00  0.00     0.049 A 
ATOM     54  H   UNL A   1      42.470  29.976  28.929  1.00  0.00     0.167 HD
ATOM     55  C   UNL A   1      44.972  31.134  28.266  1.00  0.00     0.074 A 
ATOM     56  C   UNL A   1      46.278  31.329  27.671  1.00  0.00     0.031 C 
ATOM     57  C   UNL A   1      44.323  32.073  29.001  1.00  0.00     0.034 A 
BRANCH  44  58
ATOM     58  C   UNL A   1      38.639  30.421  30.762  1.00  0.00     0.023 A 
ATOM     59  C   UNL A   1      38.439  30.138  32.128  1.00  0.00     0.012 A 
ATOM     60  C   UNL A   1      37.652  31.130  30.051  1.00  0.00     0.148 A 
ATOM     61  C   UNL A   1      37.263  30.529  32.768  1.00  0.00     0.002 A 
ATOM     62  C   UNL A   1      36.504  31.558  30.706  1.00  0.00     0.091 A 
ATOM     63  F   UNL A   1      37.851  31.367  28.746  1.00  0.00    -0.205 F 
ATOM     64  C   UNL A   1      36.303  31.249  32.062  1.00  0.00     0.022 A 
BRANCH  62  65
ATOM     65  S   UNL A   1      35.247  32.558  29.904  1.00  0.00     0.127 S 
ATOM     66  O   UNL A   1      34.780  31.656  28.851  1.00  0.00    -0.237 OA
ATOM     67  O   UNL A   1      34.291  32.775  30.989  1.00  0.00    -0.237 OA
ATOM     68  O   UNL A   1      35.925  33.759  29.439  1.00  0.00    -0.744 OA
ENDBRANCH  62  65
ENDBRANCH  44  58
BRANCH  45  69
ATOM     69  C   UNL A   1      46.842  27.592  25.781  1.00  0.00     0.023 A 
ATOM     70  C   UNL A   1      46.860  27.828  24.392  1.00  0.00     0.012 A 
ATOM     71  C   UNL A   1      47.964  26.996  26.390  1.00  0.00     0.148 A 
ATOM     72  C   UNL A   1      47.957  27.443  23.621  1.00  0.00     0.002 A 
ATOM     73  C   UNL A   1      49.077  26.670  25.626  1.00  0.00     0.091 A 
ATOM     74  F   UNL A   1      47.920  26.763  27.710  1.00  0.00    -0.205 F 
ATOM     75  C   UNL A   1      49.069  26.874  24.237  1.00  0.00     0.022 A 
BRANCH  73  76
ATOM     76  S   UNL A   1      50.598  26.055  26.357  1.00  0.00     0.127 S 
ATOM     77  O   UNL A   1      51.432  25.839  25.178  1.00  0.00    -0.237 OA
ATOM     78  O   UNL A   1      51.002  27.181  27.200  1.00  0.00    -0.237 OA
ATOM     79  O   UNL A   1      50.222  24.858  27.096  1.00  0.00    -0.744 OA
ENDBRANCH  73  76
ENDBRANCH  45  69
BRANCH  57  80
ATOM     80  C   UNL A   1      45.030  33.381  29.249  1.00  0.00     0.023 A 
ATOM     81  C   UNL A   1      45.933  33.503  30.323  1.00  0.00     0.012 A 
ATOM     82  C   UNL A   1      44.853  34.466  28.367  1.00  0.00     0.148 A 
ATOM     83  C   UNL A   1      46.622  34.696  30.536  1.00  0.00     0.002 A 
ATOM     84  C   UNL A   1      45.583  35.633  28.554  1.00  0.00     0.091 A 
ATOM     85  F   UNL A   1      43.977  34.335  27.360  1.00  0.00    -0.205 F 
ATOM     86  C   UNL A   1      46.457  35.755  29.646  1.00  0.00     0.022 A 
BRANCH  84  87
ATOM     87  S   UNL A   1      45.512  37.008  27.401  1.00  0.00     0.127 S 
ATOM     88  O   UNL A   1      46.076  38.096  28.200  1.00  0.00    -0.237 OA
ATOM     89  O   UNL A   1      46.371  36.544  26.311  1.00  0.00    -0.237 OA
ATOM     90  O   UNL A   1      44.109  37.161  27.042  1.00  0.00    -0.744 OA
ENDBRANCH  84  87
ENDBRANCH  57  80
ENDBRANCH  31  32
ENDBRANCH  24  26
ENDBRANCH  23  24
ENDBRANCH  22  23
ENDBRANCH  21  22
ENDBRANCH   1  21
TORSDOF 20
ENDMDL
MODEL 2
REMARK VINA RESULT:     -10.2      1.657      2.238
REMARK SMILES CC(=O)[C@@H]1CCCC[N@H+]1CC(C)(C)C(=O)OCCOCCOC(=O)c1ccc(-c2c3nc(c(-c4cccc(S(=O)(=O)[O-])c4F)c4ccc([nH]4)c(-c4cccc(S(=O)(=O)[O-])c4F)c4nc(c(-c5cccc(S(=O)(=O)[O-])c5F)c5ccc2[nH]5)C=C4)C=C3)cc1
REMARK SMILES IDX 19 1 18 2 17 3 16 4 14 5 15 6 11 7 12 8 13 9 10 10 9 11 4 12
REMARK SMILES IDX 5 13 6 14 8 15 7 17 2 18 1 19 3 20 20 21 21 22 22 23 23 24
REMARK SMILES IDX 24 25 25 26 26 27 87 28 27 29 86 30 28 31 29 32 30 33 80 34
REMARK SMILES IDX 31 35 85 36 79 37 81 38 32 39 84 40 78 41 77 42 33 44 65 45
REMARK SMILES IDX 45 46 64 47 46 48 49 49 63 50 82 51 47 52 48 53 62 55 83 56
REMARK SMILES IDX 50 57 34 58 35 59 43 60 36 61 38 62 44 63 37 64 39 65 40 66
REMARK SMILES IDX 41 67 42 68 66 69 67 70 75 71 68 72 70 73 76 74 69 75 71 76
REMARK SMILES IDX 72 77 73 78 74 79 51 80 52 81 60 82 53 83 55 84 61 85 54 86
REMARK SMILES IDX 56 87 57 88 58 89 59 90
REMARK H PARENT 9 16 81 43 49 54
REMARK Flexibility Score: inf
ROOT
ATOM      1  O   UNL A   1      34.736  19.430  24.545  1.00  0.00    -0.374 OA
ENDROOT
BRANCH   1   2
ATOM      2  C   UNL A   1      33.381  19.342  24.971  1.00  0.00     0.202 C 
BRANCH   2   3
ATOM      3  C   UNL A   1      32.339  20.292  24.356  1.00  0.00     0.261 C 
BRANCH   3   4
ATOM      4  O   UNL A   1      32.229  21.537  25.054  1.00  0.00    -0.463 OA
BRANCH   4   5
ATOM      5  C   UNL A   1      32.271  22.655  24.282  1.00  0.00     0.317 C 
ATOM      6  O   UNL A   1      31.682  22.774  23.213  1.00  0.00    -0.251 OA
BRANCH   5   7
ATOM      7  C   UNL A   1      33.162  23.754  24.870  1.00  0.00     0.111 C 
ATOM      8  C   UNL A   1      34.448  23.728  24.028  1.00  0.00     0.029 C 
ATOM      9  C   UNL A   1      33.625  23.456  26.323  1.00  0.00     0.029 C 
BRANCH   7  10
ATOM     10  C   UNL A   1      32.427  25.147  24.914  1.00  0.00     0.281 C 
BRANCH  10  11
ATOM     11  N   UNL A   1      33.057  26.472  24.733  1.00  0.00    -0.325 N 
ATOM     12  C   UNL A   1      32.553  27.276  23.607  1.00  0.00     0.251 C 
ATOM     13  C   UNL A   1      33.173  28.678  23.500  1.00  0.00     0.074 C 
ATOM     14  C   UNL A   1      33.151  29.398  24.837  1.00  0.00     0.012 C 
ATOM     15  C   UNL A   1      33.305  27.178  25.994  1.00  0.00     0.262 C 
ATOM     16  H   UNL A   1      33.995  26.266  24.392  1.00  0.00     0.348 HD
ATOM     17  C   UNL A   1      33.927  28.566  25.841  1.00  0.00     0.062 C 
BRANCH  12  18
ATOM     18  C   UNL A   1      32.863  26.566  22.268  1.00  0.00     0.186 C 
ATOM     19  C   UNL A   1      31.681  26.038  21.495  1.00  0.00     0.094 C 
ATOM     20  O   UNL A   1      33.998  26.469  21.792  1.00  0.00    -0.293 OA
ENDBRANCH  12  18
ENDBRANCH  10  11
ENDBRANCH   7  10
ENDBRANCH   5   7
ENDBRANCH   4   5
ENDBRANCH   3   4
ENDBRANCH   2   3
ENDBRANCH   1   2
BRANCH   1  21
ATOM     21  C   UNL A   1      35.595  20.371  25.186  1.00  0.00     0.202 C 
BRANCH  21  22
ATOM     22  C   UNL A   1      37.092  20.409  24.844  1.00  0.00     0.261 C 
BRANCH  22  23
ATOM     23  O   UNL A   1      37.768  21.568  25.361  1.00  0.00    -0.460 OA
BRANCH  23  24
ATOM     24  C   UNL A   1      38.941  21.303  25.990  1.00  0.00     0.338 C 
ATOM     25  O   UNL A   1      39.604  20.285  25.913  1.00  0.00    -0.246 OA
BRANCH  24  26
ATOM     26  C   UNL A   1      39.450  22.528  26.631  1.00  0.00     0.060 A 
ATOM     27  C   UNL A   1      38.877  23.746  26.239  1.00  0.00     0.016 A 
ATOM     28  C   UNL A   1      40.526  22.496  27.518  1.00  0.00     0.016 A 
ATOM     29  C   UNL A   1      39.403  24.945  26.706  1.00  0.00     0.010 A 
ATOM     30  C   UNL A   1      41.066  23.703  27.970  1.00  0.00     0.010 A 
ATOM     31  C   UNL A   1      40.530  24.930  27.534  1.00  0.00    -0.014 A 
BRANCH  31  32
ATOM     32  C   UNL A   1      41.249  26.199  27.788  1.00  0.00     0.031 A 
ATOM     33  C   UNL A   1      40.562  27.265  28.595  1.00  0.00     0.074 A 
ATOM     34  C   UNL A   1      42.499  26.385  27.330  1.00  0.00     0.049 A 
ATOM     35  N   UNL A   1      40.987  28.456  28.925  1.00  0.00    -0.248 NA
ATOM     36  C   UNL A   1      39.213  26.948  29.097  1.00  0.00     0.031 C 
ATOM     37  C   UNL A   1      43.267  25.411  26.555  1.00  0.00     0.029 A 
ATOM     38  N   UNL A   1      43.332  27.469  27.432  1.00  0.00    -0.354 N 
ATOM     39  C   UNL A   1      39.948  29.044  29.637  1.00  0.00     0.074 A 
ATOM     40  C   UNL A   1      38.871  28.081  29.691  1.00  0.00     0.031 C 
ATOM     41  C   UNL A   1      44.449  25.957  26.221  1.00  0.00     0.029 A 
ATOM     42  C   UNL A   1      44.507  27.324  26.735  1.00  0.00     0.049 A 
ATOM     43  H   UNL A   1      43.109  28.273  27.955  1.00  0.00     0.167 HD
ATOM     44  C   UNL A   1      39.901  30.273  30.201  1.00  0.00     0.034 A 
ATOM     45  C   UNL A   1      45.500  28.209  26.512  1.00  0.00     0.034 A 
ATOM     46  C   UNL A   1      40.986  31.215  30.162  1.00  0.00     0.049 A 
ATOM     47  C   UNL A   1      45.410  29.579  27.133  1.00  0.00     0.074 A 
ATOM     48  C   UNL A   1      41.061  32.463  30.751  1.00  0.00     0.029 A 
ATOM     49  N   UNL A   1      42.176  31.021  29.479  1.00  0.00    -0.354 N 
ATOM     50  N   UNL A   1      44.475  30.077  27.906  1.00  0.00    -0.248 NA
ATOM     51  C   UNL A   1      46.529  30.498  26.880  1.00  0.00     0.031 C 
ATOM     52  C   UNL A   1      42.282  33.042  30.391  1.00  0.00     0.029 A 
ATOM     53  C   UNL A   1      42.985  32.135  29.613  1.00  0.00     0.049 A 
ATOM     54  H   UNL A   1      42.412  30.210  28.971  1.00  0.00     0.167 HD
ATOM     55  C   UNL A   1      44.909  31.349  28.261  1.00  0.00     0.074 A 
ATOM     56  C   UNL A   1      46.202  31.538  27.634  1.00  0.00     0.031 C 
ATOM     57  C   UNL A   1      44.292  32.284  29.026  1.00  0.00     0.034 A 
BRANCH  44  58
ATOM     58  C   UNL A   1      38.636  30.672  30.912  1.00  0.00     0.023 A 
ATOM     59  C   UNL A   1      38.504  30.450  32.297  1.00  0.00     0.012 A 
ATOM     60  C   UNL A   1      37.601  31.326  30.215  1.00  0.00     0.148 A 
ATOM     61  C   UNL A   1      37.349  30.847  32.972  1.00  0.00     0.002 A 
ATOM     62  C   UNL A   1      36.475  31.761  30.902  1.00  0.00     0.091 A 
ATOM     63  F   UNL A   1      37.737  31.505  28.893  1.00  0.00    -0.205 F 
ATOM     64  C   UNL A   1      36.342  31.512  32.278  1.00  0.00     0.022 A 
BRANCH  62  65
ATOM     65  S   UNL A   1      35.161  32.696  30.113  1.00  0.00     0.127 S 
ATOM     66  O   UNL A   1      34.226  32.885  31.222  1.00  0.00    -0.237 OA
ATOM     67  O   UNL A   1      35.860  33.910  29.691  1.00  0.00    -0.237 OA
ATOM     68  O   UNL A   1      34.673  31.864  29.022  1.00  0.00    -0.744 OA
ENDBRANCH  62  65
ENDBRANCH  44  58
BRANCH  45  69
ATOM     69  C   UNL A   1      46.671  27.824  25.674  1.00  0.00     0.023 A 
ATOM     70  C   UNL A   1      46.616  27.990  24.276  1.00  0.00     0.012 A 
ATOM     71  C   UNL A   1      47.839  27.295  26.257  1.00  0.00     0.148 A 
ATOM     72  C   UNL A   1      47.688  27.602  23.472  1.00  0.00     0.002 A 
ATOM     73  C   UNL A   1      48.926  26.966  25.457  1.00  0.00     0.091 A 
ATOM     74  F   UNL A   1      47.865  27.127  27.587  1.00  0.00    -0.205 F 
ATOM     75  C   UNL A   1      48.846  27.101  24.062  1.00  0.00     0.022 A 
BRANCH  73  76
ATOM     76  S   UNL A   1      50.499  26.437  26.143  1.00  0.00     0.127 S 
ATOM     77  O   UNL A   1      50.854  27.574  26.989  1.00  0.00    -0.237 OA
ATOM     78  O   UNL A   1      50.117  25.225  26.868  1.00  0.00    -0.237 OA
ATOM     79  O   UNL A   1      51.368  26.203  24.998  1.00  0.00    -0.744 OA
ENDBRANCH  73  76
ENDBRANCH  45  69
BRANCH  57  80
ATOM     80  C   UNL A   1      45.020  33.579  29.275  1.00  0.00     0.023 A 
ATOM     81  C   UNL A   1      44.815  34.681  28.422  1.00  0.00     0.012 A 
ATOM     82  C   UNL A   1      45.853  33.724  30.403  1.00  0.00     0.148 A 
ATOM     83  C   UNL A   1      45.454  35.896  28.668  1.00  0.00     0.002 A 
ATOM     84  C   UNL A   1      46.443  34.952  30.672  1.00  0.00     0.091 A 
ATOM     85  F   UNL A   1      46.049  32.659  31.194  1.00  0.00    -0.205 F 
ATOM     86  C   UNL A   1      46.257  36.035  29.798  1.00  0.00     0.022 A 
BRANCH  84  87
ATOM     87  S   UNL A   1      47.409  35.253  32.157  1.00  0.00     0.127 S 
ATOM     88  O   UNL A   1      48.141  36.466  31.795  1.00  0.00    -0.237 OA
ATOM     89  O   UNL A   1      46.369  35.447  33.169  1.00  0.00    -0.237 OA
ATOM     90  O   UNL A   1      48.228  34.064  32.352  1.00  0.00    -0.744 OA
ENDBRANCH  84  87
ENDBRANCH  57  80
ENDBRANCH  31  32
ENDBRANCH  24  26
ENDBRANCH  23  24
ENDBRANCH  22  23
ENDBRANCH  21  22
ENDBRANCH   1  21
TORSDOF 20
ENDMDL
MODEL 3
REMARK VINA RESULT:      -9.9      1.722      7.967
REMARK SMILES CC(=O)[C@@H]1CCCC[N@H+]1CC(C)(C)C(=O)OCCOCCOC(=O)c1ccc(-c2c3nc(c(-c4cccc(S(=O)(=O)[O-])c4F)c4ccc([nH]4)c(-c4cccc(S(=O)(=O)[O-])c4F)c4nc(c(-c5cccc(S(=O)(=O)[O-])c5F)c5ccc2[nH]5)C=C4)C=C3)cc1
REMARK SMILES IDX 19 1 18 2 17 3 16 4 14 5 15 6 11 7 12 8 13 9 10 10 9 11 4 12
REMARK SMILES IDX 5 13 6 14 8 15 7 17 2 18 1 19 3 20 20 21 21 22 22 23 23 24
REMARK SMILES IDX 24 25 25 26 26 27 87 28 27 29 86 30 28 31 29 32 30 33 80 34
REMARK SMILES IDX 31 35 85 36 79 37 81 38 32 39 84 40 78 41 77 42 33 44 65 45
REMARK SMILES IDX 45 46 64 47 46 48 49 49 63 50 82 51 47 52 48 53 62 55 83 56
REMARK SMILES IDX 50 57 34 58 35 59 43 60 36 61 38 62 44 63 37 64 39 65 40 66
REMARK SMILES IDX 41 67 42 68 66 69 67 70 75 71 68 72 70 73 76 74 69 75 71 76
REMARK SMILES IDX 72 77 73 78 74 79 51 80 52 81 60 82 53 83 55 84 61 85 54 86
REMARK SMILES IDX 56 87 57 88 58 89 59 90
REMARK H PARENT 9 16 81 43 49 54
REMARK Flexibility Score: inf
ROOT
ATOM      1  O   UNL A   1      38.589  21.510  25.434  1.00  0.00    -0.374 OA
ENDROOT
BRANCH   1   2
ATOM      2  C   UNL A   1      37.457  22.290  25.068  1.00  0.00     0.202 C 
BRANCH   2   3
ATOM      3  C   UNL A   1      36.074  21.621  25.007  1.00  0.00     0.261 C 
BRANCH   3   4
ATOM      4  O   UNL A   1      35.244  22.134  23.959  1.00  0.00    -0.463 OA
BRANCH   4   5
ATOM      5  C   UNL A   1      33.911  21.912  24.095  1.00  0.00     0.317 C 
ATOM      6  O   UNL A   1      33.431  20.941  24.672  1.00  0.00    -0.251 OA
BRANCH   5   7
ATOM      7  C   UNL A   1      33.054  22.990  23.424  1.00  0.00     0.111 C 
ATOM      8  C   UNL A   1      31.600  22.527  23.610  1.00  0.00     0.029 C 
ATOM      9  C   UNL A   1      33.259  23.066  21.886  1.00  0.00     0.029 C 
BRANCH   7  10
ATOM     10  C   UNL A   1      33.368  24.427  23.988  1.00  0.00     0.281 C 
BRANCH  10  11
ATOM     11  N   UNL A   1      32.392  25.519  24.188  1.00  0.00    -0.325 N 
ATOM     12  C   UNL A   1      31.913  26.186  22.966  1.00  0.00     0.251 C 
ATOM     13  C   UNL A   1      30.839  27.259  23.207  1.00  0.00     0.074 C 
ATOM     14  C   UNL A   1      29.732  26.743  24.108  1.00  0.00     0.012 C 
ATOM     15  C   UNL A   1      31.392  25.227  25.220  1.00  0.00     0.262 C 
ATOM     16  H   UNL A   1      32.936  26.278  24.597  1.00  0.00     0.348 HD
ATOM     17  C   UNL A   1      30.348  26.324  25.430  1.00  0.00     0.062 C 
BRANCH  12  18
ATOM     18  C   UNL A   1      33.086  26.903  22.258  1.00  0.00     0.186 C 
ATOM     19  C   UNL A   1      33.587  28.173  22.898  1.00  0.00     0.094 C 
ATOM     20  O   UNL A   1      33.652  26.459  21.254  1.00  0.00    -0.293 OA
ENDBRANCH  12  18
ENDBRANCH  10  11
ENDBRANCH   7  10
ENDBRANCH   5   7
ENDBRANCH   4   5
ENDBRANCH   3   4
ENDBRANCH   2   3
ENDBRANCH   1   2
BRANCH   1  21
ATOM     21  C   UNL A   1      38.554  20.103  25.201  1.00  0.00     0.202 C 
BRANCH  21  22
ATOM     22  C   UNL A   1      39.643  19.194  25.792  1.00  0.00     0.261 C 
BRANCH  22  23
ATOM     23  O   UNL A   1      40.974  19.564  25.395  1.00  0.00    -0.460 OA
BRANCH  23  24
ATOM     24  C   UNL A   1      41.821  19.811  26.427  1.00  0.00     0.338 C 
ATOM     25  O   UNL A   1      42.650  19.053  26.897  1.00  0.00    -0.246 OA
BRANCH  24  26
ATOM     26  C   UNL A   1      41.768  21.239  26.784  1.00  0.00     0.060 A 
ATOM     27  C   UNL A   1      41.756  22.166  25.732  1.00  0.00     0.016 A 
ATOM     28  C   UNL A   1      41.830  21.664  28.111  1.00  0.00     0.016 A 
ATOM     29  C   UNL A   1      41.841  23.527  26.002  1.00  0.00     0.010 A 
ATOM     30  C   UNL A   1      41.936  23.031  28.380  1.00  0.00     0.010 A 
ATOM     31  C   UNL A   1      41.981  23.962  27.324  1.00  0.00    -0.014 A 
BRANCH  31  32
ATOM     32  C   UNL A   1      42.358  25.371  27.577  1.00  0.00     0.031 A 
ATOM     33  C   UNL A   1      43.720  25.839  27.149  1.00  0.00     0.074 A 
ATOM     34  C   UNL A   1      41.491  26.221  28.154  1.00  0.00     0.049 A 
ATOM     35  N   UNL A   1      44.271  27.017  27.284  1.00  0.00    -0.248 NA
ATOM     36  C   UNL A   1      44.579  24.847  26.478  1.00  0.00     0.031 C 
ATOM     37  C   UNL A   1      40.138  25.880  28.592  1.00  0.00     0.029 A 
ATOM     38  N   UNL A   1      41.633  27.542  28.494  1.00  0.00    -0.354 N 
ATOM     39  C   UNL A   1      45.550  26.899  26.754  1.00  0.00     0.074 A 
ATOM     40  C   UNL A   1      45.696  25.535  26.294  1.00  0.00     0.031 C 
ATOM     41  C   UNL A   1      39.584  26.957  29.173  1.00  0.00     0.029 A 
ATOM     42  C   UNL A   1      40.553  28.052  29.173  1.00  0.00     0.049 A 
ATOM     43  H   UNL A   1      42.431  28.074  28.270  1.00  0.00     0.167 HD
ATOM     44  C   UNL A   1      46.513  27.844  26.652  1.00  0.00     0.034 A 
ATOM     45  C   UNL A   1      40.382  29.255  29.757  1.00  0.00     0.034 A 
ATOM     46  C   UNL A   1      46.351  29.203  27.090  1.00  0.00     0.049 A 
ATOM     47  C   UNL A   1      41.480  30.281  29.648  1.00  0.00     0.074 A 
ATOM     48  C   UNL A   1      47.242  30.254  26.980  1.00  0.00     0.029 A 
ATOM     49  N   UNL A   1      45.230  29.695  27.741  1.00  0.00    -0.354 N 
ATOM     50  N   UNL A   1      42.637  30.193  29.036  1.00  0.00    -0.248 NA
ATOM     51  C   UNL A   1      41.236  31.586  30.281  1.00  0.00     0.031 C 
ATOM     52  C   UNL A   1      46.676  31.372  27.600  1.00  0.00     0.029 A 
ATOM     53  C   UNL A   1      45.415  31.029  28.058  1.00  0.00     0.049 A 
ATOM     54  H   UNL A   1      44.421  29.172  27.948  1.00  0.00     0.167 HD
ATOM     55  C   UNL A   1      43.240  31.438  29.177  1.00  0.00     0.074 A 
ATOM     56  C   UNL A   1      42.312  32.270  29.916  1.00  0.00     0.031 C 
ATOM     57  C   UNL A   1      44.457  31.856  28.746  1.00  0.00     0.034 A 
BRANCH  44  58
ATOM     58  C   UNL A   1      47.830  27.445  26.041  1.00  0.00     0.023 A 
ATOM     59  C   UNL A   1      48.838  26.879  26.846  1.00  0.00     0.012 A 
ATOM     60  C   UNL A   1      48.042  27.576  24.655  1.00  0.00     0.148 A 
ATOM     61  C   UNL A   1      50.050  26.475  26.285  1.00  0.00     0.002 A 
ATOM     62  C   UNL A   1      49.232  27.127  24.096  1.00  0.00     0.091 A 
ATOM     63  F   UNL A   1      47.080  28.140  23.912  1.00  0.00    -0.205 F 
ATOM     64  C   UNL A   1      50.241  26.587  24.910  1.00  0.00     0.022 A 
BRANCH  62  65
ATOM     65  S   UNL A   1      49.541  27.156  22.327  1.00  0.00     0.127 S 
ATOM     66  O   UNL A   1      48.515  26.239  21.833  1.00  0.00    -0.237 OA
ATOM     67  O   UNL A   1      49.311  28.563  21.999  1.00  0.00    -0.237 OA
ATOM     68  O   UNL A   1      50.915  26.707  22.151  1.00  0.00    -0.744 OA
ENDBRANCH  62  65
ENDBRANCH  44  58
BRANCH  45  69
ATOM     69  C   UNL A   1      39.118  29.561  30.485  1.00  0.00     0.023 A 
ATOM     70  C   UNL A   1      38.907  29.033  31.774  1.00  0.00     0.012 A 
ATOM     71  C   UNL A   1      38.125  30.375  29.905  1.00  0.00     0.148 A 
ATOM     72  C   UNL A   1      37.715  29.280  32.455  1.00  0.00     0.002 A 
ATOM     73  C   UNL A   1      36.966  30.665  30.614  1.00  0.00     0.091 A 
ATOM     74  F   UNL A   1      38.337  30.853  28.671  1.00  0.00    -0.205 F 
ATOM     75  C   UNL A   1      36.750  30.103  31.881  1.00  0.00     0.022 A 
BRANCH  73  76
ATOM     76  S   UNL A   1      35.732  31.819  30.005  1.00  0.00     0.127 S 
ATOM     77  O   UNL A   1      34.883  31.998  31.179  1.00  0.00    -0.237 OA
ATOM     78  O   UNL A   1      36.552  32.980  29.655  1.00  0.00    -0.237 OA
ATOM     79  O   UNL A   1      35.108  31.161  28.865  1.00  0.00    -0.744 OA
ENDBRANCH  73  76
ENDBRANCH  45  69
BRANCH  57  80
ATOM     80  C   UNL A   1      44.843  33.288  29.014  1.00  0.00     0.023 A 
ATOM     81  C   UNL A   1      45.624  33.610  30.141  1.00  0.00     0.012 A 
ATOM     82  C   UNL A   1      44.492  34.303  28.102  1.00  0.00     0.148 A 
ATOM     83  C   UNL A   1      46.019  34.927  30.376  1.00  0.00     0.002 A 
ATOM     84  C   UNL A   1      44.935  35.603  28.313  1.00  0.00     0.091 A 
ATOM     85  F   UNL A   1      43.735  33.979  27.044  1.00  0.00    -0.205 F 
ATOM     86  C   UNL A   1      45.686  35.919  29.456  1.00  0.00     0.022 A 
BRANCH  84  87
ATOM     87  S   UNL A   1      44.642  36.924  27.132  1.00  0.00     0.127 S 
ATOM     88  O   UNL A   1      43.387  36.496  26.513  1.00  0.00    -0.237 OA
ATOM     89  O   UNL A   1      44.524  38.096  28.001  1.00  0.00    -0.237 OA
ATOM     90  O   UNL A   1      45.800  36.940  26.249  1.00  0.00    -0.744 OA
ENDBRANCH  84  87
ENDBRANCH  57  80
ENDBRANCH  31  32
ENDBRANCH  24  26
ENDBRANCH  23  24
ENDBRANCH  22  23
ENDBRANCH  21  22
ENDBRANCH   1  21
TORSDOF 20
ENDMDL
