MODEL 1
REMARK VINA RESULT:     -11.2      0.000      0.000
REMARK SMILES Cc1ccc(C)c(S(=O)(=O)N[C@H](CC2=c3ccccc3=NC2)C(=O)OCCOCCOC(=O)c2ccc(-c3c4nc(c(-c5cccc(S(=O)(=O)[O-])c5F)c5ccc([nH]5)c(-c5cccc(S(=O)(=O)[O-])c5F)c5nc(c(-c6cccc(S(=O)(=O)[O-])c6F)c6ccc3[nH]6)C=C5)C=C4)cc2)c1
REMARK SMILES IDX 28 1 27 2 26 3 25 4 23 5 24 6 12 7 11 8 8 10 9 11 10 12 7 13
REMARK SMILES IDX 1 14 2 15 3 16 97 17 4 18 5 19 6 20 13 21 14 22 15 23 22 24
REMARK SMILES IDX 16 25 20 26 21 27 17 28 19 29 18 30 29 31 30 32 31 33 32 34
REMARK SMILES IDX 33 35 34 36 35 37 96 38 36 39 95 40 37 41 38 42 39 43 89 44
REMARK SMILES IDX 40 45 94 46 88 47 90 48 41 49 93 50 87 51 86 52 42 54 74 55
REMARK SMILES IDX 54 56 73 57 55 58 58 59 72 60 91 61 56 62 57 63 71 65 92 66
REMARK SMILES IDX 59 67 43 68 44 69 52 70 45 71 47 72 53 73 46 74 48 75 49 76
REMARK SMILES IDX 50 77 51 78 75 79 76 80 84 81 77 82 79 83 85 84 78 85 80 86
REMARK SMILES IDX 81 87 82 88 83 89 60 90 61 91 69 92 62 93 64 94 70 95 63 96
REMARK SMILES IDX 65 97 66 98 67 99 68 100
REMARK H PARENT 11 9 90 53 58 64
REMARK Flexibility Score: inf
ROOT
ATOM      1  O   UNL A   1      34.210  31.577  27.883  1.00  0.00    -0.374 OA
ENDROOT
BRANCH   1   2
ATOM      2  C   UNL A   1      34.429  30.275  27.381  1.00  0.00     0.202 C 
BRANCH   2   3
ATOM      3  C   UNL A   1      33.056  29.635  27.102  1.00  0.00     0.261 C 
BRANCH   3   4
ATOM      4  O   UNL A   1      33.007  28.281  27.617  1.00  0.00    -0.462 OA
BRANCH   4   5
ATOM      5  C   UNL A   1      31.950  27.536  27.198  1.00  0.00     0.324 C 
ATOM      6  O   UNL A   1      30.783  27.777  27.465  1.00  0.00    -0.250 OA
BRANCH   5   7
ATOM      7  C   UNL A   1      32.380  26.341  26.358  1.00  0.00     0.183 C 
BRANCH   7   8
ATOM      8  N   UNL A   1      32.136  25.045  27.064  1.00  0.00    -0.197 NA
ATOM      9  H   UNL A   1      33.039  24.595  27.214  1.00  0.00     0.142 HD
BRANCH   8  10
ATOM     10  S   UNL A   1      31.138  23.948  26.251  1.00  0.00     0.241 S 
ATOM     11  O   UNL A   1      30.605  24.676  25.139  1.00  0.00    -0.207 OA
ATOM     12  O   UNL A   1      30.327  23.348  27.288  1.00  0.00    -0.207 OA
BRANCH  10  13
ATOM     13  C   UNL A   1      32.176  22.705  25.550  1.00  0.00     0.085 A 
ATOM     14  C   UNL A   1      32.051  20.494  22.484  1.00  0.00     0.044 C 
ATOM     15  C   UNL A   1      32.478  21.070  23.797  1.00  0.00    -0.050 A 
ATOM     16  C   UNL A   1      33.377  20.378  24.614  1.00  0.00     0.004 A 
ATOM     17  C   UNL A   1      31.930  22.273  24.246  1.00  0.00     0.025 A 
ATOM     18  C   UNL A   1      33.665  20.837  25.897  1.00  0.00     0.005 A 
ATOM     19  C   UNL A   1      33.050  21.992  26.392  1.00  0.00    -0.031 A 
ATOM     20  C   UNL A   1      33.215  22.291  27.854  1.00  0.00     0.046 C 
ENDBRANCH  10  13
ENDBRANCH   8  10
ENDBRANCH   7   8
BRANCH   7  21
ATOM     21  C   UNL A   1      33.827  26.293  25.801  1.00  0.00     0.065 C 
BRANCH  21  22
ATOM     22  C   UNL A   1      34.249  25.341  24.725  1.00  0.00    -0.037 C 
ATOM     23  C   UNL A   1      35.221  24.430  24.766  1.00  0.00     0.001 A 
ATOM     24  C   UNL A   1      33.687  25.431  23.332  1.00  0.00     0.174 C 
ATOM     25  C   UNL A   1      36.153  23.977  25.750  1.00  0.00     0.010 A 
ATOM     26  C   UNL A   1      35.160  23.823  23.426  1.00  0.00     0.065 A 
ATOM     27  N   UNL A   1      34.339  24.340  22.565  1.00  0.00    -0.280 NA
ATOM     28  C   UNL A   1      36.937  22.925  25.458  1.00  0.00     0.001 A 
ATOM     29  C   UNL A   1      36.019  22.643  23.196  1.00  0.00     0.028 A 
ATOM     30  C   UNL A   1      36.843  22.239  24.178  1.00  0.00     0.002 A 
ENDBRANCH  21  22
ENDBRANCH   7  21
ENDBRANCH   5   7
ENDBRANCH   4   5
ENDBRANCH   3   4
ENDBRANCH   2   3
ENDBRANCH   1   2
BRANCH   1  31
ATOM     31  C   UNL A   1      34.535  31.897  29.219  1.00  0.00     0.202 C 
BRANCH  31  32
ATOM     32  C   UNL A   1      35.345  33.184  29.378  1.00  0.00     0.261 C 
BRANCH  32  33
ATOM     33  O   UNL A   1      36.707  32.961  29.801  1.00  0.00    -0.460 OA
BRANCH  33  34
ATOM     34  C   UNL A   1      36.840  32.572  31.101  1.00  0.00     0.338 C 
ATOM     35  O   UNL A   1      36.218  33.067  32.027  1.00  0.00    -0.246 OA
BRANCH  34  36
ATOM     36  C   UNL A   1      37.958  31.596  31.230  1.00  0.00     0.060 A 
ATOM     37  C   UNL A   1      39.092  31.950  31.979  1.00  0.00     0.016 A 
ATOM     38  C   UNL A   1      38.003  30.513  30.347  1.00  0.00     0.016 A 
ATOM     39  C   UNL A   1      40.303  31.281  31.757  1.00  0.00     0.010 A 
ATOM     40  C   UNL A   1      39.226  29.946  30.039  1.00  0.00     0.010 A 
ATOM     41  C   UNL A   1      40.381  30.310  30.749  1.00  0.00    -0.014 A 
BRANCH  41  42
ATOM     42  C   UNL A   1      41.380  29.240  30.748  1.00  0.00     0.031 A 
ATOM     43  C   UNL A   1      41.820  29.021  32.122  1.00  0.00     0.074 A 
ATOM     44  C   UNL A   1      41.983  28.511  29.793  1.00  0.00     0.049 A 
ATOM     45  N   UNL A   1      42.817  29.683  32.620  1.00  0.00    -0.248 NA
ATOM     46  C   UNL A   1      41.017  28.270  33.086  1.00  0.00     0.031 C 
ATOM     47  C   UNL A   1      42.132  28.862  28.397  1.00  0.00     0.029 A 
ATOM     48  N   UNL A   1      42.599  27.272  29.887  1.00  0.00    -0.354 N 
ATOM     49  C   UNL A   1      42.991  29.094  33.842  1.00  0.00     0.074 A 
ATOM     50  C   UNL A   1      41.722  28.496  34.198  1.00  0.00     0.031 C 
ATOM     51  C   UNL A   1      42.713  27.831  27.746  1.00  0.00     0.029 A 
ATOM     52  C   UNL A   1      42.849  26.685  28.644  1.00  0.00     0.049 A 
ATOM     53  H   UNL A   1      42.836  26.848  30.743  1.00  0.00     0.167 HD
ATOM     54  C   UNL A   1      44.243  28.713  34.197  1.00  0.00     0.034 A 
ATOM     55  C   UNL A   1      43.706  25.684  28.331  1.00  0.00     0.034 A 
ATOM     56  C   UNL A   1      45.287  29.264  33.373  1.00  0.00     0.049 A 
ATOM     57  C   UNL A   1      44.994  25.989  28.978  1.00  0.00     0.074 A 
ATOM     58  C   UNL A   1      45.876  30.496  33.179  1.00  0.00     0.029 A 
ATOM     59  N   UNL A   1      45.598  28.502  32.278  1.00  0.00    -0.354 N 
ATOM     60  N   UNL A   1      45.797  26.946  28.605  1.00  0.00    -0.248 NA
ATOM     61  C   UNL A   1      45.313  25.348  30.250  1.00  0.00     0.031 C 
ATOM     62  C   UNL A   1      46.581  30.437  31.939  1.00  0.00     0.029 A 
ATOM     63  C   UNL A   1      46.397  29.176  31.387  1.00  0.00     0.049 A 
ATOM     64  H   UNL A   1      45.286  27.577  32.145  1.00  0.00     0.167 HD
ATOM     65  C   UNL A   1      46.408  27.317  29.786  1.00  0.00     0.074 A 
ATOM     66  C   UNL A   1      46.230  26.203  30.702  1.00  0.00     0.031 C 
ATOM     67  C   UNL A   1      46.632  28.628  30.071  1.00  0.00     0.034 A 
BRANCH  54  68
ATOM     68  C   UNL A   1      44.424  27.456  34.973  1.00  0.00     0.023 A 
ATOM     69  C   UNL A   1      44.986  27.514  36.251  1.00  0.00     0.012 A 
ATOM     70  C   UNL A   1      44.146  26.186  34.421  1.00  0.00     0.148 A 
ATOM     71  C   UNL A   1      45.166  26.345  36.993  1.00  0.00     0.002 A 
ATOM     72  C   UNL A   1      44.187  25.054  35.208  1.00  0.00     0.091 A 
ATOM     73  F   UNL A   1      43.923  26.067  33.102  1.00  0.00    -0.205 F 
ATOM     74  C   UNL A   1      44.716  25.121  36.495  1.00  0.00     0.022 A 
BRANCH  72  75
ATOM     75  S   UNL A   1      43.402  23.547  34.634  1.00  0.00     0.127 S 
ATOM     76  O   UNL A   1      43.733  23.561  33.214  1.00  0.00    -0.237 OA
ATOM     77  O   UNL A   1      44.084  22.522  35.425  1.00  0.00    -0.237 OA
ATOM     78  O   UNL A   1      41.996  23.721  34.984  1.00  0.00    -0.744 OA
ENDBRANCH  72  75
ENDBRANCH  54  68
BRANCH  55  79
ATOM     79  C   UNL A   1      43.358  24.318  27.855  1.00  0.00     0.023 A 
ATOM     80  C   UNL A   1      42.407  23.584  28.596  1.00  0.00     0.012 A 
ATOM     81  C   UNL A   1      43.923  23.702  26.717  1.00  0.00     0.148 A 
ATOM     82  C   UNL A   1      42.028  22.291  28.223  1.00  0.00     0.002 A 
ATOM     83  C   UNL A   1      43.589  22.384  26.385  1.00  0.00     0.091 A 
ATOM     84  F   UNL A   1      44.792  24.393  25.967  1.00  0.00    -0.205 F 
ATOM     85  C   UNL A   1      42.627  21.685  27.126  1.00  0.00     0.022 A 
BRANCH  83  86
ATOM     86  S   UNL A   1      44.491  21.461  25.126  1.00  0.00     0.127 S 
ATOM     87  O   UNL A   1      43.798  20.169  25.121  1.00  0.00    -0.237 OA
ATOM     88  O   UNL A   1      44.283  22.264  23.927  1.00  0.00    -0.237 OA
ATOM     89  O   UNL A   1      45.857  21.376  25.624  1.00  0.00    -0.744 OA
ENDBRANCH  83  86
ENDBRANCH  55  79
BRANCH  67  90
ATOM     90  C   UNL A   1      46.911  29.547  28.929  1.00  0.00     0.023 A 
ATOM     91  C   UNL A   1      48.162  29.583  28.289  1.00  0.00     0.012 A 
ATOM     92  C   UNL A   1      45.859  30.334  28.432  1.00  0.00     0.148 A 
ATOM     93  C   UNL A   1      48.366  30.401  27.175  1.00  0.00     0.002 A 
ATOM     94  C   UNL A   1      46.051  31.112  27.297  1.00  0.00     0.091 A 
ATOM     95  F   UNL A   1      44.681  30.296  29.073  1.00  0.00    -0.205 F 
ATOM     96  C   UNL A   1      47.308  31.155  26.671  1.00  0.00     0.022 A 
BRANCH  94  97
ATOM     97  S   UNL A   1      44.700  31.997  26.516  1.00  0.00     0.127 S 
ATOM     98  O   UNL A   1      43.732  30.932  26.263  1.00  0.00    -0.237 OA
ATOM     99  O   UNL A   1      44.305  32.945  27.561  1.00  0.00    -0.237 OA
ATOM    100  O   UNL A   1      45.264  32.626  25.328  1.00  0.00    -0.744 OA
ENDBRANCH  94  97
ENDBRANCH  67  90
ENDBRANCH  41  42
ENDBRANCH  34  36
ENDBRANCH  33  34
ENDBRANCH  32  33
ENDBRANCH  31  32
ENDBRANCH   1  31
TORSDOF 22
ENDMDL
MODEL 2
REMARK VINA RESULT:     -10.9      2.785      8.112
REMARK SMILES Cc1ccc(C)c(S(=O)(=O)N[C@H](CC2=c3ccccc3=NC2)C(=O)OCCOCCOC(=O)c2ccc(-c3c4nc(c(-c5cccc(S(=O)(=O)[O-])c5F)c5ccc([nH]5)c(-c5cccc(S(=O)(=O)[O-])c5F)c5nc(c(-c6cccc(S(=O)(=O)[O-])c6F)c6ccc3[nH]6)C=C5)C=C4)cc2)c1
REMARK SMILES IDX 28 1 27 2 26 3 25 4 23 5 24 6 12 7 11 8 8 10 9 11 10 12 7 13
REMARK SMILES IDX 1 14 2 15 3 16 97 17 4 18 5 19 6 20 13 21 14 22 15 23 22 24
REMARK SMILES IDX 16 25 20 26 21 27 17 28 19 29 18 30 29 31 30 32 31 33 32 34
REMARK SMILES IDX 33 35 34 36 35 37 96 38 36 39 95 40 37 41 38 42 39 43 89 44
REMARK SMILES IDX 40 45 94 46 88 47 90 48 41 49 93 50 87 51 86 52 42 54 74 55
REMARK SMILES IDX 54 56 73 57 55 58 58 59 72 60 91 61 56 62 57 63 71 65 92 66
REMARK SMILES IDX 59 67 43 68 44 69 52 70 45 71 47 72 53 73 46 74 48 75 49 76
REMARK SMILES IDX 50 77 51 78 75 79 76 80 84 81 77 82 79 83 85 84 78 85 80 86
REMARK SMILES IDX 81 87 82 88 83 89 60 90 61 91 69 92 62 93 64 94 70 95 63 96
REMARK SMILES IDX 65 97 66 98 67 99 68 100
REMARK H PARENT 11 9 90 53 58 64
REMARK Flexibility Score: inf
ROOT
ATOM      1  O   UNL A   1      37.925  19.600  24.625  1.00  0.00    -0.374 OA
ENDROOT
BRANCH   1   2
ATOM      2  C   UNL A   1      36.697  20.186  25.003  1.00  0.00     0.202 C 
BRANCH   2   3
ATOM      3  C   UNL A   1      36.832  21.714  24.858  1.00  0.00     0.261 C 
BRANCH   3   4
ATOM      4  O   UNL A   1      35.621  22.286  24.308  1.00  0.00    -0.462 OA
BRANCH   4   5
ATOM      5  C   UNL A   1      35.161  23.398  24.941  1.00  0.00     0.324 C 
ATOM      6  O   UNL A   1      35.835  24.107  25.674  1.00  0.00    -0.250 OA
BRANCH   5   7
ATOM      7  C   UNL A   1      33.691  23.666  24.650  1.00  0.00     0.183 C 
BRANCH   7   8
ATOM      8  N   UNL A   1      33.188  24.874  25.376  1.00  0.00    -0.197 NA
ATOM      9  H   UNL A   1      32.798  24.565  26.265  1.00  0.00     0.142 HD
BRANCH   8  10
ATOM     10  S   UNL A   1      32.002  25.768  24.569  1.00  0.00     0.241 S 
ATOM     11  O   UNL A   1      30.771  25.436  25.221  1.00  0.00    -0.207 OA
ATOM     12  O   UNL A   1      32.259  25.542  23.163  1.00  0.00    -0.207 OA
BRANCH  10  13
ATOM     13  C   UNL A   1      32.285  27.473  24.931  1.00  0.00     0.085 A 
ATOM     14  C   UNL A   1      34.316  29.393  27.479  1.00  0.00     0.044 C 
ATOM     15  C   UNL A   1      33.342  29.086  26.385  1.00  0.00    -0.050 A 
ATOM     16  C   UNL A   1      32.405  30.043  25.984  1.00  0.00     0.004 A 
ATOM     17  C   UNL A   1      33.318  27.817  25.803  1.00  0.00     0.025 A 
ATOM     18  C   UNL A   1      31.405  29.715  25.072  1.00  0.00     0.005 A 
ATOM     19  C   UNL A   1      31.315  28.420  24.552  1.00  0.00    -0.031 A 
ATOM     20  C   UNL A   1      30.080  28.071  23.772  1.00  0.00     0.046 C 
ENDBRANCH  10  13
ENDBRANCH   8  10
ENDBRANCH   7   8
BRANCH   7  21
ATOM     21  C   UNL A   1      32.658  22.532  24.880  1.00  0.00     0.065 C 
BRANCH  21  22
ATOM     22  C   UNL A   1      32.452  21.415  23.906  1.00  0.00    -0.037 C 
ATOM     23  C   UNL A   1      32.735  20.122  24.063  1.00  0.00     0.001 A 
ATOM     24  C   UNL A   1      32.024  21.679  22.487  1.00  0.00     0.174 C 
ATOM     25  C   UNL A   1      33.255  19.313  25.120  1.00  0.00     0.010 A 
ATOM     26  C   UNL A   1      32.324  19.536  22.776  1.00  0.00     0.065 A 
ATOM     27  N   UNL A   1      31.931  20.345  21.841  1.00  0.00    -0.280 NA
ATOM     28  C   UNL A   1      33.299  17.980  24.949  1.00  0.00     0.001 A 
ATOM     29  C   UNL A   1      32.358  18.061  22.681  1.00  0.00     0.028 A 
ATOM     30  C   UNL A   1      32.817  17.355  23.727  1.00  0.00     0.002 A 
ENDBRANCH  21  22
ENDBRANCH   7  21
ENDBRANCH   5   7
ENDBRANCH   4   5
ENDBRANCH   3   4
ENDBRANCH   2   3
ENDBRANCH   1   2
BRANCH   1  31
ATOM     31  C   UNL A   1      38.816  19.103  25.602  1.00  0.00     0.202 C 
BRANCH  31  32
ATOM     32  C   UNL A   1      40.154  19.838  25.662  1.00  0.00     0.261 C 
BRANCH  32  33
ATOM     33  O   UNL A   1      41.298  18.958  25.659  1.00  0.00    -0.460 OA
BRANCH  33  34
ATOM     34  C   UNL A   1      42.498  19.588  25.509  1.00  0.00     0.338 C 
ATOM     35  O   UNL A   1      43.411  19.161  24.821  1.00  0.00    -0.246 OA
BRANCH  34  36
ATOM     36  C   UNL A   1      42.579  20.758  26.430  1.00  0.00     0.060 A 
ATOM     37  C   UNL A   1      41.822  20.750  27.612  1.00  0.00     0.016 A 
ATOM     38  C   UNL A   1      43.126  21.950  25.946  1.00  0.00     0.016 A 
ATOM     39  C   UNL A   1      41.524  21.962  28.249  1.00  0.00     0.010 A 
ATOM     40  C   UNL A   1      42.721  23.149  26.502  1.00  0.00     0.010 A 
ATOM     41  C   UNL A   1      41.933  23.169  27.664  1.00  0.00    -0.014 A 
BRANCH  41  42
ATOM     42  C   UNL A   1      42.122  24.402  28.429  1.00  0.00     0.031 A 
ATOM     43  C   UNL A   1      40.999  25.292  28.155  1.00  0.00     0.074 A 
ATOM     44  C   UNL A   1      43.092  24.876  29.231  1.00  0.00     0.049 A 
ATOM     45  N   UNL A   1      41.035  26.132  27.169  1.00  0.00    -0.248 NA
ATOM     46  C   UNL A   1      39.689  25.106  28.778  1.00  0.00     0.031 C 
ATOM     47  C   UNL A   1      44.480  24.466  29.251  1.00  0.00     0.029 A 
ATOM     48  N   UNL A   1      43.023  25.848  30.218  1.00  0.00    -0.354 N 
ATOM     49  C   UNL A   1      39.886  26.852  27.342  1.00  0.00     0.074 A 
ATOM     50  C   UNL A   1      38.981  26.013  28.099  1.00  0.00     0.031 C 
ATOM     51  C   UNL A   1      45.112  25.111  30.256  1.00  0.00     0.029 A 
ATOM     52  C   UNL A   1      44.146  25.872  31.048  1.00  0.00     0.049 A 
ATOM     53  H   UNL A   1      42.259  26.460  30.323  1.00  0.00     0.167 HD
ATOM     54  C   UNL A   1      39.966  28.206  27.310  1.00  0.00     0.034 A 
ATOM     55  C   UNL A   1      44.580  26.859  31.868  1.00  0.00     0.034 A 
ATOM     56  C   UNL A   1      41.204  28.713  26.778  1.00  0.00     0.049 A 
ATOM     57  C   UNL A   1      44.528  28.119  31.106  1.00  0.00     0.074 A 
ATOM     58  C   UNL A   1      41.817  28.794  25.544  1.00  0.00     0.029 A 
ATOM     59  N   UNL A   1      42.186  28.893  27.717  1.00  0.00    -0.354 N 
ATOM     60  N   UNL A   1      45.335  28.422  30.129  1.00  0.00    -0.248 NA
ATOM     61  C   UNL A   1      43.377  29.001  31.281  1.00  0.00     0.031 C 
ATOM     62  C   UNL A   1      43.200  29.060  25.775  1.00  0.00     0.029 A 
ATOM     63  C   UNL A   1      43.414  29.121  27.146  1.00  0.00     0.049 A 
ATOM     64  H   UNL A   1      42.030  28.863  28.689  1.00  0.00     0.167 HD
ATOM     65  C   UNL A   1      44.553  29.219  29.317  1.00  0.00     0.074 A 
ATOM     66  C   UNL A   1      43.459  29.695  30.147  1.00  0.00     0.031 C 
ATOM     67  C   UNL A   1      44.605  29.097  27.963  1.00  0.00     0.034 A 
BRANCH  54  68
ATOM     68  C   UNL A   1      39.110  29.004  28.227  1.00  0.00     0.023 A 
ATOM     69  C   UNL A   1      38.232  29.951  27.695  1.00  0.00     0.012 A 
ATOM     70  C   UNL A   1      39.228  28.916  29.632  1.00  0.00     0.148 A 
ATOM     71  C   UNL A   1      37.422  30.712  28.541  1.00  0.00     0.002 A 
ATOM     72  C   UNL A   1      38.327  29.559  30.455  1.00  0.00     0.091 A 
ATOM     73  F   UNL A   1      40.275  28.272  30.173  1.00  0.00    -0.205 F 
ATOM     74  C   UNL A   1      37.428  30.478  29.917  1.00  0.00     0.022 A 
BRANCH  72  75
ATOM     75  S   UNL A   1      38.203  29.080  32.179  1.00  0.00     0.127 S 
ATOM     76  O   UNL A   1      39.253  29.886  32.788  1.00  0.00    -0.237 OA
ATOM     77  O   UNL A   1      36.835  29.478  32.513  1.00  0.00    -0.237 OA
ATOM     78  O   UNL A   1      38.407  27.635  32.162  1.00  0.00    -0.744 OA
ENDBRANCH  72  75
ENDBRANCH  54  68
BRANCH  55  79
ATOM     79  C   UNL A   1      44.645  26.829  33.354  1.00  0.00     0.023 A 
ATOM     80  C   UNL A   1      45.897  26.575  33.954  1.00  0.00     0.012 A 
ATOM     81  C   UNL A   1      43.537  27.028  34.206  1.00  0.00     0.148 A 
ATOM     82  C   UNL A   1      46.047  26.522  35.343  1.00  0.00     0.002 A 
ATOM     83  C   UNL A   1      43.678  26.911  35.593  1.00  0.00     0.091 A 
ATOM     84  F   UNL A   1      42.345  27.319  33.665  1.00  0.00    -0.205 F 
ATOM     85  C   UNL A   1      44.937  26.677  36.163  1.00  0.00     0.022 A 
BRANCH  83  86
ATOM     86  S   UNL A   1      42.252  26.867  36.696  1.00  0.00     0.127 S 
ATOM     87  O   UNL A   1      42.842  26.422  37.962  1.00  0.00    -0.237 OA
ATOM     88  O   UNL A   1      41.801  28.253  36.692  1.00  0.00    -0.237 OA
ATOM     89  O   UNL A   1      41.348  25.887  36.109  1.00  0.00    -0.744 OA
ENDBRANCH  83  86
ENDBRANCH  55  79
BRANCH  67  90
ATOM     90  C   UNL A   1      45.910  28.703  27.354  1.00  0.00     0.023 A 
ATOM     91  C   UNL A   1      47.008  29.579  27.313  1.00  0.00     0.012 A 
ATOM     92  C   UNL A   1      46.059  27.388  26.885  1.00  0.00     0.148 A 
ATOM     93  C   UNL A   1      48.237  29.153  26.804  1.00  0.00     0.002 A 
ATOM     94  C   UNL A   1      47.294  26.953  26.420  1.00  0.00     0.091 A 
ATOM     95  F   UNL A   1      44.988  26.578  26.916  1.00  0.00    -0.205 F 
ATOM     96  C   UNL A   1      48.384  27.837  26.369  1.00  0.00     0.022 A 
BRANCH  94  97
ATOM     97  S   UNL A   1      47.588  25.239  25.976  1.00  0.00     0.127 S 
ATOM     98  O   UNL A   1      46.559  24.995  24.969  1.00  0.00    -0.237 OA
ATOM     99  O   UNL A   1      48.955  25.285  25.453  1.00  0.00    -0.237 OA
ATOM    100  O   UNL A   1      47.451  24.474  27.210  1.00  0.00    -0.744 OA
ENDBRANCH  94  97
ENDBRANCH  67  90
ENDBRANCH  41  42
ENDBRANCH  34  36
ENDBRANCH  33  34
ENDBRANCH  32  33
ENDBRANCH  31  32
ENDBRANCH   1  31
TORSDOF 22
ENDMDL
MODEL 3
REMARK VINA RESULT:     -10.7      2.916      7.935
REMARK SMILES Cc1ccc(C)c(S(=O)(=O)N[C@H](CC2=c3ccccc3=NC2)C(=O)OCCOCCOC(=O)c2ccc(-c3c4nc(c(-c5cccc(S(=O)(=O)[O-])c5F)c5ccc([nH]5)c(-c5cccc(S(=O)(=O)[O-])c5F)c5nc(c(-c6cccc(S(=O)(=O)[O-])c6F)c6ccc3[nH]6)C=C5)C=C4)cc2)c1
REMARK SMILES IDX 28 1 27 2 26 3 25 4 23 5 24 6 12 7 11 8 8 10 9 11 10 12 7 13
REMARK SMILES IDX 1 14 2 15 3 16 97 17 4 18 5 19 6 20 13 21 14 22 15 23 22 24
REMARK SMILES IDX 16 25 20 26 21 27 17 28 19 29 18 30 29 31 30 32 31 33 32 34
REMARK SMILES IDX 33 35 34 36 35 37 96 38 36 39 95 40 37 41 38 42 39 43 89 44
REMARK SMILES IDX 40 45 94 46 88 47 90 48 41 49 93 50 87 51 86 52 42 54 74 55
REMARK SMILES IDX 54 56 73 57 55 58 58 59 72 60 91 61 56 62 57 63 71 65 92 66
REMARK SMILES IDX 59 67 43 68 44 69 52 70 45 71 47 72 53 73 46 74 48 75 49 76
REMARK SMILES IDX 50 77 51 78 75 79 76 80 84 81 77 82 79 83 85 84 78 85 80 86
REMARK SMILES IDX 81 87 82 88 83 89 60 90 61 91 69 92 62 93 64 94 70 95 63 96
REMARK SMILES IDX 65 97 66 98 67 99 68 100
REMARK H PARENT 11 9 90 53 58 64
REMARK Flexibility Score: inf
ROOT
ATOM      1  O   UNL A   1      38.076  20.265  25.743  1.00  0.00    -0.374 OA
ENDROOT
BRANCH   1   2
ATOM      2  C   UNL A   1      37.491  20.657  24.518  1.00  0.00     0.202 C 
BRANCH   2   3
ATOM      3  C   UNL A   1      36.944  22.087  24.687  1.00  0.00     0.261 C 
BRANCH   3   4
ATOM      4  O   UNL A   1      35.805  22.099  25.581  1.00  0.00    -0.462 OA
BRANCH   4   5
ATOM      5  C   UNL A   1      34.625  21.714  25.028  1.00  0.00     0.324 C 
ATOM      6  O   UNL A   1      34.437  20.644  24.470  1.00  0.00    -0.250 OA
BRANCH   5   7
ATOM      7  C   UNL A   1      33.545  22.779  25.165  1.00  0.00     0.183 C 
BRANCH   7   8
ATOM      8  N   UNL A   1      32.719  22.901  23.923  1.00  0.00    -0.197 NA
ATOM      9  H   UNL A   1      32.473  21.960  23.617  1.00  0.00     0.142 HD
BRANCH   8  10
ATOM     10  S   UNL A   1      33.463  23.692  22.627  1.00  0.00     0.241 S 
ATOM     11  O   UNL A   1      33.048  22.975  21.460  1.00  0.00    -0.207 OA
ATOM     12  O   UNL A   1      34.843  23.849  23.032  1.00  0.00    -0.207 OA
BRANCH  10  13
ATOM     13  C   UNL A   1      32.726  25.290  22.488  1.00  0.00     0.085 A 
ATOM     14  C   UNL A   1      33.970  28.859  22.609  1.00  0.00     0.044 C 
ATOM     15  C   UNL A   1      33.047  27.683  22.572  1.00  0.00    -0.050 A 
ATOM     16  C   UNL A   1      31.686  27.844  22.849  1.00  0.00     0.004 A 
ATOM     17  C   UNL A   1      33.550  26.404  22.325  1.00  0.00     0.025 A 
ATOM     18  C   UNL A   1      30.851  26.734  22.959  1.00  0.00     0.005 A 
ATOM     19  C   UNL A   1      31.363  25.442  22.805  1.00  0.00    -0.031 A 
ATOM     20  C   UNL A   1      30.469  24.294  23.176  1.00  0.00     0.046 C 
ENDBRANCH  10  13
ENDBRANCH   8  10
ENDBRANCH   7   8
BRANCH   7  21
ATOM     21  C   UNL A   1      33.953  24.216  25.584  1.00  0.00     0.065 C 
BRANCH  21  22
ATOM     22  C   UNL A   1      32.958  25.245  26.020  1.00  0.00    -0.037 C 
ATOM     23  C   UNL A   1      33.148  26.552  26.198  1.00  0.00     0.001 A 
ATOM     24  C   UNL A   1      31.582  24.857  26.491  1.00  0.00     0.174 C 
ATOM     25  C   UNL A   1      34.243  27.455  26.030  1.00  0.00     0.010 A 
ATOM     26  C   UNL A   1      31.822  27.022  26.632  1.00  0.00     0.065 A 
ATOM     27  N   UNL A   1      30.900  26.131  26.833  1.00  0.00    -0.280 NA
ATOM     28  C   UNL A   1      34.026  28.770  26.206  1.00  0.00     0.001 A 
ATOM     29  C   UNL A   1      31.649  28.484  26.761  1.00  0.00     0.028 A 
ATOM     30  C   UNL A   1      32.707  29.283  26.547  1.00  0.00     0.002 A 
ENDBRANCH  21  22
ENDBRANCH   7  21
ENDBRANCH   5   7
ENDBRANCH   4   5
ENDBRANCH   3   4
ENDBRANCH   2   3
ENDBRANCH   1   2
BRANCH   1  31
ATOM     31  C   UNL A   1      39.464  20.410  25.955  1.00  0.00     0.202 C 
BRANCH  31  32
ATOM     32  C   UNL A   1      40.279  19.152  25.653  1.00  0.00     0.261 C 
BRANCH  32  33
ATOM     33  O   UNL A   1      41.572  19.134  26.295  1.00  0.00    -0.460 OA
BRANCH  33  34
ATOM     34  C   UNL A   1      42.477  20.009  25.771  1.00  0.00     0.338 C 
ATOM     35  O   UNL A   1      43.341  19.695  24.968  1.00  0.00    -0.246 OA
BRANCH  34  36
ATOM     36  C   UNL A   1      42.360  21.332  26.446  1.00  0.00     0.060 A 
ATOM     37  C   UNL A   1      42.651  22.498  25.720  1.00  0.00     0.016 A 
ATOM     38  C   UNL A   1      42.296  21.363  27.843  1.00  0.00     0.016 A 
ATOM     39  C   UNL A   1      42.986  23.673  26.406  1.00  0.00     0.010 A 
ATOM     40  C   UNL A   1      42.752  22.485  28.511  1.00  0.00     0.010 A 
ATOM     41  C   UNL A   1      43.085  23.652  27.806  1.00  0.00    -0.014 A 
BRANCH  41  42
ATOM     42  C   UNL A   1      42.935  24.849  28.633  1.00  0.00     0.031 A 
ATOM     43  C   UNL A   1      41.638  25.452  28.342  1.00  0.00     0.074 A 
ATOM     44  C   UNL A   1      43.727  25.502  29.502  1.00  0.00     0.049 A 
ATOM     45  N   UNL A   1      41.504  26.328  27.396  1.00  0.00    -0.248 NA
ATOM     46  C   UNL A   1      40.392  24.918  28.890  1.00  0.00     0.031 C 
ATOM     47  C   UNL A   1      45.172  25.443  29.574  1.00  0.00     0.029 A 
ATOM     48  N   UNL A   1      43.383  26.372  30.526  1.00  0.00    -0.354 N 
ATOM     49  C   UNL A   1      40.207  26.735  27.543  1.00  0.00     0.074 A 
ATOM     50  C   UNL A   1      39.509  25.660  28.216  1.00  0.00     0.031 C 
ATOM     51  C   UNL A   1      45.587  26.166  30.637  1.00  0.00     0.029 A 
ATOM     52  C   UNL A   1      44.434  26.624  31.411  1.00  0.00     0.049 A 
ATOM     53  H   UNL A   1      42.489  26.772  30.619  1.00  0.00     0.167 HD
ATOM     54  C   UNL A   1      39.952  28.067  27.574  1.00  0.00     0.034 A 
ATOM     55  C   UNL A   1      44.579  27.640  32.295  1.00  0.00     0.034 A 
ATOM     56  C   UNL A   1      41.046  28.889  27.128  1.00  0.00     0.049 A 
ATOM     57  C   UNL A   1      44.247  28.889  31.587  1.00  0.00     0.074 A 
ATOM     58  C   UNL A   1      41.666  29.185  25.931  1.00  0.00     0.029 A 
ATOM     59  N   UNL A   1      41.918  29.252  28.122  1.00  0.00    -0.354 N 
ATOM     60  N   UNL A   1      44.991  29.433  30.666  1.00  0.00    -0.248 NA
ATOM     61  C   UNL A   1      42.909  29.453  31.743  1.00  0.00     0.031 C 
ATOM     62  C   UNL A   1      42.932  29.767  26.243  1.00  0.00     0.029 A 
ATOM     63  C   UNL A   1      43.072  29.804  27.623  1.00  0.00     0.049 A 
ATOM     64  H   UNL A   1      41.736  29.132  29.082  1.00  0.00     0.167 HD
ATOM     65  C   UNL A   1      44.069  30.059  29.851  1.00  0.00     0.074 A 
ATOM     66  C   UNL A   1      42.860  30.207  30.645  1.00  0.00     0.031 C 
ATOM     67  C   UNL A   1      44.200  30.027  28.498  1.00  0.00     0.034 A 
BRANCH  54  68
ATOM     68  C   UNL A   1      38.891  28.581  28.482  1.00  0.00     0.023 A 
ATOM     69  C   UNL A   1      37.732  29.137  27.935  1.00  0.00     0.012 A 
ATOM     70  C   UNL A   1      39.059  28.625  29.883  1.00  0.00     0.148 A 
ATOM     71  C   UNL A   1      36.726  29.626  28.771  1.00  0.00     0.002 A 
ATOM     72  C   UNL A   1      38.007  28.971  30.706  1.00  0.00     0.091 A 
ATOM     73  F   UNL A   1      40.273  28.411  30.416  1.00  0.00    -0.205 F 
ATOM     74  C   UNL A   1      36.838  29.494  30.156  1.00  0.00     0.022 A 
BRANCH  72  75
ATOM     75  S   UNL A   1      38.087  28.586  32.456  1.00  0.00     0.127 S 
ATOM     76  O   UNL A   1      36.791  29.059  32.925  1.00  0.00    -0.237 OA
ATOM     77  O   UNL A   1      38.256  27.133  32.445  1.00  0.00    -0.237 OA
ATOM     78  O   UNL A   1      39.263  29.311  32.927  1.00  0.00    -0.744 OA
ENDBRANCH  72  75
ENDBRANCH  54  68
BRANCH  55  79
ATOM     79  C   UNL A   1      44.594  27.546  33.779  1.00  0.00     0.023 A 
ATOM     80  C   UNL A   1      45.800  27.847  34.448  1.00  0.00     0.012 A 
ATOM     81  C   UNL A   1      43.484  27.166  34.566  1.00  0.00     0.148 A 
ATOM     82  C   UNL A   1      45.903  27.777  35.841  1.00  0.00     0.002 A 
ATOM     83  C   UNL A   1      43.610  27.035  35.953  1.00  0.00     0.091 A 
ATOM     84  F   UNL A   1      42.312  26.921  33.962  1.00  0.00    -0.205 F 
ATOM     85  C   UNL A   1      44.813  27.359  36.593  1.00  0.00     0.022 A 
BRANCH  83  86
ATOM     86  S   UNL A   1      42.318  26.279  36.960  1.00  0.00     0.127 S 
ATOM     87  O   UNL A   1      42.292  24.900  36.461  1.00  0.00    -0.237 OA
ATOM     88  O   UNL A   1      42.840  26.423  38.313  1.00  0.00    -0.237 OA
ATOM     89  O   UNL A   1      41.107  27.025  36.646  1.00  0.00    -0.744 OA
ENDBRANCH  83  86
ENDBRANCH  55  79
BRANCH  67  90
ATOM     90  C   UNL A   1      45.584  29.997  27.938  1.00  0.00     0.023 A 
ATOM     91  C   UNL A   1      46.402  31.140  27.913  1.00  0.00     0.012 A 
ATOM     92  C   UNL A   1      46.103  28.767  27.503  1.00  0.00     0.148 A 
ATOM     93  C   UNL A   1      47.718  31.061  27.451  1.00  0.00     0.002 A 
ATOM     94  C   UNL A   1      47.426  28.681  27.087  1.00  0.00     0.091 A 
ATOM     95  F   UNL A   1      45.294  27.696  27.518  1.00  0.00    -0.205 F 
ATOM     96  C   UNL A   1      48.234  29.829  27.050  1.00  0.00     0.022 A 
BRANCH  94  97
ATOM     97  S   UNL A   1      48.193  27.108  26.690  1.00  0.00     0.127 S 
ATOM     98  O   UNL A   1      49.534  27.510  26.273  1.00  0.00    -0.237 OA
ATOM     99  O   UNL A   1      48.137  26.404  27.972  1.00  0.00    -0.237 OA
ATOM    100  O   UNL A   1      47.367  26.509  25.648  1.00  0.00    -0.744 OA
ENDBRANCH  94  97
ENDBRANCH  67  90
ENDBRANCH  41  42
ENDBRANCH  34  36
ENDBRANCH  33  34
ENDBRANCH  32  33
ENDBRANCH  31  32
ENDBRANCH   1  31
TORSDOF 22
ENDMDL
