MODEL 1
REMARK VINA RESULT:     -12.0      0.000      0.000
REMARK SMILES Cc1c(Cl)ccc2c1C=C(C(=O)OCCOCCOC(=O)c1ccc(-c3c4nc(c(-c5cccc(S(=O)(=O)[O-])c5F)c5ccc([nH]5)c(-c5cccc(S(=O)(=O)[O-])c5F)c5nc(c(-c6cccc(S(=O)(=O)[O-])c6F)c6ccc3[nH]6)C=C5)C=C4)cc1)[C@@H](C(F)(F)F)O2
REMARK SMILES IDX 17 1 16 2 15 3 14 4 13 5 11 6 12 7 10 8 1 9 2 10 3 11 8 12
REMARK SMILES IDX 4 13 5 14 7 15 9 16 6 17 90 18 85 19 86 20 87 21 88 22 89 23
REMARK SMILES IDX 18 24 19 25 20 26 21 27 22 28 23 29 84 30 24 31 83 32 25 33
REMARK SMILES IDX 26 34 27 35 77 36 28 37 82 38 76 39 78 40 29 41 81 42 75 43
REMARK SMILES IDX 74 44 30 46 62 47 42 48 61 49 43 50 46 51 60 52 79 53 44 54
REMARK SMILES IDX 45 55 59 57 80 58 47 59 31 60 32 61 40 62 33 63 35 64 41 65
REMARK SMILES IDX 34 66 36 67 37 68 38 69 39 70 63 71 64 72 72 73 65 74 67 75
REMARK SMILES IDX 73 76 66 77 68 78 69 79 70 80 71 81 48 82 49 83 57 84 50 85
REMARK SMILES IDX 52 86 58 87 51 88 53 89 54 90 55 91 56 92
REMARK H PARENT 78 45 46 56
REMARK Flexibility Score: inf
ROOT
ATOM      1  C   UNL A   1      31.116  29.088  25.157  1.00  0.00     0.202 C 
ENDROOT
BRANCH   1   2
ATOM      2  O   UNL A   1      30.554  28.990  23.845  1.00  0.00    -0.374 OA
BRANCH   2   3
ATOM      3  C   UNL A   1      30.302  27.681  23.335  1.00  0.00     0.202 C 
BRANCH   3   4
ATOM      4  C   UNL A   1      31.213  27.207  22.199  1.00  0.00     0.261 C 
BRANCH   4   5
ATOM      5  O   UNL A   1      31.574  25.826  22.350  1.00  0.00    -0.460 OA
BRANCH   5   6
ATOM      6  C   UNL A   1      32.871  25.549  22.085  1.00  0.00     0.338 C 
ATOM      7  O   UNL A   1      33.568  26.052  21.216  1.00  0.00    -0.246 OA
BRANCH   6   8
ATOM      8  C   UNL A   1      33.401  24.623  23.104  1.00  0.00     0.087 C 
ATOM      9  C   UNL A   1      32.145  20.499  22.849  1.00  0.00     0.047 C 
ATOM     10  C   UNL A   1      32.948  21.045  24.005  1.00  0.00    -0.021 A 
ATOM     11  C   UNL A   1      33.235  20.239  25.124  1.00  0.00     0.044 A 
ATOM     12  C   UNL A   1      33.391  22.392  24.018  1.00  0.00     0.022 A 
ATOM     13  Cl  UNL A   1      32.628  18.624  25.277  1.00  0.00    -0.084 Cl
ATOM     14  C   UNL A   1      34.009  20.725  26.181  1.00  0.00     0.024 A 
ATOM     15  C   UNL A   1      34.201  22.854  25.065  1.00  0.00     0.128 A 
ATOM     16  C   UNL A   1      32.982  23.356  23.003  1.00  0.00     0.027 C 
ATOM     17  C   UNL A   1      34.514  22.020  26.137  1.00  0.00     0.048 A 
ATOM     18  O   UNL A   1      34.745  24.105  25.127  1.00  0.00    -0.475 OA
ATOM     19  C   UNL A   1      34.326  25.120  24.176  1.00  0.00     0.316 C 
BRANCH  19  20
ATOM     20  C   UNL A   1      33.734  26.300  24.962  1.00  0.00     0.430 C 
ATOM     21  F   UNL A   1      33.821  27.451  24.256  1.00  0.00    -0.167 F 
ATOM     22  F   UNL A   1      32.426  26.106  25.247  1.00  0.00    -0.167 F 
ATOM     23  F   UNL A   1      34.381  26.491  26.135  1.00  0.00    -0.167 F 
ENDBRANCH  19  20
ENDBRANCH   6   8
ENDBRANCH   5   6
ENDBRANCH   4   5
ENDBRANCH   3   4
ENDBRANCH   2   3
ENDBRANCH   1   2
BRANCH   1  24
ATOM     24  C   UNL A   1      31.900  30.364  25.487  1.00  0.00     0.261 C 
BRANCH  24  25
ATOM     25  O   UNL A   1      32.385  30.359  26.843  1.00  0.00    -0.460 OA
BRANCH  25  26
ATOM     26  C   UNL A   1      33.022  31.492  27.226  1.00  0.00     0.338 C 
ATOM     27  O   UNL A   1      32.530  32.601  27.379  1.00  0.00    -0.246 OA
BRANCH  26  28
ATOM     28  C   UNL A   1      34.402  31.179  27.628  1.00  0.00     0.060 A 
ATOM     29  C   UNL A   1      34.739  29.833  27.824  1.00  0.00     0.016 A 
ATOM     30  C   UNL A   1      35.312  32.193  27.926  1.00  0.00     0.016 A 
ATOM     31  C   UNL A   1      35.978  29.498  28.363  1.00  0.00     0.010 A 
ATOM     32  C   UNL A   1      36.547  31.855  28.486  1.00  0.00     0.010 A 
ATOM     33  C   UNL A   1      36.867  30.510  28.742  1.00  0.00    -0.014 A 
BRANCH  33  34
ATOM     34  C   UNL A   1      38.050  30.170  29.564  1.00  0.00     0.031 A 
ATOM     35  C   UNL A   1      39.061  29.203  29.011  1.00  0.00     0.074 A 
ATOM     36  C   UNL A   1      38.226  30.718  30.778  1.00  0.00     0.049 A 
ATOM     37  N   UNL A   1      40.155  28.749  29.563  1.00  0.00    -0.248 NA
ATOM     38  C   UNL A   1      38.810  28.684  27.655  1.00  0.00     0.031 C 
ATOM     39  C   UNL A   1      37.324  31.680  31.410  1.00  0.00     0.029 A 
ATOM     40  N   UNL A   1      39.220  30.526  31.704  1.00  0.00    -0.354 N 
ATOM     41  C   UNL A   1      40.712  27.879  28.634  1.00  0.00     0.074 A 
ATOM     42  C   UNL A   1      39.838  27.864  27.483  1.00  0.00     0.031 C 
ATOM     43  C   UNL A   1      37.794  31.976  32.634  1.00  0.00     0.029 A 
ATOM     44  C   UNL A   1      39.018  31.215  32.877  1.00  0.00     0.049 A 
ATOM     45  H   UNL A   1      40.002  29.952  31.544  1.00  0.00     0.167 HD
ATOM     46  C   UNL A   1      41.859  27.170  28.727  1.00  0.00     0.034 A 
ATOM     47  C   UNL A   1      39.733  31.216  34.019  1.00  0.00     0.034 A 
ATOM     48  C   UNL A   1      42.739  27.201  29.862  1.00  0.00     0.049 A 
ATOM     49  C   UNL A   1      40.987  30.389  34.110  1.00  0.00     0.074 A 
ATOM     50  C   UNL A   1      43.943  26.541  30.028  1.00  0.00     0.029 A 
ATOM     51  N   UNL A   1      42.509  27.922  31.020  1.00  0.00    -0.354 N 
ATOM     52  N   UNL A   1      41.548  29.643  33.191  1.00  0.00    -0.248 NA
ATOM     53  C   UNL A   1      41.718  30.420  35.387  1.00  0.00     0.031 C 
ATOM     54  C   UNL A   1      44.439  26.857  31.297  1.00  0.00     0.029 A 
ATOM     55  C   UNL A   1      43.546  27.720  31.912  1.00  0.00     0.049 A 
ATOM     56  H   UNL A   1      41.725  28.494  31.184  1.00  0.00     0.167 HD
ATOM     57  C   UNL A   1      42.708  29.137  33.765  1.00  0.00     0.074 A 
ATOM     58  C   UNL A   1      42.777  29.668  35.111  1.00  0.00     0.031 C 
ATOM     59  C   UNL A   1      43.626  28.298  33.228  1.00  0.00     0.034 A 
BRANCH  46  60
ATOM     60  C   UNL A   1      42.264  26.327  27.554  1.00  0.00     0.023 A 
ATOM     61  C   UNL A   1      43.100  26.884  26.567  1.00  0.00     0.012 A 
ATOM     62  C   UNL A   1      41.907  24.967  27.481  1.00  0.00     0.148 A 
ATOM     63  C   UNL A   1      43.573  26.098  25.517  1.00  0.00     0.002 A 
ATOM     64  C   UNL A   1      42.405  24.184  26.447  1.00  0.00     0.091 A 
ATOM     65  F   UNL A   1      41.099  24.469  28.427  1.00  0.00    -0.205 F 
ATOM     66  C   UNL A   1      43.235  24.748  25.464  1.00  0.00     0.022 A 
BRANCH  64  67
ATOM     67  S   UNL A   1      42.072  22.424  26.311  1.00  0.00     0.127 S 
ATOM     68  O   UNL A   1      42.659  21.917  27.552  1.00  0.00    -0.237 OA
ATOM     69  O   UNL A   1      40.611  22.392  26.269  1.00  0.00    -0.237 OA
ATOM     70  O   UNL A   1      42.733  21.980  25.093  1.00  0.00    -0.744 OA
ENDBRANCH  64  67
ENDBRANCH  46  60
BRANCH  47  71
ATOM     71  C   UNL A   1      39.292  32.067  35.156  1.00  0.00     0.023 A 
ATOM     72  C   UNL A   1      39.503  33.458  35.098  1.00  0.00     0.012 A 
ATOM     73  C   UNL A   1      38.626  31.514  36.267  1.00  0.00     0.148 A 
ATOM     74  C   UNL A   1      39.062  34.285  36.132  1.00  0.00     0.002 A 
ATOM     75  C   UNL A   1      38.157  32.347  37.275  1.00  0.00     0.091 A 
ATOM     76  F   UNL A   1      38.447  30.186  36.299  1.00  0.00    -0.205 F 
ATOM     77  C   UNL A   1      38.383  33.732  37.214  1.00  0.00     0.022 A 
BRANCH  75  78
ATOM     78  S   UNL A   1      37.191  31.742  38.663  1.00  0.00     0.127 S 
ATOM     79  O   UNL A   1      36.930  30.362  38.266  1.00  0.00    -0.237 OA
ATOM     80  O   UNL A   1      38.132  31.898  39.772  1.00  0.00    -0.237 OA
ATOM     81  O   UNL A   1      36.020  32.605  38.737  1.00  0.00    -0.744 OA
ENDBRANCH  75  78
ENDBRANCH  47  71
BRANCH  59  82
ATOM     82  C   UNL A   1      44.805  27.895  34.071  1.00  0.00     0.023 A 
ATOM     83  C   UNL A   1      45.942  28.724  34.102  1.00  0.00     0.012 A 
ATOM     84  C   UNL A   1      44.724  26.788  34.937  1.00  0.00     0.148 A 
ATOM     85  C   UNL A   1      46.988  28.454  34.984  1.00  0.00     0.002 A 
ATOM     86  C   UNL A   1      45.754  26.543  35.836  1.00  0.00     0.091 A 
ATOM     87  F   UNL A   1      43.631  26.013  34.881  1.00  0.00    -0.205 F 
ATOM     88  C   UNL A   1      46.888  27.373  35.859  1.00  0.00     0.022 A 
BRANCH  86  89
ATOM     89  S   UNL A   1      45.684  25.227  37.057  1.00  0.00     0.127 S 
ATOM     90  O   UNL A   1      46.974  25.375  37.729  1.00  0.00    -0.237 OA
ATOM     91  O   UNL A   1      44.527  25.617  37.864  1.00  0.00    -0.237 OA
ATOM     92  O   UNL A   1      45.514  23.989  36.308  1.00  0.00    -0.744 OA
ENDBRANCH  86  89
ENDBRANCH  59  82
ENDBRANCH  33  34
ENDBRANCH  26  28
ENDBRANCH  25  26
ENDBRANCH  24  25
ENDBRANCH   1  24
TORSDOF 18
ENDMDL
MODEL 2
REMARK VINA RESULT:     -11.9      5.251     10.032
REMARK SMILES Cc1c(Cl)ccc2c1C=C(C(=O)OCCOCCOC(=O)c1ccc(-c3c4nc(c(-c5cccc(S(=O)(=O)[O-])c5F)c5ccc([nH]5)c(-c5cccc(S(=O)(=O)[O-])c5F)c5nc(c(-c6cccc(S(=O)(=O)[O-])c6F)c6ccc3[nH]6)C=C5)C=C4)cc1)[C@@H](C(F)(F)F)O2
REMARK SMILES IDX 17 1 16 2 15 3 14 4 13 5 11 6 12 7 10 8 1 9 2 10 3 11 8 12
REMARK SMILES IDX 4 13 5 14 7 15 9 16 6 17 90 18 85 19 86 20 87 21 88 22 89 23
REMARK SMILES IDX 18 24 19 25 20 26 21 27 22 28 23 29 84 30 24 31 83 32 25 33
REMARK SMILES IDX 26 34 27 35 77 36 28 37 82 38 76 39 78 40 29 41 81 42 75 43
REMARK SMILES IDX 74 44 30 46 62 47 42 48 61 49 43 50 46 51 60 52 79 53 44 54
REMARK SMILES IDX 45 55 59 57 80 58 47 59 31 60 32 61 40 62 33 63 35 64 41 65
REMARK SMILES IDX 34 66 36 67 37 68 38 69 39 70 63 71 64 72 72 73 65 74 67 75
REMARK SMILES IDX 73 76 66 77 68 78 69 79 70 80 71 81 48 82 49 83 57 84 50 85
REMARK SMILES IDX 52 86 58 87 51 88 53 89 54 90 55 91 56 92
REMARK H PARENT 78 45 46 56
REMARK Flexibility Score: inf
ROOT
ATOM      1  C   UNL A   1      35.365  21.098  24.726  1.00  0.00     0.202 C 
ENDROOT
BRANCH   1   2
ATOM      2  O   UNL A   1      35.059  22.226  25.551  1.00  0.00    -0.374 OA
BRANCH   2   3
ATOM      3  C   UNL A   1      34.821  21.980  26.936  1.00  0.00     0.202 C 
BRANCH   3   4
ATOM      4  C   UNL A   1      33.367  21.724  27.341  1.00  0.00     0.261 C 
BRANCH   4   5
ATOM      5  O   UNL A   1      32.629  22.948  27.474  1.00  0.00    -0.460 OA
BRANCH   5   6
ATOM      6  C   UNL A   1      31.811  23.231  26.435  1.00  0.00     0.338 C 
ATOM      7  O   UNL A   1      30.778  22.652  26.134  1.00  0.00    -0.246 OA
BRANCH   6   8
ATOM      8  C   UNL A   1      32.268  24.462  25.763  1.00  0.00     0.087 C 
ATOM      9  C   UNL A   1      31.486  28.201  27.780  1.00  0.00     0.047 C 
ATOM     10  C   UNL A   1      32.043  28.121  26.379  1.00  0.00    -0.021 A 
ATOM     11  C   UNL A   1      32.233  29.290  25.615  1.00  0.00     0.044 A 
ATOM     12  C   UNL A   1      32.341  26.872  25.778  1.00  0.00     0.022 A 
ATOM     13  Cl  UNL A   1      31.775  30.855  26.195  1.00  0.00    -0.084 Cl
ATOM     14  C   UNL A   1      32.783  29.229  24.331  1.00  0.00     0.024 A 
ATOM     15  C   UNL A   1      32.930  26.828  24.506  1.00  0.00     0.128 A 
ATOM     16  C   UNL A   1      31.999  25.603  26.410  1.00  0.00     0.027 C 
ATOM     17  C   UNL A   1      33.156  28.003  23.791  1.00  0.00     0.048 A 
ATOM     18  O   UNL A   1      33.330  25.683  23.878  1.00  0.00    -0.475 OA
ATOM     19  C   UNL A   1      32.963  24.391  24.435  1.00  0.00     0.316 C 
BRANCH  19  20
ATOM     20  C   UNL A   1      32.142  23.631  23.382  1.00  0.00     0.430 C 
ATOM     21  F   UNL A   1      30.820  23.886  23.515  1.00  0.00    -0.167 F 
ATOM     22  F   UNL A   1      32.490  23.983  22.124  1.00  0.00    -0.167 F 
ATOM     23  F   UNL A   1      32.312  22.293  23.491  1.00  0.00    -0.167 F 
ENDBRANCH  19  20
ENDBRANCH   6   8
ENDBRANCH   5   6
ENDBRANCH   4   5
ENDBRANCH   3   4
ENDBRANCH   2   3
ENDBRANCH   1   2
BRANCH   1  24
ATOM     24  C   UNL A   1      36.682  20.364  25.007  1.00  0.00     0.261 C 
BRANCH  24  25
ATOM     25  O   UNL A   1      37.816  21.249  24.928  1.00  0.00    -0.460 OA
BRANCH  25  26
ATOM     26  C   UNL A   1      38.842  20.935  25.754  1.00  0.00     0.338 C 
ATOM     27  O   UNL A   1      39.418  19.861  25.844  1.00  0.00    -0.246 OA
BRANCH  26  28
ATOM     28  C   UNL A   1      39.324  22.148  26.435  1.00  0.00     0.060 A 
ATOM     29  C   UNL A   1      38.736  23.372  26.089  1.00  0.00     0.016 A 
ATOM     30  C   UNL A   1      40.413  22.099  27.306  1.00  0.00     0.016 A 
ATOM     31  C   UNL A   1      39.268  24.562  26.580  1.00  0.00     0.010 A 
ATOM     32  C   UNL A   1      40.957  23.296  27.781  1.00  0.00     0.010 A 
ATOM     33  C   UNL A   1      40.410  24.530  27.388  1.00  0.00    -0.014 A 
BRANCH  33  34
ATOM     34  C   UNL A   1      41.133  25.789  27.675  1.00  0.00     0.031 A 
ATOM     35  C   UNL A   1      40.409  26.890  28.401  1.00  0.00     0.074 A 
ATOM     36  C   UNL A   1      42.415  25.948  27.303  1.00  0.00     0.049 A 
ATOM     37  N   UNL A   1      40.838  28.078  28.737  1.00  0.00    -0.248 NA
ATOM     38  C   UNL A   1      39.020  26.614  28.808  1.00  0.00     0.031 C 
ATOM     39  C   UNL A   1      43.224  24.946  26.611  1.00  0.00     0.029 A 
ATOM     40  N   UNL A   1      43.254  27.024  27.443  1.00  0.00    -0.354 N 
ATOM     41  C   UNL A   1      39.771  28.697  29.375  1.00  0.00     0.074 A 
ATOM     42  C   UNL A   1      38.672  27.759  29.380  1.00  0.00     0.031 C 
ATOM     43  C   UNL A   1      44.439  25.465  26.364  1.00  0.00     0.029 A 
ATOM     44  C   UNL A   1      44.487  26.838  26.865  1.00  0.00     0.049 A 
ATOM     45  H   UNL A   1      42.998  27.850  27.912  1.00  0.00     0.167 HD
ATOM     46  C   UNL A   1      39.720  29.932  29.923  1.00  0.00     0.034 A 
ATOM     47  C   UNL A   1      45.527  27.686  26.741  1.00  0.00     0.034 A 
ATOM     48  C   UNL A   1      40.818  30.857  29.937  1.00  0.00     0.049 A 
ATOM     49  C   UNL A   1      45.431  29.068  27.328  1.00  0.00     0.074 A 
ATOM     50  C   UNL A   1      40.866  32.118  30.502  1.00  0.00     0.029 A 
ATOM     51  N   UNL A   1      42.053  30.625  29.357  1.00  0.00    -0.354 N 
ATOM     52  N   UNL A   1      44.449  29.606  28.008  1.00  0.00    -0.248 NA
ATOM     53  C   UNL A   1      46.593  29.953  27.151  1.00  0.00     0.031 C 
ATOM     54  C   UNL A   1      42.134  32.655  30.255  1.00  0.00     0.029 A 
ATOM     55  C   UNL A   1      42.872  31.723  29.545  1.00  0.00     0.049 A 
ATOM     56  H   UNL A   1      42.310  29.801  28.883  1.00  0.00     0.167 HD
ATOM     57  C   UNL A   1      44.880  30.879  28.362  1.00  0.00     0.074 A 
ATOM     58  C   UNL A   1      46.219  31.031  27.830  1.00  0.00     0.031 C 
ATOM     59  C   UNL A   1      44.221  31.838  29.054  1.00  0.00     0.034 A 
BRANCH  46  60
ATOM     60  C   UNL A   1      38.446  30.351  30.598  1.00  0.00     0.023 A 
ATOM     61  C   UNL A   1      38.273  30.070  31.967  1.00  0.00     0.012 A 
ATOM     62  C   UNL A   1      37.477  31.105  29.911  1.00  0.00     0.148 A 
ATOM     63  C   UNL A   1      37.147  30.533  32.645  1.00  0.00     0.002 A 
ATOM     64  C   UNL A   1      36.370  31.586  30.601  1.00  0.00     0.091 A 
ATOM     65  F   UNL A   1      37.662  31.345  28.605  1.00  0.00    -0.205 F 
ATOM     66  C   UNL A   1      36.203  31.299  31.966  1.00  0.00     0.022 A 
BRANCH  64  67
ATOM     67  S   UNL A   1      35.120  32.623  29.833  1.00  0.00     0.127 S 
ATOM     68  O   UNL A   1      34.310  33.012  30.988  1.00  0.00    -0.237 OA
ATOM     69  O   UNL A   1      35.926  33.701  29.262  1.00  0.00    -0.237 OA
ATOM     70  O   UNL A   1      34.439  31.783  28.860  1.00  0.00    -0.744 OA
ENDBRANCH  64  67
ENDBRANCH  46  60
BRANCH  47  71
ATOM     71  C   UNL A   1      46.769  27.226  26.064  1.00  0.00     0.023 A 
ATOM     72  C   UNL A   1      46.939  27.480  24.690  1.00  0.00     0.012 A 
ATOM     73  C   UNL A   1      47.797  26.585  26.781  1.00  0.00     0.148 A 
ATOM     74  C   UNL A   1      48.112  27.096  24.039  1.00  0.00     0.002 A 
ATOM     75  C   UNL A   1      48.977  26.238  26.135  1.00  0.00     0.091 A 
ATOM     76  F   UNL A   1      47.603  26.347  28.087  1.00  0.00    -0.205 F 
ATOM     77  C   UNL A   1      49.132  26.485  24.761  1.00  0.00     0.022 A 
BRANCH  75  78
ATOM     78  S   UNL A   1      50.385  25.531  26.998  1.00  0.00     0.127 S 
ATOM     79  O   UNL A   1      49.820  24.292  27.526  1.00  0.00    -0.237 OA
ATOM     80  O   UNL A   1      51.344  25.355  25.908  1.00  0.00    -0.237 OA
ATOM     81  O   UNL A   1      50.774  26.517  27.995  1.00  0.00    -0.744 OA
ENDBRANCH  75  78
ENDBRANCH  47  71
BRANCH  59  82
ATOM     82  C   UNL A   1      44.919  33.146  29.304  1.00  0.00     0.023 A 
ATOM     83  C   UNL A   1      45.755  33.275  30.430  1.00  0.00     0.012 A 
ATOM     84  C   UNL A   1      44.867  34.183  28.352  1.00  0.00     0.148 A 
ATOM     85  C   UNL A   1      46.527  34.421  30.608  1.00  0.00     0.002 A 
ATOM     86  C   UNL A   1      45.665  35.308  28.518  1.00  0.00     0.091 A 
ATOM     87  F   UNL A   1      44.058  34.034  27.293  1.00  0.00    -0.205 F 
ATOM     88  C   UNL A   1      46.493  35.430  29.647  1.00  0.00     0.022 A 
BRANCH  86  89
ATOM     89  S   UNL A   1      45.751  36.623  27.297  1.00  0.00     0.127 S 
ATOM     90  O   UNL A   1      44.343  36.989  27.154  1.00  0.00    -0.237 OA
ATOM     91  O   UNL A   1      46.576  37.622  27.978  1.00  0.00    -0.237 OA
ATOM     92  O   UNL A   1      46.361  36.036  26.112  1.00  0.00    -0.744 OA
ENDBRANCH  86  89
ENDBRANCH  59  82
ENDBRANCH  33  34
ENDBRANCH  26  28
ENDBRANCH  25  26
ENDBRANCH  24  25
ENDBRANCH   1  24
TORSDOF 18
ENDMDL
MODEL 3
REMARK VINA RESULT:     -11.9      5.314      8.135
REMARK SMILES Cc1c(Cl)ccc2c1C=C(C(=O)OCCOCCOC(=O)c1ccc(-c3c4nc(c(-c5cccc(S(=O)(=O)[O-])c5F)c5ccc([nH]5)c(-c5cccc(S(=O)(=O)[O-])c5F)c5nc(c(-c6cccc(S(=O)(=O)[O-])c6F)c6ccc3[nH]6)C=C5)C=C4)cc1)[C@@H](C(F)(F)F)O2
REMARK SMILES IDX 17 1 16 2 15 3 14 4 13 5 11 6 12 7 10 8 1 9 2 10 3 11 8 12
REMARK SMILES IDX 4 13 5 14 7 15 9 16 6 17 90 18 85 19 86 20 87 21 88 22 89 23
REMARK SMILES IDX 18 24 19 25 20 26 21 27 22 28 23 29 84 30 24 31 83 32 25 33
REMARK SMILES IDX 26 34 27 35 77 36 28 37 82 38 76 39 78 40 29 41 81 42 75 43
REMARK SMILES IDX 74 44 30 46 62 47 42 48 61 49 43 50 46 51 60 52 79 53 44 54
REMARK SMILES IDX 45 55 59 57 80 58 47 59 31 60 32 61 40 62 33 63 35 64 41 65
REMARK SMILES IDX 34 66 36 67 37 68 38 69 39 70 63 71 64 72 72 73 65 74 67 75
REMARK SMILES IDX 73 76 66 77 68 78 69 79 70 80 71 81 48 82 49 83 57 84 50 85
REMARK SMILES IDX 52 86 58 87 51 88 53 89 54 90 55 91 56 92
REMARK H PARENT 78 45 46 56
REMARK Flexibility Score: inf
ROOT
ATOM      1  C   UNL A   1      37.359  19.561  24.708  1.00  0.00     0.202 C 
ENDROOT
BRANCH   1   2
ATOM      2  O   UNL A   1      36.821  20.885  24.757  1.00  0.00    -0.374 OA
BRANCH   2   3
ATOM      3  C   UNL A   1      35.438  21.020  25.079  1.00  0.00     0.202 C 
BRANCH   3   4
ATOM      4  C   UNL A   1      35.101  21.927  26.266  1.00  0.00     0.261 C 
BRANCH   4   5
ATOM      5  O   UNL A   1      34.630  23.212  25.835  1.00  0.00    -0.460 OA
BRANCH   5   6
ATOM      6  C   UNL A   1      33.414  23.559  26.315  1.00  0.00     0.338 C 
ATOM      7  O   UNL A   1      32.854  23.101  27.299  1.00  0.00    -0.246 OA
BRANCH   6   8
ATOM      8  C   UNL A   1      32.884  24.704  25.549  1.00  0.00     0.087 C 
ATOM      9  C   UNL A   1      33.228  28.605  27.370  1.00  0.00     0.047 C 
ATOM     10  C   UNL A   1      32.461  28.357  26.094  1.00  0.00    -0.021 A 
ATOM     11  C   UNL A   1      31.719  29.391  25.489  1.00  0.00     0.044 A 
ATOM     12  C   UNL A   1      32.425  27.070  25.499  1.00  0.00     0.022 A 
ATOM     13  Cl  UNL A   1      31.580  30.963  26.201  1.00  0.00    -0.084 Cl
ATOM     14  C   UNL A   1      31.037  29.179  24.288  1.00  0.00     0.024 A 
ATOM     15  C   UNL A   1      31.771  26.882  24.273  1.00  0.00     0.128 A 
ATOM     16  C   UNL A   1      32.997  25.896  26.148  1.00  0.00     0.027 C 
ATOM     17  C   UNL A   1      31.087  27.935  23.668  1.00  0.00     0.048 A 
ATOM     18  O   UNL A   1      31.751  25.705  23.579  1.00  0.00    -0.475 OA
ATOM     19  C   UNL A   1      32.253  24.494  24.204  1.00  0.00     0.316 C 
BRANCH  19  20
ATOM     20  C   UNL A   1      31.112  23.466  24.246  1.00  0.00     0.430 C 
ATOM     21  F   UNL A   1      30.249  23.650  23.220  1.00  0.00    -0.167 F 
ATOM     22  F   UNL A   1      31.575  22.199  24.153  1.00  0.00    -0.167 F 
ATOM     23  F   UNL A   1      30.404  23.557  25.396  1.00  0.00    -0.167 F 
ENDBRANCH  19  20
ENDBRANCH   6   8
ENDBRANCH   5   6
ENDBRANCH   4   5
ENDBRANCH   3   4
ENDBRANCH   2   3
ENDBRANCH   1   2
BRANCH   1  24
ATOM     24  C   UNL A   1      38.706  19.328  25.404  1.00  0.00     0.261 C 
BRANCH  24  25
ATOM     25  O   UNL A   1      39.436  20.557  25.581  1.00  0.00    -0.460 OA
BRANCH  25  26
ATOM     26  C   UNL A   1      40.379  20.525  26.554  1.00  0.00     0.338 C 
ATOM     27  O   UNL A   1      41.108  19.589  26.846  1.00  0.00    -0.246 OA
BRANCH  26  28
ATOM     28  C   UNL A   1      40.554  21.870  27.126  1.00  0.00     0.060 A 
ATOM     29  C   UNL A   1      39.858  22.931  26.531  1.00  0.00     0.016 A 
ATOM     30  C   UNL A   1      41.476  22.103  28.146  1.00  0.00     0.016 A 
ATOM     31  C   UNL A   1      40.117  24.240  26.927  1.00  0.00     0.010 A 
ATOM     32  C   UNL A   1      41.749  23.419  28.527  1.00  0.00     0.010 A 
ATOM     33  C   UNL A   1      41.100  24.493  27.892  1.00  0.00    -0.014 A 
BRANCH  33  34
ATOM     34  C   UNL A   1      41.569  25.879  28.106  1.00  0.00     0.031 A 
ATOM     35  C   UNL A   1      42.950  26.255  27.642  1.00  0.00     0.074 A 
ATOM     36  C   UNL A   1      40.778  26.792  28.695  1.00  0.00     0.049 A 
ATOM     37  N   UNL A   1      43.572  27.400  27.744  1.00  0.00    -0.248 NA
ATOM     38  C   UNL A   1      43.733  25.203  26.968  1.00  0.00     0.031 C 
ATOM     39  C   UNL A   1      39.417  26.549  29.169  1.00  0.00     0.029 A 
ATOM     40  N   UNL A   1      41.018  28.105  29.010  1.00  0.00    -0.354 N 
ATOM     41  C   UNL A   1      44.820  27.203  27.168  1.00  0.00     0.074 A 
ATOM     42  C   UNL A   1      44.874  25.831  26.718  1.00  0.00     0.031 C 
ATOM     43  C   UNL A   1      38.949  27.673  29.739  1.00  0.00     0.029 A 
ATOM     44  C   UNL A   1      39.982  28.706  29.684  1.00  0.00     0.049 A 
ATOM     45  H   UNL A   1      41.852  28.572  28.776  1.00  0.00     0.167 HD
ATOM     46  C   UNL A   1      45.825  28.095  27.012  1.00  0.00     0.034 A 
ATOM     47  C   UNL A   1      39.888  29.944  30.209  1.00  0.00     0.034 A 
ATOM     48  C   UNL A   1      45.765  29.464  27.439  1.00  0.00     0.049 A 
ATOM     49  C   UNL A   1      41.035  30.905  30.054  1.00  0.00     0.074 A 
ATOM     50  C   UNL A   1      46.724  30.449  27.291  1.00  0.00     0.029 A 
ATOM     51  N   UNL A   1      44.694  30.038  28.101  1.00  0.00    -0.354 N 
ATOM     52  N   UNL A   1      42.172  30.733  29.427  1.00  0.00    -0.248 NA
ATOM     53  C   UNL A   1      40.878  32.238  30.659  1.00  0.00     0.031 C 
ATOM     54  C   UNL A   1      46.235  31.622  27.873  1.00  0.00     0.029 A 
ATOM     55  C   UNL A   1      44.969  31.365  28.375  1.00  0.00     0.049 A 
ATOM     56  H   UNL A   1      43.860  29.572  28.341  1.00  0.00     0.167 HD
ATOM     57  C   UNL A   1      42.857  31.938  29.538  1.00  0.00     0.074 A 
ATOM     58  C   UNL A   1      42.002  32.839  30.285  1.00  0.00     0.031 C 
ATOM     59  C   UNL A   1      44.086  32.263  29.074  1.00  0.00     0.034 A 
BRANCH  46  60
ATOM     60  C   UNL A   1      47.071  27.637  26.311  1.00  0.00     0.023 A 
ATOM     61  C   UNL A   1      48.028  26.897  27.031  1.00  0.00     0.012 A 
ATOM     62  C   UNL A   1      47.244  27.847  24.930  1.00  0.00     0.148 A 
ATOM     63  C   UNL A   1      49.147  26.373  26.386  1.00  0.00     0.002 A 
ATOM     64  C   UNL A   1      48.347  27.299  24.289  1.00  0.00     0.091 A 
ATOM     65  F   UNL A   1      46.323  28.567  24.274  1.00  0.00    -0.205 F 
ATOM     66  C   UNL A   1      49.300  26.564  25.015  1.00  0.00     0.022 A 
BRANCH  64  67
ATOM     67  S   UNL A   1      48.616  27.443  22.518  1.00  0.00     0.127 S 
ATOM     68  O   UNL A   1      47.459  28.241  22.109  1.00  0.00    -0.237 OA
ATOM     69  O   UNL A   1      49.895  28.148  22.460  1.00  0.00    -0.237 OA
ATOM     70  O   UNL A   1      48.638  26.083  22.000  1.00  0.00    -0.744 OA
ENDBRANCH  64  67
ENDBRANCH  46  60
BRANCH  47  71
ATOM     71  C   UNL A   1      38.633  30.353  30.896  1.00  0.00     0.023 A 
ATOM     72  C   UNL A   1      38.476  30.074  32.266  1.00  0.00     0.012 A 
ATOM     73  C   UNL A   1      37.623  31.056  30.212  1.00  0.00     0.148 A 
ATOM     74  C   UNL A   1      37.327  30.483  32.944  1.00  0.00     0.002 A 
ATOM     75  C   UNL A   1      36.498  31.492  30.901  1.00  0.00     0.091 A 
ATOM     76  F   UNL A   1      37.796  31.300  28.905  1.00  0.00    -0.205 F 
ATOM     77  C   UNL A   1      36.344  31.198  32.266  1.00  0.00     0.022 A 
BRANCH  75  78
ATOM     78  S   UNL A   1      35.222  32.500  30.138  1.00  0.00     0.127 S 
ATOM     79  O   UNL A   1      34.293  32.696  31.248  1.00  0.00    -0.237 OA
ATOM     80  O   UNL A   1      35.977  33.690  29.748  1.00  0.00    -0.237 OA
ATOM     81  O   UNL A   1      34.710  31.715  29.024  1.00  0.00    -0.744 OA
ENDBRANCH  75  78
ENDBRANCH  47  71
BRANCH  59  82
ATOM     82  C   UNL A   1      44.603  33.651  29.332  1.00  0.00     0.023 A 
ATOM     83  C   UNL A   1      45.330  33.906  30.512  1.00  0.00     0.012 A 
ATOM     84  C   UNL A   1      44.501  34.652  28.346  1.00  0.00     0.148 A 
ATOM     85  C   UNL A   1      45.945  35.141  30.708  1.00  0.00     0.002 A 
ATOM     86  C   UNL A   1      45.145  35.869  28.534  1.00  0.00     0.091 A 
ATOM     87  F   UNL A   1      43.799  34.383  27.236  1.00  0.00    -0.205 F 
ATOM     88  C   UNL A   1      45.864  36.116  29.716  1.00  0.00     0.022 A 
BRANCH  86  89
ATOM     89  S   UNL A   1      45.167  37.157  27.282  1.00  0.00     0.127 S 
ATOM     90  O   UNL A   1      43.749  37.269  26.946  1.00  0.00    -0.237 OA
ATOM     91  O   UNL A   1      45.712  38.296  28.021  1.00  0.00    -0.237 OA
ATOM     92  O   UNL A   1      46.020  36.663  26.209  1.00  0.00    -0.744 OA
ENDBRANCH  86  89
ENDBRANCH  59  82
ENDBRANCH  33  34
ENDBRANCH  26  28
ENDBRANCH  25  26
ENDBRANCH  24  25
ENDBRANCH   1  24
TORSDOF 18
ENDMDL
