MODEL 1
REMARK VINA RESULT:     -11.2      0.000      0.000
REMARK SMILES C[C@@H](C(=O)OCCOCCOC(=O)c1ccc(-c2c3nc(c(-c4cccc(S(=O)(=O)[O-])c4F)c4ccc([nH]4)c(-c4cccc(S(=O)(=O)[O-])c4F)c4nc(c(-c5cccc(S(=O)(=O)[O-])c5F)c5ccc2[nH]5)C=C4)C=C3)cc1)c1ccc(NC2CCCC2)cc1F
REMARK SMILES IDX 8 1 7 2 6 3 5 4 3 5 4 6 2 7 1 8 77 9 78 10 88 11 79 12 87 13
REMARK SMILES IDX 89 14 80 15 81 16 82 18 83 19 86 20 84 21 85 22 9 23 10 24
REMARK SMILES IDX 11 25 12 26 13 27 14 28 15 29 76 30 16 31 75 32 17 33 18 34
REMARK SMILES IDX 19 35 69 36 20 37 74 38 68 39 70 40 21 41 73 42 67 43 66 44
REMARK SMILES IDX 22 46 54 47 34 48 53 49 35 50 38 51 52 52 71 53 36 54 37 55
REMARK SMILES IDX 51 57 72 58 39 59 23 60 24 61 32 62 25 63 27 64 33 65 26 66
REMARK SMILES IDX 28 67 29 68 30 69 31 70 55 71 56 72 64 73 57 74 59 75 65 76
REMARK SMILES IDX 58 77 60 78 61 79 62 80 63 81 40 82 41 83 49 84 42 85 44 86
REMARK SMILES IDX 50 87 43 88 45 89 46 90 47 91 48 92
REMARK H PARENT 81 17 70 45 38 56
REMARK Flexibility Score: inf
ROOT
ATOM      1  O   UNL A   1      35.292  21.625  24.926  1.00  0.00    -0.374 OA
ENDROOT
BRANCH   1   2
ATOM      2  C   UNL A   1      34.406  21.887  23.832  1.00  0.00     0.202 C 
BRANCH   2   3
ATOM      3  C   UNL A   1      34.004  23.348  23.613  1.00  0.00     0.261 C 
BRANCH   3   4
ATOM      4  O   UNL A   1      33.103  23.788  24.649  1.00  0.00    -0.463 OA
BRANCH   4   5
ATOM      5  C   UNL A   1      33.307  25.046  25.121  1.00  0.00     0.313 C 
ATOM      6  O   UNL A   1      34.341  25.685  24.953  1.00  0.00    -0.252 OA
BRANCH   5   7
ATOM      7  C   UNL A   1      32.101  25.595  25.898  1.00  0.00     0.129 C 
ATOM      8  C   UNL A   1      31.265  24.552  26.643  1.00  0.00     0.025 C 
BRANCH   7   9
ATOM      9  C   UNL A   1      31.276  26.491  24.984  1.00  0.00     0.002 A 
ATOM     10  C   UNL A   1      30.088  25.994  24.441  1.00  0.00     0.010 A 
ATOM     11  C   UNL A   1      31.564  27.837  24.757  1.00  0.00     0.129 A 
ATOM     12  C   UNL A   1      29.219  26.828  23.728  1.00  0.00     0.026 A 
ATOM     13  C   UNL A   1      30.692  28.668  24.051  1.00  0.00     0.065 A 
ATOM     14  F   UNL A   1      32.690  28.387  25.232  1.00  0.00    -0.207 F 
ATOM     15  C   UNL A   1      29.485  28.186  23.536  1.00  0.00     0.037 A 
BRANCH  15  16
ATOM     16  N   UNL A   1      28.656  29.058  22.861  1.00  0.00    -0.382 N 
ATOM     17  H   UNL A   1      27.722  28.765  22.760  1.00  0.00     0.160 HD
BRANCH  16  18
ATOM     18  C   UNL A   1      28.974  30.350  22.278  1.00  0.00     0.079 C 
ATOM     19  C   UNL A   1      28.131  30.693  21.054  1.00  0.00     0.025 C 
ATOM     20  C   UNL A   1      28.862  31.528  23.246  1.00  0.00     0.025 C 
ATOM     21  C   UNL A   1      28.157  32.211  21.008  1.00  0.00     0.002 C 
ATOM     22  C   UNL A   1      28.183  32.652  22.466  1.00  0.00     0.002 C 
ENDBRANCH  16  18
ENDBRANCH  15  16
ENDBRANCH   7   9
ENDBRANCH   5   7
ENDBRANCH   4   5
ENDBRANCH   3   4
ENDBRANCH   2   3
ENDBRANCH   1   2
BRANCH   1  23
ATOM     23  C   UNL A   1      35.842  20.312  25.010  1.00  0.00     0.202 C 
BRANCH  23  24
ATOM     24  C   UNL A   1      37.371  20.196  24.949  1.00  0.00     0.261 C 
BRANCH  24  25
ATOM     25  O   UNL A   1      38.031  21.406  25.348  1.00  0.00    -0.460 OA
BRANCH  25  26
ATOM     26  C   UNL A   1      39.189  21.215  26.021  1.00  0.00     0.338 C 
ATOM     27  O   UNL A   1      39.901  20.216  25.999  1.00  0.00    -0.246 OA
BRANCH  26  28
ATOM     28  C   UNL A   1      39.610  22.465  26.673  1.00  0.00     0.060 A 
ATOM     29  C   UNL A   1      38.964  23.643  26.275  1.00  0.00     0.016 A 
ATOM     30  C   UNL A   1      40.649  22.504  27.606  1.00  0.00     0.016 A 
ATOM     31  C   UNL A   1      39.393  24.873  26.763  1.00  0.00     0.010 A 
ATOM     32  C   UNL A   1      41.084  23.743  28.089  1.00  0.00     0.010 A 
ATOM     33  C   UNL A   1      40.485  24.933  27.638  1.00  0.00    -0.014 A 
BRANCH  33  34
ATOM     34  C   UNL A   1      41.088  26.250  27.946  1.00  0.00     0.031 A 
ATOM     35  C   UNL A   1      42.468  26.556  27.429  1.00  0.00     0.074 A 
ATOM     36  C   UNL A   1      40.407  27.171  28.651  1.00  0.00     0.049 A 
ATOM     37  N   UNL A   1      43.177  27.645  27.560  1.00  0.00    -0.248 NA
ATOM     38  C   UNL A   1      43.136  25.491  26.662  1.00  0.00     0.031 C 
ATOM     39  C   UNL A   1      39.063  26.991  29.196  1.00  0.00     0.029 A 
ATOM     40  N   UNL A   1      40.763  28.437  29.041  1.00  0.00    -0.354 N 
ATOM     41  C   UNL A   1      44.384  27.390  26.919  1.00  0.00     0.074 A 
ATOM     42  C   UNL A   1      44.316  26.039  26.408  1.00  0.00     0.031 C 
ATOM     43  C   UNL A   1      38.714  28.100  29.870  1.00  0.00     0.029 A 
ATOM     44  C   UNL A   1      39.817  29.058  29.820  1.00  0.00     0.049 A 
ATOM     45  H   UNL A   1      41.615  28.860  28.787  1.00  0.00     0.167 HD
ATOM     46  C   UNL A   1      45.446  28.213  26.754  1.00  0.00     0.034 A 
ATOM     47  C   UNL A   1      39.846  30.258  30.434  1.00  0.00     0.034 A 
ATOM     48  C   UNL A   1      45.500  29.565  27.242  1.00  0.00     0.049 A 
ATOM     49  C   UNL A   1      41.049  31.147  30.251  1.00  0.00     0.074 A 
ATOM     50  C   UNL A   1      46.508  30.498  27.079  1.00  0.00     0.029 A 
ATOM     51  N   UNL A   1      44.510  30.173  27.998  1.00  0.00    -0.354 N 
ATOM     52  N   UNL A   1      42.127  30.941  29.534  1.00  0.00    -0.248 NA
ATOM     53  C   UNL A   1      41.025  32.449  30.935  1.00  0.00     0.031 C 
ATOM     54  C   UNL A   1      46.139  31.661  27.762  1.00  0.00     0.029 A 
ATOM     55  C   UNL A   1      44.889  31.462  28.325  1.00  0.00     0.049 A 
ATOM     56  H   UNL A   1      43.662  29.748  28.264  1.00  0.00     0.167 HD
ATOM     57  C   UNL A   1      42.891  32.097  29.650  1.00  0.00     0.074 A 
ATOM     58  C   UNL A   1      42.143  33.008  30.492  1.00  0.00     0.031 C 
ATOM     59  C   UNL A   1      44.108  32.377  29.120  1.00  0.00     0.034 A 
BRANCH  46  60
ATOM     60  C   UNL A   1      46.633  27.681  25.995  1.00  0.00     0.023 A 
ATOM     61  C   UNL A   1      46.708  27.864  24.600  1.00  0.00     0.012 A 
ATOM     62  C   UNL A   1      47.695  27.049  26.669  1.00  0.00     0.148 A 
ATOM     63  C   UNL A   1      47.810  27.399  23.882  1.00  0.00     0.002 A 
ATOM     64  C   UNL A   1      48.809  26.627  25.954  1.00  0.00     0.091 A 
ATOM     65  F   UNL A   1      47.593  26.862  27.993  1.00  0.00    -0.205 F 
ATOM     66  C   UNL A   1      48.863  26.791  24.559  1.00  0.00     0.022 A 
BRANCH  64  67
ATOM     67  S   UNL A   1      50.248  25.901  26.745  1.00  0.00     0.127 S 
ATOM     68  O   UNL A   1      51.204  25.859  25.639  1.00  0.00    -0.237 OA
ATOM     69  O   UNL A   1      50.560  26.885  27.782  1.00  0.00    -0.237 OA
ATOM     70  O   UNL A   1      49.818  24.604  27.249  1.00  0.00    -0.744 OA
ENDBRANCH  64  67
ENDBRANCH  46  60
BRANCH  47  71
ATOM     71  C   UNL A   1      38.680  30.708  31.247  1.00  0.00     0.023 A 
ATOM     72  C   UNL A   1      38.702  30.544  32.645  1.00  0.00     0.012 A 
ATOM     73  C   UNL A   1      37.561  31.315  30.644  1.00  0.00     0.148 A 
ATOM     74  C   UNL A   1      37.618  30.949  33.426  1.00  0.00     0.002 A 
ATOM     75  C   UNL A   1      36.509  31.766  31.432  1.00  0.00     0.091 A 
ATOM     76  F   UNL A   1      37.551  31.445  29.310  1.00  0.00    -0.205 F 
ATOM     77  C   UNL A   1      36.527  31.570  32.822  1.00  0.00     0.022 A 
BRANCH  75  78
ATOM     78  S   UNL A   1      35.126  32.690  30.753  1.00  0.00     0.127 S 
ATOM     79  O   UNL A   1      34.158  32.624  31.845  1.00  0.00    -0.237 OA
ATOM     80  O   UNL A   1      35.722  34.008  30.534  1.00  0.00    -0.237 OA
ATOM     81  O   UNL A   1      34.751  31.992  29.530  1.00  0.00    -0.744 OA
ENDBRANCH  75  78
ENDBRANCH  47  71
BRANCH  59  82
ATOM     82  C   UNL A   1      44.700  33.733  29.399  1.00  0.00     0.023 A 
ATOM     83  C   UNL A   1      45.564  33.907  30.497  1.00  0.00     0.012 A 
ATOM     84  C   UNL A   1      44.466  34.814  28.525  1.00  0.00     0.148 A 
ATOM     85  C   UNL A   1      46.161  35.145  30.741  1.00  0.00     0.002 A 
ATOM     86  C   UNL A   1      45.102  36.030  28.745  1.00  0.00     0.091 A 
ATOM     87  F   UNL A   1      43.627  34.633  27.494  1.00  0.00    -0.205 F 
ATOM     88  C   UNL A   1      45.940  36.201  29.858  1.00  0.00     0.022 A 
BRANCH  86  89
ATOM     89  S   UNL A   1      44.954  37.413  27.609  1.00  0.00     0.127 S 
ATOM     90  O   UNL A   1      45.347  38.538  28.455  1.00  0.00    -0.237 OA
ATOM     91  O   UNL A   1      45.921  37.066  26.567  1.00  0.00    -0.237 OA
ATOM     92  O   UNL A   1      43.567  37.418  27.164  1.00  0.00    -0.744 OA
ENDBRANCH  86  89
ENDBRANCH  59  82
ENDBRANCH  33  34
ENDBRANCH  26  28
ENDBRANCH  25  26
ENDBRANCH  24  25
ENDBRANCH  23  24
ENDBRANCH   1  23
TORSDOF 20
ENDMDL
MODEL 2
REMARK VINA RESULT:     -10.9      2.927      4.642
REMARK SMILES C[C@@H](C(=O)OCCOCCOC(=O)c1ccc(-c2c3nc(c(-c4cccc(S(=O)(=O)[O-])c4F)c4ccc([nH]4)c(-c4cccc(S(=O)(=O)[O-])c4F)c4nc(c(-c5cccc(S(=O)(=O)[O-])c5F)c5ccc2[nH]5)C=C4)C=C3)cc1)c1ccc(NC2CCCC2)cc1F
REMARK SMILES IDX 8 1 7 2 6 3 5 4 3 5 4 6 2 7 1 8 77 9 78 10 88 11 79 12 87 13
REMARK SMILES IDX 89 14 80 15 81 16 82 18 83 19 86 20 84 21 85 22 9 23 10 24
REMARK SMILES IDX 11 25 12 26 13 27 14 28 15 29 76 30 16 31 75 32 17 33 18 34
REMARK SMILES IDX 19 35 69 36 20 37 74 38 68 39 70 40 21 41 73 42 67 43 66 44
REMARK SMILES IDX 22 46 54 47 34 48 53 49 35 50 38 51 52 52 71 53 36 54 37 55
REMARK SMILES IDX 51 57 72 58 39 59 23 60 24 61 32 62 25 63 27 64 33 65 26 66
REMARK SMILES IDX 28 67 29 68 30 69 31 70 55 71 56 72 64 73 57 74 59 75 65 76
REMARK SMILES IDX 58 77 60 78 61 79 62 80 63 81 40 82 41 83 49 84 42 85 44 86
REMARK SMILES IDX 50 87 43 88 45 89 46 90 47 91 48 92
REMARK H PARENT 81 17 70 45 38 56
REMARK Flexibility Score: inf
ROOT
ATOM      1  O   UNL A   1      37.066  22.162  24.736  1.00  0.00    -0.374 OA
ENDROOT
BRANCH   1   2
ATOM      2  C   UNL A   1      36.105  22.737  23.843  1.00  0.00     0.202 C 
BRANCH   2   3
ATOM      3  C   UNL A   1      35.603  24.141  24.191  1.00  0.00     0.261 C 
BRANCH   3   4
ATOM      4  O   UNL A   1      34.298  24.369  23.623  1.00  0.00    -0.463 OA
BRANCH   4   5
ATOM      5  C   UNL A   1      33.537  25.313  24.239  1.00  0.00     0.313 C 
ATOM      6  O   UNL A   1      33.712  26.522  24.120  1.00  0.00    -0.252 OA
BRANCH   5   7
ATOM      7  C   UNL A   1      32.427  24.710  25.111  1.00  0.00     0.129 C 
ATOM      8  C   UNL A   1      32.159  25.431  26.434  1.00  0.00     0.025 C 
BRANCH   7   9
ATOM      9  C   UNL A   1      32.670  23.215  25.276  1.00  0.00     0.002 A 
ATOM     10  C   UNL A   1      33.278  22.753  26.447  1.00  0.00     0.010 A 
ATOM     11  C   UNL A   1      32.200  22.253  24.381  1.00  0.00     0.129 A 
ATOM     12  C   UNL A   1      33.377  21.382  26.712  1.00  0.00     0.026 A 
ATOM     13  C   UNL A   1      32.294  20.886  24.653  1.00  0.00     0.065 A 
ATOM     14  F   UNL A   1      31.618  22.614  23.230  1.00  0.00    -0.207 F 
ATOM     15  C   UNL A   1      32.869  20.418  25.837  1.00  0.00     0.037 A 
BRANCH  15  16
ATOM     16  N   UNL A   1      32.920  19.057  26.058  1.00  0.00    -0.382 N 
ATOM     17  H   UNL A   1      33.020  18.782  26.998  1.00  0.00     0.160 HD
BRANCH  16  18
ATOM     18  C   UNL A   1      32.848  17.975  25.092  1.00  0.00     0.079 C 
ATOM     19  C   UNL A   1      34.105  17.830  24.240  1.00  0.00     0.025 C 
ATOM     20  C   UNL A   1      32.553  16.602  25.698  1.00  0.00     0.025 C 
ATOM     21  C   UNL A   1      34.084  16.374  23.807  1.00  0.00     0.002 C 
ATOM     22  C   UNL A   1      33.476  15.618  24.981  1.00  0.00     0.002 C 
ENDBRANCH  16  18
ENDBRANCH  15  16
ENDBRANCH   7   9
ENDBRANCH   5   7
ENDBRANCH   4   5
ENDBRANCH   3   4
ENDBRANCH   2   3
ENDBRANCH   1   2
BRANCH   1  23
ATOM     23  C   UNL A   1      37.083  20.740  24.837  1.00  0.00     0.202 C 
BRANCH  23  24
ATOM     24  C   UNL A   1      38.454  20.071  24.994  1.00  0.00     0.261 C 
BRANCH  24  25
ATOM     25  O   UNL A   1      39.003  20.244  26.309  1.00  0.00    -0.460 OA
BRANCH  25  26
ATOM     26  C   UNL A   1      40.326  20.526  26.329  1.00  0.00     0.338 C 
ATOM     27  O   UNL A   1      41.231  19.865  25.829  1.00  0.00    -0.246 OA
BRANCH  26  28
ATOM     28  C   UNL A   1      40.552  21.868  26.889  1.00  0.00     0.060 A 
ATOM     29  C   UNL A   1      40.056  22.956  26.160  1.00  0.00     0.016 A 
ATOM     30  C   UNL A   1      41.281  22.071  28.064  1.00  0.00     0.016 A 
ATOM     31  C   UNL A   1      40.336  24.256  26.570  1.00  0.00     0.010 A 
ATOM     32  C   UNL A   1      41.568  23.378  28.469  1.00  0.00     0.010 A 
ATOM     33  C   UNL A   1      41.132  24.473  27.702  1.00  0.00    -0.014 A 
BRANCH  33  34
ATOM     34  C   UNL A   1      41.632  25.840  27.978  1.00  0.00     0.031 A 
ATOM     35  C   UNL A   1      43.002  26.224  27.492  1.00  0.00     0.074 A 
ATOM     36  C   UNL A   1      40.865  26.734  28.628  1.00  0.00     0.049 A 
ATOM     37  N   UNL A   1      43.629  27.365  27.603  1.00  0.00    -0.248 NA
ATOM     38  C   UNL A   1      43.768  25.184  26.784  1.00  0.00     0.031 C 
ATOM     39  C   UNL A   1      39.520  26.478  29.139  1.00  0.00     0.029 A 
ATOM     40  N   UNL A   1      41.119  28.036  28.981  1.00  0.00    -0.354 N 
ATOM     41  C   UNL A   1      44.871  27.175  27.007  1.00  0.00     0.074 A 
ATOM     42  C   UNL A   1      44.914  25.805  26.545  1.00  0.00     0.031 C 
ATOM     43  C   UNL A   1      39.074  27.583  29.761  1.00  0.00     0.029 A 
ATOM     44  C   UNL A   1      40.108  28.615  29.708  1.00  0.00     0.049 A 
ATOM     45  H   UNL A   1      41.947  28.508  28.736  1.00  0.00     0.167 HD
ATOM     46  C   UNL A   1      45.877  28.065  26.844  1.00  0.00     0.034 A 
ATOM     47  C   UNL A   1      40.033  29.834  30.278  1.00  0.00     0.034 A 
ATOM     48  C   UNL A   1      45.821  29.433  27.282  1.00  0.00     0.049 A 
ATOM     49  C   UNL A   1      41.176  30.799  30.097  1.00  0.00     0.074 A 
ATOM     50  C   UNL A   1      46.766  30.429  27.114  1.00  0.00     0.029 A 
ATOM     51  N   UNL A   1      44.767  29.995  27.986  1.00  0.00    -0.354 N 
ATOM     52  N   UNL A   1      42.288  30.646  29.421  1.00  0.00    -0.248 NA
ATOM     53  C   UNL A   1      41.039  32.119  30.731  1.00  0.00     0.031 C 
ATOM     54  C   UNL A   1      46.295  31.586  27.742  1.00  0.00     0.029 A 
ATOM     55  C   UNL A   1      45.044  31.319  28.275  1.00  0.00     0.049 A 
ATOM     56  H   UNL A   1      43.943  29.521  28.241  1.00  0.00     0.167 HD
ATOM     57  C   UNL A   1      42.966  31.856  29.515  1.00  0.00     0.074 A 
ATOM     58  C   UNL A   1      42.129  32.741  30.300  1.00  0.00     0.031 C 
ATOM     59  C   UNL A   1      44.177  32.203  29.012  1.00  0.00     0.034 A 
BRANCH  46  60
ATOM     60  C   UNL A   1      47.122  27.591  26.140  1.00  0.00     0.023 A 
ATOM     61  C   UNL A   1      48.102  26.877  26.859  1.00  0.00     0.012 A 
ATOM     62  C   UNL A   1      47.296  27.806  24.759  1.00  0.00     0.148 A 
ATOM     63  C   UNL A   1      49.250  26.410  26.221  1.00  0.00     0.002 A 
ATOM     64  C   UNL A   1      48.422  27.300  24.121  1.00  0.00     0.091 A 
ATOM     65  F   UNL A   1      46.364  28.508  24.099  1.00  0.00    -0.205 F 
ATOM     66  C   UNL A   1      49.405  26.612  24.852  1.00  0.00     0.022 A 
BRANCH  64  67
ATOM     67  S   UNL A   1      48.675  27.443  22.349  1.00  0.00     0.127 S 
ATOM     68  O   UNL A   1      49.906  28.231  22.289  1.00  0.00    -0.237 OA
ATOM     69  O   UNL A   1      48.827  26.045  21.945  1.00  0.00    -0.237 OA
ATOM     70  O   UNL A   1      47.486  28.101  21.826  1.00  0.00    -0.744 OA
ENDBRANCH  64  67
ENDBRANCH  46  60
BRANCH  47  71
ATOM     71  C   UNL A   1      38.813  30.228  31.038  1.00  0.00     0.023 A 
ATOM     72  C   UNL A   1      38.727  29.940  32.414  1.00  0.00     0.012 A 
ATOM     73  C   UNL A   1      37.748  30.904  30.410  1.00  0.00     0.148 A 
ATOM     74  C   UNL A   1      37.592  30.292  33.145  1.00  0.00     0.002 A 
ATOM     75  C   UNL A   1      36.643  31.299  31.155  1.00  0.00     0.091 A 
ATOM     76  F   UNL A   1      37.841  31.152  29.097  1.00  0.00    -0.205 F 
ATOM     77  C   UNL A   1      36.555  30.980  32.519  1.00  0.00     0.022 A 
BRANCH  75  78
ATOM     78  S   UNL A   1      35.324  32.301  30.461  1.00  0.00     0.127 S 
ATOM     79  O   UNL A   1      34.923  31.505  29.303  1.00  0.00    -0.237 OA
ATOM     80  O   UNL A   1      34.356  32.329  31.557  1.00  0.00    -0.237 OA
ATOM     81  O   UNL A   1      35.928  33.593  30.163  1.00  0.00    -0.744 OA
ENDBRANCH  75  78
ENDBRANCH  47  71
BRANCH  59  82
ATOM     82  C   UNL A   1      44.662  33.607  29.257  1.00  0.00     0.023 A 
ATOM     83  C   UNL A   1      45.339  33.914  30.454  1.00  0.00     0.012 A 
ATOM     84  C   UNL A   1      44.523  34.601  28.268  1.00  0.00     0.148 A 
ATOM     85  C   UNL A   1      45.840  35.197  30.676  1.00  0.00     0.002 A 
ATOM     86  C   UNL A   1      45.068  35.863  28.474  1.00  0.00     0.091 A 
ATOM     87  F   UNL A   1      43.861  34.293  27.142  1.00  0.00    -0.205 F 
ATOM     88  C   UNL A   1      45.716  36.166  29.682  1.00  0.00     0.022 A 
BRANCH  86  89
ATOM     89  S   UNL A   1      45.040  37.141  27.213  1.00  0.00     0.127 S 
ATOM     90  O   UNL A   1      45.666  38.262  27.911  1.00  0.00    -0.237 OA
ATOM     91  O   UNL A   1      45.858  36.550  26.153  1.00  0.00    -0.237 OA
ATOM     92  O   UNL A   1      43.639  37.325  26.860  1.00  0.00    -0.744 OA
ENDBRANCH  86  89
ENDBRANCH  59  82
ENDBRANCH  33  34
ENDBRANCH  26  28
ENDBRANCH  25  26
ENDBRANCH  24  25
ENDBRANCH  23  24
ENDBRANCH   1  23
TORSDOF 20
ENDMDL
MODEL 3
REMARK VINA RESULT:     -10.6      2.704      4.676
REMARK SMILES C[C@@H](C(=O)OCCOCCOC(=O)c1ccc(-c2c3nc(c(-c4cccc(S(=O)(=O)[O-])c4F)c4ccc([nH]4)c(-c4cccc(S(=O)(=O)[O-])c4F)c4nc(c(-c5cccc(S(=O)(=O)[O-])c5F)c5ccc2[nH]5)C=C4)C=C3)cc1)c1ccc(NC2CCCC2)cc1F
REMARK SMILES IDX 8 1 7 2 6 3 5 4 3 5 4 6 2 7 1 8 77 9 78 10 88 11 79 12 87 13
REMARK SMILES IDX 89 14 80 15 81 16 82 18 83 19 86 20 84 21 85 22 9 23 10 24
REMARK SMILES IDX 11 25 12 26 13 27 14 28 15 29 76 30 16 31 75 32 17 33 18 34
REMARK SMILES IDX 19 35 69 36 20 37 74 38 68 39 70 40 21 41 73 42 67 43 66 44
REMARK SMILES IDX 22 46 54 47 34 48 53 49 35 50 38 51 52 52 71 53 36 54 37 55
REMARK SMILES IDX 51 57 72 58 39 59 23 60 24 61 32 62 25 63 27 64 33 65 26 66
REMARK SMILES IDX 28 67 29 68 30 69 31 70 55 71 56 72 64 73 57 74 59 75 65 76
REMARK SMILES IDX 58 77 60 78 61 79 62 80 63 81 40 82 41 83 49 84 42 85 44 86
REMARK SMILES IDX 50 87 43 88 45 89 46 90 47 91 48 92
REMARK H PARENT 81 17 70 45 38 56
REMARK Flexibility Score: inf
ROOT
ATOM      1  O   UNL A   1      36.987  22.244  25.328  1.00  0.00    -0.374 OA
ENDROOT
BRANCH   1   2
ATOM      2  C   UNL A   1      36.040  23.067  24.638  1.00  0.00     0.202 C 
BRANCH   2   3
ATOM      3  C   UNL A   1      35.498  24.276  25.406  1.00  0.00     0.261 C 
BRANCH   3   4
ATOM      4  O   UNL A   1      34.627  25.062  24.568  1.00  0.00    -0.463 OA
BRANCH   4   5
ATOM      5  C   UNL A   1      33.386  25.309  25.064  1.00  0.00     0.313 C 
ATOM      6  O   UNL A   1      33.169  25.959  26.082  1.00  0.00    -0.252 OA
BRANCH   5   7
ATOM      7  C   UNL A   1      32.269  24.682  24.217  1.00  0.00     0.129 C 
ATOM      8  C   UNL A   1      30.850  25.159  24.536  1.00  0.00     0.025 C 
BRANCH   7   9
ATOM      9  C   UNL A   1      32.415  23.166  24.229  1.00  0.00     0.002 A 
ATOM     10  C   UNL A   1      32.227  22.477  25.430  1.00  0.00     0.010 A 
ATOM     11  C   UNL A   1      32.597  22.399  23.077  1.00  0.00     0.129 A 
ATOM     12  C   UNL A   1      32.193  21.078  25.458  1.00  0.00     0.026 A 
ATOM     13  C   UNL A   1      32.556  21.004  23.108  1.00  0.00     0.065 A 
ATOM     14  F   UNL A   1      32.798  22.984  21.889  1.00  0.00    -0.207 F 
ATOM     15  C   UNL A   1      32.333  20.309  24.300  1.00  0.00     0.037 A 
BRANCH  15  16
ATOM     16  N   UNL A   1      32.288  18.930  24.266  1.00  0.00    -0.382 N 
ATOM     17  H   UNL A   1      31.556  18.542  23.735  1.00  0.00     0.160 HD
BRANCH  16  18
ATOM     18  C   UNL A   1      33.173  17.974  24.908  1.00  0.00     0.079 C 
ATOM     19  C   UNL A   1      32.469  16.703  25.370  1.00  0.00     0.025 C 
ATOM     20  C   UNL A   1      34.367  17.543  24.054  1.00  0.00     0.025 C 
ATOM     21  C   UNL A   1      33.578  15.665  25.404  1.00  0.00     0.002 C 
ATOM     22  C   UNL A   1      34.504  16.034  24.253  1.00  0.00     0.002 C 
ENDBRANCH  16  18
ENDBRANCH  15  16
ENDBRANCH   7   9
ENDBRANCH   5   7
ENDBRANCH   4   5
ENDBRANCH   3   4
ENDBRANCH   2   3
ENDBRANCH   1   2
BRANCH   1  23
ATOM     23  C   UNL A   1      36.961  20.848  25.036  1.00  0.00     0.202 C 
BRANCH  23  24
ATOM     24  C   UNL A   1      38.313  20.126  24.978  1.00  0.00     0.261 C 
BRANCH  24  25
ATOM     25  O   UNL A   1      38.910  19.968  26.274  1.00  0.00    -0.460 OA
BRANCH  25  26
ATOM     26  C   UNL A   1      40.239  20.218  26.311  1.00  0.00     0.338 C 
ATOM     27  O   UNL A   1      41.134  19.529  25.834  1.00  0.00    -0.246 OA
BRANCH  26  28
ATOM     28  C   UNL A   1      40.489  21.561  26.860  1.00  0.00     0.060 A 
ATOM     29  C   UNL A   1      39.941  22.647  26.164  1.00  0.00     0.016 A 
ATOM     30  C   UNL A   1      41.286  21.767  27.988  1.00  0.00     0.016 A 
ATOM     31  C   UNL A   1      40.237  23.948  26.558  1.00  0.00     0.010 A 
ATOM     32  C   UNL A   1      41.589  23.076  28.378  1.00  0.00     0.010 A 
ATOM     33  C   UNL A   1      41.099  24.169  27.640  1.00  0.00    -0.014 A 
BRANCH  33  34
ATOM     34  C   UNL A   1      41.605  25.539  27.888  1.00  0.00     0.031 A 
ATOM     35  C   UNL A   1      42.985  25.901  27.410  1.00  0.00     0.074 A 
ATOM     36  C   UNL A   1      40.836  26.455  28.504  1.00  0.00     0.049 A 
ATOM     37  N   UNL A   1      43.618  27.040  27.500  1.00  0.00    -0.248 NA
ATOM     38  C   UNL A   1      43.752  24.837  26.740  1.00  0.00     0.031 C 
ATOM     39  C   UNL A   1      39.483  26.222  29.003  1.00  0.00     0.029 A 
ATOM     40  N   UNL A   1      41.095  27.763  28.826  1.00  0.00    -0.354 N 
ATOM     41  C   UNL A   1      44.866  26.826  26.926  1.00  0.00     0.074 A 
ATOM     42  C   UNL A   1      44.905  25.444  26.500  1.00  0.00     0.031 C 
ATOM     43  C   UNL A   1      39.036  27.345  29.591  1.00  0.00     0.029 A 
ATOM     44  C   UNL A   1      40.078  28.368  29.525  1.00  0.00     0.049 A 
ATOM     45  H   UNL A   1      41.930  28.224  28.581  1.00  0.00     0.167 HD
ATOM     46  C   UNL A   1      45.881  27.704  26.753  1.00  0.00     0.034 A 
ATOM     47  C   UNL A   1      40.005  29.602  30.062  1.00  0.00     0.034 A 
ATOM     48  C   UNL A   1      45.830  29.083  27.155  1.00  0.00     0.049 A 
ATOM     49  C   UNL A   1      41.157  30.554  29.872  1.00  0.00     0.074 A 
ATOM     50  C   UNL A   1      46.783  30.068  26.975  1.00  0.00     0.029 A 
ATOM     51  N   UNL A   1      44.770  29.671  27.830  1.00  0.00    -0.354 N 
ATOM     52  N   UNL A   1      42.277  30.375  29.215  1.00  0.00    -0.248 NA
ATOM     53  C   UNL A   1      41.022  31.891  30.470  1.00  0.00     0.031 C 
ATOM     54  C   UNL A   1      46.313  31.245  27.566  1.00  0.00     0.029 A 
ATOM     55  C   UNL A   1      45.053  31.000  28.089  1.00  0.00     0.049 A 
ATOM     56  H   UNL A   1      43.939  29.209  28.087  1.00  0.00     0.167 HD
ATOM     57  C   UNL A   1      42.962  31.584  29.287  1.00  0.00     0.074 A 
ATOM     58  C   UNL A   1      42.121  32.494  30.038  1.00  0.00     0.031 C 
ATOM     59  C   UNL A   1      44.182  31.909  28.791  1.00  0.00     0.034 A 
BRANCH  46  60
ATOM     60  C   UNL A   1      47.132  27.204  26.079  1.00  0.00     0.023 A 
ATOM     61  C   UNL A   1      47.322  27.433  24.701  1.00  0.00     0.012 A 
ATOM     62  C   UNL A   1      48.140  26.557  26.819  1.00  0.00     0.148 A 
ATOM     63  C   UNL A   1      48.483  27.000  24.064  1.00  0.00     0.002 A 
ATOM     64  C   UNL A   1      49.314  26.166  26.185  1.00  0.00     0.091 A 
ATOM     65  F   UNL A   1      47.930  26.327  28.123  1.00  0.00    -0.205 F 
ATOM     66  C   UNL A   1      49.482  26.376  24.806  1.00  0.00     0.022 A 
BRANCH  64  67
ATOM     67  S   UNL A   1      50.689  25.423  27.070  1.00  0.00     0.127 S 
ATOM     68  O   UNL A   1      51.629  25.153  25.984  1.00  0.00    -0.237 OA
ATOM     69  O   UNL A   1      51.094  26.503  27.972  1.00  0.00    -0.237 OA
ATOM     70  O   UNL A   1      50.149  24.247  27.737  1.00  0.00    -0.744 OA
ENDBRANCH  64  67
ENDBRANCH  46  60
BRANCH  47  71
ATOM     71  C   UNL A   1      38.778  30.024  30.796  1.00  0.00     0.023 A 
ATOM     72  C   UNL A   1      38.623  29.675  32.151  1.00  0.00     0.012 A 
ATOM     73  C   UNL A   1      37.775  30.786  30.164  1.00  0.00     0.148 A 
ATOM     74  C   UNL A   1      37.479  30.052  32.856  1.00  0.00     0.002 A 
ATOM     75  C   UNL A   1      36.664  31.204  30.886  1.00  0.00     0.091 A 
ATOM     76  F   UNL A   1      37.933  31.092  28.868  1.00  0.00    -0.205 F 
ATOM     77  C   UNL A   1      36.505  30.825  32.228  1.00  0.00     0.022 A 
BRANCH  75  78
ATOM     78  S   UNL A   1      35.428  32.308  30.194  1.00  0.00     0.127 S 
ATOM     79  O   UNL A   1      34.950  31.539  29.047  1.00  0.00    -0.237 OA
ATOM     80  O   UNL A   1      34.475  32.426  31.298  1.00  0.00    -0.237 OA
ATOM     81  O   UNL A   1      36.135  33.542  29.880  1.00  0.00    -0.744 OA
ENDBRANCH  75  78
ENDBRANCH  47  71
BRANCH  59  82
ATOM     82  C   UNL A   1      44.675  33.315  29.007  1.00  0.00     0.023 A 
ATOM     83  C   UNL A   1      44.360  34.318  28.070  1.00  0.00     0.012 A 
ATOM     84  C   UNL A   1      45.378  33.660  30.179  1.00  0.00     0.148 A 
ATOM     85  C   UNL A   1      44.765  35.637  28.279  1.00  0.00     0.002 A 
ATOM     86  C   UNL A   1      45.735  34.985  30.405  1.00  0.00     0.091 A 
ATOM     87  F   UNL A   1      45.683  32.688  31.052  1.00  0.00    -0.205 F 
ATOM     88  C   UNL A   1      45.440  35.971  29.451  1.00  0.00     0.022 A 
BRANCH  86  89
ATOM     89  S   UNL A   1      46.520  35.523  31.929  1.00  0.00     0.127 S 
ATOM     90  O   UNL A   1      47.854  34.940  31.798  1.00  0.00    -0.237 OA
ATOM     91  O   UNL A   1      46.475  36.980  31.805  1.00  0.00    -0.237 OA
ATOM     92  O   UNL A   1      45.704  34.985  33.009  1.00  0.00    -0.744 OA
ENDBRANCH  86  89
ENDBRANCH  59  82
ENDBRANCH  33  34
ENDBRANCH  26  28
ENDBRANCH  25  26
ENDBRANCH  24  25
ENDBRANCH  23  24
ENDBRANCH   1  23
TORSDOF 20
ENDMDL
