MODEL 1
REMARK VINA RESULT:     -10.1      0.000      0.000
REMARK SMILES CC(=O)Nc1cccc(-c2ccc(F)c(C(=O)OCCOCCOC(=O)c3ccc(-c4c5nc(c(-c6cccc(S(=O)(=O)[O-])c6F)c6ccc([nH]6)c(-c6cccc(S(=O)(=O)[O-])c6F)c6nc(c(-c7cccc(S(=O)(=O)[O-])c7F)c7ccc4[nH]7)C=C6)C=C5)cc3)c2)c1
REMARK SMILES IDX 22 1 21 2 20 3 19 4 18 5 16 6 17 7 15 8 10 9 11 10 90 11
REMARK SMILES IDX 12 12 13 13 14 14 9 15 5 16 6 17 91 18 7 19 8 20 4 21 1 22
REMARK SMILES IDX 2 23 3 24 23 26 24 27 25 28 26 29 27 30 28 31 89 32 29 33
REMARK SMILES IDX 88 34 30 35 31 36 32 37 82 38 33 39 87 40 81 41 83 42 34 43
REMARK SMILES IDX 86 44 80 45 79 46 35 48 67 49 47 50 66 51 48 52 51 53 65 54
REMARK SMILES IDX 84 55 49 56 50 57 64 59 85 60 52 61 36 62 37 63 45 64 38 65
REMARK SMILES IDX 40 66 46 67 39 68 41 69 42 70 43 71 44 72 68 73 69 74 77 75
REMARK SMILES IDX 70 76 72 77 78 78 71 79 73 80 74 81 75 82 76 83 53 84 54 85
REMARK SMILES IDX 62 86 55 87 57 88 63 89 56 90 58 91 59 92 60 93 61 94
REMARK H PARENT 4 25 83 47 51 58
REMARK Flexibility Score: inf
ROOT
ATOM      1  C   UNL A   1      33.864  35.575  28.632  1.00  0.00     0.202 C 
ENDROOT
BRANCH   1   2
ATOM      2  O   UNL A   1      33.837  35.453  30.054  1.00  0.00    -0.374 OA
BRANCH   2   3
ATOM      3  C   UNL A   1      32.690  35.974  30.730  1.00  0.00     0.202 C 
BRANCH   3   4
ATOM      4  C   UNL A   1      32.568  35.628  32.218  1.00  0.00     0.261 C 
BRANCH   4   5
ATOM      5  O   UNL A   1      33.869  35.496  32.813  1.00  0.00    -0.460 OA
BRANCH   5   6
ATOM      6  C   UNL A   1      34.351  34.233  32.906  1.00  0.00     0.341 C 
ATOM      7  O   UNL A   1      33.740  33.199  32.690  1.00  0.00    -0.246 OA
BRANCH   6   8
ATOM      8  C   UNL A   1      35.799  34.295  33.186  1.00  0.00     0.096 A 
ATOM      9  C   UNL A   1      38.130  34.392  32.443  1.00  0.00    -0.017 A 
ATOM     10  C   UNL A   1      38.525  34.406  33.791  1.00  0.00     0.012 A 
ATOM     11  C   UNL A   1      36.751  34.312  32.157  1.00  0.00     0.027 A 
ATOM     12  C   UNL A   1      37.579  34.355  34.819  1.00  0.00     0.041 A 
ATOM     13  C   UNL A   1      36.225  34.308  34.511  1.00  0.00     0.137 A 
ATOM     14  F   UNL A   1      35.350  34.232  35.523  1.00  0.00    -0.206 F 
BRANCH   9  15
ATOM     15  C   UNL A   1      39.119  34.526  31.355  1.00  0.00    -0.016 A 
ATOM     16  C   UNL A   1      41.463  34.449  30.640  1.00  0.00     0.041 A 
ATOM     17  C   UNL A   1      41.072  34.798  29.348  1.00  0.00     0.026 A 
ATOM     18  C   UNL A   1      40.487  34.348  31.631  1.00  0.00     0.034 A 
ATOM     19  C   UNL A   1      39.720  34.958  29.038  1.00  0.00     0.003 A 
ATOM     20  C   UNL A   1      38.750  34.813  30.034  1.00  0.00     0.009 A 
BRANCH  16  21
ATOM     21  N   UNL A   1      42.830  34.245  30.880  1.00  0.00    -0.326 N 
ATOM     22  C   UNL A   1      43.320  32.424  29.240  1.00  0.00     0.114 C 
ATOM     23  C   UNL A   1      43.712  33.332  30.374  1.00  0.00     0.221 C 
ATOM     24  O   UNL A   1      44.871  33.329  30.793  1.00  0.00    -0.275 OA
ATOM     25  H   UNL A   1      43.224  34.873  31.528  1.00  0.00     0.169 HD
ENDBRANCH  16  21
ENDBRANCH   9  15
ENDBRANCH   6   8
ENDBRANCH   5   6
ENDBRANCH   4   5
ENDBRANCH   3   4
ENDBRANCH   2   3
ENDBRANCH   1   2
BRANCH   1  26
ATOM     26  C   UNL A   1      33.829  34.270  27.826  1.00  0.00     0.261 C 
BRANCH  26  27
ATOM     27  O   UNL A   1      33.898  33.105  28.665  1.00  0.00    -0.460 OA
BRANCH  27  28
ATOM     28  C   UNL A   1      34.031  31.934  27.993  1.00  0.00     0.338 C 
ATOM     29  O   UNL A   1      33.294  31.496  27.125  1.00  0.00    -0.246 OA
BRANCH  28  30
ATOM     30  C   UNL A   1      35.320  31.302  28.331  1.00  0.00     0.060 A 
ATOM     31  C   UNL A   1      35.293  29.965  28.750  1.00  0.00     0.016 A 
ATOM     32  C   UNL A   1      36.520  32.016  28.313  1.00  0.00     0.016 A 
ATOM     33  C   UNL A   1      36.459  29.351  29.200  1.00  0.00     0.010 A 
ATOM     34  C   UNL A   1      37.688  31.397  28.773  1.00  0.00     0.010 A 
ATOM     35  C   UNL A   1      37.656  30.075  29.252  1.00  0.00    -0.014 A 
BRANCH  35  36
ATOM     36  C   UNL A   1      38.842  29.490  29.925  1.00  0.00     0.031 A 
ATOM     37  C   UNL A   1      39.223  29.976  31.296  1.00  0.00     0.074 A 
ATOM     38  C   UNL A   1      39.577  28.542  29.315  1.00  0.00     0.049 A 
ATOM     39  N   UNL A   1      40.238  29.630  32.043  1.00  0.00    -0.248 NA
ATOM     40  C   UNL A   1      38.348  30.992  31.905  1.00  0.00     0.031 C 
ATOM     41  C   UNL A   1      39.315  27.996  27.985  1.00  0.00     0.029 A 
ATOM     42  N   UNL A   1      40.716  27.895  29.727  1.00  0.00    -0.354 N 
ATOM     43  C   UNL A   1      40.149  30.409  33.190  1.00  0.00     0.074 A 
ATOM     44  C   UNL A   1      38.980  31.249  33.041  1.00  0.00     0.031 C 
ATOM     45  C   UNL A   1      40.288  27.123  27.673  1.00  0.00     0.029 A 
ATOM     46  C   UNL A   1      41.252  27.068  28.770  1.00  0.00     0.049 A 
ATOM     47  H   UNL A   1      41.110  28.014  30.622  1.00  0.00     0.167 HD
ATOM     48  C   UNL A   1      40.960  30.418  34.273  1.00  0.00     0.034 A 
ATOM     49  C   UNL A   1      42.406  26.369  28.768  1.00  0.00     0.034 A 
ATOM     50  C   UNL A   1      42.102  29.559  34.435  1.00  0.00     0.049 A 
ATOM     51  C   UNL A   1      43.291  26.398  29.986  1.00  0.00     0.074 A 
ATOM     52  C   UNL A   1      42.937  29.440  35.532  1.00  0.00     0.029 A 
ATOM     53  N   UNL A   1      42.581  28.688  33.470  1.00  0.00    -0.354 N 
ATOM     54  N   UNL A   1      43.114  27.033  31.120  1.00  0.00    -0.248 NA
ATOM     55  C   UNL A   1      44.519  25.590  29.938  1.00  0.00     0.031 C 
ATOM     56  C   UNL A   1      43.942  28.520  35.217  1.00  0.00     0.029 A 
ATOM     57  C   UNL A   1      43.712  28.041  33.937  1.00  0.00     0.049 A 
ATOM     58  H   UNL A   1      42.176  28.549  32.584  1.00  0.00     0.167 HD
ATOM     59  C   UNL A   1      44.185  26.671  31.931  1.00  0.00     0.074 A 
ATOM     60  C   UNL A   1      44.996  25.747  31.166  1.00  0.00     0.031 C 
ATOM     61  C   UNL A   1      44.480  27.080  33.190  1.00  0.00     0.034 A 
BRANCH  48  62
ATOM     62  C   UNL A   1      40.637  31.374  35.390  1.00  0.00     0.023 A 
ATOM     63  C   UNL A   1      41.382  32.561  35.535  1.00  0.00     0.012 A 
ATOM     64  C   UNL A   1      39.542  31.134  36.242  1.00  0.00     0.148 A 
ATOM     65  C   UNL A   1      41.057  33.485  36.528  1.00  0.00     0.002 A 
ATOM     66  C   UNL A   1      39.197  32.080  37.201  1.00  0.00     0.091 A 
ATOM     67  F   UNL A   1      38.861  29.989  36.101  1.00  0.00    -0.205 F 
ATOM     68  C   UNL A   1      39.958  33.251  37.352  1.00  0.00     0.022 A 
BRANCH  66  69
ATOM     69  S   UNL A   1      37.754  31.906  38.257  1.00  0.00     0.127 S 
ATOM     70  O   UNL A   1      37.312  30.551  37.933  1.00  0.00    -0.237 OA
ATOM     71  O   UNL A   1      38.332  32.056  39.593  1.00  0.00    -0.237 OA
ATOM     72  O   UNL A   1      36.840  32.970  37.868  1.00  0.00    -0.744 OA
ENDBRANCH  66  69
ENDBRANCH  48  62
BRANCH  49  73
ATOM     73  C   UNL A   1      42.789  25.569  27.571  1.00  0.00     0.023 A 
ATOM     74  C   UNL A   1      43.610  26.140  26.580  1.00  0.00     0.012 A 
ATOM     75  C   UNL A   1      42.344  24.243  27.416  1.00  0.00     0.148 A 
ATOM     76  C   UNL A   1      43.953  25.415  25.437  1.00  0.00     0.002 A 
ATOM     77  C   UNL A   1      42.735  23.507  26.305  1.00  0.00     0.091 A 
ATOM     78  F   UNL A   1      41.545  23.727  28.361  1.00  0.00    -0.205 F 
ATOM     79  C   UNL A   1      43.525  24.096  25.305  1.00  0.00     0.022 A 
BRANCH  77  80
ATOM     80  S   UNL A   1      42.340  21.767  26.122  1.00  0.00     0.127 S 
ATOM     81  O   UNL A   1      40.896  21.812  25.901  1.00  0.00    -0.237 OA
ATOM     82  O   UNL A   1      43.134  21.400  24.948  1.00  0.00    -0.237 OA
ATOM     83  O   UNL A   1      42.775  21.140  27.363  1.00  0.00    -0.744 OA
ENDBRANCH  77  80
ENDBRANCH  49  73
BRANCH  61  84
ATOM     84  C   UNL A   1      45.705  26.502  33.849  1.00  0.00     0.023 A 
ATOM     85  C   UNL A   1      46.933  27.188  33.772  1.00  0.00     0.012 A 
ATOM     86  C   UNL A   1      45.619  25.322  34.614  1.00  0.00     0.148 A 
ATOM     87  C   UNL A   1      48.064  26.690  34.420  1.00  0.00     0.002 A 
ATOM     88  C   UNL A   1      46.737  24.859  35.299  1.00  0.00     0.091 A 
ATOM     89  F   UNL A   1      44.445  24.675  34.661  1.00  0.00    -0.205 F 
ATOM     90  C   UNL A   1      47.963  25.535  35.193  1.00  0.00     0.022 A 
BRANCH  88  91
ATOM     91  S   UNL A   1      46.674  23.438  36.396  1.00  0.00     0.127 S 
ATOM     92  O   UNL A   1      46.471  22.341  35.451  1.00  0.00    -0.237 OA
ATOM     93  O   UNL A   1      47.997  23.468  37.020  1.00  0.00    -0.237 OA
ATOM     94  O   UNL A   1      45.569  23.686  37.313  1.00  0.00    -0.744 OA
ENDBRANCH  88  91
ENDBRANCH  61  84
ENDBRANCH  35  36
ENDBRANCH  28  30
ENDBRANCH  27  28
ENDBRANCH  26  27
ENDBRANCH   1  26
TORSDOF 19
ENDMDL
MODEL 2
REMARK VINA RESULT:     -10.0      5.055     11.174
REMARK SMILES CC(=O)Nc1cccc(-c2ccc(F)c(C(=O)OCCOCCOC(=O)c3ccc(-c4c5nc(c(-c6cccc(S(=O)(=O)[O-])c6F)c6ccc([nH]6)c(-c6cccc(S(=O)(=O)[O-])c6F)c6nc(c(-c7cccc(S(=O)(=O)[O-])c7F)c7ccc4[nH]7)C=C6)C=C5)cc3)c2)c1
REMARK SMILES IDX 22 1 21 2 20 3 19 4 18 5 16 6 17 7 15 8 10 9 11 10 90 11
REMARK SMILES IDX 12 12 13 13 14 14 9 15 5 16 6 17 91 18 7 19 8 20 4 21 1 22
REMARK SMILES IDX 2 23 3 24 23 26 24 27 25 28 26 29 27 30 28 31 89 32 29 33
REMARK SMILES IDX 88 34 30 35 31 36 32 37 82 38 33 39 87 40 81 41 83 42 34 43
REMARK SMILES IDX 86 44 80 45 79 46 35 48 67 49 47 50 66 51 48 52 51 53 65 54
REMARK SMILES IDX 84 55 49 56 50 57 64 59 85 60 52 61 36 62 37 63 45 64 38 65
REMARK SMILES IDX 40 66 46 67 39 68 41 69 42 70 43 71 44 72 68 73 69 74 77 75
REMARK SMILES IDX 70 76 72 77 78 78 71 79 73 80 74 81 75 82 76 83 53 84 54 85
REMARK SMILES IDX 62 86 55 87 57 88 63 89 56 90 58 91 59 92 60 93 61 94
REMARK H PARENT 4 25 83 47 51 58
REMARK Flexibility Score: inf
ROOT
ATOM      1  C   UNL A   1      31.156  29.600  24.382  1.00  0.00     0.202 C 
ENDROOT
BRANCH   1   2
ATOM      2  O   UNL A   1      30.085  28.669  24.213  1.00  0.00    -0.374 OA
BRANCH   2   3
ATOM      3  C   UNL A   1      30.137  27.819  23.065  1.00  0.00     0.202 C 
BRANCH   3   4
ATOM      4  C   UNL A   1      30.902  26.502  23.235  1.00  0.00     0.261 C 
BRANCH   4   5
ATOM      5  O   UNL A   1      30.176  25.604  24.089  1.00  0.00    -0.460 OA
BRANCH   5   6
ATOM      6  C   UNL A   1      30.685  25.430  25.333  1.00  0.00     0.341 C 
ATOM      7  O   UNL A   1      30.272  25.928  26.368  1.00  0.00    -0.246 OA
BRANCH   6   8
ATOM      8  C   UNL A   1      31.759  24.420  25.273  1.00  0.00     0.096 A 
ATOM      9  C   UNL A   1      32.610  22.226  24.600  1.00  0.00    -0.017 A 
ATOM     10  C   UNL A   1      33.838  22.553  25.201  1.00  0.00     0.012 A 
ATOM     11  C   UNL A   1      31.566  23.171  24.666  1.00  0.00     0.027 A 
ATOM     12  C   UNL A   1      34.022  23.785  25.835  1.00  0.00     0.041 A 
ATOM     13  C   UNL A   1      32.987  24.712  25.860  1.00  0.00     0.137 A 
ATOM     14  F   UNL A   1      33.192  25.871  26.502  1.00  0.00    -0.206 F 
BRANCH   9  15
ATOM     15  C   UNL A   1      32.436  20.960  23.861  1.00  0.00    -0.016 A 
ATOM     16  C   UNL A   1      32.368  18.509  23.899  1.00  0.00     0.041 A 
ATOM     17  C   UNL A   1      32.152  18.501  22.521  1.00  0.00     0.026 A 
ATOM     18  C   UNL A   1      32.538  19.734  24.544  1.00  0.00     0.034 A 
ATOM     19  C   UNL A   1      32.023  19.701  21.820  1.00  0.00     0.003 A 
ATOM     20  C   UNL A   1      32.154  20.922  22.488  1.00  0.00     0.009 A 
BRANCH  16  21
ATOM     21  N   UNL A   1      32.432  17.273  24.560  1.00  0.00    -0.326 N 
ATOM     22  C   UNL A   1      34.496  16.307  23.533  1.00  0.00     0.114 C 
ATOM     23  C   UNL A   1      33.280  16.210  24.414  1.00  0.00     0.221 C 
ATOM     24  O   UNL A   1      33.089  15.200  25.093  1.00  0.00    -0.275 OA
ATOM     25  H   UNL A   1      31.744  17.150  25.253  1.00  0.00     0.169 HD
ENDBRANCH  16  21
ENDBRANCH   9  15
ENDBRANCH   6   8
ENDBRANCH   5   6
ENDBRANCH   4   5
ENDBRANCH   3   4
ENDBRANCH   2   3
ENDBRANCH   1   2
BRANCH   1  26
ATOM     26  C   UNL A   1      31.740  29.732  25.793  1.00  0.00     0.261 C 
BRANCH  26  27
ATOM     27  O   UNL A   1      33.046  30.334  25.793  1.00  0.00    -0.460 OA
BRANCH  27  28
ATOM     28  C   UNL A   1      33.302  31.124  26.865  1.00  0.00     0.338 C 
ATOM     29  O   UNL A   1      32.524  31.880  27.425  1.00  0.00    -0.246 OA
BRANCH  28  30
ATOM     30  C   UNL A   1      34.643  30.827  27.402  1.00  0.00     0.060 A 
ATOM     31  C   UNL A   1      34.969  29.481  27.614  1.00  0.00     0.016 A 
ATOM     32  C   UNL A   1      35.536  31.839  27.761  1.00  0.00     0.016 A 
ATOM     33  C   UNL A   1      36.170  29.143  28.233  1.00  0.00     0.010 A 
ATOM     34  C   UNL A   1      36.738  31.495  28.389  1.00  0.00     0.010 A 
ATOM     35  C   UNL A   1      37.045  30.149  28.660  1.00  0.00    -0.014 A 
BRANCH  35  36
ATOM     36  C   UNL A   1      38.215  29.799  29.501  1.00  0.00     0.031 A 
ATOM     37  C   UNL A   1      39.241  28.836  28.969  1.00  0.00     0.074 A 
ATOM     38  C   UNL A   1      38.357  30.326  30.731  1.00  0.00     0.049 A 
ATOM     39  N   UNL A   1      40.314  28.367  29.549  1.00  0.00    -0.248 NA
ATOM     40  C   UNL A   1      39.027  28.330  27.602  1.00  0.00     0.031 C 
ATOM     41  C   UNL A   1      37.427  31.261  31.362  1.00  0.00     0.029 A 
ATOM     42  N   UNL A   1      39.326  30.120  31.683  1.00  0.00    -0.354 N 
ATOM     43  C   UNL A   1      40.882  27.483  28.640  1.00  0.00     0.074 A 
ATOM     44  C   UNL A   1      40.034  27.480  27.467  1.00  0.00     0.031 C 
ATOM     45  C   UNL A   1      37.850  31.520  32.611  1.00  0.00     0.029 A 
ATOM     46  C   UNL A   1      39.064  30.751  32.875  1.00  0.00     0.049 A 
ATOM     47  H   UNL A   1      40.129  29.573  31.525  1.00  0.00     0.167 HD
ATOM     48  C   UNL A   1      42.012  26.749  28.766  1.00  0.00     0.034 A 
ATOM     49  C   UNL A   1      39.715  30.691  34.055  1.00  0.00     0.034 A 
ATOM     50  C   UNL A   1      42.872  26.779  29.918  1.00  0.00     0.049 A 
ATOM     51  C   UNL A   1      40.969  29.864  34.167  1.00  0.00     0.074 A 
ATOM     52  C   UNL A   1      44.080  26.131  30.103  1.00  0.00     0.029 A 
ATOM     53  N   UNL A   1      42.609  27.478  31.085  1.00  0.00    -0.354 N 
ATOM     54  N   UNL A   1      41.570  29.147  33.248  1.00  0.00    -0.248 NA
ATOM     55  C   UNL A   1      41.654  29.864  35.469  1.00  0.00     0.031 C 
ATOM     56  C   UNL A   1      44.532  26.412  31.397  1.00  0.00     0.029 A 
ATOM     57  C   UNL A   1      43.621  27.262  32.003  1.00  0.00     0.049 A 
ATOM     58  H   UNL A   1      41.819  28.045  31.238  1.00  0.00     0.167 HD
ATOM     59  C   UNL A   1      42.719  28.643  33.849  1.00  0.00     0.074 A 
ATOM     60  C   UNL A   1      42.741  29.152  35.204  1.00  0.00     0.031 C 
ATOM     61  C   UNL A   1      43.663  27.820  33.330  1.00  0.00     0.034 A 
BRANCH  48  62
ATOM     62  C   UNL A   1      42.406  25.858  27.619  1.00  0.00     0.023 A 
ATOM     63  C   UNL A   1      43.307  26.329  26.642  1.00  0.00     0.012 A 
ATOM     64  C   UNL A   1      41.949  24.527  27.556  1.00  0.00     0.148 A 
ATOM     65  C   UNL A   1      43.727  25.496  25.605  1.00  0.00     0.002 A 
ATOM     66  C   UNL A   1      42.407  23.690  26.545  1.00  0.00     0.091 A 
ATOM     67  F   UNL A   1      41.077  24.107  28.482  1.00  0.00    -0.205 F 
ATOM     68  C   UNL A   1      43.288  24.175  25.564  1.00  0.00     0.022 A 
BRANCH  66  69
ATOM     69  S   UNL A   1      41.961  21.953  26.450  1.00  0.00     0.127 S 
ATOM     70  O   UNL A   1      40.537  22.031  26.128  1.00  0.00    -0.237 OA
ATOM     71  O   UNL A   1      42.808  21.477  25.357  1.00  0.00    -0.237 OA
ATOM     72  O   UNL A   1      42.275  21.385  27.754  1.00  0.00    -0.744 OA
ENDBRANCH  66  69
ENDBRANCH  48  62
BRANCH  49  73
ATOM     73  C   UNL A   1      39.197  31.446  35.230  1.00  0.00     0.023 A 
ATOM     74  C   UNL A   1      38.296  30.830  36.118  1.00  0.00     0.012 A 
ATOM     75  C   UNL A   1      39.599  32.774  35.469  1.00  0.00     0.148 A 
ATOM     76  C   UNL A   1      37.777  31.534  37.207  1.00  0.00     0.002 A 
ATOM     77  C   UNL A   1      39.124  33.450  36.585  1.00  0.00     0.091 A 
ATOM     78  F   UNL A   1      40.441  33.349  34.598  1.00  0.00    -0.205 F 
ATOM     79  C   UNL A   1      38.199  32.839  37.446  1.00  0.00     0.022 A 
BRANCH  77  80
ATOM     80  S   UNL A   1      39.717  35.082  37.039  1.00  0.00     0.127 S 
ATOM     81  O   UNL A   1      39.278  35.885  35.900  1.00  0.00    -0.237 OA
ATOM     82  O   UNL A   1      38.991  35.329  38.286  1.00  0.00    -0.237 OA
ATOM     83  O   UNL A   1      41.158  34.938  37.200  1.00  0.00    -0.744 OA
ENDBRANCH  77  80
ENDBRANCH  49  73
BRANCH  61  84
ATOM     84  C   UNL A   1      44.830  27.446  34.207  1.00  0.00     0.023 A 
ATOM     85  C   UNL A   1      45.952  28.295  34.281  1.00  0.00     0.012 A 
ATOM     86  C   UNL A   1      44.778  26.297  35.020  1.00  0.00     0.148 A 
ATOM     87  C   UNL A   1      47.018  27.987  35.126  1.00  0.00     0.002 A 
ATOM     88  C   UNL A   1      45.821  26.023  35.898  1.00  0.00     0.091 A 
ATOM     89  F   UNL A   1      43.708  25.493  34.922  1.00  0.00    -0.205 F 
ATOM     90  C   UNL A   1      46.947  26.860  35.943  1.00  0.00     0.022 A 
BRANCH  88  91
ATOM     91  S   UNL A   1      45.770  24.651  37.056  1.00  0.00     0.127 S 
ATOM     92  O   UNL A   1      45.539  23.516  36.164  1.00  0.00    -0.237 OA
ATOM     93  O   UNL A   1      47.105  24.697  37.652  1.00  0.00    -0.237 OA
ATOM     94  O   UNL A   1      44.685  24.948  37.983  1.00  0.00    -0.744 OA
ENDBRANCH  88  91
ENDBRANCH  61  84
ENDBRANCH  35  36
ENDBRANCH  28  30
ENDBRANCH  27  28
ENDBRANCH  26  27
ENDBRANCH   1  26
TORSDOF 19
ENDMDL
MODEL 3
REMARK VINA RESULT:     -10.0      5.052      9.052
REMARK SMILES CC(=O)Nc1cccc(-c2ccc(F)c(C(=O)OCCOCCOC(=O)c3ccc(-c4c5nc(c(-c6cccc(S(=O)(=O)[O-])c6F)c6ccc([nH]6)c(-c6cccc(S(=O)(=O)[O-])c6F)c6nc(c(-c7cccc(S(=O)(=O)[O-])c7F)c7ccc4[nH]7)C=C6)C=C5)cc3)c2)c1
REMARK SMILES IDX 22 1 21 2 20 3 19 4 18 5 16 6 17 7 15 8 10 9 11 10 90 11
REMARK SMILES IDX 12 12 13 13 14 14 9 15 5 16 6 17 91 18 7 19 8 20 4 21 1 22
REMARK SMILES IDX 2 23 3 24 23 26 24 27 25 28 26 29 27 30 28 31 89 32 29 33
REMARK SMILES IDX 88 34 30 35 31 36 32 37 82 38 33 39 87 40 81 41 83 42 34 43
REMARK SMILES IDX 86 44 80 45 79 46 35 48 67 49 47 50 66 51 48 52 51 53 65 54
REMARK SMILES IDX 84 55 49 56 50 57 64 59 85 60 52 61 36 62 37 63 45 64 38 65
REMARK SMILES IDX 40 66 46 67 39 68 41 69 42 70 43 71 44 72 68 73 69 74 77 75
REMARK SMILES IDX 70 76 72 77 78 78 71 79 73 80 74 81 75 82 76 83 53 84 54 85
REMARK SMILES IDX 62 86 55 87 57 88 63 89 56 90 58 91 59 92 60 93 61 94
REMARK H PARENT 4 25 83 47 51 58
REMARK Flexibility Score: inf
ROOT
ATOM      1  C   UNL A   1      34.018  34.683  32.542  1.00  0.00     0.202 C 
ENDROOT
BRANCH   1   2
ATOM      2  O   UNL A   1      33.650  34.229  31.238  1.00  0.00    -0.374 OA
BRANCH   2   3
ATOM      3  C   UNL A   1      34.513  34.586  30.157  1.00  0.00     0.202 C 
BRANCH   3   4
ATOM      4  C   UNL A   1      33.948  34.385  28.747  1.00  0.00     0.261 C 
BRANCH   4   5
ATOM      5  O   UNL A   1      33.887  32.987  28.423  1.00  0.00    -0.460 OA
BRANCH   5   6
ATOM      6  C   UNL A   1      32.851  32.607  27.636  1.00  0.00     0.341 C 
ATOM      7  O   UNL A   1      31.939  33.312  27.236  1.00  0.00    -0.246 OA
BRANCH   6   8
ATOM      8  C   UNL A   1      33.062  31.209  27.211  1.00  0.00     0.096 A 
ATOM      9  C   UNL A   1      32.346  29.193  26.021  1.00  0.00    -0.017 A 
ATOM     10  C   UNL A   1      33.526  28.561  26.449  1.00  0.00     0.012 A 
ATOM     11  C   UNL A   1      32.118  30.522  26.435  1.00  0.00     0.027 A 
ATOM     12  C   UNL A   1      34.453  29.233  27.250  1.00  0.00     0.041 A 
ATOM     13  C   UNL A   1      34.219  30.553  27.619  1.00  0.00     0.137 A 
ATOM     14  F   UNL A   1      35.117  31.155  28.411  1.00  0.00    -0.206 F 
BRANCH   9  15
ATOM     15  C   UNL A   1      31.403  28.515  25.110  1.00  0.00    -0.016 A 
ATOM     16  C   UNL A   1      29.938  28.637  23.147  1.00  0.00     0.041 A 
ATOM     17  C   UNL A   1      29.569  27.307  23.350  1.00  0.00     0.026 A 
ATOM     18  C   UNL A   1      30.825  29.231  24.046  1.00  0.00     0.034 A 
ATOM     19  C   UNL A   1      30.143  26.564  24.383  1.00  0.00     0.003 A 
ATOM     20  C   UNL A   1      31.062  27.162  25.251  1.00  0.00     0.009 A 
BRANCH  16  21
ATOM     21  N   UNL A   1      29.371  29.316  22.059  1.00  0.00    -0.326 N 
ATOM     22  C   UNL A   1      27.654  30.707  23.226  1.00  0.00     0.114 C 
ATOM     23  C   UNL A   1      28.317  30.183  21.982  1.00  0.00     0.221 C 
ATOM     24  O   UNL A   1      27.979  30.611  20.877  1.00  0.00    -0.275 OA
ATOM     25  H   UNL A   1      29.812  29.137  21.197  1.00  0.00     0.169 HD
ENDBRANCH  16  21
ENDBRANCH   9  15
ENDBRANCH   6   8
ENDBRANCH   5   6
ENDBRANCH   4   5
ENDBRANCH   3   4
ENDBRANCH   2   3
ENDBRANCH   1   2
BRANCH   1  26
ATOM     26  C   UNL A   1      34.539  33.624  33.521  1.00  0.00     0.261 C 
BRANCH  26  27
ATOM     27  O   UNL A   1      35.334  32.618  32.869  1.00  0.00    -0.460 OA
BRANCH  27  28
ATOM     28  C   UNL A   1      36.439  32.239  33.558  1.00  0.00     0.338 C 
ATOM     29  O   UNL A   1      36.631  32.348  34.758  1.00  0.00    -0.246 OA
BRANCH  28  30
ATOM     30  C   UNL A   1      37.355  31.496  32.672  1.00  0.00     0.060 A 
ATOM     31  C   UNL A   1      38.319  30.681  33.280  1.00  0.00     0.016 A 
ATOM     32  C   UNL A   1      37.325  31.647  31.285  1.00  0.00     0.016 A 
ATOM     33  C   UNL A   1      39.290  30.051  32.504  1.00  0.00     0.010 A 
ATOM     34  C   UNL A   1      38.306  31.018  30.509  1.00  0.00     0.010 A 
ATOM     35  C   UNL A   1      39.314  30.247  31.118  1.00  0.00    -0.014 A 
BRANCH  35  36
ATOM     36  C   UNL A   1      40.464  29.751  30.324  1.00  0.00     0.031 A 
ATOM     37  C   UNL A   1      41.628  30.668  30.066  1.00  0.00     0.074 A 
ATOM     38  C   UNL A   1      40.467  28.500  29.830  1.00  0.00     0.049 A 
ATOM     39  N   UNL A   1      42.712  30.451  29.368  1.00  0.00    -0.248 NA
ATOM     40  C   UNL A   1      41.560  32.010  30.668  1.00  0.00     0.031 C 
ATOM     41  C   UNL A   1      39.395  27.521  30.004  1.00  0.00     0.029 A 
ATOM     42  N   UNL A   1      41.393  27.851  29.051  1.00  0.00    -0.354 N 
ATOM     43  C   UNL A   1      43.436  31.636  29.413  1.00  0.00     0.074 A 
ATOM     44  C   UNL A   1      42.668  32.572  30.206  1.00  0.00     0.031 C 
ATOM     45  C   UNL A   1      39.707  26.407  29.319  1.00  0.00     0.029 A 
ATOM     46  C   UNL A   1      40.986  26.605  28.640  1.00  0.00     0.049 A 
ATOM     47  H   UNL A   1      42.265  28.242  28.811  1.00  0.00     0.167 HD
ATOM     48  C   UNL A   1      44.636  31.917  28.854  1.00  0.00     0.034 A 
ATOM     49  C   UNL A   1      41.566  25.734  27.789  1.00  0.00     0.034 A 
ATOM     50  C   UNL A   1      45.414  30.977  28.094  1.00  0.00     0.049 A 
ATOM     51  C   UNL A   1      42.901  26.074  27.179  1.00  0.00     0.074 A 
ATOM     52  C   UNL A   1      46.678  31.146  27.556  1.00  0.00     0.029 A 
ATOM     53  N   UNL A   1      44.999  29.701  27.749  1.00  0.00    -0.354 N 
ATOM     54  N   UNL A   1      43.638  27.144  27.350  1.00  0.00    -0.248 NA
ATOM     55  C   UNL A   1      43.500  25.071  26.285  1.00  0.00     0.031 C 
ATOM     56  C   UNL A   1      47.013  29.982  26.856  1.00  0.00     0.029 A 
ATOM     57  C   UNL A   1      45.972  29.077  26.988  1.00  0.00     0.049 A 
ATOM     58  H   UNL A   1      44.139  29.297  28.008  1.00  0.00     0.167 HD
ATOM     59  C   UNL A   1      44.800  26.928  26.616  1.00  0.00     0.074 A 
ATOM     60  C   UNL A   1      44.679  25.617  26.016  1.00  0.00     0.031 C 
ATOM     61  C   UNL A   1      45.866  27.749  26.443  1.00  0.00     0.034 A 
BRANCH  48  62
ATOM     62  C   UNL A   1      45.203  33.297  29.055  1.00  0.00     0.023 A 
ATOM     63  C   UNL A   1      45.951  33.586  30.214  1.00  0.00     0.012 A 
ATOM     64  C   UNL A   1      45.065  34.281  28.056  1.00  0.00     0.148 A 
ATOM     65  C   UNL A   1      46.532  34.842  30.388  1.00  0.00     0.002 A 
ATOM     66  C   UNL A   1      45.684  35.515  28.216  1.00  0.00     0.091 A 
ATOM     67  F   UNL A   1      44.332  33.991  26.972  1.00  0.00    -0.205 F 
ATOM     68  C   UNL A   1      46.410  35.800  29.385  1.00  0.00     0.022 A 
BRANCH  66  69
ATOM     69  S   UNL A   1      45.651  36.787  26.948  1.00  0.00     0.127 S 
ATOM     70  O   UNL A   1      44.223  37.091  26.874  1.00  0.00    -0.237 OA
ATOM     71  O   UNL A   1      46.468  37.841  27.550  1.00  0.00    -0.237 OA
ATOM     72  O   UNL A   1      46.223  36.180  25.755  1.00  0.00    -0.744 OA
ENDBRANCH  66  69
ENDBRANCH  48  62
BRANCH  49  73
ATOM     73  C   UNL A   1      40.891  24.446  27.467  1.00  0.00     0.023 A 
ATOM     74  C   UNL A   1      41.440  23.233  27.925  1.00  0.00     0.012 A 
ATOM     75  C   UNL A   1      39.705  24.421  26.712  1.00  0.00     0.148 A 
ATOM     76  C   UNL A   1      40.837  22.015  27.606  1.00  0.00     0.002 A 
ATOM     77  C   UNL A   1      39.078  23.211  26.446  1.00  0.00     0.091 A 
ATOM     78  F   UNL A   1      39.211  25.587  26.267  1.00  0.00    -0.205 F 
ATOM     79  C   UNL A   1      39.651  22.004  26.876  1.00  0.00     0.022 A 
BRANCH  77  80
ATOM     80  S   UNL A   1      37.482  23.118  25.629  1.00  0.00     0.127 S 
ATOM     81  O   UNL A   1      37.202  21.685  25.687  1.00  0.00    -0.237 OA
ATOM     82  O   UNL A   1      36.650  23.947  26.502  1.00  0.00    -0.237 OA
ATOM     83  O   UNL A   1      37.697  23.672  24.299  1.00  0.00    -0.744 OA
ENDBRANCH  77  80
ENDBRANCH  49  73
BRANCH  61  84
ATOM     84  C   UNL A   1      47.014  27.245  25.607  1.00  0.00     0.023 A 
ATOM     85  C   UNL A   1      47.858  26.234  26.109  1.00  0.00     0.012 A 
ATOM     86  C   UNL A   1      47.204  27.713  24.292  1.00  0.00     0.148 A 
ATOM     87  C   UNL A   1      48.893  25.723  25.327  1.00  0.00     0.002 A 
ATOM     88  C   UNL A   1      48.205  27.164  23.500  1.00  0.00     0.091 A 
ATOM     89  F   UNL A   1      46.401  28.687  23.838  1.00  0.00    -0.205 F 
ATOM     90  C   UNL A   1      49.059  26.177  24.021  1.00  0.00     0.022 A 
BRANCH  88  91
ATOM     91  S   UNL A   1      48.428  27.616  21.776  1.00  0.00     0.127 S 
ATOM     92  O   UNL A   1      49.532  28.571  21.859  1.00  0.00    -0.237 OA
ATOM     93  O   UNL A   1      48.774  26.335  21.160  1.00  0.00    -0.237 OA
ATOM     94  O   UNL A   1      47.153  28.171  21.338  1.00  0.00    -0.744 OA
ENDBRANCH  88  91
ENDBRANCH  61  84
ENDBRANCH  35  36
ENDBRANCH  28  30
ENDBRANCH  27  28
ENDBRANCH  26  27
ENDBRANCH   1  26
TORSDOF 19
ENDMDL
