MODEL 1
REMARK VINA RESULT:     -10.9      0.000      0.000
REMARK SMILES CC[NH2+][C@@]1(C(=O)OCCOCCOC(=O)c2ccc(-c3c4nc(c(-c5cccc(S(=O)(=O)[O-])c5F)c5ccc([nH]5)c(-c5cccc(S(=O)(=O)[O-])c5F)c5nc(c(-c6cccc(S(=O)(=O)[O-])c6F)c6ccc3[nH]6)C=C5)C=C4)cc2)CC[C@H]([NH+]2CCC(C[NH+](C)C)CC2)C1
REMARK SMILES IDX 10 1 9 2 8 3 7 4 5 5 6 6 4 7 79 8 92 9 80 10 81 11 3 12 2 15
REMARK SMILES IDX 1 16 82 17 83 18 91 19 84 21 90 22 85 23 86 24 87 25 88 26
REMARK SMILES IDX 89 27 11 29 12 30 13 31 14 32 15 33 16 34 17 35 78 36 18 37
REMARK SMILES IDX 77 38 19 39 20 40 21 41 71 42 22 43 76 44 70 45 72 46 23 47
REMARK SMILES IDX 75 48 69 49 68 50 24 52 56 53 36 54 55 55 37 56 40 57 54 58
REMARK SMILES IDX 73 59 38 60 39 61 53 63 74 64 41 65 25 66 26 67 34 68 27 69
REMARK SMILES IDX 29 70 35 71 28 72 30 73 31 74 32 75 33 76 57 77 58 78 66 79
REMARK SMILES IDX 59 80 61 81 67 82 60 83 62 84 63 85 64 86 65 87 42 88 43 89
REMARK SMILES IDX 51 90 44 91 46 92 52 93 45 94 47 95 48 96 49 97 50 98
REMARK H PARENT 3 13 3 14 82 20 87 28 72 51 40 62
REMARK Flexibility Score: inf
ROOT
ATOM      1  O   UNL A   1      35.270  22.812  24.739  1.00  0.00    -0.374 OA
ENDROOT
BRANCH   1   2
ATOM      2  C   UNL A   1      34.825  23.423  23.524  1.00  0.00     0.202 C 
BRANCH   2   3
ATOM      3  C   UNL A   1      33.578  24.301  23.649  1.00  0.00     0.261 C 
BRANCH   3   4
ATOM      4  O   UNL A   1      33.949  25.486  24.362  1.00  0.00    -0.459 OA
BRANCH   4   5
ATOM      5  C   UNL A   1      33.443  25.658  25.603  1.00  0.00     0.368 C 
ATOM      6  O   UNL A   1      33.316  24.752  26.420  1.00  0.00    -0.245 OA
BRANCH   5   7
ATOM      7  C   UNL A   1      33.168  27.168  25.898  1.00  0.00     0.200 C 
ATOM      8  C   UNL A   1      32.048  27.307  26.938  1.00  0.00     0.087 C 
ATOM      9  C   UNL A   1      32.587  27.972  24.709  1.00  0.00     0.146 C 
ATOM     10  C   UNL A   1      30.760  27.192  26.124  1.00  0.00     0.072 C 
ATOM     11  C   UNL A   1      31.051  27.823  24.753  1.00  0.00     0.191 C 
BRANCH   7  12
ATOM     12  N   UNL A   1      34.440  27.833  26.309  1.00  0.00    -0.332 N 
ATOM     13  H   UNL A   1      35.012  27.145  26.800  1.00  0.00     0.347 HD
ATOM     14  H   UNL A   1      34.873  28.179  25.453  1.00  0.00     0.347 HD
BRANCH  12  15
ATOM     15  C   UNL A   1      34.272  28.994  27.183  1.00  0.00     0.257 C 
ATOM     16  C   UNL A   1      35.615  29.357  27.802  1.00  0.00     0.071 C 
ENDBRANCH  12  15
ENDBRANCH   7  12
BRANCH  11  17
ATOM     17  N   UNL A   1      30.416  27.304  23.536  1.00  0.00    -0.332 N 
ATOM     18  C   UNL A   1      30.828  27.922  22.276  1.00  0.00     0.262 C 
ATOM     19  C   UNL A   1      28.972  27.119  23.494  1.00  0.00     0.262 C 
ATOM     20  H   UNL A   1      30.815  26.369  23.622  1.00  0.00     0.348 HD
ATOM     21  C   UNL A   1      30.157  29.265  21.975  1.00  0.00     0.071 C 
ATOM     22  C   UNL A   1      28.191  28.413  23.412  1.00  0.00     0.071 C 
ATOM     23  C   UNL A   1      28.649  29.372  22.295  1.00  0.00     0.055 C 
BRANCH  23  24
ATOM     24  C   UNL A   1      28.203  30.793  22.754  1.00  0.00     0.265 C 
BRANCH  24  25
ATOM     25  N   UNL A   1      28.812  31.981  22.161  1.00  0.00    -0.340 N 
ATOM     26  C   UNL A   1      28.079  32.348  20.943  1.00  0.00     0.332 C 
ATOM     27  C   UNL A   1      28.867  33.145  23.044  1.00  0.00     0.332 C 
ATOM     28  H   UNL A   1      29.779  31.725  21.962  1.00  0.00     0.347 HD
ENDBRANCH  24  25
ENDBRANCH  23  24
ENDBRANCH  11  17
ENDBRANCH   5   7
ENDBRANCH   4   5
ENDBRANCH   3   4
ENDBRANCH   2   3
ENDBRANCH   1   2
BRANCH   1  29
ATOM     29  C   UNL A   1      35.127  21.395  24.850  1.00  0.00     0.202 C 
BRANCH  29  30
ATOM     30  C   UNL A   1      36.418  20.576  25.013  1.00  0.00     0.261 C 
BRANCH  30  31
ATOM     31  O   UNL A   1      37.629  21.338  24.856  1.00  0.00    -0.460 OA
BRANCH  31  32
ATOM     32  C   UNL A   1      38.653  20.965  25.659  1.00  0.00     0.338 C 
ATOM     33  O   UNL A   1      39.143  19.846  25.752  1.00  0.00    -0.246 OA
BRANCH  32  34
ATOM     34  C   UNL A   1      39.244  22.142  26.326  1.00  0.00     0.060 A 
ATOM     35  C   UNL A   1      38.677  23.396  26.065  1.00  0.00     0.016 A 
ATOM     36  C   UNL A   1      40.382  22.040  27.131  1.00  0.00     0.016 A 
ATOM     37  C   UNL A   1      39.273  24.555  26.563  1.00  0.00     0.010 A 
ATOM     38  C   UNL A   1      40.971  23.206  27.640  1.00  0.00     0.010 A 
ATOM     39  C   UNL A   1      40.450  24.474  27.320  1.00  0.00    -0.014 A 
BRANCH  39  40
ATOM     40  C   UNL A   1      41.219  25.712  27.625  1.00  0.00     0.031 A 
ATOM     41  C   UNL A   1      40.557  26.804  28.426  1.00  0.00     0.074 A 
ATOM     42  C   UNL A   1      42.495  25.865  27.222  1.00  0.00     0.049 A 
ATOM     43  N   UNL A   1      41.028  27.968  28.794  1.00  0.00    -0.248 NA
ATOM     44  C   UNL A   1      39.175  26.553  28.869  1.00  0.00     0.031 C 
ATOM     45  C   UNL A   1      43.263  24.889  26.451  1.00  0.00     0.029 A 
ATOM     46  N   UNL A   1      43.364  26.916  27.391  1.00  0.00    -0.354 N 
ATOM     47  C   UNL A   1      39.995  28.599  29.479  1.00  0.00     0.074 A 
ATOM     48  C   UNL A   1      38.864  27.697  29.458  1.00  0.00     0.031 C 
ATOM     49  C   UNL A   1      44.483  25.394  26.196  1.00  0.00     0.029 A 
ATOM     50  C   UNL A   1      44.575  26.740  26.763  1.00  0.00     0.049 A 
ATOM     51  H   UNL A   1      43.142  27.720  27.915  1.00  0.00     0.167 HD
ATOM     52  C   UNL A   1      39.987  29.808  30.088  1.00  0.00     0.034 A 
ATOM     53  C   UNL A   1      45.630  27.573  26.641  1.00  0.00     0.034 A 
ATOM     54  C   UNL A   1      41.116  30.699  30.134  1.00  0.00     0.049 A 
ATOM     55  C   UNL A   1      45.587  28.927  27.305  1.00  0.00     0.074 A 
ATOM     56  C   UNL A   1      41.216  31.924  30.770  1.00  0.00     0.029 A 
ATOM     57  N   UNL A   1      42.332  30.470  29.514  1.00  0.00    -0.354 N 
ATOM     58  N   UNL A   1      44.643  29.460  28.043  1.00  0.00    -0.248 NA
ATOM     59  C   UNL A   1      46.773  29.784  27.149  1.00  0.00     0.031 C 
ATOM     60  C   UNL A   1      42.482  32.454  30.500  1.00  0.00     0.029 A 
ATOM     61  C   UNL A   1      43.185  31.538  29.736  1.00  0.00     0.049 A 
ATOM     62  H   UNL A   1      42.558  29.667  28.991  1.00  0.00     0.167 HD
ATOM     63  C   UNL A   1      45.135  30.691  28.469  1.00  0.00     0.074 A 
ATOM     64  C   UNL A   1      46.470  30.817  27.923  1.00  0.00     0.031 C 
ATOM     65  C   UNL A   1      44.532  31.635  29.235  1.00  0.00     0.034 A 
BRANCH  52  66
ATOM     66  C   UNL A   1      38.717  30.238  30.776  1.00  0.00     0.023 A 
ATOM     67  C   UNL A   1      38.423  29.761  32.071  1.00  0.00     0.012 A 
ATOM     68  C   UNL A   1      37.842  31.157  30.164  1.00  0.00     0.148 A 
ATOM     69  C   UNL A   1      37.262  30.163  32.729  1.00  0.00     0.002 A 
ATOM     70  C   UNL A   1      36.712  31.591  30.847  1.00  0.00     0.091 A 
ATOM     71  F   UNL A   1      38.129  31.585  28.926  1.00  0.00    -0.205 F 
ATOM     72  C   UNL A   1      36.414  31.086  32.122  1.00  0.00     0.022 A 
BRANCH  70  73
ATOM     73  S   UNL A   1      35.601  32.839  30.187  1.00  0.00     0.127 S 
ATOM     74  O   UNL A   1      36.380  34.062  30.386  1.00  0.00    -0.237 OA
ATOM     75  O   UNL A   1      35.467  32.424  28.791  1.00  0.00    -0.237 OA
ATOM     76  O   UNL A   1      34.379  32.746  30.971  1.00  0.00    -0.744 OA
ENDBRANCH  70  73
ENDBRANCH  52  66
BRANCH  53  77
ATOM     77  C   UNL A   1      46.841  27.142  25.884  1.00  0.00     0.023 A 
ATOM     78  C   UNL A   1      47.793  26.312  26.510  1.00  0.00     0.012 A 
ATOM     79  C   UNL A   1      47.059  27.553  24.553  1.00  0.00     0.148 A 
ATOM     80  C   UNL A   1      48.955  25.929  25.838  1.00  0.00     0.002 A 
ATOM     81  C   UNL A   1      48.193  27.124  23.872  1.00  0.00     0.091 A 
ATOM     82  F   UNL A   1      46.154  28.359  23.982  1.00  0.00    -0.205 F 
ATOM     83  C   UNL A   1      49.151  26.327  24.519  1.00  0.00     0.022 A 
BRANCH  81  84
ATOM     84  S   UNL A   1      48.487  27.505  22.141  1.00  0.00     0.127 S 
ATOM     85  O   UNL A   1      47.271  28.235  21.787  1.00  0.00    -0.237 OA
ATOM     86  O   UNL A   1      49.695  28.328  22.211  1.00  0.00    -0.237 OA
ATOM     87  O   UNL A   1      48.665  26.223  21.471  1.00  0.00    -0.744 OA
ENDBRANCH  81  84
ENDBRANCH  53  77
BRANCH  65  88
ATOM     88  C   UNL A   1      45.318  32.877  29.581  1.00  0.00     0.023 A 
ATOM     89  C   UNL A   1      46.091  32.920  30.758  1.00  0.00     0.012 A 
ATOM     90  C   UNL A   1      45.351  33.973  28.695  1.00  0.00     0.148 A 
ATOM     91  C   UNL A   1      46.855  34.046  31.065  1.00  0.00     0.002 A 
ATOM     92  C   UNL A   1      46.155  35.070  28.981  1.00  0.00     0.091 A 
ATOM     93  F   UNL A   1      44.599  33.922  27.586  1.00  0.00    -0.205 F 
ATOM     94  C   UNL A   1      46.897  35.114  30.172  1.00  0.00     0.022 A 
BRANCH  92  95
ATOM     95  S   UNL A   1      46.350  36.449  27.845  1.00  0.00     0.127 S 
ATOM     96  O   UNL A   1      46.846  35.777  26.644  1.00  0.00    -0.237 OA
ATOM     97  O   UNL A   1      44.983  36.958  27.738  1.00  0.00    -0.237 OA
ATOM     98  O   UNL A   1      47.290  37.364  28.478  1.00  0.00    -0.744 OA
ENDBRANCH  92  95
ENDBRANCH  65  88
ENDBRANCH  39  40
ENDBRANCH  32  34
ENDBRANCH  31  32
ENDBRANCH  30  31
ENDBRANCH  29  30
ENDBRANCH   1  29
TORSDOF 22
ENDMDL
MODEL 2
REMARK VINA RESULT:     -10.4      5.151      8.142
REMARK SMILES CC[NH2+][C@@]1(C(=O)OCCOCCOC(=O)c2ccc(-c3c4nc(c(-c5cccc(S(=O)(=O)[O-])c5F)c5ccc([nH]5)c(-c5cccc(S(=O)(=O)[O-])c5F)c5nc(c(-c6cccc(S(=O)(=O)[O-])c6F)c6ccc3[nH]6)C=C5)C=C4)cc2)CC[C@H]([NH+]2CCC(C[NH+](C)C)CC2)C1
REMARK SMILES IDX 10 1 9 2 8 3 7 4 5 5 6 6 4 7 79 8 92 9 80 10 81 11 3 12 2 15
REMARK SMILES IDX 1 16 82 17 83 18 91 19 84 21 90 22 85 23 86 24 87 25 88 26
REMARK SMILES IDX 89 27 11 29 12 30 13 31 14 32 15 33 16 34 17 35 78 36 18 37
REMARK SMILES IDX 77 38 19 39 20 40 21 41 71 42 22 43 76 44 70 45 72 46 23 47
REMARK SMILES IDX 75 48 69 49 68 50 24 52 56 53 36 54 55 55 37 56 40 57 54 58
REMARK SMILES IDX 73 59 38 60 39 61 53 63 74 64 41 65 25 66 26 67 34 68 27 69
REMARK SMILES IDX 29 70 35 71 28 72 30 73 31 74 32 75 33 76 57 77 58 78 66 79
REMARK SMILES IDX 59 80 61 81 67 82 60 83 62 84 63 85 64 86 65 87 42 88 43 89
REMARK SMILES IDX 51 90 44 91 46 92 52 93 45 94 47 95 48 96 49 97 50 98
REMARK H PARENT 3 13 3 14 82 20 87 28 72 51 40 62
REMARK Flexibility Score: inf
ROOT
ATOM      1  O   UNL A   1      30.646  31.214  24.654  1.00  0.00    -0.374 OA
ENDROOT
BRANCH   1   2
ATOM      2  C   UNL A   1      29.424  31.133  23.912  1.00  0.00     0.202 C 
BRANCH   2   3
ATOM      3  C   UNL A   1      29.247  29.865  23.075  1.00  0.00     0.261 C 
BRANCH   3   4
ATOM      4  O   UNL A   1      29.950  28.806  23.735  1.00  0.00    -0.459 OA
BRANCH   4   5
ATOM      5  C   UNL A   1      30.716  27.990  22.978  1.00  0.00     0.368 C 
ATOM      6  O   UNL A   1      30.404  27.614  21.852  1.00  0.00    -0.245 OA
BRANCH   5   7
ATOM      7  C   UNL A   1      32.089  27.702  23.666  1.00  0.00     0.200 C 
ATOM      8  C   UNL A   1      33.231  27.871  22.655  1.00  0.00     0.087 C 
ATOM      9  C   UNL A   1      32.297  26.237  24.124  1.00  0.00     0.146 C 
ATOM     10  C   UNL A   1      33.279  26.536  21.912  1.00  0.00     0.072 C 
ATOM     11  C   UNL A   1      32.883  25.455  22.930  1.00  0.00     0.191 C 
BRANCH   7  12
ATOM     12  N   UNL A   1      32.234  28.573  24.870  1.00  0.00    -0.332 N 
ATOM     13  H   UNL A   1      33.070  29.145  24.748  1.00  0.00     0.347 HD
ATOM     14  H   UNL A   1      31.376  29.121  24.933  1.00  0.00     0.347 HD
BRANCH  12  15
ATOM     15  C   UNL A   1      32.356  27.853  26.138  1.00  0.00     0.257 C 
ATOM     16  C   UNL A   1      31.608  28.615  27.223  1.00  0.00     0.071 C 
ENDBRANCH  12  15
ENDBRANCH   7  12
BRANCH  11  17
ATOM     17  N   UNL A   1      32.138  24.262  22.509  1.00  0.00    -0.332 N 
ATOM     18  C   UNL A   1      31.154  23.743  23.459  1.00  0.00     0.262 C 
ATOM     19  C   UNL A   1      32.850  23.128  21.937  1.00  0.00     0.262 C 
ATOM     20  H   UNL A   1      31.671  24.723  21.727  1.00  0.00     0.348 HD
ATOM     21  C   UNL A   1      31.744  22.897  24.590  1.00  0.00     0.071 C 
ATOM     22  C   UNL A   1      33.651  22.335  22.946  1.00  0.00     0.071 C 
ATOM     23  C   UNL A   1      32.864  21.906  24.200  1.00  0.00     0.055 C 
BRANCH  23  24
ATOM     24  C   UNL A   1      33.933  21.695  25.314  1.00  0.00     0.265 C 
BRANCH  24  25
ATOM     25  N   UNL A   1      34.072  22.671  26.392  1.00  0.00    -0.340 N 
ATOM     26  C   UNL A   1      33.868  22.004  27.684  1.00  0.00     0.332 C 
ATOM     27  C   UNL A   1      35.357  23.367  26.423  1.00  0.00     0.332 C 
ATOM     28  H   UNL A   1      33.364  23.382  26.213  1.00  0.00     0.347 HD
ENDBRANCH  24  25
ENDBRANCH  23  24
ENDBRANCH  11  17
ENDBRANCH   5   7
ENDBRANCH   4   5
ENDBRANCH   3   4
ENDBRANCH   2   3
ENDBRANCH   1   2
BRANCH   1  29
ATOM     29  C   UNL A   1      30.556  31.619  26.021  1.00  0.00     0.202 C 
BRANCH  29  30
ATOM     30  C   UNL A   1      31.556  32.683  26.499  1.00  0.00     0.261 C 
BRANCH  30  31
ATOM     31  O   UNL A   1      32.685  32.157  27.220  1.00  0.00    -0.460 OA
BRANCH  31  32
ATOM     32  C   UNL A   1      33.555  33.084  27.685  1.00  0.00     0.338 C 
ATOM     33  O   UNL A   1      33.316  34.262  27.921  1.00  0.00    -0.246 OA
BRANCH  32  34
ATOM     34  C   UNL A   1      34.841  32.453  28.043  1.00  0.00     0.060 A 
ATOM     35  C   UNL A   1      34.842  31.080  28.321  1.00  0.00     0.016 A 
ATOM     36  C   UNL A   1      36.015  33.199  28.184  1.00  0.00     0.016 A 
ATOM     37  C   UNL A   1      36.000  30.459  28.790  1.00  0.00     0.010 A 
ATOM     38  C   UNL A   1      37.180  32.568  28.643  1.00  0.00     0.010 A 
ATOM     39  C   UNL A   1      37.168  31.206  28.995  1.00  0.00    -0.014 A 
BRANCH  39  40
ATOM     40  C   UNL A   1      38.311  30.602  29.735  1.00  0.00     0.031 A 
ATOM     41  C   UNL A   1      38.529  30.981  31.178  1.00  0.00     0.074 A 
ATOM     42  C   UNL A   1      39.136  29.712  29.151  1.00  0.00     0.049 A 
ATOM     43  N   UNL A   1      39.463  30.594  32.008  1.00  0.00    -0.248 NA
ATOM     44  C   UNL A   1      37.565  31.928  31.764  1.00  0.00     0.031 C 
ATOM     45  C   UNL A   1      39.039  29.246  27.769  1.00  0.00     0.029 A 
ATOM     46  N   UNL A   1      40.235  29.054  29.649  1.00  0.00    -0.354 N 
ATOM     47  C   UNL A   1      39.222  31.272  33.198  1.00  0.00     0.074 A 
ATOM     48  C   UNL A   1      38.065  32.111  32.976  1.00  0.00     0.031 C 
ATOM     49  C   UNL A   1      40.049  28.394  27.522  1.00  0.00     0.029 A 
ATOM     50  C   UNL A   1      40.881  28.271  28.719  1.00  0.00     0.049 A 
ATOM     51  H   UNL A   1      40.534  29.135  30.584  1.00  0.00     0.167 HD
ATOM     52  C   UNL A   1      39.886  31.194  34.375  1.00  0.00     0.034 A 
ATOM     53  C   UNL A   1      42.019  27.554  28.816  1.00  0.00     0.034 A 
ATOM     54  C   UNL A   1      41.022  30.343  34.610  1.00  0.00     0.049 A 
ATOM     55  C   UNL A   1      42.758  27.505  30.131  1.00  0.00     0.074 A 
ATOM     56  C   UNL A   1      41.730  30.162  35.785  1.00  0.00     0.029 A 
ATOM     57  N   UNL A   1      41.624  29.543  33.653  1.00  0.00    -0.354 N 
ATOM     58  N   UNL A   1      42.450  28.065  31.276  1.00  0.00    -0.248 NA
ATOM     59  C   UNL A   1      43.985  26.693  30.176  1.00  0.00     0.031 C 
ATOM     60  C   UNL A   1      42.785  29.281  35.528  1.00  0.00     0.029 A 
ATOM     61  C   UNL A   1      42.705  28.877  34.205  1.00  0.00     0.049 A 
ATOM     62  H   UNL A   1      41.327  29.460  32.719  1.00  0.00     0.167 HD
ATOM     63  C   UNL A   1      43.419  27.643  32.183  1.00  0.00     0.074 A 
ATOM     64  C   UNL A   1      44.313  26.764  31.459  1.00  0.00     0.031 C 
ATOM     65  C   UNL A   1      43.560  27.963  33.494  1.00  0.00     0.034 A 
BRANCH  52  66
ATOM     66  C   UNL A   1      39.389  32.043  35.517  1.00  0.00     0.023 A 
ATOM     67  C   UNL A   1      38.509  31.491  36.471  1.00  0.00     0.012 A 
ATOM     68  C   UNL A   1      39.837  33.369  35.677  1.00  0.00     0.148 A 
ATOM     69  C   UNL A   1      38.055  32.256  37.544  1.00  0.00     0.002 A 
ATOM     70  C   UNL A   1      39.419  34.109  36.776  1.00  0.00     0.091 A 
ATOM     71  F   UNL A   1      40.659  33.882  34.750  1.00  0.00    -0.205 F 
ATOM     72  C   UNL A   1      38.518  33.560  37.702  1.00  0.00     0.022 A 
BRANCH  70  73
ATOM     73  S   UNL A   1      40.023  35.767  37.115  1.00  0.00     0.127 S 
ATOM     74  O   UNL A   1      41.452  35.525  37.317  1.00  0.00    -0.237 OA
ATOM     75  O   UNL A   1      39.694  36.473  35.876  1.00  0.00    -0.237 OA
ATOM     76  O   UNL A   1      39.299  36.228  38.290  1.00  0.00    -0.744 OA
ENDBRANCH  70  73
ENDBRANCH  52  66
BRANCH  53  77
ATOM     77  C   UNL A   1      42.524  26.789  27.638  1.00  0.00     0.023 A 
ATOM     78  C   UNL A   1      43.247  27.459  26.631  1.00  0.00     0.012 A 
ATOM     79  C   UNL A   1      42.285  25.405  27.505  1.00  0.00     0.148 A 
ATOM     80  C   UNL A   1      43.692  26.776  25.498  1.00  0.00     0.002 A 
ATOM     81  C   UNL A   1      42.778  24.720  26.400  1.00  0.00     0.091 A 
ATOM     82  F   UNL A   1      41.578  24.789  28.462  1.00  0.00    -0.205 F 
ATOM     83  C   UNL A   1      43.466  25.407  25.388  1.00  0.00     0.022 A 
BRANCH  81  84
ATOM     84  S   UNL A   1      42.621  22.940  26.214  1.00  0.00     0.127 S 
ATOM     85  O   UNL A   1      42.781  22.777  24.771  1.00  0.00    -0.237 OA
ATOM     86  O   UNL A   1      43.745  22.449  27.013  1.00  0.00    -0.237 OA
ATOM     87  O   UNL A   1      41.307  22.595  26.741  1.00  0.00    -0.744 OA
ENDBRANCH  81  84
ENDBRANCH  53  77
BRANCH  65  88
ATOM     88  C   UNL A   1      44.694  27.326  34.262  1.00  0.00     0.023 A 
ATOM     89  C   UNL A   1      45.944  27.970  34.342  1.00  0.00     0.012 A 
ATOM     90  C   UNL A   1      44.491  26.125  34.972  1.00  0.00     0.148 A 
ATOM     91  C   UNL A   1      46.985  27.412  35.086  1.00  0.00     0.002 A 
ATOM     92  C   UNL A   1      45.515  25.602  35.754  1.00  0.00     0.091 A 
ATOM     93  F   UNL A   1      43.300  25.518  34.875  1.00  0.00    -0.205 F 
ATOM     94  C   UNL A   1      46.767  26.236  35.800  1.00  0.00     0.022 A 
BRANCH  92  95
ATOM     95  S   UNL A   1      45.297  24.148  36.786  1.00  0.00     0.127 S 
ATOM     96  O   UNL A   1      46.678  23.824  37.141  1.00  0.00    -0.237 OA
ATOM     97  O   UNL A   1      44.491  24.670  37.891  1.00  0.00    -0.237 OA
ATOM     98  O   UNL A   1      44.620  23.160  35.956  1.00  0.00    -0.744 OA
ENDBRANCH  92  95
ENDBRANCH  65  88
ENDBRANCH  39  40
ENDBRANCH  32  34
ENDBRANCH  31  32
ENDBRANCH  30  31
ENDBRANCH  29  30
ENDBRANCH   1  29
TORSDOF 22
ENDMDL
MODEL 3
REMARK VINA RESULT:     -10.3      4.902      7.826
REMARK SMILES CC[NH2+][C@@]1(C(=O)OCCOCCOC(=O)c2ccc(-c3c4nc(c(-c5cccc(S(=O)(=O)[O-])c5F)c5ccc([nH]5)c(-c5cccc(S(=O)(=O)[O-])c5F)c5nc(c(-c6cccc(S(=O)(=O)[O-])c6F)c6ccc3[nH]6)C=C5)C=C4)cc2)CC[C@H]([NH+]2CCC(C[NH+](C)C)CC2)C1
REMARK SMILES IDX 10 1 9 2 8 3 7 4 5 5 6 6 4 7 79 8 92 9 80 10 81 11 3 12 2 15
REMARK SMILES IDX 1 16 82 17 83 18 91 19 84 21 90 22 85 23 86 24 87 25 88 26
REMARK SMILES IDX 89 27 11 29 12 30 13 31 14 32 15 33 16 34 17 35 78 36 18 37
REMARK SMILES IDX 77 38 19 39 20 40 21 41 71 42 22 43 76 44 70 45 72 46 23 47
REMARK SMILES IDX 75 48 69 49 68 50 24 52 56 53 36 54 55 55 37 56 40 57 54 58
REMARK SMILES IDX 73 59 38 60 39 61 53 63 74 64 41 65 25 66 26 67 34 68 27 69
REMARK SMILES IDX 29 70 35 71 28 72 30 73 31 74 32 75 33 76 57 77 58 78 66 79
REMARK SMILES IDX 59 80 61 81 67 82 60 83 62 84 63 85 64 86 65 87 42 88 43 89
REMARK SMILES IDX 51 90 44 91 46 92 52 93 45 94 47 95 48 96 49 97 50 98
REMARK H PARENT 3 13 3 14 82 20 87 28 72 51 40 62
REMARK Flexibility Score: inf
ROOT
ATOM      1  O   UNL A   1      30.678  31.261  24.798  1.00  0.00    -0.374 OA
ENDROOT
BRANCH   1   2
ATOM      2  C   UNL A   1      29.451  31.251  24.061  1.00  0.00     0.202 C 
BRANCH   2   3
ATOM      3  C   UNL A   1      29.235  30.033  23.162  1.00  0.00     0.261 C 
BRANCH   3   4
ATOM      4  O   UNL A   1      29.821  28.901  23.814  1.00  0.00    -0.459 OA
BRANCH   4   5
ATOM      5  C   UNL A   1      30.661  28.125  23.095  1.00  0.00     0.368 C 
ATOM      6  O   UNL A   1      30.483  27.838  21.915  1.00  0.00    -0.245 OA
BRANCH   5   7
ATOM      7  C   UNL A   1      31.938  27.758  23.918  1.00  0.00     0.200 C 
ATOM      8  C   UNL A   1      33.197  28.003  23.075  1.00  0.00     0.087 C 
ATOM      9  C   UNL A   1      32.085  26.255  24.262  1.00  0.00     0.146 C 
ATOM     10  C   UNL A   1      33.335  26.741  22.225  1.00  0.00     0.072 C 
ATOM     11  C   UNL A   1      32.814  25.577  23.083  1.00  0.00     0.191 C 
BRANCH   7  12
ATOM     12  N   UNL A   1      31.933  28.514  25.205  1.00  0.00    -0.332 N 
ATOM     13  H   UNL A   1      31.386  29.365  25.070  1.00  0.00     0.347 HD
ATOM     14  H   UNL A   1      31.536  27.887  25.905  1.00  0.00     0.347 HD
BRANCH  12  15
ATOM     15  C   UNL A   1      33.256  28.896  25.698  1.00  0.00     0.257 C 
ATOM     16  C   UNL A   1      33.535  28.169  27.007  1.00  0.00     0.071 C 
ENDBRANCH  12  15
ENDBRANCH   7  12
BRANCH  11  17
ATOM     17  N   UNL A   1      32.126  24.437  22.466  1.00  0.00    -0.332 N 
ATOM     18  C   UNL A   1      30.980  23.898  23.198  1.00  0.00     0.262 C 
ATOM     19  C   UNL A   1      32.899  23.314  21.954  1.00  0.00     0.262 C 
ATOM     20  H   UNL A   1      31.813  24.958  21.646  1.00  0.00     0.348 HD
ATOM     21  C   UNL A   1      31.344  22.968  24.358  1.00  0.00     0.071 C 
ATOM     22  C   UNL A   1      33.493  22.437  23.034  1.00  0.00     0.071 C 
ATOM     23  C   UNL A   1      32.491  21.963  24.105  1.00  0.00     0.055 C 
BRANCH  23  24
ATOM     24  C   UNL A   1      33.344  21.651  25.371  1.00  0.00     0.265 C 
BRANCH  24  25
ATOM     25  N   UNL A   1      34.614  22.339  25.588  1.00  0.00    -0.340 N 
ATOM     26  C   UNL A   1      34.438  23.375  26.613  1.00  0.00     0.332 C 
ATOM     27  C   UNL A   1      35.720  21.469  25.985  1.00  0.00     0.332 C 
ATOM     28  H   UNL A   1      34.871  22.735  24.684  1.00  0.00     0.347 HD
ENDBRANCH  24  25
ENDBRANCH  23  24
ENDBRANCH  11  17
ENDBRANCH   5   7
ENDBRANCH   4   5
ENDBRANCH   3   4
ENDBRANCH   2   3
ENDBRANCH   1   2
BRANCH   1  29
ATOM     29  C   UNL A   1      30.633  31.755  26.138  1.00  0.00     0.202 C 
BRANCH  29  30
ATOM     30  C   UNL A   1      31.731  32.749  26.550  1.00  0.00     0.261 C 
BRANCH  30  31
ATOM     31  O   UNL A   1      32.794  32.170  27.328  1.00  0.00    -0.460 OA
BRANCH  31  32
ATOM     32  C   UNL A   1      33.661  33.058  27.870  1.00  0.00     0.338 C 
ATOM     33  O   UNL A   1      33.420  34.212  28.199  1.00  0.00    -0.246 OA
BRANCH  32  34
ATOM     34  C   UNL A   1      34.948  32.403  28.178  1.00  0.00     0.060 A 
ATOM     35  C   UNL A   1      34.938  31.023  28.420  1.00  0.00     0.016 A 
ATOM     36  C   UNL A   1      36.134  33.130  28.308  1.00  0.00     0.016 A 
ATOM     37  C   UNL A   1      36.100  30.375  28.843  1.00  0.00     0.010 A 
ATOM     38  C   UNL A   1      37.302  32.473  28.721  1.00  0.00     0.010 A 
ATOM     39  C   UNL A   1      37.282  31.102  29.038  1.00  0.00    -0.014 A 
BRANCH  39  40
ATOM     40  C   UNL A   1      38.436  30.465  29.731  1.00  0.00     0.031 A 
ATOM     41  C   UNL A   1      38.743  30.864  31.153  1.00  0.00     0.074 A 
ATOM     42  C   UNL A   1      39.191  29.528  29.128  1.00  0.00     0.049 A 
ATOM     43  N   UNL A   1      39.703  30.455  31.943  1.00  0.00    -0.248 NA
ATOM     44  C   UNL A   1      37.852  31.864  31.765  1.00  0.00     0.031 C 
ATOM     45  C   UNL A   1      39.002  29.038  27.763  1.00  0.00     0.029 A 
ATOM     46  N   UNL A   1      40.286  28.834  29.584  1.00  0.00    -0.354 N 
ATOM     47  C   UNL A   1      39.552  31.168  33.127  1.00  0.00     0.074 A 
ATOM     48  C   UNL A   1      38.421  32.051  32.946  1.00  0.00     0.031 C 
ATOM     49  C   UNL A   1      39.962  28.138  27.485  1.00  0.00     0.029 A 
ATOM     50  C   UNL A   1      40.849  28.005  28.641  1.00  0.00     0.049 A 
ATOM     51  H   UNL A   1      40.636  28.922  30.500  1.00  0.00     0.167 HD
ATOM     52  C   UNL A   1      40.272  31.086  34.271  1.00  0.00     0.034 A 
ATOM     53  C   UNL A   1      41.960  27.242  28.696  1.00  0.00     0.034 A 
ATOM     54  C   UNL A   1      41.382  30.192  34.467  1.00  0.00     0.049 A 
ATOM     55  C   UNL A   1      42.762  27.188  29.972  1.00  0.00     0.074 A 
ATOM     56  C   UNL A   1      42.142  30.004  35.609  1.00  0.00     0.029 A 
ATOM     57  N   UNL A   1      41.899  29.347  33.500  1.00  0.00    -0.354 N 
ATOM     58  N   UNL A   1      42.539  27.784  31.118  1.00  0.00    -0.248 NA
ATOM     59  C   UNL A   1      43.955  26.325  29.974  1.00  0.00     0.031 C 
ATOM     60  C   UNL A   1      43.143  29.073  35.319  1.00  0.00     0.029 A 
ATOM     61  C   UNL A   1      42.979  28.646  34.011  1.00  0.00     0.049 A 
ATOM     62  H   UNL A   1      41.551  29.256  32.584  1.00  0.00     0.167 HD
ATOM     63  C   UNL A   1      43.535  27.340  31.985  1.00  0.00     0.074 A 
ATOM     64  C   UNL A   1      44.352  26.409  31.237  1.00  0.00     0.031 C 
ATOM     65  C   UNL A   1      43.757  27.681  33.279  1.00  0.00     0.034 A 
BRANCH  52  66
ATOM     66  C   UNL A   1      39.871  31.979  35.417  1.00  0.00     0.023 A 
ATOM     67  C   UNL A   1      40.362  33.300  35.483  1.00  0.00     0.012 A 
ATOM     68  C   UNL A   1      38.964  31.530  36.397  1.00  0.00     0.148 A 
ATOM     69  C   UNL A   1      39.986  34.145  36.525  1.00  0.00     0.002 A 
ATOM     70  C   UNL A   1      38.555  32.395  37.404  1.00  0.00     0.091 A 
ATOM     71  F   UNL A   1      38.523  30.266  36.327  1.00  0.00    -0.205 F 
ATOM     72  C   UNL A   1      39.075  33.697  37.478  1.00  0.00     0.022 A 
BRANCH  70  73
ATOM     73  S   UNL A   1      37.323  31.941  38.631  1.00  0.00     0.127 S 
ATOM     74  O   UNL A   1      36.236  32.867  38.313  1.00  0.00    -0.237 OA
ATOM     75  O   UNL A   1      37.053  30.544  38.291  1.00  0.00    -0.237 OA
ATOM     76  O   UNL A   1      37.952  32.142  39.928  1.00  0.00    -0.744 OA
ENDBRANCH  70  73
ENDBRANCH  52  66
BRANCH  53  77
ATOM     77  C   UNL A   1      42.370  26.431  27.511  1.00  0.00     0.023 A 
ATOM     78  C   UNL A   1      43.109  27.037  26.476  1.00  0.00     0.012 A 
ATOM     79  C   UNL A   1      42.026  25.068  27.402  1.00  0.00     0.148 A 
ATOM     80  C   UNL A   1      43.468  26.313  25.338  1.00  0.00     0.002 A 
ATOM     81  C   UNL A   1      42.433  24.338  26.290  1.00  0.00     0.091 A 
ATOM     82  F   UNL A   1      41.305  24.514  28.386  1.00  0.00    -0.205 F 
ATOM     83  C   UNL A   1      43.138  24.963  25.250  1.00  0.00     0.022 A 
BRANCH  81  84
ATOM     84  S   UNL A   1      42.139  22.573  26.128  1.00  0.00     0.127 S 
ATOM     85  O   UNL A   1      42.829  22.270  24.876  1.00  0.00    -0.237 OA
ATOM     86  O   UNL A   1      42.790  22.044  27.328  1.00  0.00    -0.237 OA
ATOM     87  O   UNL A   1      40.692  22.407  26.101  1.00  0.00    -0.744 OA
ENDBRANCH  81  84
ENDBRANCH  53  77
BRANCH  65  88
ATOM     88  C   UNL A   1      44.901  27.012  34.003  1.00  0.00     0.023 A 
ATOM     89  C   UNL A   1      44.690  25.805  34.697  1.00  0.00     0.012 A 
ATOM     90  C   UNL A   1      46.205  27.544  33.926  1.00  0.00     0.148 A 
ATOM     91  C   UNL A   1      45.749  25.156  35.333  1.00  0.00     0.002 A 
ATOM     92  C   UNL A   1      47.265  26.865  34.517  1.00  0.00     0.091 A 
ATOM     93  F   UNL A   1      46.387  28.701  33.273  1.00  0.00    -0.205 F 
ATOM     94  C   UNL A   1      47.037  25.679  35.232  1.00  0.00     0.022 A 
BRANCH  92  95
ATOM     95  S   UNL A   1      48.970  27.408  34.356  1.00  0.00     0.127 S 
ATOM     96  O   UNL A   1      49.668  26.457  35.221  1.00  0.00    -0.237 OA
ATOM     97  O   UNL A   1      49.220  27.227  32.926  1.00  0.00    -0.237 OA
ATOM     98  O   UNL A   1      48.997  28.793  34.805  1.00  0.00    -0.744 OA
ENDBRANCH  92  95
ENDBRANCH  65  88
ENDBRANCH  39  40
ENDBRANCH  32  34
ENDBRANCH  31  32
ENDBRANCH  30  31
ENDBRANCH  29  30
ENDBRANCH   1  29
TORSDOF 22
ENDMDL
