MODEL 1
REMARK VINA RESULT:     -11.3      0.000      0.000
REMARK SMILES Cc1ccccc1CNc1ccc(C(=O)OCCOCCOC(=O)c2ccc(-c3c4nc(c(-c5cccc(S(=O)(=O)[O-])c5F)c5ccc([nH]5)c(-c5cccc(S(=O)(=O)[O-])c5F)c5nc(c(-c6cccc(S(=O)(=O)[O-])c6F)c6ccc3[nH]6)C=C5)C=C4)cc2)c(F)c1F
REMARK SMILES IDX 19 1 18 2 17 3 16 4 14 5 15 6 13 7 10 8 11 9 90 10 12 11
REMARK SMILES IDX 88 12 91 13 89 14 9 15 8 17 7 18 1 19 2 20 3 21 4 22 6 23
REMARK SMILES IDX 5 24 20 25 21 26 22 27 23 28 24 29 25 30 26 31 87 32 27 33
REMARK SMILES IDX 86 34 28 35 29 36 30 37 80 38 31 39 85 40 79 41 81 42 32 43
REMARK SMILES IDX 84 44 78 45 77 46 33 48 65 49 45 50 64 51 46 52 49 53 63 54
REMARK SMILES IDX 82 55 47 56 48 57 62 59 83 60 50 61 34 62 35 63 43 64 36 65
REMARK SMILES IDX 38 66 44 67 37 68 39 69 40 70 41 71 42 72 66 73 67 74 75 75
REMARK SMILES IDX 68 76 70 77 76 78 69 79 71 80 72 81 73 82 74 83 51 84 52 85
REMARK SMILES IDX 60 86 53 87 55 88 61 89 54 90 56 91 57 92 58 93 59 94
REMARK H PARENT 9 16 81 47 49 58
REMARK Flexibility Score: inf
ROOT
ATOM      1  O   UNL A   1      35.845  22.679  25.027  1.00  0.00    -0.374 OA
ENDROOT
BRANCH   1   2
ATOM      2  C   UNL A   1      34.974  22.257  23.997  1.00  0.00     0.202 C 
BRANCH   2   3
ATOM      3  C   UNL A   1      34.086  21.273  24.677  1.00  0.00     0.261 C 
BRANCH   3   4
ATOM      4  O   UNL A   1      32.727  21.766  24.667  1.00  0.00    -0.460 OA
BRANCH   4   5
ATOM      5  C   UNL A   1      32.339  22.790  25.492  1.00  0.00     0.341 C 
ATOM      6  O   UNL A   1      32.216  22.808  26.682  1.00  0.00    -0.246 OA
BRANCH   5   7
ATOM      7  C   UNL A   1      32.210  23.975  24.634  1.00  0.00     0.099 A 
ATOM      8  C   UNL A   1      32.081  26.110  22.869  1.00  0.00     0.074 A 
ATOM      9  C   UNL A   1      31.295  24.976  22.652  1.00  0.00     0.030 A 
ATOM     10  C   UNL A   1      32.970  26.139  23.953  1.00  0.00     0.182 A 
ATOM     11  C   UNL A   1      31.319  23.939  23.557  1.00  0.00     0.021 A 
ATOM     12  C   UNL A   1      33.041  25.074  24.835  1.00  0.00     0.175 A 
ATOM     13  F   UNL A   1      33.724  27.232  24.158  1.00  0.00    -0.201 F 
ATOM     14  F   UNL A   1      33.910  25.137  25.855  1.00  0.00    -0.203 F 
BRANCH   8  15
ATOM     15  N   UNL A   1      31.815  27.260  22.120  1.00  0.00    -0.379 N 
ATOM     16  H   UNL A   1      31.817  27.282  21.136  1.00  0.00     0.161 HD
BRANCH  15  17
ATOM     17  C   UNL A   1      31.533  28.421  22.955  1.00  0.00     0.149 C 
BRANCH  17  18
ATOM     18  C   UNL A   1      30.142  28.905  22.666  1.00  0.00    -0.026 A 
ATOM     19  C   UNL A   1      29.047  27.148  24.171  1.00  0.00     0.044 C 
ATOM     20  C   UNL A   1      28.998  28.316  23.224  1.00  0.00    -0.046 A 
ATOM     21  C   UNL A   1      27.745  28.846  22.886  1.00  0.00     0.004 A 
ATOM     22  C   UNL A   1      27.627  29.917  21.996  1.00  0.00     0.000 A 
ATOM     23  C   UNL A   1      30.010  29.977  21.757  1.00  0.00     0.006 A 
ATOM     24  C   UNL A   1      28.760  30.480  21.423  1.00  0.00     0.000 A 
ENDBRANCH  17  18
ENDBRANCH  15  17
ENDBRANCH   8  15
ENDBRANCH   5   7
ENDBRANCH   4   5
ENDBRANCH   3   4
ENDBRANCH   2   3
ENDBRANCH   1   2
BRANCH   1  25
ATOM     25  C   UNL A   1      36.673  21.709  25.609  1.00  0.00     0.202 C 
BRANCH  25  26
ATOM     26  C   UNL A   1      38.137  21.980  25.282  1.00  0.00     0.261 C 
BRANCH  26  27
ATOM     27  O   UNL A   1      38.893  22.021  26.514  1.00  0.00    -0.460 OA
BRANCH  27  28
ATOM     28  C   UNL A   1      40.066  22.721  26.458  1.00  0.00     0.338 C 
ATOM     29  O   UNL A   1      41.163  22.196  26.357  1.00  0.00    -0.246 OA
BRANCH  28  30
ATOM     30  C   UNL A   1      39.828  24.166  26.774  1.00  0.00     0.060 A 
ATOM     31  C   UNL A   1      40.415  25.168  25.979  1.00  0.00     0.016 A 
ATOM     32  C   UNL A   1      39.292  24.507  28.013  1.00  0.00     0.016 A 
ATOM     33  C   UNL A   1      40.642  26.453  26.502  1.00  0.00     0.010 A 
ATOM     34  C   UNL A   1      39.581  25.750  28.546  1.00  0.00     0.010 A 
ATOM     35  C   UNL A   1      40.326  26.707  27.829  1.00  0.00    -0.014 A 
BRANCH  35  36
ATOM     36  C   UNL A   1      40.696  27.904  28.598  1.00  0.00     0.031 A 
ATOM     37  C   UNL A   1      39.753  29.038  28.536  1.00  0.00     0.074 A 
ATOM     38  C   UNL A   1      41.630  27.886  29.587  1.00  0.00     0.049 A 
ATOM     39  N   UNL A   1      39.940  30.160  29.138  1.00  0.00    -0.248 NA
ATOM     40  C   UNL A   1      38.528  29.023  27.732  1.00  0.00     0.031 C 
ATOM     41  C   UNL A   1      41.550  28.576  30.881  1.00  0.00     0.029 A 
ATOM     42  N   UNL A   1      42.818  27.160  29.712  1.00  0.00    -0.354 N 
ATOM     43  C   UNL A   1      38.733  30.812  29.132  1.00  0.00     0.074 A 
ATOM     44  C   UNL A   1      37.965  30.179  28.096  1.00  0.00     0.031 C 
ATOM     45  C   UNL A   1      42.691  28.398  31.570  1.00  0.00     0.029 A 
ATOM     46  C   UNL A   1      43.636  27.743  30.687  1.00  0.00     0.049 A 
ATOM     47  H   UNL A   1      43.046  26.357  29.190  1.00  0.00     0.167 HD
ATOM     48  C   UNL A   1      38.475  31.687  30.138  1.00  0.00     0.034 A 
ATOM     49  C   UNL A   1      44.921  28.099  30.412  1.00  0.00     0.034 A 
ATOM     50  C   UNL A   1      39.695  31.943  30.937  1.00  0.00     0.049 A 
ATOM     51  C   UNL A   1      45.028  29.600  30.475  1.00  0.00     0.074 A 
ATOM     52  C   UNL A   1      40.088  31.591  32.216  1.00  0.00     0.029 A 
ATOM     53  N   UNL A   1      40.852  32.399  30.292  1.00  0.00    -0.354 N 
ATOM     54  N   UNL A   1      43.992  30.350  30.726  1.00  0.00    -0.248 NA
ATOM     55  C   UNL A   1      46.238  30.393  30.305  1.00  0.00     0.031 C 
ATOM     56  C   UNL A   1      41.508  31.731  32.291  1.00  0.00     0.029 A 
ATOM     57  C   UNL A   1      41.982  32.222  31.082  1.00  0.00     0.049 A 
ATOM     58  H   UNL A   1      40.863  32.797  29.392  1.00  0.00     0.167 HD
ATOM     59  C   UNL A   1      44.298  31.658  30.601  1.00  0.00     0.074 A 
ATOM     60  C   UNL A   1      45.742  31.642  30.414  1.00  0.00     0.031 C 
ATOM     61  C   UNL A   1      43.315  32.608  30.592  1.00  0.00     0.034 A 
BRANCH  48  62
ATOM     62  C   UNL A   1      37.089  32.185  30.525  1.00  0.00     0.023 A 
ATOM     63  C   UNL A   1      36.635  31.854  31.819  1.00  0.00     0.012 A 
ATOM     64  C   UNL A   1      36.160  32.889  29.707  1.00  0.00     0.148 A 
ATOM     65  C   UNL A   1      35.361  32.206  32.283  1.00  0.00     0.002 A 
ATOM     66  C   UNL A   1      34.919  33.310  30.198  1.00  0.00     0.091 A 
ATOM     67  F   UNL A   1      36.410  33.080  28.409  1.00  0.00    -0.205 F 
ATOM     68  C   UNL A   1      34.511  32.955  31.483  1.00  0.00     0.022 A 
BRANCH  66  69
ATOM     69  S   UNL A   1      33.786  34.346  29.243  1.00  0.00     0.127 S 
ATOM     70  O   UNL A   1      33.256  33.402  28.260  1.00  0.00    -0.237 OA
ATOM     71  O   UNL A   1      32.820  34.767  30.258  1.00  0.00    -0.237 OA
ATOM     72  O   UNL A   1      34.586  35.431  28.691  1.00  0.00    -0.744 OA
ENDBRANCH  66  69
ENDBRANCH  48  62
BRANCH  49  73
ATOM     73  C   UNL A   1      45.583  27.134  29.473  1.00  0.00     0.023 A 
ATOM     74  C   UNL A   1      45.722  25.798  29.938  1.00  0.00     0.012 A 
ATOM     75  C   UNL A   1      45.575  27.360  28.083  1.00  0.00     0.148 A 
ATOM     76  C   UNL A   1      45.721  24.714  29.052  1.00  0.00     0.002 A 
ATOM     77  C   UNL A   1      45.507  26.272  27.210  1.00  0.00     0.091 A 
ATOM     78  F   UNL A   1      45.546  28.623  27.644  1.00  0.00    -0.205 F 
ATOM     79  C   UNL A   1      45.559  24.952  27.691  1.00  0.00     0.022 A 
BRANCH  77  80
ATOM     80  S   UNL A   1      45.123  26.478  25.464  1.00  0.00     0.127 S 
ATOM     81  O   UNL A   1      46.276  25.846  24.829  1.00  0.00    -0.237 OA
ATOM     82  O   UNL A   1      43.870  25.733  25.334  1.00  0.00    -0.237 OA
ATOM     83  O   UNL A   1      44.993  27.913  25.260  1.00  0.00    -0.744 OA
ENDBRANCH  77  80
ENDBRANCH  49  73
BRANCH  61  84
ATOM     84  C   UNL A   1      43.565  34.007  30.099  1.00  0.00     0.023 A 
ATOM     85  C   UNL A   1      43.439  35.124  30.950  1.00  0.00     0.012 A 
ATOM     86  C   UNL A   1      44.078  34.235  28.804  1.00  0.00     0.148 A 
ATOM     87  C   UNL A   1      43.699  36.420  30.508  1.00  0.00     0.002 A 
ATOM     88  C   UNL A   1      44.467  35.509  28.415  1.00  0.00     0.091 A 
ATOM     89  F   UNL A   1      44.180  33.220  27.935  1.00  0.00    -0.205 F 
ATOM     90  C   UNL A   1      44.232  36.611  29.242  1.00  0.00     0.022 A 
BRANCH  88  91
ATOM     91  S   UNL A   1      45.430  35.766  26.923  1.00  0.00     0.127 S 
ATOM     92  O   UNL A   1      46.750  35.289  27.332  1.00  0.00    -0.237 OA
ATOM     93  O   UNL A   1      44.740  34.905  25.960  1.00  0.00    -0.237 OA
ATOM     94  O   UNL A   1      45.323  37.189  26.634  1.00  0.00    -0.744 OA
ENDBRANCH  88  91
ENDBRANCH  61  84
ENDBRANCH  35  36
ENDBRANCH  28  30
ENDBRANCH  27  28
ENDBRANCH  26  27
ENDBRANCH  25  26
ENDBRANCH   1  25
TORSDOF 20
ENDMDL
MODEL 2
REMARK VINA RESULT:     -11.3      4.156      9.763
REMARK SMILES Cc1ccccc1CNc1ccc(C(=O)OCCOCCOC(=O)c2ccc(-c3c4nc(c(-c5cccc(S(=O)(=O)[O-])c5F)c5ccc([nH]5)c(-c5cccc(S(=O)(=O)[O-])c5F)c5nc(c(-c6cccc(S(=O)(=O)[O-])c6F)c6ccc3[nH]6)C=C5)C=C4)cc2)c(F)c1F
REMARK SMILES IDX 19 1 18 2 17 3 16 4 14 5 15 6 13 7 10 8 11 9 90 10 12 11
REMARK SMILES IDX 88 12 91 13 89 14 9 15 8 17 7 18 1 19 2 20 3 21 4 22 6 23
REMARK SMILES IDX 5 24 20 25 21 26 22 27 23 28 24 29 25 30 26 31 87 32 27 33
REMARK SMILES IDX 86 34 28 35 29 36 30 37 80 38 31 39 85 40 79 41 81 42 32 43
REMARK SMILES IDX 84 44 78 45 77 46 33 48 65 49 45 50 64 51 46 52 49 53 63 54
REMARK SMILES IDX 82 55 47 56 48 57 62 59 83 60 50 61 34 62 35 63 43 64 36 65
REMARK SMILES IDX 38 66 44 67 37 68 39 69 40 70 41 71 42 72 66 73 67 74 75 75
REMARK SMILES IDX 68 76 70 77 76 78 69 79 71 80 72 81 73 82 74 83 51 84 52 85
REMARK SMILES IDX 60 86 53 87 55 88 61 89 54 90 56 91 57 92 58 93 59 94
REMARK H PARENT 9 16 81 47 49 58
REMARK Flexibility Score: inf
ROOT
ATOM      1  O   UNL A   1      32.389  27.499  22.633  1.00  0.00    -0.374 OA
ENDROOT
BRANCH   1   2
ATOM      2  C   UNL A   1      32.464  28.511  23.617  1.00  0.00     0.202 C 
BRANCH   2   3
ATOM      3  C   UNL A   1      31.050  28.665  24.063  1.00  0.00     0.261 C 
BRANCH   3   4
ATOM      4  O   UNL A   1      30.655  27.497  24.815  1.00  0.00    -0.460 OA
BRANCH   4   5
ATOM      5  C   UNL A   1      29.732  26.613  24.318  1.00  0.00     0.341 C 
ATOM      6  O   UNL A   1      28.770  26.816  23.636  1.00  0.00    -0.246 OA
BRANCH   5   7
ATOM      7  C   UNL A   1      30.215  25.275  24.680  1.00  0.00     0.099 A 
ATOM      8  C   UNL A   1      30.951  22.668  25.274  1.00  0.00     0.074 A 
ATOM      9  C   UNL A   1      31.062  23.144  23.966  1.00  0.00     0.030 A 
ATOM     10  C   UNL A   1      30.419  23.499  26.271  1.00  0.00     0.182 A 
ATOM     11  C   UNL A   1      30.747  24.453  23.681  1.00  0.00     0.021 A 
ATOM     12  C   UNL A   1      30.046  24.801  25.978  1.00  0.00     0.175 A 
ATOM     13  F   UNL A   1      30.314  23.038  27.528  1.00  0.00    -0.201 F 
ATOM     14  F   UNL A   1      29.534  25.561  26.956  1.00  0.00    -0.203 F 
BRANCH   8  15
ATOM     15  N   UNL A   1      31.558  21.450  25.595  1.00  0.00    -0.379 N 
ATOM     16  H   UNL A   1      31.192  20.815  26.252  1.00  0.00     0.161 HD
BRANCH  15  17
ATOM     17  C   UNL A   1      32.791  21.224  24.852  1.00  0.00     0.149 C 
BRANCH  17  18
ATOM     18  C   UNL A   1      32.797  19.819  24.329  1.00  0.00    -0.026 A 
ATOM     19  C   UNL A   1      31.962  20.508  22.011  1.00  0.00     0.044 C 
ATOM     20  C   UNL A   1      32.411  19.489  23.022  1.00  0.00    -0.046 A 
ATOM     21  C   UNL A   1      32.452  18.142  22.635  1.00  0.00     0.004 A 
ATOM     22  C   UNL A   1      32.840  17.142  23.531  1.00  0.00     0.000 A 
ATOM     23  C   UNL A   1      33.173  18.798  25.230  1.00  0.00     0.006 A 
ATOM     24  C   UNL A   1      33.194  17.468  24.834  1.00  0.00     0.000 A 
ENDBRANCH  17  18
ENDBRANCH  15  17
ENDBRANCH   8  15
ENDBRANCH   5   7
ENDBRANCH   4   5
ENDBRANCH   3   4
ENDBRANCH   2   3
ENDBRANCH   1   2
BRANCH   1  25
ATOM     25  C   UNL A   1      33.400  26.528  22.629  1.00  0.00     0.202 C 
BRANCH  25  26
ATOM     26  C   UNL A   1      34.054  26.421  24.001  1.00  0.00     0.261 C 
BRANCH  26  27
ATOM     27  O   UNL A   1      33.854  25.083  24.513  1.00  0.00    -0.460 OA
BRANCH  27  28
ATOM     28  C   UNL A   1      34.703  24.134  24.018  1.00  0.00     0.338 C 
ATOM     29  O   UNL A   1      34.457  23.455  23.034  1.00  0.00    -0.246 OA
BRANCH  28  30
ATOM     30  C   UNL A   1      35.831  23.891  24.972  1.00  0.00     0.060 A 
ATOM     31  C   UNL A   1      35.753  24.367  26.294  1.00  0.00     0.016 A 
ATOM     32  C   UNL A   1      37.061  23.473  24.472  1.00  0.00     0.016 A 
ATOM     33  C   UNL A   1      36.922  24.611  27.037  1.00  0.00     0.010 A 
ATOM     34  C   UNL A   1      38.209  23.782  25.179  1.00  0.00     0.010 A 
ATOM     35  C   UNL A   1      38.156  24.424  26.432  1.00  0.00    -0.014 A 
BRANCH  35  36
ATOM     36  C   UNL A   1      39.461  24.838  26.970  1.00  0.00     0.031 A 
ATOM     37  C   UNL A   1      40.528  23.818  26.952  1.00  0.00     0.074 A 
ATOM     38  C   UNL A   1      39.807  26.142  27.142  1.00  0.00     0.049 A 
ATOM     39  N   UNL A   1      41.717  24.018  27.401  1.00  0.00    -0.248 NA
ATOM     40  C   UNL A   1      40.325  22.449  26.472  1.00  0.00     0.031 C 
ATOM     41  C   UNL A   1      41.111  26.750  26.844  1.00  0.00     0.029 A 
ATOM     42  N   UNL A   1      39.044  27.251  27.519  1.00  0.00    -0.354 N 
ATOM     43  C   UNL A   1      42.494  22.997  26.914  1.00  0.00     0.074 A 
ATOM     44  C   UNL A   1      41.570  21.967  26.529  1.00  0.00     0.031 C 
ATOM     45  C   UNL A   1      41.114  28.041  27.216  1.00  0.00     0.029 A 
ATOM     46  C   UNL A   1      39.883  28.289  27.941  1.00  0.00     0.049 A 
ATOM     47  H   UNL A   1      38.061  27.294  27.493  1.00  0.00     0.167 HD
ATOM     48  C   UNL A   1      43.818  23.236  26.728  1.00  0.00     0.034 A 
ATOM     49  C   UNL A   1      39.723  28.878  29.159  1.00  0.00     0.034 A 
ATOM     50  C   UNL A   1      44.209  24.528  27.337  1.00  0.00     0.049 A 
ATOM     51  C   UNL A   1      40.921  28.550  30.011  1.00  0.00     0.074 A 
ATOM     52  C   UNL A   1      44.577  25.755  26.815  1.00  0.00     0.029 A 
ATOM     53  N   UNL A   1      43.946  24.752  28.695  1.00  0.00    -0.354 N 
ATOM     54  N   UNL A   1      41.885  27.790  29.573  1.00  0.00    -0.248 NA
ATOM     55  C   UNL A   1      41.183  29.029  31.362  1.00  0.00     0.031 C 
ATOM     56  C   UNL A   1      44.418  26.733  27.844  1.00  0.00     0.029 A 
ATOM     57  C   UNL A   1      44.009  26.104  29.012  1.00  0.00     0.049 A 
ATOM     58  H   UNL A   1      43.742  24.040  29.343  1.00  0.00     0.167 HD
ATOM     59  C   UNL A   1      42.779  27.529  30.550  1.00  0.00     0.074 A 
ATOM     60  C   UNL A   1      42.341  28.395  31.637  1.00  0.00     0.031 C 
ATOM     61  C   UNL A   1      43.740  26.572  30.381  1.00  0.00     0.034 A 
BRANCH  48  62
ATOM     62  C   UNL A   1      44.738  22.401  25.847  1.00  0.00     0.023 A 
ATOM     63  C   UNL A   1      45.799  23.083  25.215  1.00  0.00     0.012 A 
ATOM     64  C   UNL A   1      44.613  21.020  25.525  1.00  0.00     0.148 A 
ATOM     65  C   UNL A   1      46.687  22.446  24.339  1.00  0.00     0.002 A 
ATOM     66  C   UNL A   1      45.548  20.366  24.714  1.00  0.00     0.091 A 
ATOM     67  F   UNL A   1      43.537  20.330  25.912  1.00  0.00    -0.205 F 
ATOM     68  C   UNL A   1      46.578  21.082  24.106  1.00  0.00     0.022 A 
BRANCH  66  69
ATOM     69  S   UNL A   1      45.514  18.583  24.420  1.00  0.00     0.127 S 
ATOM     70  O   UNL A   1      44.151  18.229  24.814  1.00  0.00    -0.237 OA
ATOM     71  O   UNL A   1      45.769  18.500  22.981  1.00  0.00    -0.237 OA
ATOM     72  O   UNL A   1      46.567  18.009  25.248  1.00  0.00    -0.744 OA
ENDBRANCH  66  69
ENDBRANCH  48  62
BRANCH  49  73
ATOM     73  C   UNL A   1      38.278  28.986  29.546  1.00  0.00     0.023 A 
ATOM     74  C   UNL A   1      37.953  28.612  30.877  1.00  0.00     0.012 A 
ATOM     75  C   UNL A   1      37.416  29.873  28.872  1.00  0.00     0.148 A 
ATOM     76  C   UNL A   1      36.881  29.201  31.559  1.00  0.00     0.002 A 
ATOM     77  C   UNL A   1      36.391  30.506  29.579  1.00  0.00     0.091 A 
ATOM     78  F   UNL A   1      37.664  30.149  27.586  1.00  0.00    -0.205 F 
ATOM     79  C   UNL A   1      36.134  30.187  30.924  1.00  0.00     0.022 A 
BRANCH  77  80
ATOM     80  S   UNL A   1      35.494  31.910  28.898  1.00  0.00     0.127 S 
ATOM     81  O   UNL A   1      34.825  31.307  27.748  1.00  0.00    -0.237 OA
ATOM     82  O   UNL A   1      34.603  32.270  30.002  1.00  0.00    -0.237 OA
ATOM     83  O   UNL A   1      36.507  32.909  28.592  1.00  0.00    -0.744 OA
ENDBRANCH  77  80
ENDBRANCH  49  73
BRANCH  61  84
ATOM     84  C   UNL A   1      44.507  26.001  31.541  1.00  0.00     0.023 A 
ATOM     85  C   UNL A   1      43.982  24.960  32.335  1.00  0.00     0.012 A 
ATOM     86  C   UNL A   1      45.843  26.387  31.784  1.00  0.00     0.148 A 
ATOM     87  C   UNL A   1      44.700  24.405  33.392  1.00  0.00     0.002 A 
ATOM     88  C   UNL A   1      46.601  25.735  32.747  1.00  0.00     0.091 A 
ATOM     89  F   UNL A   1      46.385  27.398  31.092  1.00  0.00    -0.205 F 
ATOM     90  C   UNL A   1      46.021  24.781  33.587  1.00  0.00     0.022 A 
BRANCH  88  91
ATOM     91  S   UNL A   1      48.378  25.967  32.836  1.00  0.00     0.127 S 
ATOM     92  O   UNL A   1      48.750  25.027  33.892  1.00  0.00    -0.237 OA
ATOM     93  O   UNL A   1      48.807  25.578  31.491  1.00  0.00    -0.237 OA
ATOM     94  O   UNL A   1      48.569  27.379  33.137  1.00  0.00    -0.744 OA
ENDBRANCH  88  91
ENDBRANCH  61  84
ENDBRANCH  35  36
ENDBRANCH  28  30
ENDBRANCH  27  28
ENDBRANCH  26  27
ENDBRANCH  25  26
ENDBRANCH   1  25
TORSDOF 20
ENDMDL
MODEL 3
REMARK VINA RESULT:     -11.2      6.840     13.008
REMARK SMILES Cc1ccccc1CNc1ccc(C(=O)OCCOCCOC(=O)c2ccc(-c3c4nc(c(-c5cccc(S(=O)(=O)[O-])c5F)c5ccc([nH]5)c(-c5cccc(S(=O)(=O)[O-])c5F)c5nc(c(-c6cccc(S(=O)(=O)[O-])c6F)c6ccc3[nH]6)C=C5)C=C4)cc2)c(F)c1F
REMARK SMILES IDX 19 1 18 2 17 3 16 4 14 5 15 6 13 7 10 8 11 9 90 10 12 11
REMARK SMILES IDX 88 12 91 13 89 14 9 15 8 17 7 18 1 19 2 20 3 21 4 22 6 23
REMARK SMILES IDX 5 24 20 25 21 26 22 27 23 28 24 29 25 30 26 31 87 32 27 33
REMARK SMILES IDX 86 34 28 35 29 36 30 37 80 38 31 39 85 40 79 41 81 42 32 43
REMARK SMILES IDX 84 44 78 45 77 46 33 48 65 49 45 50 64 51 46 52 49 53 63 54
REMARK SMILES IDX 82 55 47 56 48 57 62 59 83 60 50 61 34 62 35 63 43 64 36 65
REMARK SMILES IDX 38 66 44 67 37 68 39 69 40 70 41 71 42 72 66 73 67 74 75 75
REMARK SMILES IDX 68 76 70 77 76 78 69 79 71 80 72 81 73 82 74 83 51 84 52 85
REMARK SMILES IDX 60 86 53 87 55 88 61 89 54 90 56 91 57 92 58 93 59 94
REMARK H PARENT 9 16 81 47 49 58
REMARK Flexibility Score: inf
ROOT
ATOM      1  O   UNL A   1      43.411  39.608  26.680  1.00  0.00    -0.374 OA
ENDROOT
BRANCH   1   2
ATOM      2  C   UNL A   1      42.115  39.741  26.132  1.00  0.00     0.202 C 
BRANCH   2   3
ATOM      3  C   UNL A   1      42.058  41.174  25.725  1.00  0.00     0.261 C 
BRANCH   3   4
ATOM      4  O   UNL A   1      42.990  41.402  24.644  1.00  0.00    -0.460 OA
BRANCH   4   5
ATOM      5  C   UNL A   1      43.418  42.666  24.334  1.00  0.00     0.341 C 
ATOM      6  O   UNL A   1      43.889  43.510  25.041  1.00  0.00    -0.246 OA
BRANCH   5   7
ATOM      7  C   UNL A   1      43.314  42.783  22.874  1.00  0.00     0.099 A 
ATOM      8  C   UNL A   1      43.152  43.214  20.139  1.00  0.00     0.074 A 
ATOM      9  C   UNL A   1      44.396  43.216  20.773  1.00  0.00     0.030 A 
ATOM     10  C   UNL A   1      41.986  43.044  20.900  1.00  0.00     0.182 A 
ATOM     11  C   UNL A   1      44.481  42.949  22.121  1.00  0.00     0.021 A 
ATOM     12  C   UNL A   1      42.062  42.833  22.267  1.00  0.00     0.175 A 
ATOM     13  F   UNL A   1      40.792  43.043  20.286  1.00  0.00    -0.201 F 
ATOM     14  F   UNL A   1      40.924  42.684  22.961  1.00  0.00    -0.203 F 
BRANCH   8  15
ATOM     15  N   UNL A   1      43.115  43.179  18.742  1.00  0.00    -0.379 N 
ATOM     16  H   UNL A   1      42.501  42.607  18.227  1.00  0.00     0.161 HD
BRANCH  15  17
ATOM     17  C   UNL A   1      44.084  44.080  18.131  1.00  0.00     0.149 C 
BRANCH  17  18
ATOM     18  C   UNL A   1      43.365  45.286  17.603  1.00  0.00    -0.026 A 
ATOM     19  C   UNL A   1      44.722  46.919  19.033  1.00  0.00     0.044 C 
ATOM     20  C   UNL A   1      43.657  46.593  18.022  1.00  0.00    -0.046 A 
ATOM     21  C   UNL A   1      42.923  47.649  17.465  1.00  0.00     0.004 A 
ATOM     22  C   UNL A   1      41.905  47.415  16.536  1.00  0.00     0.000 A 
ATOM     23  C   UNL A   1      42.325  45.060  16.675  1.00  0.00     0.006 A 
ATOM     24  C   UNL A   1      41.599  46.118  16.145  1.00  0.00     0.000 A 
ENDBRANCH  17  18
ENDBRANCH  15  17
ENDBRANCH   8  15
ENDBRANCH   5   7
ENDBRANCH   4   5
ENDBRANCH   3   4
ENDBRANCH   2   3
ENDBRANCH   1   2
BRANCH   1  25
ATOM     25  C   UNL A   1      43.694  38.431  27.386  1.00  0.00     0.202 C 
BRANCH  25  26
ATOM     26  C   UNL A   1      45.039  37.854  26.961  1.00  0.00     0.261 C 
BRANCH  26  27
ATOM     27  O   UNL A   1      44.907  36.423  26.799  1.00  0.00    -0.460 OA
BRANCH  27  28
ATOM     28  C   UNL A   1      46.069  35.754  26.535  1.00  0.00     0.338 C 
ATOM     29  O   UNL A   1      47.140  36.306  26.348  1.00  0.00    -0.246 OA
BRANCH  28  30
ATOM     30  C   UNL A   1      45.791  34.304  26.277  1.00  0.00     0.060 A 
ATOM     31  C   UNL A   1      44.556  33.909  25.727  1.00  0.00     0.016 A 
ATOM     32  C   UNL A   1      46.615  33.345  26.857  1.00  0.00     0.016 A 
ATOM     33  C   UNL A   1      44.066  32.608  25.935  1.00  0.00     0.010 A 
ATOM     34  C   UNL A   1      46.097  32.089  27.119  1.00  0.00     0.010 A 
ATOM     35  C   UNL A   1      44.790  31.733  26.731  1.00  0.00    -0.014 A 
BRANCH  35  36
ATOM     36  C   UNL A   1      44.330  30.431  27.235  1.00  0.00     0.031 A 
ATOM     37  C   UNL A   1      43.398  30.466  28.379  1.00  0.00     0.074 A 
ATOM     38  C   UNL A   1      44.435  29.282  26.514  1.00  0.00     0.049 A 
ATOM     39  N   UNL A   1      42.918  29.415  28.945  1.00  0.00    -0.248 NA
ATOM     40  C   UNL A   1      42.967  31.707  29.028  1.00  0.00     0.031 C 
ATOM     41  C   UNL A   1      43.426  28.220  26.405  1.00  0.00     0.029 A 
ATOM     42  N   UNL A   1      45.421  28.844  25.626  1.00  0.00    -0.354 N 
ATOM     43  C   UNL A   1      41.860  29.833  29.713  1.00  0.00     0.074 A 
ATOM     44  C   UNL A   1      42.057  31.245  29.891  1.00  0.00     0.031 C 
ATOM     45  C   UNL A   1      43.907  27.200  25.674  1.00  0.00     0.029 A 
ATOM     46  C   UNL A   1      45.312  27.463  25.430  1.00  0.00     0.049 A 
ATOM     47  H   UNL A   1      46.095  29.424  25.202  1.00  0.00     0.167 HD
ATOM     48  C   UNL A   1      40.851  28.955  29.943  1.00  0.00     0.034 A 
ATOM     49  C   UNL A   1      46.374  26.633  25.628  1.00  0.00     0.034 A 
ATOM     50  C   UNL A   1      41.228  27.594  29.496  1.00  0.00     0.049 A 
ATOM     51  C   UNL A   1      46.078  25.748  26.810  1.00  0.00     0.074 A 
ATOM     52  C   UNL A   1      40.821  26.789  28.447  1.00  0.00     0.029 A 
ATOM     53  N   UNL A   1      42.396  27.007  29.999  1.00  0.00    -0.354 N 
ATOM     54  N   UNL A   1      44.969  25.859  27.488  1.00  0.00    -0.248 NA
ATOM     55  C   UNL A   1      46.920  24.677  27.326  1.00  0.00     0.031 C 
ATOM     56  C   UNL A   1      41.818  25.784  28.254  1.00  0.00     0.029 A 
ATOM     57  C   UNL A   1      42.808  25.934  29.217  1.00  0.00     0.049 A 
ATOM     58  H   UNL A   1      42.866  27.316  30.806  1.00  0.00     0.167 HD
ATOM     59  C   UNL A   1      44.983  25.059  28.574  1.00  0.00     0.074 A 
ATOM     60  C   UNL A   1      46.196  24.273  28.389  1.00  0.00     0.031 C 
ATOM     61  C   UNL A   1      44.030  25.184  29.547  1.00  0.00     0.034 A 
BRANCH  48  62
ATOM     62  C   UNL A   1      39.452  29.337  30.407  1.00  0.00     0.023 A 
ATOM     63  C   UNL A   1      39.027  28.806  31.643  1.00  0.00     0.012 A 
ATOM     64  C   UNL A   1      38.488  30.116  29.704  1.00  0.00     0.148 A 
ATOM     65  C   UNL A   1      37.746  29.038  32.160  1.00  0.00     0.002 A 
ATOM     66  C   UNL A   1      37.238  30.414  30.259  1.00  0.00     0.091 A 
ATOM     67  F   UNL A   1      38.716  30.501  28.447  1.00  0.00    -0.205 F 
ATOM     68  C   UNL A   1      36.858  29.862  31.482  1.00  0.00     0.022 A 
BRANCH  66  69
ATOM     69  S   UNL A   1      36.056  31.531  29.471  1.00  0.00     0.127 S 
ATOM     70  O   UNL A   1      35.224  31.948  30.599  1.00  0.00    -0.237 OA
ATOM     71  O   UNL A   1      36.926  32.581  28.940  1.00  0.00    -0.237 OA
ATOM     72  O   UNL A   1      35.369  30.750  28.450  1.00  0.00    -0.744 OA
ENDBRANCH  66  69
ENDBRANCH  48  62
BRANCH  49  73
ATOM     73  C   UNL A   1      47.668  27.267  25.212  1.00  0.00     0.023 A 
ATOM     74  C   UNL A   1      48.773  27.074  26.084  1.00  0.00     0.012 A 
ATOM     75  C   UNL A   1      47.928  27.552  23.858  1.00  0.00     0.148 A 
ATOM     76  C   UNL A   1      50.086  27.036  25.600  1.00  0.00     0.002 A 
ATOM     77  C   UNL A   1      49.233  27.446  23.371  1.00  0.00     0.091 A 
ATOM     78  F   UNL A   1      46.894  27.833  23.056  1.00  0.00    -0.205 F 
ATOM     79  C   UNL A   1      50.308  27.169  24.233  1.00  0.00     0.022 A 
BRANCH  77  80
ATOM     80  S   UNL A   1      49.590  27.428  21.607  1.00  0.00     0.127 S 
ATOM     81  O   UNL A   1      48.625  26.448  21.118  1.00  0.00    -0.237 OA
ATOM     82  O   UNL A   1      49.305  28.811  21.221  1.00  0.00    -0.237 OA
ATOM     83  O   UNL A   1      50.991  27.051  21.496  1.00  0.00    -0.744 OA
ENDBRANCH  77  80
ENDBRANCH  49  73
BRANCH  61  84
ATOM     84  C   UNL A   1      44.206  24.586  30.915  1.00  0.00     0.023 A 
ATOM     85  C   UNL A   1      43.758  23.283  31.215  1.00  0.00     0.012 A 
ATOM     86  C   UNL A   1      44.959  25.255  31.904  1.00  0.00     0.148 A 
ATOM     87  C   UNL A   1      43.946  22.711  32.472  1.00  0.00     0.002 A 
ATOM     88  C   UNL A   1      45.262  24.626  33.104  1.00  0.00     0.091 A 
ATOM     89  F   UNL A   1      45.375  26.511  31.695  1.00  0.00    -0.205 F 
ATOM     90  C   UNL A   1      44.716  23.377  33.413  1.00  0.00     0.022 A 
BRANCH  88  91
ATOM     91  S   UNL A   1      46.490  25.309  34.220  1.00  0.00     0.127 S 
ATOM     92  O   UNL A   1      46.604  24.252  35.223  1.00  0.00    -0.237 OA
ATOM     93  O   UNL A   1      47.655  25.452  33.345  1.00  0.00    -0.237 OA
ATOM     94  O   UNL A   1      45.932  26.573  34.681  1.00  0.00    -0.744 OA
ENDBRANCH  88  91
ENDBRANCH  61  84
ENDBRANCH  35  36
ENDBRANCH  28  30
ENDBRANCH  27  28
ENDBRANCH  26  27
ENDBRANCH  25  26
ENDBRANCH   1  25
TORSDOF 20
ENDMDL
