MODEL 1
REMARK VINA RESULT:     -14.2      0.000      0.000
REMARK SMILES C[C@]12C(=O)N(c3ccc(C(=O)OCCOCCOC(=O)c4ccc(-c5c6nc(c(-c7cccc(S(=O)(=O)[O-])c7F)c7ccc([nH]7)c(-c7cccc(S(=O)(=O)[O-])c7F)c7nc(c(-c8cccc(S(=O)(=O)[O-])c8F)c8ccc5[nH]8)C=C7)C=C6)cc4)cc3)C(=O)[C@H]1[C@H]1c3ccccc3[C@@H]2c2ccccc21
REMARK SMILES IDX 16 1 15 2 14 3 13 4 12 5 10 6 11 7 9 8 6 9 7 10 85 11 8 12
REMARK SMILES IDX 84 13 5 14 1 15 2 16 3 17 88 18 96 19 4 20 86 21 89 22 95 23
REMARK SMILES IDX 97 24 87 25 90 26 102 27 94 28 98 29 91 30 101 31 93 32
REMARK SMILES IDX 99 33 92 34 100 35 17 36 18 37 19 38 20 39 21 40 22 41 83 42
REMARK SMILES IDX 23 43 82 44 24 45 25 46 26 47 76 48 27 49 81 50 75 51 77 52
REMARK SMILES IDX 28 53 80 54 74 55 73 56 29 58 61 59 41 60 60 61 42 62 45 63
REMARK SMILES IDX 59 64 78 65 43 66 44 67 58 69 79 70 46 71 30 72 31 73 39 74
REMARK SMILES IDX 32 75 34 76 40 77 33 78 35 79 36 80 37 81 38 82 62 83 63 84
REMARK SMILES IDX 71 85 64 86 66 87 72 88 65 89 67 90 68 91 69 92 70 93 47 94
REMARK SMILES IDX 48 95 56 96 49 97 51 98 57 99 50 100 52 101 53 102 54 103
REMARK SMILES IDX 55 104
REMARK H PARENT 77 57 45 68
REMARK Flexibility Score: inf
ROOT
ATOM      1  C   UNL A   1      37.200  19.240  24.992  1.00  0.00     0.202 C 
ENDROOT
BRANCH   1   2
ATOM      2  O   UNL A   1      35.922  18.702  24.669  1.00  0.00    -0.374 OA
BRANCH   2   3
ATOM      3  C   UNL A   1      35.744  17.288  24.741  1.00  0.00     0.202 C 
BRANCH   3   4
ATOM      4  C   UNL A   1      34.324  16.728  24.597  1.00  0.00     0.261 C 
BRANCH   4   5
ATOM      5  O   UNL A   1      33.550  17.446  23.623  1.00  0.00    -0.460 OA
BRANCH   5   6
ATOM      6  C   UNL A   1      32.566  18.211  24.151  1.00  0.00     0.338 C 
ATOM      7  O   UNL A   1      31.762  17.903  25.015  1.00  0.00    -0.246 OA
BRANCH   6   8
ATOM      8  C   UNL A   1      32.719  19.605  23.708  1.00  0.00     0.060 A 
ATOM      9  C   UNL A   1      32.743  22.364  23.250  1.00  0.00     0.052 A 
ATOM     10  C   UNL A   1      33.489  21.811  24.302  1.00  0.00     0.028 A 
ATOM     11  C   UNL A   1      32.112  21.493  22.346  1.00  0.00     0.028 A 
ATOM     12  C   UNL A   1      33.436  20.447  24.558  1.00  0.00     0.018 A 
ATOM     13  C   UNL A   1      32.111  20.110  22.561  1.00  0.00     0.018 A 
BRANCH   9  14
ATOM     14  N   UNL A   1      32.433  23.747  23.290  1.00  0.00    -0.250 N 
ATOM     15  C   UNL A   1      32.840  27.173  22.884  1.00  0.00     0.024 C 
ATOM     16  C   UNL A   1      32.831  25.968  23.822  1.00  0.00     0.071 C 
ATOM     17  C   UNL A   1      33.327  24.755  23.083  1.00  0.00     0.241 C 
ATOM     18  C   UNL A   1      31.386  25.625  24.322  1.00  0.00     0.107 C 
ATOM     19  C   UNL A   1      33.845  26.043  25.036  1.00  0.00     0.066 C 
ATOM     20  O   UNL A   1      34.385  24.741  22.465  1.00  0.00    -0.273 OA
ATOM     21  C   UNL A   1      31.209  24.279  23.599  1.00  0.00     0.238 C 
ATOM     22  C   UNL A   1      31.364  25.850  25.879  1.00  0.00     0.063 C 
ATOM     23  C   UNL A   1      33.587  24.835  25.970  1.00  0.00    -0.036 A 
ATOM     24  C   UNL A   1      33.425  27.270  25.806  1.00  0.00    -0.036 A 
ATOM     25  O   UNL A   1      30.140  23.922  23.111  1.00  0.00    -0.274 OA
ATOM     26  C   UNL A   1      32.246  24.753  26.426  1.00  0.00    -0.036 A 
ATOM     27  C   UNL A   1      32.071  27.204  26.228  1.00  0.00    -0.036 A 
ATOM     28  C   UNL A   1      34.480  23.831  26.300  1.00  0.00     0.005 A 
ATOM     29  C   UNL A   1      34.259  28.342  26.115  1.00  0.00     0.005 A 
ATOM     30  C   UNL A   1      31.787  23.693  27.189  1.00  0.00     0.004 A 
ATOM     31  C   UNL A   1      31.564  28.258  26.976  1.00  0.00     0.004 A 
ATOM     32  C   UNL A   1      34.013  22.744  27.053  1.00  0.00     0.000 A 
ATOM     33  C   UNL A   1      33.738  29.386  26.871  1.00  0.00     0.000 A 
ATOM     34  C   UNL A   1      32.681  22.675  27.492  1.00  0.00     0.000 A 
ATOM     35  C   UNL A   1      32.402  29.344  27.295  1.00  0.00     0.000 A 
ENDBRANCH   9  14
ENDBRANCH   6   8
ENDBRANCH   5   6
ENDBRANCH   4   5
ENDBRANCH   3   4
ENDBRANCH   2   3
ENDBRANCH   1   2
BRANCH   1  36
ATOM     36  C   UNL A   1      37.462  20.733  24.743  1.00  0.00     0.261 C 
BRANCH  36  37
ATOM     37  O   UNL A   1      37.890  21.447  25.910  1.00  0.00    -0.460 OA
BRANCH  37  38
ATOM     38  C   UNL A   1      39.215  21.310  26.204  1.00  0.00     0.338 C 
ATOM     39  O   UNL A   1      39.929  20.372  25.943  1.00  0.00    -0.246 OA
BRANCH  38  40
ATOM     40  C   UNL A   1      39.714  22.598  26.737  1.00  0.00     0.060 A 
ATOM     41  C   UNL A   1      40.651  22.639  27.768  1.00  0.00     0.016 A 
ATOM     42  C   UNL A   1      39.235  23.781  26.160  1.00  0.00     0.016 A 
ATOM     43  C   UNL A   1      41.119  23.877  28.216  1.00  0.00     0.010 A 
ATOM     44  C   UNL A   1      39.703  25.017  26.612  1.00  0.00     0.010 A 
ATOM     45  C   UNL A   1      40.659  25.073  27.635  1.00  0.00    -0.014 A 
BRANCH  45  46
ATOM     46  C   UNL A   1      41.272  26.368  28.021  1.00  0.00     0.031 A 
ATOM     47  C   UNL A   1      42.697  26.699  27.688  1.00  0.00     0.074 A 
ATOM     48  C   UNL A   1      40.520  27.253  28.705  1.00  0.00     0.049 A 
ATOM     49  N   UNL A   1      43.343  27.819  27.889  1.00  0.00    -0.248 NA
ATOM     50  C   UNL A   1      43.504  25.645  27.055  1.00  0.00     0.031 C 
ATOM     51  C   UNL A   1      39.141  27.021  29.142  1.00  0.00     0.029 A 
ATOM     52  N   UNL A   1      40.803  28.519  29.152  1.00  0.00    -0.354 N 
ATOM     53  C   UNL A   1      44.630  27.609  27.415  1.00  0.00     0.074 A 
ATOM     54  C   UNL A   1      44.683  26.245  26.933  1.00  0.00     0.031 C 
ATOM     55  C   UNL A   1      38.692  28.115  29.774  1.00  0.00     0.029 A 
ATOM     56  C   UNL A   1      39.753  29.117  29.807  1.00  0.00     0.049 A 
ATOM     57  H   UNL A   1      41.675  28.956  29.017  1.00  0.00     0.167 HD
ATOM     58  C   UNL A   1      45.663  28.483  27.365  1.00  0.00     0.034 A 
ATOM     59  C   UNL A   1      39.649  30.338  30.367  1.00  0.00     0.034 A 
ATOM     60  C   UNL A   1      45.604  29.843  27.833  1.00  0.00     0.049 A 
ATOM     61  C   UNL A   1      40.808  31.289  30.293  1.00  0.00     0.074 A 
ATOM     62  C   UNL A   1      46.587  30.815  27.759  1.00  0.00     0.029 A 
ATOM     63  N   UNL A   1      44.518  30.419  28.471  1.00  0.00    -0.354 N 
ATOM     64  N   UNL A   1      41.972  31.117  29.717  1.00  0.00    -0.248 NA
ATOM     65  C   UNL A   1      40.633  32.608  30.919  1.00  0.00     0.031 C 
ATOM     66  C   UNL A   1      46.104  31.973  28.374  1.00  0.00     0.029 A 
ATOM     67  C   UNL A   1      44.810  31.730  28.808  1.00  0.00     0.049 A 
ATOM     68  H   UNL A   1      43.665  29.965  28.658  1.00  0.00     0.167 HD
ATOM     69  C   UNL A   1      42.662  32.310  29.893  1.00  0.00     0.074 A 
ATOM     70  C   UNL A   1      41.781  33.203  30.617  1.00  0.00     0.031 C 
ATOM     71  C   UNL A   1      43.917  32.627  29.494  1.00  0.00     0.034 A 
BRANCH  58  72
ATOM     72  C   UNL A   1      46.948  28.032  26.727  1.00  0.00     0.023 A 
ATOM     73  C   UNL A   1      47.943  27.445  27.534  1.00  0.00     0.012 A 
ATOM     74  C   UNL A   1      47.115  28.062  25.329  1.00  0.00     0.148 A 
ATOM     75  C   UNL A   1      49.088  26.897  26.961  1.00  0.00     0.002 A 
ATOM     76  C   UNL A   1      48.249  27.490  24.761  1.00  0.00     0.091 A 
ATOM     77  F   UNL A   1      46.156  28.630  24.584  1.00  0.00    -0.205 F 
ATOM     78  C   UNL A   1      49.236  26.910  25.576  1.00  0.00     0.022 A 
BRANCH  76  79
ATOM     79  S   UNL A   1      48.515  27.408  22.987  1.00  0.00     0.127 S 
ATOM     80  O   UNL A   1      47.404  28.219  22.488  1.00  0.00    -0.237 OA
ATOM     81  O   UNL A   1      49.833  28.027  22.847  1.00  0.00    -0.237 OA
ATOM     82  O   UNL A   1      48.457  25.998  22.633  1.00  0.00    -0.744 OA
ENDBRANCH  76  79
ENDBRANCH  58  72
BRANCH  59  83
ATOM     83  C   UNL A   1      38.359  30.740  30.988  1.00  0.00     0.023 A 
ATOM     84  C   UNL A   1      38.145  30.490  32.356  1.00  0.00     0.012 A 
ATOM     85  C   UNL A   1      37.386  31.440  30.250  1.00  0.00     0.148 A 
ATOM     86  C   UNL A   1      36.976  30.926  32.980  1.00  0.00     0.002 A 
ATOM     87  C   UNL A   1      36.241  31.903  30.885  1.00  0.00     0.091 A 
ATOM     88  F   UNL A   1      37.620  31.666  28.950  1.00  0.00    -0.205 F 
ATOM     89  C   UNL A   1      36.030  31.641  32.248  1.00  0.00     0.022 A 
BRANCH  87  90
ATOM     90  S   UNL A   1      35.009  32.910  30.053  1.00  0.00     0.127 S 
ATOM     91  O   UNL A   1      34.440  31.958  29.101  1.00  0.00    -0.237 OA
ATOM     92  O   UNL A   1      34.127  33.277  31.161  1.00  0.00    -0.237 OA
ATOM     93  O   UNL A   1      35.738  34.022  29.461  1.00  0.00    -0.744 OA
ENDBRANCH  87  90
ENDBRANCH  59  83
BRANCH  71  94
ATOM     94  C   UNL A   1      44.441  34.001  29.811  1.00  0.00     0.023 A 
ATOM     95  C   UNL A   1      45.307  34.177  30.907  1.00  0.00     0.012 A 
ATOM     96  C   UNL A   1      44.184  35.083  28.946  1.00  0.00     0.148 A 
ATOM     97  C   UNL A   1      45.909  35.412  31.139  1.00  0.00     0.002 A 
ATOM     98  C   UNL A   1      44.815  36.301  29.164  1.00  0.00     0.091 A 
ATOM     99  F   UNL A   1      43.352  34.888  27.913  1.00  0.00    -0.205 F 
ATOM    100  C   UNL A   1      45.675  36.469  30.262  1.00  0.00     0.022 A 
BRANCH  98 101
ATOM    101  S   UNL A   1      44.631  37.702  28.053  1.00  0.00     0.127 S 
ATOM    102  O   UNL A   1      43.197  37.970  28.147  1.00  0.00    -0.237 OA
ATOM    103  O   UNL A   1      45.483  38.709  28.686  1.00  0.00    -0.237 OA
ATOM    104  O   UNL A   1      45.091  37.248  26.748  1.00  0.00    -0.744 OA
ENDBRANCH  98 101
ENDBRANCH  71  94
ENDBRANCH  45  46
ENDBRANCH  38  40
ENDBRANCH  37  38
ENDBRANCH  36  37
ENDBRANCH   1  36
TORSDOF 18
ENDMDL
MODEL 2
REMARK VINA RESULT:     -14.1      0.763      7.020
REMARK SMILES C[C@]12C(=O)N(c3ccc(C(=O)OCCOCCOC(=O)c4ccc(-c5c6nc(c(-c7cccc(S(=O)(=O)[O-])c7F)c7ccc([nH]7)c(-c7cccc(S(=O)(=O)[O-])c7F)c7nc(c(-c8cccc(S(=O)(=O)[O-])c8F)c8ccc5[nH]8)C=C7)C=C6)cc4)cc3)C(=O)[C@H]1[C@H]1c3ccccc3[C@@H]2c2ccccc21
REMARK SMILES IDX 16 1 15 2 14 3 13 4 12 5 10 6 11 7 9 8 6 9 7 10 85 11 8 12
REMARK SMILES IDX 84 13 5 14 1 15 2 16 3 17 88 18 96 19 4 20 86 21 89 22 95 23
REMARK SMILES IDX 97 24 87 25 90 26 102 27 94 28 98 29 91 30 101 31 93 32
REMARK SMILES IDX 99 33 92 34 100 35 17 36 18 37 19 38 20 39 21 40 22 41 83 42
REMARK SMILES IDX 23 43 82 44 24 45 25 46 26 47 76 48 27 49 81 50 75 51 77 52
REMARK SMILES IDX 28 53 80 54 74 55 73 56 29 58 61 59 41 60 60 61 42 62 45 63
REMARK SMILES IDX 59 64 78 65 43 66 44 67 58 69 79 70 46 71 30 72 31 73 39 74
REMARK SMILES IDX 32 75 34 76 40 77 33 78 35 79 36 80 37 81 38 82 62 83 63 84
REMARK SMILES IDX 71 85 64 86 66 87 72 88 65 89 67 90 68 91 69 92 70 93 47 94
REMARK SMILES IDX 48 95 56 96 49 97 51 98 57 99 50 100 52 101 53 102 54 103
REMARK SMILES IDX 55 104
REMARK H PARENT 77 57 45 68
REMARK Flexibility Score: inf
ROOT
ATOM      1  C   UNL A   1      36.857  18.732  25.004  1.00  0.00     0.202 C 
ENDROOT
BRANCH   1   2
ATOM      2  O   UNL A   1      35.692  18.196  24.383  1.00  0.00    -0.374 OA
BRANCH   2   3
ATOM      3  C   UNL A   1      35.153  16.976  24.890  1.00  0.00     0.202 C 
BRANCH   3   4
ATOM      4  C   UNL A   1      34.023  16.302  24.105  1.00  0.00     0.261 C 
BRANCH   4   5
ATOM      5  O   UNL A   1      33.271  17.239  23.316  1.00  0.00    -0.460 OA
BRANCH   5   6
ATOM      6  C   UNL A   1      32.461  18.047  24.039  1.00  0.00     0.338 C 
ATOM      7  O   UNL A   1      31.787  17.752  25.012  1.00  0.00    -0.246 OA
BRANCH   6   8
ATOM      8  C   UNL A   1      32.661  19.448  23.640  1.00  0.00     0.060 A 
ATOM      9  C   UNL A   1      32.746  22.216  23.244  1.00  0.00     0.052 A 
ATOM     10  C   UNL A   1      33.398  21.633  24.342  1.00  0.00     0.028 A 
ATOM     11  C   UNL A   1      32.183  21.370  22.274  1.00  0.00     0.028 A 
ATOM     12  C   UNL A   1      33.313  20.265  24.563  1.00  0.00     0.018 A 
ATOM     13  C   UNL A   1      32.152  19.982  22.459  1.00  0.00     0.018 A 
BRANCH   9  14
ATOM     14  N   UNL A   1      32.445  23.600  23.289  1.00  0.00    -0.250 N 
ATOM     15  C   UNL A   1      32.872  27.024  22.884  1.00  0.00     0.024 C 
ATOM     16  C   UNL A   1      32.862  25.818  23.821  1.00  0.00     0.071 C 
ATOM     17  C   UNL A   1      33.344  24.603  23.076  1.00  0.00     0.241 C 
ATOM     18  C   UNL A   1      31.419  25.484  24.333  1.00  0.00     0.107 C 
ATOM     19  C   UNL A   1      33.887  25.884  25.027  1.00  0.00     0.066 C 
ATOM     20  O   UNL A   1      34.396  24.583  22.449  1.00  0.00    -0.273 OA
ATOM     21  C   UNL A   1      31.227  24.140  23.609  1.00  0.00     0.238 C 
ATOM     22  C   UNL A   1      31.412  25.707  25.890  1.00  0.00     0.063 C 
ATOM     23  C   UNL A   1      33.629  24.677  25.961  1.00  0.00    -0.036 A 
ATOM     24  C   UNL A   1      33.481  27.114  25.802  1.00  0.00    -0.036 A 
ATOM     25  O   UNL A   1      30.151  23.791  23.130  1.00  0.00    -0.274 OA
ATOM     26  C   UNL A   1      32.292  24.603  26.428  1.00  0.00    -0.036 A 
ATOM     27  C   UNL A   1      32.131  27.055  26.235  1.00  0.00    -0.036 A 
ATOM     28  C   UNL A   1      34.518  23.666  26.282  1.00  0.00     0.005 A 
ATOM     29  C   UNL A   1      34.326  28.180  26.105  1.00  0.00     0.005 A 
ATOM     30  C   UNL A   1      31.832  23.545  27.194  1.00  0.00     0.004 A 
ATOM     31  C   UNL A   1      31.638  28.112  26.989  1.00  0.00     0.004 A 
ATOM     32  C   UNL A   1      34.050  22.581  27.037  1.00  0.00     0.000 A 
ATOM     33  C   UNL A   1      33.818  29.225  26.866  1.00  0.00     0.000 A 
ATOM     34  C   UNL A   1      32.722  22.521  27.487  1.00  0.00     0.000 A 
ATOM     35  C   UNL A   1      32.485  29.192  27.302  1.00  0.00     0.000 A 
ENDBRANCH   9  14
ENDBRANCH   6   8
ENDBRANCH   5   6
ENDBRANCH   4   5
ENDBRANCH   3   4
ENDBRANCH   2   3
ENDBRANCH   1   2
BRANCH   1  36
ATOM     36  C   UNL A   1      37.318  20.146  24.624  1.00  0.00     0.261 C 
BRANCH  36  37
ATOM     37  O   UNL A   1      37.759  20.929  25.741  1.00  0.00    -0.460 OA
BRANCH  37  38
ATOM     38  C   UNL A   1      39.072  20.757  26.071  1.00  0.00     0.338 C 
ATOM     39  O   UNL A   1      39.746  19.772  25.896  1.00  0.00    -0.246 OA
BRANCH  38  40
ATOM     40  C   UNL A   1      39.620  22.060  26.514  1.00  0.00     0.060 A 
ATOM     41  C   UNL A   1      40.760  22.130  27.312  1.00  0.00     0.016 A 
ATOM     42  C   UNL A   1      38.973  23.227  26.089  1.00  0.00     0.016 A 
ATOM     43  C   UNL A   1      41.262  23.381  27.678  1.00  0.00     0.010 A 
ATOM     44  C   UNL A   1      39.475  24.477  26.458  1.00  0.00     0.010 A 
ATOM     45  C   UNL A   1      40.631  24.563  27.245  1.00  0.00    -0.014 A 
BRANCH  45  46
ATOM     46  C   UNL A   1      41.257  25.880  27.520  1.00  0.00     0.031 A 
ATOM     47  C   UNL A   1      40.529  26.960  28.265  1.00  0.00     0.074 A 
ATOM     48  C   UNL A   1      42.505  26.104  27.065  1.00  0.00     0.049 A 
ATOM     49  N   UNL A   1      40.974  28.129  28.650  1.00  0.00    -0.248 NA
ATOM     50  C   UNL A   1      39.125  26.705  28.624  1.00  0.00     0.031 C 
ATOM     51  C   UNL A   1      43.292  25.155  26.274  1.00  0.00     0.029 A 
ATOM     52  N   UNL A   1      43.331  27.190  27.201  1.00  0.00    -0.354 N 
ATOM     53  C   UNL A   1      39.912  28.752  29.289  1.00  0.00     0.074 A 
ATOM     54  C   UNL A   1      38.790  27.841  29.225  1.00  0.00     0.031 C 
ATOM     55  C   UNL A   1      44.493  25.692  26.013  1.00  0.00     0.029 A 
ATOM     56  C   UNL A   1      44.556  27.028  26.598  1.00  0.00     0.049 A 
ATOM     57  H   UNL A   1      43.072  28.008  27.684  1.00  0.00     0.167 HD
ATOM     58  C   UNL A   1      39.887  29.963  29.895  1.00  0.00     0.034 A 
ATOM     59  C   UNL A   1      45.617  27.855  26.527  1.00  0.00     0.034 A 
ATOM     60  C   UNL A   1      41.008  30.862  29.970  1.00  0.00     0.049 A 
ATOM     61  C   UNL A   1      45.563  29.190  27.212  1.00  0.00     0.074 A 
ATOM     62  C   UNL A   1      41.085  32.080  30.622  1.00  0.00     0.029 A 
ATOM     63  N   UNL A   1      42.237  30.653  29.365  1.00  0.00    -0.354 N 
ATOM     64  N   UNL A   1      44.594  29.703  27.929  1.00  0.00    -0.248 NA
ATOM     65  C   UNL A   1      46.752  30.047  27.103  1.00  0.00     0.031 C 
ATOM     66  C   UNL A   1      42.352  32.621  30.392  1.00  0.00     0.029 A 
ATOM     67  C   UNL A   1      43.074  31.727  29.618  1.00  0.00     0.049 A 
ATOM     68  H   UNL A   1      42.479  29.861  28.834  1.00  0.00     0.167 HD
ATOM     69  C   UNL A   1      45.062  30.933  28.374  1.00  0.00     0.074 A 
ATOM     70  C   UNL A   1      46.406  31.084  27.856  1.00  0.00     0.031 C 
ATOM     71  C   UNL A   1      44.424  31.855  29.134  1.00  0.00     0.034 A 
BRANCH  58  72
ATOM     72  C   UNL A   1      38.621  30.385  30.590  1.00  0.00     0.023 A 
ATOM     73  C   UNL A   1      38.472  30.108  31.963  1.00  0.00     0.012 A 
ATOM     74  C   UNL A   1      37.653  31.164  29.928  1.00  0.00     0.148 A 
ATOM     75  C   UNL A   1      37.374  30.597  32.669  1.00  0.00     0.002 A 
ATOM     76  C   UNL A   1      36.574  31.671  30.645  1.00  0.00     0.091 A 
ATOM     77  F   UNL A   1      37.817  31.410  28.620  1.00  0.00    -0.205 F 
ATOM     78  C   UNL A   1      36.433  31.386  32.014  1.00  0.00     0.022 A 
BRANCH  76  79
ATOM     79  S   UNL A   1      35.331  32.739  29.910  1.00  0.00     0.127 S 
ATOM     80  O   UNL A   1      34.403  32.918  31.026  1.00  0.00    -0.237 OA
ATOM     81  O   UNL A   1      36.112  33.928  29.569  1.00  0.00    -0.237 OA
ATOM     82  O   UNL A   1      34.793  32.010  28.771  1.00  0.00    -0.744 OA
ENDBRANCH  76  79
ENDBRANCH  58  72
BRANCH  59  83
ATOM     83  C   UNL A   1      46.845  27.396  25.827  1.00  0.00     0.023 A 
ATOM     84  C   UNL A   1      47.720  26.508  26.481  1.00  0.00     0.012 A 
ATOM     85  C   UNL A   1      47.102  27.767  24.494  1.00  0.00     0.148 A 
ATOM     86  C   UNL A   1      48.838  26.002  25.818  1.00  0.00     0.002 A 
ATOM     87  C   UNL A   1      48.197  27.230  23.828  1.00  0.00     0.091 A 
ATOM     88  F   UNL A   1      46.249  28.610  23.897  1.00  0.00    -0.205 F 
ATOM     89  C   UNL A   1      49.070  26.353  24.491  1.00  0.00     0.022 A 
BRANCH  87  90
ATOM     90  S   UNL A   1      48.529  27.549  22.093  1.00  0.00     0.127 S 
ATOM     91  O   UNL A   1      47.331  28.281  21.689  1.00  0.00    -0.237 OA
ATOM     92  O   UNL A   1      49.748  28.355  22.168  1.00  0.00    -0.237 OA
ATOM     93  O   UNL A   1      48.701  26.243  21.473  1.00  0.00    -0.744 OA
ENDBRANCH  87  90
ENDBRANCH  59  83
BRANCH  71  94
ATOM     94  C   UNL A   1      45.156  33.123  29.482  1.00  0.00     0.023 A 
ATOM     95  C   UNL A   1      45.971  33.160  30.629  1.00  0.00     0.012 A 
ATOM     96  C   UNL A   1      45.144  34.222  28.600  1.00  0.00     0.148 A 
ATOM     97  C   UNL A   1      46.762  34.276  30.897  1.00  0.00     0.002 A 
ATOM     98  C   UNL A   1      45.960  35.316  28.856  1.00  0.00     0.091 A 
ATOM     99  F   UNL A   1      44.355  34.161  27.518  1.00  0.00    -0.205 F 
ATOM    100  C   UNL A   1      46.768  35.347  30.006  1.00  0.00     0.022 A 
BRANCH  98 101
ATOM    101  S   UNL A   1      46.089  36.715  27.735  1.00  0.00     0.127 S 
ATOM    102  O   UNL A   1      44.695  36.907  27.337  1.00  0.00    -0.237 OA
ATOM    103  O   UNL A   1      46.625  37.760  28.607  1.00  0.00    -0.237 OA
ATOM    104  O   UNL A   1      46.985  36.296  26.665  1.00  0.00    -0.744 OA
ENDBRANCH  98 101
ENDBRANCH  71  94
ENDBRANCH  45  46
ENDBRANCH  38  40
ENDBRANCH  37  38
ENDBRANCH  36  37
ENDBRANCH   1  36
TORSDOF 18
ENDMDL
MODEL 3
REMARK VINA RESULT:     -13.0      1.953      7.116
REMARK SMILES C[C@]12C(=O)N(c3ccc(C(=O)OCCOCCOC(=O)c4ccc(-c5c6nc(c(-c7cccc(S(=O)(=O)[O-])c7F)c7ccc([nH]7)c(-c7cccc(S(=O)(=O)[O-])c7F)c7nc(c(-c8cccc(S(=O)(=O)[O-])c8F)c8ccc5[nH]8)C=C7)C=C6)cc4)cc3)C(=O)[C@H]1[C@H]1c3ccccc3[C@@H]2c2ccccc21
REMARK SMILES IDX 16 1 15 2 14 3 13 4 12 5 10 6 11 7 9 8 6 9 7 10 85 11 8 12
REMARK SMILES IDX 84 13 5 14 1 15 2 16 3 17 88 18 96 19 4 20 86 21 89 22 95 23
REMARK SMILES IDX 97 24 87 25 90 26 102 27 94 28 98 29 91 30 101 31 93 32
REMARK SMILES IDX 99 33 92 34 100 35 17 36 18 37 19 38 20 39 21 40 22 41 83 42
REMARK SMILES IDX 23 43 82 44 24 45 25 46 26 47 76 48 27 49 81 50 75 51 77 52
REMARK SMILES IDX 28 53 80 54 74 55 73 56 29 58 61 59 41 60 60 61 42 62 45 63
REMARK SMILES IDX 59 64 78 65 43 66 44 67 58 69 79 70 46 71 30 72 31 73 39 74
REMARK SMILES IDX 32 75 34 76 40 77 33 78 35 79 36 80 37 81 38 82 62 83 63 84
REMARK SMILES IDX 71 85 64 86 66 87 72 88 65 89 67 90 68 91 69 92 70 93 47 94
REMARK SMILES IDX 48 95 56 96 49 97 51 98 57 99 50 100 52 101 53 102 54 103
REMARK SMILES IDX 55 104
REMARK H PARENT 77 57 45 68
REMARK Flexibility Score: inf
ROOT
ATOM      1  C   UNL A   1      37.593  19.924  25.053  1.00  0.00     0.202 C 
ENDROOT
BRANCH   1   2
ATOM      2  O   UNL A   1      36.294  19.343  24.992  1.00  0.00    -0.374 OA
BRANCH   2   3
ATOM      3  C   UNL A   1      36.187  17.920  24.987  1.00  0.00     0.202 C 
BRANCH   3   4
ATOM      4  C   UNL A   1      34.805  17.299  24.754  1.00  0.00     0.261 C 
BRANCH   4   5
ATOM      5  O   UNL A   1      34.077  17.963  23.709  1.00  0.00    -0.460 OA
BRANCH   5   6
ATOM      6  C   UNL A   1      32.954  18.590  24.129  1.00  0.00     0.338 C 
ATOM      7  O   UNL A   1      32.143  18.201  24.953  1.00  0.00    -0.246 OA
BRANCH   6   8
ATOM      8  C   UNL A   1      32.929  19.971  23.622  1.00  0.00     0.060 A 
ATOM      9  C   UNL A   1      32.745  22.714  23.104  1.00  0.00     0.052 A 
ATOM     10  C   UNL A   1      33.794  22.206  23.886  1.00  0.00     0.028 A 
ATOM     11  C   UNL A   1      31.884  21.805  22.467  1.00  0.00     0.028 A 
ATOM     12  C   UNL A   1      33.855  20.850  24.182  1.00  0.00     0.018 A 
ATOM     13  C   UNL A   1      31.982  20.429  22.710  1.00  0.00     0.018 A 
BRANCH   9  14
ATOM     14  N   UNL A   1      32.431  24.092  23.201  1.00  0.00    -0.250 N 
ATOM     15  C   UNL A   1      32.822  27.533  22.919  1.00  0.00     0.024 C 
ATOM     16  C   UNL A   1      32.830  26.293  23.811  1.00  0.00     0.071 C 
ATOM     17  C   UNL A   1      33.319  25.111  23.019  1.00  0.00     0.241 C 
ATOM     18  C   UNL A   1      31.394  25.926  24.319  1.00  0.00     0.107 C 
ATOM     19  C   UNL A   1      33.863  26.325  25.012  1.00  0.00     0.066 C 
ATOM     20  O   UNL A   1      34.367  25.124  22.386  1.00  0.00    -0.273 OA
ATOM     21  C   UNL A   1      31.210  24.608  23.548  1.00  0.00     0.238 C 
ATOM     22  C   UNL A   1      31.395  26.092  25.884  1.00  0.00     0.063 C 
ATOM     23  C   UNL A   1      33.622  25.083  25.902  1.00  0.00    -0.036 A 
ATOM     24  C   UNL A   1      33.450  27.522  25.834  1.00  0.00    -0.036 A 
ATOM     25  O   UNL A   1      30.135  24.266  23.063  1.00  0.00    -0.274 OA
ATOM     26  C   UNL A   1      32.289  24.979  26.376  1.00  0.00    -0.036 A 
ATOM     27  C   UNL A   1      32.103  27.434  26.273  1.00  0.00    -0.036 A 
ATOM     28  C   UNL A   1      34.524  24.070  26.181  1.00  0.00     0.005 A 
ATOM     29  C   UNL A   1      34.286  28.584  26.171  1.00  0.00     0.005 A 
ATOM     30  C   UNL A   1      31.845  23.889  27.105  1.00  0.00     0.004 A 
ATOM     31  C   UNL A   1      31.605  28.457  27.069  1.00  0.00     0.004 A 
ATOM     32  C   UNL A   1      34.071  22.953  26.899  1.00  0.00     0.000 A 
ATOM     33  C   UNL A   1      33.773  29.596  26.973  1.00  0.00     0.000 A 
ATOM     34  C   UNL A   1      32.747  22.863  27.355  1.00  0.00     0.000 A 
ATOM     35  C   UNL A   1      32.444  29.534  27.415  1.00  0.00     0.000 A 
ENDBRANCH   9  14
ENDBRANCH   6   8
ENDBRANCH   5   6
ENDBRANCH   4   5
ENDBRANCH   3   4
ENDBRANCH   2   3
ENDBRANCH   1   2
BRANCH   1  36
ATOM     36  C   UNL A   1      37.733  21.447  24.918  1.00  0.00     0.261 C 
BRANCH  36  37
ATOM     37  O   UNL A   1      38.051  22.109  26.149  1.00  0.00    -0.460 OA
BRANCH  37  38
ATOM     38  C   UNL A   1      39.386  22.194  26.418  1.00  0.00     0.338 C 
ATOM     39  O   UNL A   1      40.239  21.383  26.151  1.00  0.00    -0.246 OA
BRANCH  38  40
ATOM     40  C   UNL A   1      39.677  23.553  26.930  1.00  0.00     0.060 A 
ATOM     41  C   UNL A   1      40.225  23.745  28.198  1.00  0.00     0.016 A 
ATOM     42  C   UNL A   1      39.408  24.644  26.096  1.00  0.00     0.016 A 
ATOM     43  C   UNL A   1      40.515  25.043  28.626  1.00  0.00     0.010 A 
ATOM     44  C   UNL A   1      39.696  25.941  26.527  1.00  0.00     0.010 A 
ATOM     45  C   UNL A   1      40.265  26.148  27.791  1.00  0.00    -0.014 A 
BRANCH  45  46
ATOM     46  C   UNL A   1      40.711  27.503  28.202  1.00  0.00     0.031 A 
ATOM     47  C   UNL A   1      39.742  28.538  28.693  1.00  0.00     0.074 A 
ATOM     48  C   UNL A   1      42.022  27.801  28.109  1.00  0.00     0.049 A 
ATOM     49  N   UNL A   1      39.994  29.734  29.162  1.00  0.00    -0.248 NA
ATOM     50  C   UNL A   1      38.312  28.199  28.652  1.00  0.00     0.031 C 
ATOM     51  C   UNL A   1      43.051  26.899  27.587  1.00  0.00     0.029 A 
ATOM     52  N   UNL A   1      42.712  28.937  28.446  1.00  0.00    -0.354 N 
ATOM     53  C   UNL A   1      38.762  30.293  29.467  1.00  0.00     0.074 A 
ATOM     54  C   UNL A   1      37.756  29.314  29.112  1.00  0.00     0.031 C 
ATOM     55  C   UNL A   1      44.244  27.508  27.660  1.00  0.00     0.029 A 
ATOM     56  C   UNL A   1      44.064  28.848  28.212  1.00  0.00     0.049 A 
ATOM     57  H   UNL A   1      42.281  29.739  28.820  1.00  0.00     0.167 HD
ATOM     58  C   UNL A   1      38.498  31.502  30.015  1.00  0.00     0.034 A 
ATOM     59  C   UNL A   1      45.052  29.739  28.422  1.00  0.00     0.034 A 
ATOM     60  C   UNL A   1      39.499  32.469  30.381  1.00  0.00     0.049 A 
ATOM     61  C   UNL A   1      44.732  31.070  29.036  1.00  0.00     0.074 A 
ATOM     62  C   UNL A   1      39.320  33.692  31.003  1.00  0.00     0.029 A 
ATOM     63  N   UNL A   1      40.858  32.334  30.147  1.00  0.00    -0.354 N 
ATOM     64  N   UNL A   1      43.573  31.526  29.445  1.00  0.00    -0.248 NA
ATOM     65  C   UNL A   1      45.853  31.999  29.245  1.00  0.00     0.031 C 
ATOM     66  C   UNL A   1      40.567  34.309  31.124  1.00  0.00     0.029 A 
ATOM     67  C   UNL A   1      41.528  33.458  30.601  1.00  0.00     0.049 A 
ATOM     68  H   UNL A   1      41.284  31.556  29.721  1.00  0.00     0.167 HD
ATOM     69  C   UNL A   1      43.826  32.784  29.976  1.00  0.00     0.074 A 
ATOM     70  C   UNL A   1      45.250  33.015  29.850  1.00  0.00     0.031 C 
ATOM     71  C   UNL A   1      42.949  33.667  30.509  1.00  0.00     0.034 A 
BRANCH  58  72
ATOM     72  C   UNL A   1      37.066  31.848  30.323  1.00  0.00     0.023 A 
ATOM     73  C   UNL A   1      36.546  31.538  31.594  1.00  0.00     0.012 A 
ATOM     74  C   UNL A   1      36.287  32.591  29.415  1.00  0.00     0.148 A 
ATOM     75  C   UNL A   1      35.268  31.958  31.959  1.00  0.00     0.002 A 
ATOM     76  C   UNL A   1      35.024  33.031  29.795  1.00  0.00     0.091 A 
ATOM     77  F   UNL A   1      36.804  32.870  28.209  1.00  0.00    -0.205 F 
ATOM     78  C   UNL A   1      34.513  32.714  31.065  1.00  0.00     0.022 A 
BRANCH  76  79
ATOM     79  S   UNL A   1      33.988  34.051  28.740  1.00  0.00     0.127 S 
ATOM     80  O   UNL A   1      34.932  35.083  28.313  1.00  0.00    -0.237 OA
ATOM     81  O   UNL A   1      33.599  33.109  27.691  1.00  0.00    -0.237 OA
ATOM     82  O   UNL A   1      32.896  34.523  29.578  1.00  0.00    -0.744 OA
ENDBRANCH  76  79
ENDBRANCH  58  72
BRANCH  59  83
ATOM     83  C   UNL A   1      46.452  29.353  28.101  1.00  0.00     0.023 A 
ATOM     84  C   UNL A   1      46.981  29.666  26.836  1.00  0.00     0.012 A 
ATOM     85  C   UNL A   1      47.280  28.757  29.071  1.00  0.00     0.148 A 
ATOM     86  C   UNL A   1      48.314  29.385  26.537  1.00  0.00     0.002 A 
ATOM     87  C   UNL A   1      48.617  28.513  28.780  1.00  0.00     0.091 A 
ATOM     88  F   UNL A   1      46.749  28.475  30.268  1.00  0.00    -0.205 F 
ATOM     89  C   UNL A   1      49.134  28.819  27.511  1.00  0.00     0.022 A 
BRANCH  87  90
ATOM     90  S   UNL A   1      49.773  27.873  29.995  1.00  0.00     0.127 S 
ATOM     91  O   UNL A   1      49.129  28.254  31.249  1.00  0.00    -0.237 OA
ATOM     92  O   UNL A   1      49.751  26.440  29.699  1.00  0.00    -0.237 OA
ATOM     93  O   UNL A   1      51.043  28.531  29.721  1.00  0.00    -0.744 OA
ENDBRANCH  87  90
ENDBRANCH  59  83
BRANCH  71  94
ATOM     94  C   UNL A   1      43.480  34.979  31.020  1.00  0.00     0.023 A 
ATOM     95  C   UNL A   1      44.034  35.046  32.313  1.00  0.00     0.012 A 
ATOM     96  C   UNL A   1      43.554  36.102  30.172  1.00  0.00     0.148 A 
ATOM     97  C   UNL A   1      44.652  36.214  32.756  1.00  0.00     0.002 A 
ATOM     98  C   UNL A   1      44.201  37.251  30.608  1.00  0.00     0.091 A 
ATOM     99  F   UNL A   1      43.014  36.011  28.948  1.00  0.00    -0.205 F 
ATOM    100  C   UNL A   1      44.748  37.310  31.901  1.00  0.00     0.022 A 
BRANCH  98 101
ATOM    101  S   UNL A   1      44.436  38.691  29.559  1.00  0.00     0.127 S 
ATOM    102  O   UNL A   1      43.057  39.112  29.318  1.00  0.00    -0.237 OA
ATOM    103  O   UNL A   1      45.204  39.582  30.428  1.00  0.00    -0.237 OA
ATOM    104  O   UNL A   1      45.154  38.221  28.381  1.00  0.00    -0.744 OA
ENDBRANCH  98 101
ENDBRANCH  71  94
ENDBRANCH  45  46
ENDBRANCH  38  40
ENDBRANCH  37  38
ENDBRANCH  36  37
ENDBRANCH   1  36
TORSDOF 18
ENDMDL
