MODEL 1
REMARK VINA RESULT:     -10.7      0.000      0.000
REMARK SMILES O=C(CC1(NC(=O)[C@]2(C(F)(F)F)CC[NH2+]C2)CCC1)OCCOCCOC(=O)c1ccc(-c2c3nc(c(-c4cccc(S(=O)(=O)[O-])c4F)c4ccc([nH]4)c(-c4cccc(S(=O)(=O)[O-])c4F)c4nc(c(-c5cccc(S(=O)(=O)[O-])c5F)c5ccc2[nH]5)C=C4)C=C3)cc1
REMARK SMILES IDX 22 1 21 2 20 3 2 4 1 5 3 6 4 7 17 8 19 9 18 10 5 11 6 12
REMARK SMILES IDX 7 14 8 15 13 16 16 17 14 18 15 19 9 22 10 23 11 24 12 25
REMARK SMILES IDX 23 26 24 27 25 28 26 29 27 30 28 31 29 32 30 33 91 34 31 35
REMARK SMILES IDX 90 36 32 37 33 38 34 39 84 40 35 41 89 42 83 43 85 44 36 45
REMARK SMILES IDX 88 46 82 47 81 48 37 50 69 51 49 52 68 53 50 54 53 55 67 56
REMARK SMILES IDX 86 57 51 58 52 59 66 61 87 62 54 63 38 64 39 65 47 66 40 67
REMARK SMILES IDX 42 68 48 69 41 70 43 71 44 72 45 73 46 74 70 75 71 76 79 77
REMARK SMILES IDX 72 78 74 79 80 80 73 81 75 82 76 83 77 84 78 85 55 86 56 87
REMARK SMILES IDX 64 88 57 89 59 90 65 91 58 92 60 93 61 94 62 95 63 96
REMARK H PARENT 5 13 15 20 15 21 85 49 53 60
REMARK Flexibility Score: inf
ROOT
ATOM      1  C   UNL A   1      32.608  29.692  26.136  1.00  0.00     0.202 C 
ENDROOT
BRANCH   1   2
ATOM      2  C   UNL A   1      31.883  29.279  24.868  1.00  0.00     0.261 C 
BRANCH   2   3
ATOM      3  O   UNL A   1      31.298  27.968  24.975  1.00  0.00    -0.463 OA
BRANCH   3   4
ATOM      4  C   UNL A   1      31.322  26.994  24.044  1.00  0.00     0.308 C 
ATOM      5  O   UNL A   1      31.969  27.064  23.005  1.00  0.00    -0.252 OA
BRANCH   4   6
ATOM      6  C   UNL A   1      30.664  25.754  24.426  1.00  0.00     0.151 C 
BRANCH   6   7
ATOM      7  C   UNL A   1      31.617  24.624  24.756  1.00  0.00     0.051 C 
ATOM      8  C   UNL A   1      31.874  24.645  26.331  1.00  0.00     0.029 C 
ATOM      9  C   UNL A   1      30.894  23.255  25.060  1.00  0.00     0.029 C 
ATOM     10  C   UNL A   1      30.654  23.730  26.505  1.00  0.00     0.005 C 
BRANCH   7  11
ATOM     11  N   UNL A   1      32.889  24.394  23.957  1.00  0.00    -0.349 N 
ATOM     12  C   UNL A   1      34.165  23.947  23.814  1.00  0.00     0.241 C 
ATOM     13  H   UNL A   1      32.677  24.771  23.072  1.00  0.00     0.164 HD
ATOM     14  O   UNL A   1      34.455  24.256  22.625  1.00  0.00    -0.274 OA
BRANCH  12  15
ATOM     15  C   UNL A   1      35.320  23.108  24.531  1.00  0.00     0.197 C 
ATOM     16  C   UNL A   1      34.693  21.671  24.766  1.00  0.00     0.094 C 
ATOM     17  C   UNL A   1      35.443  23.618  25.987  1.00  0.00     0.287 C 
ATOM     18  C   UNL A   1      34.617  21.475  26.276  1.00  0.00     0.262 C 
ATOM     19  N   UNL A   1      35.547  22.441  26.858  1.00  0.00    -0.345 N 
ATOM     20  H   UNL A   1      36.499  22.074  26.855  1.00  0.00     0.346 HD
ATOM     21  H   UNL A   1      35.327  22.657  27.831  1.00  0.00     0.346 HD
BRANCH  15  22
ATOM     22  C   UNL A   1      36.731  22.763  24.050  1.00  0.00     0.408 C 
ATOM     23  F   UNL A   1      37.682  23.413  24.751  1.00  0.00    -0.170 F 
ATOM     24  F   UNL A   1      37.030  21.457  23.984  1.00  0.00    -0.170 F 
ATOM     25  F   UNL A   1      36.904  23.156  22.744  1.00  0.00    -0.170 F 
ENDBRANCH  15  22
ENDBRANCH  12  15
ENDBRANCH   7  11
ENDBRANCH   6   7
ENDBRANCH   4   6
ENDBRANCH   3   4
ENDBRANCH   2   3
ENDBRANCH   1   2
BRANCH   1  26
ATOM     26  O   UNL A   1      31.886  30.543  27.018  1.00  0.00    -0.374 OA
BRANCH  26  27
ATOM     27  C   UNL A   1      31.352  31.740  26.437  1.00  0.00     0.202 C 
BRANCH  27  28
ATOM     28  C   UNL A   1      31.990  33.038  26.903  1.00  0.00     0.261 C 
BRANCH  28  29
ATOM     29  O   UNL A   1      32.904  32.760  27.976  1.00  0.00    -0.460 OA
BRANCH  29  30
ATOM     30  C   UNL A   1      34.003  33.549  27.998  1.00  0.00     0.338 C 
ATOM     31  O   UNL A   1      34.035  34.763  28.021  1.00  0.00    -0.246 OA
BRANCH  30  32
ATOM     32  C   UNL A   1      35.199  32.706  28.198  1.00  0.00     0.060 A 
ATOM     33  C   UNL A   1      35.006  31.316  28.278  1.00  0.00     0.016 A 
ATOM     34  C   UNL A   1      36.465  33.264  28.374  1.00  0.00     0.016 A 
ATOM     35  C   UNL A   1      36.057  30.489  28.647  1.00  0.00     0.010 A 
ATOM     36  C   UNL A   1      37.515  32.438  28.760  1.00  0.00     0.010 A 
ATOM     37  C   UNL A   1      37.288  31.066  28.967  1.00  0.00    -0.014 A 
BRANCH  37  38
ATOM     38  C   UNL A   1      38.250  30.308  29.787  1.00  0.00     0.031 A 
ATOM     39  C   UNL A   1      38.412  30.721  31.222  1.00  0.00     0.074 A 
ATOM     40  C   UNL A   1      38.988  29.325  29.251  1.00  0.00     0.049 A 
ATOM     41  N   UNL A   1      39.295  30.340  32.101  1.00  0.00    -0.248 NA
ATOM     42  C   UNL A   1      37.452  31.722  31.725  1.00  0.00     0.031 C 
ATOM     43  C   UNL A   1      38.883  28.851  27.873  1.00  0.00     0.029 A 
ATOM     44  N   UNL A   1      40.011  28.595  29.792  1.00  0.00    -0.354 N 
ATOM     45  C   UNL A   1      39.040  31.097  33.239  1.00  0.00     0.074 A 
ATOM     46  C   UNL A   1      37.918  31.956  32.942  1.00  0.00     0.031 C 
ATOM     47  C   UNL A   1      39.853  27.948  27.655  1.00  0.00     0.029 A 
ATOM     48  C   UNL A   1      40.663  27.820  28.865  1.00  0.00     0.049 A 
ATOM     49  H   UNL A   1      40.254  28.622  30.747  1.00  0.00     0.167 HD
ATOM     50  C   UNL A   1      39.693  31.079  34.424  1.00  0.00     0.034 A 
ATOM     51  C   UNL A   1      41.818  27.137  28.972  1.00  0.00     0.034 A 
ATOM     52  C   UNL A   1      40.805  30.212  34.692  1.00  0.00     0.049 A 
ATOM     53  C   UNL A   1      42.539  27.133  30.292  1.00  0.00     0.074 A 
ATOM     54  C   UNL A   1      41.509  30.049  35.870  1.00  0.00     0.029 A 
ATOM     55  N   UNL A   1      41.394  29.376  33.752  1.00  0.00    -0.354 N 
ATOM     56  N   UNL A   1      42.233  27.769  31.398  1.00  0.00    -0.248 NA
ATOM     57  C   UNL A   1      43.740  26.294  30.391  1.00  0.00     0.031 C 
ATOM     58  C   UNL A   1      42.554  29.152  35.629  1.00  0.00     0.029 A 
ATOM     59  C   UNL A   1      42.466  28.711  34.317  1.00  0.00     0.049 A 
ATOM     60  H   UNL A   1      41.092  29.273  32.822  1.00  0.00     0.167 HD
ATOM     61  C   UNL A   1      43.180  27.380  32.338  1.00  0.00     0.074 A 
ATOM     62  C   UNL A   1      44.068  26.449  31.668  1.00  0.00     0.031 C 
ATOM     63  C   UNL A   1      43.305  27.755  33.636  1.00  0.00     0.034 A 
BRANCH  50  64
ATOM     64  C   UNL A   1      39.231  32.038  35.490  1.00  0.00     0.023 A 
ATOM     65  C   UNL A   1      38.249  31.649  36.424  1.00  0.00     0.012 A 
ATOM     66  C   UNL A   1      39.774  33.336  35.566  1.00  0.00     0.148 A 
ATOM     67  C   UNL A   1      37.777  32.549  37.379  1.00  0.00     0.002 A 
ATOM     68  C   UNL A   1      39.339  34.211  36.554  1.00  0.00     0.091 A 
ATOM     69  F   UNL A   1      40.687  33.703  34.654  1.00  0.00    -0.205 F 
ATOM     70  C   UNL A   1      38.327  33.826  37.449  1.00  0.00     0.022 A 
BRANCH  68  71
ATOM     71  S   UNL A   1      40.049  35.845  36.778  1.00  0.00     0.127 S 
ATOM     72  O   UNL A   1      41.465  35.531  36.948  1.00  0.00    -0.237 OA
ATOM     73  O   UNL A   1      39.718  36.499  35.511  1.00  0.00    -0.237 OA
ATOM     74  O   UNL A   1      39.386  36.413  37.943  1.00  0.00    -0.744 OA
ENDBRANCH  68  71
ENDBRANCH  50  64
BRANCH  51  75
ATOM     75  C   UNL A   1      42.336  26.405  27.785  1.00  0.00     0.023 A 
ATOM     76  C   UNL A   1      43.308  27.005  26.964  1.00  0.00     0.012 A 
ATOM     77  C   UNL A   1      41.933  25.080  27.524  1.00  0.00     0.148 A 
ATOM     78  C   UNL A   1      43.864  26.301  25.895  1.00  0.00     0.002 A 
ATOM     79  C   UNL A   1      42.530  24.367  26.493  1.00  0.00     0.091 A 
ATOM     80  F   UNL A   1      41.003  24.533  28.320  1.00  0.00    -0.205 F 
ATOM     81  C   UNL A   1      43.486  24.980  25.668  1.00  0.00     0.022 A 
BRANCH  79  82
ATOM     82  S   UNL A   1      42.208  22.623  26.206  1.00  0.00     0.127 S 
ATOM     83  O   UNL A   1      42.947  22.382  24.969  1.00  0.00    -0.237 OA
ATOM     84  O   UNL A   1      42.791  22.014  27.402  1.00  0.00    -0.237 OA
ATOM     85  O   UNL A   1      40.760  22.497  26.106  1.00  0.00    -0.744 OA
ENDBRANCH  79  82
ENDBRANCH  51  75
BRANCH  63  86
ATOM     86  C   UNL A   1      44.400  27.118  34.448  1.00  0.00     0.023 A 
ATOM     87  C   UNL A   1      44.170  25.902  35.122  1.00  0.00     0.012 A 
ATOM     88  C   UNL A   1      45.692  27.679  34.446  1.00  0.00     0.148 A 
ATOM     89  C   UNL A   1      45.210  25.266  35.800  1.00  0.00     0.002 A 
ATOM     90  C   UNL A   1      46.733  27.012  35.077  1.00  0.00     0.091 A 
ATOM     91  F   UNL A   1      45.881  28.845  33.812  1.00  0.00    -0.205 F 
ATOM     92  C   UNL A   1      46.493  25.813  35.765  1.00  0.00     0.022 A 
BRANCH  90  93
ATOM     93  S   UNL A   1      48.434  27.583  34.991  1.00  0.00     0.127 S 
ATOM     94  O   UNL A   1      48.670  27.599  33.548  1.00  0.00    -0.237 OA
ATOM     95  O   UNL A   1      48.346  28.906  35.611  1.00  0.00    -0.237 OA
ATOM     96  O   UNL A   1      49.226  26.615  35.738  1.00  0.00    -0.744 OA
ENDBRANCH  90  93
ENDBRANCH  63  86
ENDBRANCH  37  38
ENDBRANCH  30  32
ENDBRANCH  29  30
ENDBRANCH  28  29
ENDBRANCH  27  28
ENDBRANCH  26  27
ENDBRANCH   1  26
TORSDOF 21
ENDMDL
MODEL 2
REMARK VINA RESULT:     -10.3      4.692     10.235
REMARK SMILES O=C(CC1(NC(=O)[C@]2(C(F)(F)F)CC[NH2+]C2)CCC1)OCCOCCOC(=O)c1ccc(-c2c3nc(c(-c4cccc(S(=O)(=O)[O-])c4F)c4ccc([nH]4)c(-c4cccc(S(=O)(=O)[O-])c4F)c4nc(c(-c5cccc(S(=O)(=O)[O-])c5F)c5ccc2[nH]5)C=C4)C=C3)cc1
REMARK SMILES IDX 22 1 21 2 20 3 2 4 1 5 3 6 4 7 17 8 19 9 18 10 5 11 6 12
REMARK SMILES IDX 7 14 8 15 13 16 16 17 14 18 15 19 9 22 10 23 11 24 12 25
REMARK SMILES IDX 23 26 24 27 25 28 26 29 27 30 28 31 29 32 30 33 91 34 31 35
REMARK SMILES IDX 90 36 32 37 33 38 34 39 84 40 35 41 89 42 83 43 85 44 36 45
REMARK SMILES IDX 88 46 82 47 81 48 37 50 69 51 49 52 68 53 50 54 53 55 67 56
REMARK SMILES IDX 86 57 51 58 52 59 66 61 87 62 54 63 38 64 39 65 47 66 40 67
REMARK SMILES IDX 42 68 48 69 41 70 43 71 44 72 45 73 46 74 70 75 71 76 79 77
REMARK SMILES IDX 72 78 74 79 80 80 73 81 75 82 76 83 77 84 78 85 55 86 56 87
REMARK SMILES IDX 64 88 57 89 59 90 65 91 58 92 60 93 61 94 62 95 63 96
REMARK H PARENT 5 13 15 20 15 21 85 49 53 60
REMARK Flexibility Score: inf
ROOT
ATOM      1  C   UNL A   1      37.227  21.688  25.596  1.00  0.00     0.202 C 
ENDROOT
BRANCH   1   2
ATOM      2  C   UNL A   1      35.909  22.366  25.926  1.00  0.00     0.261 C 
BRANCH   2   3
ATOM      3  O   UNL A   1      35.603  23.439  25.018  1.00  0.00    -0.463 OA
BRANCH   3   4
ATOM      4  C   UNL A   1      34.957  23.340  23.839  1.00  0.00     0.308 C 
ATOM      5  O   UNL A   1      35.507  23.471  22.751  1.00  0.00    -0.252 OA
BRANCH   4   6
ATOM      6  C   UNL A   1      33.578  22.886  23.923  1.00  0.00     0.151 C 
BRANCH   6   7
ATOM      7  C   UNL A   1      32.581  23.987  24.224  1.00  0.00     0.051 C 
ATOM      8  C   UNL A   1      31.789  24.311  22.876  1.00  0.00     0.029 C 
ATOM      9  C   UNL A   1      31.182  23.454  24.722  1.00  0.00     0.029 C 
ATOM     10  C   UNL A   1      30.774  23.223  23.256  1.00  0.00     0.005 C 
BRANCH   7  11
ATOM     11  N   UNL A   1      32.982  25.240  24.985  1.00  0.00    -0.349 N 
ATOM     12  C   UNL A   1      33.187  26.579  25.090  1.00  0.00     0.241 C 
ATOM     13  H   UNL A   1      33.222  24.899  25.877  1.00  0.00     0.164 HD
ATOM     14  O   UNL A   1      33.606  26.723  26.271  1.00  0.00    -0.274 OA
BRANCH  12  15
ATOM     15  C   UNL A   1      32.982  27.973  24.335  1.00  0.00     0.197 C 
ATOM     16  C   UNL A   1      33.865  29.008  25.147  1.00  0.00     0.094 C 
ATOM     17  C   UNL A   1      31.556  28.482  24.658  1.00  0.00     0.287 C 
ATOM     18  C   UNL A   1      32.898  30.023  25.746  1.00  0.00     0.262 C 
ATOM     19  N   UNL A   1      31.662  29.912  24.973  1.00  0.00    -0.345 N 
ATOM     20  H   UNL A   1      31.719  30.466  24.119  1.00  0.00     0.346 HD
ATOM     21  H   UNL A   1      30.851  30.258  25.485  1.00  0.00     0.346 HD
BRANCH  15  22
ATOM     22  C   UNL A   1      33.286  28.363  22.887  1.00  0.00     0.408 C 
ATOM     23  F   UNL A   1      33.390  27.288  22.080  1.00  0.00    -0.170 F 
ATOM     24  F   UNL A   1      32.465  29.268  22.334  1.00  0.00    -0.170 F 
ATOM     25  F   UNL A   1      34.501  29.001  22.806  1.00  0.00    -0.170 F 
ENDBRANCH  15  22
ENDBRANCH  12  15
ENDBRANCH   7  11
ENDBRANCH   6   7
ENDBRANCH   4   6
ENDBRANCH   3   4
ENDBRANCH   2   3
ENDBRANCH   1   2
BRANCH   1  26
ATOM     26  O   UNL A   1      37.144  20.524  24.783  1.00  0.00    -0.374 OA
BRANCH  26  27
ATOM     27  C   UNL A   1      38.222  19.588  24.919  1.00  0.00     0.202 C 
BRANCH  27  28
ATOM     28  C   UNL A   1      39.171  19.841  26.079  1.00  0.00     0.261 C 
BRANCH  28  29
ATOM     29  O   UNL A   1      40.525  19.680  25.629  1.00  0.00    -0.460 OA
BRANCH  29  30
ATOM     30  C   UNL A   1      41.465  19.976  26.555  1.00  0.00     0.338 C 
ATOM     31  O   UNL A   1      42.421  19.297  26.875  1.00  0.00    -0.246 OA
BRANCH  30  32
ATOM     32  C   UNL A   1      41.282  21.372  27.001  1.00  0.00     0.060 A 
ATOM     33  C   UNL A   1      40.678  22.265  26.099  1.00  0.00     0.016 A 
ATOM     34  C   UNL A   1      41.751  21.811  28.238  1.00  0.00     0.016 A 
ATOM     35  C   UNL A   1      40.645  23.623  26.385  1.00  0.00     0.010 A 
ATOM     36  C   UNL A   1      41.733  23.174  28.518  1.00  0.00     0.010 A 
ATOM     37  C   UNL A   1      41.248  24.080  27.559  1.00  0.00    -0.014 A 
BRANCH  37  38
ATOM     38  C   UNL A   1      41.640  25.497  27.665  1.00  0.00     0.031 A 
ATOM     39  C   UNL A   1      43.015  25.871  27.191  1.00  0.00     0.074 A 
ATOM     40  C   UNL A   1      40.816  26.399  28.216  1.00  0.00     0.049 A 
ATOM     41  N   UNL A   1      43.662  26.995  27.324  1.00  0.00    -0.248 NA
ATOM     42  C   UNL A   1      43.771  24.819  26.486  1.00  0.00     0.031 C 
ATOM     43  C   UNL A   1      39.461  26.124  28.687  1.00  0.00     0.029 A 
ATOM     44  N   UNL A   1      41.029  27.716  28.523  1.00  0.00    -0.354 N 
ATOM     45  C   UNL A   1      44.920  26.768  26.779  1.00  0.00     0.074 A 
ATOM     46  C   UNL A   1      44.946  25.403  26.308  1.00  0.00     0.031 C 
ATOM     47  C   UNL A   1      38.982  27.226  29.285  1.00  0.00     0.029 A 
ATOM     48  C   UNL A   1      40.015  28.260  29.271  1.00  0.00     0.049 A 
ATOM     49  H   UNL A   1      41.825  28.220  28.236  1.00  0.00     0.167 HD
ATOM     50  C   UNL A   1      45.962  27.626  26.687  1.00  0.00     0.034 A 
ATOM     51  C   UNL A   1      39.960  29.438  29.922  1.00  0.00     0.034 A 
ATOM     52  C   UNL A   1      45.907  28.980  27.161  1.00  0.00     0.049 A 
ATOM     53  C   UNL A   1      41.130  30.378  29.819  1.00  0.00     0.074 A 
ATOM     54  C   UNL A   1      46.870  29.967  27.068  1.00  0.00     0.029 A 
ATOM     55  N   UNL A   1      44.832  29.528  27.847  1.00  0.00    -0.354 N 
ATOM     56  N   UNL A   1      42.278  30.199  29.211  1.00  0.00    -0.248 NA
ATOM     57  C   UNL A   1      40.986  31.691  30.461  1.00  0.00     0.031 C 
ATOM     58  C   UNL A   1      46.395  31.097  27.740  1.00  0.00     0.029 A 
ATOM     59  C   UNL A   1      45.114  30.834  28.202  1.00  0.00     0.049 A 
ATOM     60  H   UNL A   1      43.993  29.057  28.049  1.00  0.00     0.167 HD
ATOM     61  C   UNL A   1      42.982  31.388  29.361  1.00  0.00     0.074 A 
ATOM     62  C   UNL A   1      42.125  32.281  30.117  1.00  0.00     0.031 C 
ATOM     63  C   UNL A   1      44.221  31.714  28.916  1.00  0.00     0.034 A 
BRANCH  50  64
ATOM     64  C   UNL A   1      47.240  27.109  26.078  1.00  0.00     0.023 A 
ATOM     65  C   UNL A   1      47.475  27.240  24.693  1.00  0.00     0.012 A 
ATOM     66  C   UNL A   1      48.215  26.487  26.883  1.00  0.00     0.148 A 
ATOM     67  C   UNL A   1      48.629  26.715  24.114  1.00  0.00     0.002 A 
ATOM     68  C   UNL A   1      49.388  26.015  26.308  1.00  0.00     0.091 A 
ATOM     69  F   UNL A   1      47.966  26.344  28.193  1.00  0.00    -0.205 F 
ATOM     70  C   UNL A   1      49.589  26.110  24.921  1.00  0.00     0.022 A 
BRANCH  68  71
ATOM     71  S   UNL A   1      50.719  25.299  27.278  1.00  0.00     0.127 S 
ATOM     72  O   UNL A   1      51.698  24.976  26.243  1.00  0.00    -0.237 OA
ATOM     73  O   UNL A   1      51.097  26.413  28.148  1.00  0.00    -0.237 OA
ATOM     74  O   UNL A   1      50.139  24.158  27.973  1.00  0.00    -0.744 OA
ENDBRANCH  68  71
ENDBRANCH  50  64
BRANCH  51  75
ATOM     75  C   UNL A   1      38.744  29.772  30.710  1.00  0.00     0.023 A 
ATOM     76  C   UNL A   1      38.629  29.325  32.039  1.00  0.00     0.012 A 
ATOM     77  C   UNL A   1      37.745  30.608  30.172  1.00  0.00     0.148 A 
ATOM     78  C   UNL A   1      37.532  29.697  32.818  1.00  0.00     0.002 A 
ATOM     79  C   UNL A   1      36.685  31.019  30.971  1.00  0.00     0.091 A 
ATOM     80  F   UNL A   1      37.877  31.018  28.903  1.00  0.00    -0.205 F 
ATOM     81  C   UNL A   1      36.569  30.554  32.290  1.00  0.00     0.022 A 
BRANCH  79  82
ATOM     82  S   UNL A   1      35.470  32.224  30.425  1.00  0.00     0.127 S 
ATOM     83  O   UNL A   1      36.301  33.401  30.187  1.00  0.00    -0.237 OA
ATOM     84  O   UNL A   1      34.942  31.587  29.218  1.00  0.00    -0.237 OA
ATOM     85  O   UNL A   1      34.511  32.345  31.515  1.00  0.00    -0.744 OA
ENDBRANCH  79  82
ENDBRANCH  51  75
BRANCH  63  86
ATOM     86  C   UNL A   1      44.713  33.113  29.171  1.00  0.00     0.023 A 
ATOM     87  C   UNL A   1      45.408  33.419  30.357  1.00  0.00     0.012 A 
ATOM     88  C   UNL A   1      44.577  34.097  28.171  1.00  0.00     0.148 A 
ATOM     89  C   UNL A   1      45.940  34.693  30.552  1.00  0.00     0.002 A 
ATOM     90  C   UNL A   1      45.158  35.345  28.349  1.00  0.00     0.091 A 
ATOM     91  F   UNL A   1      43.897  33.786  27.058  1.00  0.00    -0.205 F 
ATOM     92  C   UNL A   1      45.829  35.650  29.544  1.00  0.00     0.022 A 
BRANCH  90  93
ATOM     93  S   UNL A   1      45.158  36.598  27.063  1.00  0.00     0.127 S 
ATOM     94  O   UNL A   1      45.933  37.668  27.690  1.00  0.00    -0.237 OA
ATOM     95  O   UNL A   1      45.841  35.912  25.965  1.00  0.00    -0.237 OA
ATOM     96  O   UNL A   1      43.760  36.915  26.804  1.00  0.00    -0.744 OA
ENDBRANCH  90  93
ENDBRANCH  63  86
ENDBRANCH  37  38
ENDBRANCH  30  32
ENDBRANCH  29  30
ENDBRANCH  28  29
ENDBRANCH  27  28
ENDBRANCH  26  27
ENDBRANCH   1  26
TORSDOF 21
ENDMDL
MODEL 3
REMARK VINA RESULT:     -10.2      1.443      7.841
REMARK SMILES O=C(CC1(NC(=O)[C@]2(C(F)(F)F)CC[NH2+]C2)CCC1)OCCOCCOC(=O)c1ccc(-c2c3nc(c(-c4cccc(S(=O)(=O)[O-])c4F)c4ccc([nH]4)c(-c4cccc(S(=O)(=O)[O-])c4F)c4nc(c(-c5cccc(S(=O)(=O)[O-])c5F)c5ccc2[nH]5)C=C4)C=C3)cc1
REMARK SMILES IDX 22 1 21 2 20 3 2 4 1 5 3 6 4 7 17 8 19 9 18 10 5 11 6 12
REMARK SMILES IDX 7 14 8 15 13 16 16 17 14 18 15 19 9 22 10 23 11 24 12 25
REMARK SMILES IDX 23 26 24 27 25 28 26 29 27 30 28 31 29 32 30 33 91 34 31 35
REMARK SMILES IDX 90 36 32 37 33 38 34 39 84 40 35 41 89 42 83 43 85 44 36 45
REMARK SMILES IDX 88 46 82 47 81 48 37 50 69 51 49 52 68 53 50 54 53 55 67 56
REMARK SMILES IDX 86 57 51 58 52 59 66 61 87 62 54 63 38 64 39 65 47 66 40 67
REMARK SMILES IDX 42 68 48 69 41 70 43 71 44 72 45 73 46 74 70 75 71 76 79 77
REMARK SMILES IDX 72 78 74 79 80 80 73 81 75 82 76 83 77 84 78 85 55 86 56 87
REMARK SMILES IDX 64 88 57 89 59 90 65 91 58 92 60 93 61 94 62 95 63 96
REMARK H PARENT 5 13 15 20 15 21 85 49 53 60
REMARK Flexibility Score: inf
ROOT
ATOM      1  C   UNL A   1      33.100  29.357  26.393  1.00  0.00     0.202 C 
ENDROOT
BRANCH   1   2
ATOM      2  C   UNL A   1      33.099  29.269  24.877  1.00  0.00     0.261 C 
BRANCH   2   3
ATOM      3  O   UNL A   1      32.525  28.038  24.401  1.00  0.00    -0.463 OA
BRANCH   3   4
ATOM      4  C   UNL A   1      32.647  27.515  23.165  1.00  0.00     0.308 C 
ATOM      5  O   UNL A   1      33.650  27.641  22.471  1.00  0.00    -0.252 OA
BRANCH   4   6
ATOM      6  C   UNL A   1      31.571  26.625  22.758  1.00  0.00     0.151 C 
BRANCH   6   7
ATOM      7  C   UNL A   1      31.718  25.204  23.263  1.00  0.00     0.051 C 
ATOM      8  C   UNL A   1      31.566  25.232  24.852  1.00  0.00     0.029 C 
ATOM      9  C   UNL A   1      30.358  24.406  23.314  1.00  0.00     0.029 C 
ATOM     10  C   UNL A   1      30.051  25.062  24.672  1.00  0.00     0.005 C 
BRANCH   7  11
ATOM     11  N   UNL A   1      32.852  24.305  22.798  1.00  0.00    -0.349 N 
ATOM     12  C   UNL A   1      34.030  23.653  22.976  1.00  0.00     0.241 C 
ATOM     13  H   UNL A   1      32.597  24.073  21.875  1.00  0.00     0.164 HD
ATOM     14  O   UNL A   1      34.229  23.090  21.864  1.00  0.00    -0.274 OA
BRANCH  12  15
ATOM     15  C   UNL A   1      35.131  23.263  24.068  1.00  0.00     0.197 C 
ATOM     16  C   UNL A   1      34.637  21.884  24.670  1.00  0.00     0.094 C 
ATOM     17  C   UNL A   1      34.944  24.201  25.285  1.00  0.00     0.287 C 
ATOM     18  C   UNL A   1      34.325  22.142  26.140  1.00  0.00     0.262 C 
ATOM     19  N   UNL A   1      35.027  23.373  26.494  1.00  0.00    -0.345 N 
ATOM     20  H   UNL A   1      36.000  23.178  26.732  1.00  0.00     0.346 HD
ATOM     21  H   UNL A   1      34.620  23.833  27.309  1.00  0.00     0.346 HD
BRANCH  15  22
ATOM     22  C   UNL A   1      36.633  23.020  23.908  1.00  0.00     0.408 C 
ATOM     23  F   UNL A   1      37.368  23.824  24.703  1.00  0.00    -0.170 F 
ATOM     24  F   UNL A   1      37.043  21.749  24.045  1.00  0.00    -0.170 F 
ATOM     25  F   UNL A   1      37.034  23.307  22.625  1.00  0.00    -0.170 F 
ENDBRANCH  15  22
ENDBRANCH  12  15
ENDBRANCH   7  11
ENDBRANCH   6   7
ENDBRANCH   4   6
ENDBRANCH   3   4
ENDBRANCH   2   3
ENDBRANCH   1   2
BRANCH   1  26
ATOM     26  O   UNL A   1      32.010  30.059  26.978  1.00  0.00    -0.374 OA
BRANCH  26  27
ATOM     27  C   UNL A   1      31.458  31.125  26.193  1.00  0.00     0.202 C 
BRANCH  27  28
ATOM     28  C   UNL A   1      31.685  32.527  26.736  1.00  0.00     0.261 C 
BRANCH  28  29
ATOM     29  O   UNL A   1      32.525  32.455  27.899  1.00  0.00    -0.460 OA
BRANCH  29  30
ATOM     30  C   UNL A   1      33.507  33.384  27.942  1.00  0.00     0.338 C 
ATOM     31  O   UNL A   1      33.375  34.591  27.978  1.00  0.00    -0.246 OA
BRANCH  30  32
ATOM     32  C   UNL A   1      34.804  32.708  28.147  1.00  0.00     0.060 A 
ATOM     33  C   UNL A   1      34.779  31.410  28.683  1.00  0.00     0.016 A 
ATOM     34  C   UNL A   1      36.013  33.354  27.889  1.00  0.00     0.016 A 
ATOM     35  C   UNL A   1      35.962  30.796  29.070  1.00  0.00     0.010 A 
ATOM     36  C   UNL A   1      37.198  32.745  28.290  1.00  0.00     0.010 A 
ATOM     37  C   UNL A   1      37.160  31.502  28.946  1.00  0.00    -0.014 A 
BRANCH  37  38
ATOM     38  C   UNL A   1      38.326  31.093  29.750  1.00  0.00     0.031 A 
ATOM     39  C   UNL A   1      39.244  30.061  29.159  1.00  0.00     0.074 A 
ATOM     40  C   UNL A   1      38.523  31.587  30.980  1.00  0.00     0.049 A 
ATOM     41  N   UNL A   1      40.230  29.413  29.713  1.00  0.00    -0.248 NA
ATOM     42  C   UNL A   1      38.998  29.697  27.751  1.00  0.00     0.031 C 
ATOM     43  C   UNL A   1      37.690  32.602  31.621  1.00  0.00     0.029 A 
ATOM     44  N   UNL A   1      39.452  31.252  31.927  1.00  0.00    -0.354 N 
ATOM     45  C   UNL A   1      40.681  28.521  28.746  1.00  0.00     0.074 A 
ATOM     46  C   UNL A   1      39.865  28.713  27.571  1.00  0.00     0.031 C 
ATOM     47  C   UNL A   1      38.108  32.763  32.887  1.00  0.00     0.029 A 
ATOM     48  C   UNL A   1      39.205  31.833  33.146  1.00  0.00     0.049 A 
ATOM     49  H   UNL A   1      40.218  30.657  31.753  1.00  0.00     0.167 HD
ATOM     50  C   UNL A   1      41.683  27.618  28.840  1.00  0.00     0.034 A 
ATOM     51  C   UNL A   1      39.765  31.589  34.346  1.00  0.00     0.034 A 
ATOM     52  C   UNL A   1      42.480  27.450  30.022  1.00  0.00     0.049 A 
ATOM     53  C   UNL A   1      40.872  30.575  34.438  1.00  0.00     0.074 A 
ATOM     54  C   UNL A   1      43.565  26.618  30.221  1.00  0.00     0.029 A 
ATOM     55  N   UNL A   1      42.255  28.114  31.221  1.00  0.00    -0.354 N 
ATOM     56  N   UNL A   1      41.366  29.809  33.494  1.00  0.00    -0.248 NA
ATOM     57  C   UNL A   1      41.521  30.415  35.745  1.00  0.00     0.031 C 
ATOM     58  C   UNL A   1      43.966  26.744  31.555  1.00  0.00     0.029 A 
ATOM     59  C   UNL A   1      43.167  27.696  32.171  1.00  0.00     0.049 A 
ATOM     60  H   UNL A   1      41.550  28.784  31.371  1.00  0.00     0.167 HD
ATOM     61  C   UNL A   1      42.409  29.102  34.080  1.00  0.00     0.074 A 
ATOM     62  C   UNL A   1      42.476  29.537  35.462  1.00  0.00     0.031 C 
ATOM     63  C   UNL A   1      43.237  28.180  33.528  1.00  0.00     0.034 A 
BRANCH  50  64
ATOM     64  C   UNL A   1      41.944  26.738  27.644  1.00  0.00     0.023 A 
ATOM     65  C   UNL A   1      42.580  27.262  26.498  1.00  0.00     0.012 A 
ATOM     66  C   UNL A   1      41.555  25.384  27.654  1.00  0.00     0.148 A 
ATOM     67  C   UNL A   1      42.774  26.469  25.368  1.00  0.00     0.002 A 
ATOM     68  C   UNL A   1      41.801  24.586  26.545  1.00  0.00     0.091 A 
ATOM     69  F   UNL A   1      40.926  24.908  28.739  1.00  0.00    -0.205 F 
ATOM     70  C   UNL A   1      42.393  25.131  25.394  1.00  0.00     0.022 A 
BRANCH  68  71
ATOM     71  S   UNL A   1      41.424  22.830  26.516  1.00  0.00     0.127 S 
ATOM     72  O   UNL A   1      41.997  22.384  27.784  1.00  0.00    -0.237 OA
ATOM     73  O   UNL A   1      39.961  22.831  26.476  1.00  0.00    -0.237 OA
ATOM     74  O   UNL A   1      42.061  22.303  25.317  1.00  0.00    -0.744 OA
ENDBRANCH  68  71
ENDBRANCH  50  64
BRANCH  51  75
ATOM     75  C   UNL A   1      39.277  32.337  35.536  1.00  0.00     0.023 A 
ATOM     76  C   UNL A   1      38.385  31.718  36.431  1.00  0.00     0.012 A 
ATOM     77  C   UNL A   1      39.768  33.624  35.829  1.00  0.00     0.148 A 
ATOM     78  C   UNL A   1      37.981  32.374  37.594  1.00  0.00     0.002 A 
ATOM     79  C   UNL A   1      39.404  34.249  37.015  1.00  0.00     0.091 A 
ATOM     80  F   UNL A   1      40.615  34.192  34.959  1.00  0.00    -0.205 F 
ATOM     81  C   UNL A   1      38.500  33.632  37.893  1.00  0.00     0.022 A 
BRANCH  79  82
ATOM     82  S   UNL A   1      40.122  35.806  37.550  1.00  0.00     0.127 S 
ATOM     83  O   UNL A   1      41.549  35.498  37.539  1.00  0.00    -0.237 OA
ATOM     84  O   UNL A   1      39.679  36.716  36.493  1.00  0.00    -0.237 OA
ATOM     85  O   UNL A   1      39.550  36.078  38.862  1.00  0.00    -0.744 OA
ENDBRANCH  79  82
ENDBRANCH  51  75
BRANCH  63  86
ATOM     86  C   UNL A   1      44.334  27.616  34.391  1.00  0.00     0.023 A 
ATOM     87  C   UNL A   1      45.489  28.376  34.660  1.00  0.00     0.012 A 
ATOM     88  C   UNL A   1      44.158  26.370  35.025  1.00  0.00     0.148 A 
ATOM     89  C   UNL A   1      46.464  27.890  35.531  1.00  0.00     0.002 A 
ATOM     90  C   UNL A   1      45.105  25.919  35.933  1.00  0.00     0.091 A 
ATOM     91  F   UNL A   1      43.057  25.659  34.740  1.00  0.00    -0.205 F 
ATOM     92  C   UNL A   1      46.265  26.670  36.178  1.00  0.00     0.022 A 
BRANCH  90  93
ATOM     93  S   UNL A   1      44.881  24.417  36.892  1.00  0.00     0.127 S 
ATOM     94  O   UNL A   1      46.262  24.055  37.205  1.00  0.00    -0.237 OA
ATOM     95  O   UNL A   1      44.100  24.895  38.033  1.00  0.00    -0.237 OA
ATOM     96  O   UNL A   1      44.177  23.483  36.024  1.00  0.00    -0.744 OA
ENDBRANCH  90  93
ENDBRANCH  63  86
ENDBRANCH  37  38
ENDBRANCH  30  32
ENDBRANCH  29  30
ENDBRANCH  28  29
ENDBRANCH  27  28
ENDBRANCH  26  27
ENDBRANCH   1  26
TORSDOF 21
ENDMDL
