MODEL 1
REMARK VINA RESULT:     -11.4      0.000      0.000
REMARK SMILES COc1cc(/C=C2\SC(=S)N(CC(=O)OCCOCCOC(=O)c3ccc(-c4c5nc(c(-c6cccc(S(=O)(=O)[O-])c6F)c6ccc([nH]6)c(-c6cccc(S(=O)(=O)[O-])c6F)c6nc(c(-c7cccc(S(=O)(=O)[O-])c7F)c7ccc4[nH]7)C=C6)C=C5)cc3)C2=O)cc2c1OCO2
REMARK SMILES IDX 18 1 17 2 16 3 15 4 13 5 14 6 12 7 11 8 6 9 7 10 8 11 87 12
REMARK SMILES IDX 9 13 88 14 10 15 5 16 3 17 4 18 91 19 90 20 92 21 89 22
REMARK SMILES IDX 94 23 93 24 2 25 1 26 19 27 20 28 21 29 22 30 23 31 24 32
REMARK SMILES IDX 25 33 86 34 26 35 85 36 27 37 28 38 29 39 79 40 30 41 84 42
REMARK SMILES IDX 78 43 80 44 31 45 83 46 77 47 76 48 32 50 64 51 44 52 63 53
REMARK SMILES IDX 45 54 48 55 62 56 81 57 46 58 47 59 61 61 82 62 49 63 33 64
REMARK SMILES IDX 34 65 42 66 35 67 37 68 43 69 36 70 38 71 39 72 40 73 41 74
REMARK SMILES IDX 65 75 66 76 74 77 67 78 69 79 75 80 68 81 70 82 71 83 72 84
REMARK SMILES IDX 73 85 50 86 51 87 59 88 52 89 54 90 60 91 53 92 55 93 56 94
REMARK SMILES IDX 57 95 58 96
REMARK H PARENT 80 49 48 60
REMARK Flexibility Score: inf
ROOT
ATOM      1  O   UNL A   1      35.431  21.113  26.148  1.00  0.00    -0.374 OA
ENDROOT
BRANCH   1   2
ATOM      2  C   UNL A   1      34.493  22.173  25.947  1.00  0.00     0.202 C 
BRANCH   2   3
ATOM      3  C   UNL A   1      34.588  22.929  24.617  1.00  0.00     0.261 C 
BRANCH   3   4
ATOM      4  O   UNL A   1      33.866  22.263  23.562  1.00  0.00    -0.462 OA
BRANCH   4   5
ATOM      5  C   UNL A   1      32.583  21.921  23.857  1.00  0.00     0.326 C 
ATOM      6  O   UNL A   1      32.242  20.881  24.414  1.00  0.00    -0.250 OA
BRANCH   5   7
ATOM      7  C   UNL A   1      31.565  22.995  23.493  1.00  0.00     0.250 C 
BRANCH   7   8
ATOM      8  N   UNL A   1      31.587  24.236  24.270  1.00  0.00    -0.282 N 
ATOM      9  C   UNL A   1      32.714  27.671  24.418  1.00  0.00     0.029 C 
ATOM     10  C   UNL A   1      32.166  26.481  24.701  1.00  0.00     0.081 C 
ATOM     11  S   UNL A   1      31.482  25.956  26.185  1.00  0.00    -0.054 SA
ATOM     12  C   UNL A   1      32.145  25.372  23.713  1.00  0.00     0.266 C 
ATOM     13  C   UNL A   1      31.165  24.336  25.578  1.00  0.00     0.148 C 
ATOM     14  O   UNL A   1      32.630  25.460  22.593  1.00  0.00    -0.268 OA
ATOM     15  S   UNL A   1      30.496  23.141  26.526  1.00  0.00    -0.052 S 
BRANCH   9  16
ATOM     16  C   UNL A   1      32.929  28.751  25.385  1.00  0.00    -0.017 A 
ATOM     17  C   UNL A   1      34.224  29.742  27.215  1.00  0.00     0.165 A 
ATOM     18  C   UNL A   1      34.026  28.723  26.267  1.00  0.00     0.058 A 
ATOM     19  C   UNL A   1      33.321  30.791  27.225  1.00  0.00     0.207 A 
ATOM     20  C   UNL A   1      32.248  30.813  26.359  1.00  0.00     0.170 A 
ATOM     21  O   UNL A   1      33.336  31.902  28.016  1.00  0.00    -0.450 OA
ATOM     22  C   UNL A   1      32.016  29.808  25.444  1.00  0.00     0.059 A 
ATOM     23  O   UNL A   1      31.468  31.919  26.506  1.00  0.00    -0.453 OA
ATOM     24  C   UNL A   1      32.238  32.657  27.472  1.00  0.00     0.468 C 
BRANCH  17  25
ATOM     25  O   UNL A   1      35.321  29.579  28.009  1.00  0.00    -0.493 OA
ATOM     26  C   UNL A   1      36.589  29.735  27.381  1.00  0.00     0.278 C 
ENDBRANCH  17  25
ENDBRANCH   9  16
ENDBRANCH   7   8
ENDBRANCH   5   7
ENDBRANCH   4   5
ENDBRANCH   3   4
ENDBRANCH   2   3
ENDBRANCH   1   2
BRANCH   1  27
ATOM     27  C   UNL A   1      35.975  20.492  24.984  1.00  0.00     0.202 C 
BRANCH  27  28
ATOM     28  C   UNL A   1      37.492  20.261  24.967  1.00  0.00     0.261 C 
BRANCH  28  29
ATOM     29  O   UNL A   1      38.240  21.451  25.282  1.00  0.00    -0.460 OA
BRANCH  29  30
ATOM     30  C   UNL A   1      39.346  21.227  26.034  1.00  0.00     0.338 C 
ATOM     31  O   UNL A   1      40.039  20.215  26.037  1.00  0.00    -0.246 OA
BRANCH  30  32
ATOM     32  C   UNL A   1      39.755  22.443  26.759  1.00  0.00     0.060 A 
ATOM     33  C   UNL A   1      39.161  23.648  26.364  1.00  0.00     0.016 A 
ATOM     34  C   UNL A   1      40.767  22.435  27.723  1.00  0.00     0.016 A 
ATOM     35  C   UNL A   1      39.625  24.857  26.874  1.00  0.00     0.010 A 
ATOM     36  C   UNL A   1      41.233  23.654  28.235  1.00  0.00     0.010 A 
ATOM     37  C   UNL A   1      40.697  24.871  27.776  1.00  0.00    -0.014 A 
BRANCH  37  38
ATOM     38  C   UNL A   1      41.328  26.172  28.116  1.00  0.00     0.031 A 
ATOM     39  C   UNL A   1      42.725  26.464  27.637  1.00  0.00     0.074 A 
ATOM     40  C   UNL A   1      40.645  27.105  28.803  1.00  0.00     0.049 A 
ATOM     41  N   UNL A   1      43.425  27.563  27.751  1.00  0.00    -0.248 NA
ATOM     42  C   UNL A   1      43.425  25.375  26.939  1.00  0.00     0.031 C 
ATOM     43  C   UNL A   1      39.293  26.937  29.333  1.00  0.00     0.029 A 
ATOM     44  N   UNL A   1      41.003  28.374  29.182  1.00  0.00    -0.354 N 
ATOM     45  C   UNL A   1      44.653  27.293  27.158  1.00  0.00     0.074 A 
ATOM     46  C   UNL A   1      44.610  25.919  26.705  1.00  0.00     0.031 C 
ATOM     47  C   UNL A   1      38.942  28.057  29.988  1.00  0.00     0.029 A 
ATOM     48  C   UNL A   1      40.045  29.014  29.932  1.00  0.00     0.049 A 
ATOM     49  H   UNL A   1      41.864  28.786  28.941  1.00  0.00     0.167 HD
ATOM     50  C   UNL A   1      45.713  28.119  26.983  1.00  0.00     0.034 A 
ATOM     51  C   UNL A   1      40.058  30.232  30.512  1.00  0.00     0.034 A 
ATOM     52  C   UNL A   1      45.748  29.489  27.416  1.00  0.00     0.049 A 
ATOM     53  C   UNL A   1      41.245  31.134  30.305  1.00  0.00     0.074 A 
ATOM     54  C   UNL A   1      46.751  30.425  27.233  1.00  0.00     0.029 A 
ATOM     55  N   UNL A   1      44.743  30.118  28.135  1.00  0.00    -0.354 N 
ATOM     56  N   UNL A   1      42.338  30.915  29.614  1.00  0.00    -0.248 NA
ATOM     57  C   UNL A   1      41.185  32.467  30.923  1.00  0.00     0.031 C 
ATOM     58  C   UNL A   1      46.360  31.613  27.863  1.00  0.00     0.029 A 
ATOM     59  C   UNL A   1      45.105  31.424  28.417  1.00  0.00     0.049 A 
ATOM     60  H   UNL A   1      43.895  29.697  28.405  1.00  0.00     0.167 HD
ATOM     61  C   UNL A   1      43.081  32.088  29.689  1.00  0.00     0.074 A 
ATOM     62  C   UNL A   1      42.304  33.024  30.475  1.00  0.00     0.031 C 
ATOM     63  C   UNL A   1      44.303  32.361  29.165  1.00  0.00     0.034 A 
BRANCH  50  64
ATOM     64  C   UNL A   1      46.913  27.563  26.260  1.00  0.00     0.023 A 
ATOM     65  C   UNL A   1      47.820  26.734  26.954  1.00  0.00     0.012 A 
ATOM     66  C   UNL A   1      47.131  27.832  24.895  1.00  0.00     0.148 A 
ATOM     67  C   UNL A   1      48.944  26.216  26.311  1.00  0.00     0.002 A 
ATOM     68  C   UNL A   1      48.231  27.278  24.251  1.00  0.00     0.091 A 
ATOM     69  F   UNL A   1      46.274  28.642  24.257  1.00  0.00    -0.205 F 
ATOM     70  C   UNL A   1      49.145  26.480  24.959  1.00  0.00     0.022 A 
BRANCH  68  71
ATOM     71  S   UNL A   1      48.530  27.504  22.494  1.00  0.00     0.127 S 
ATOM     72  O   UNL A   1      49.818  28.197  22.500  1.00  0.00    -0.237 OA
ATOM     73  O   UNL A   1      48.584  26.124  22.006  1.00  0.00    -0.237 OA
ATOM     74  O   UNL A   1      47.401  28.275  21.994  1.00  0.00    -0.744 OA
ENDBRANCH  68  71
ENDBRANCH  50  64
BRANCH  51  75
ATOM     75  C   UNL A   1      38.875  30.678  31.299  1.00  0.00     0.023 A 
ATOM     76  C   UNL A   1      38.769  30.330  32.658  1.00  0.00     0.012 A 
ATOM     77  C   UNL A   1      37.887  31.498  30.719  1.00  0.00     0.148 A 
ATOM     78  C   UNL A   1      37.692  30.776  33.424  1.00  0.00     0.002 A 
ATOM     79  C   UNL A   1      36.845  31.984  31.500  1.00  0.00     0.091 A 
ATOM     80  F   UNL A   1      38.001  31.805  29.420  1.00  0.00    -0.205 F 
ATOM     81  C   UNL A   1      36.738  31.613  32.849  1.00  0.00     0.022 A 
BRANCH  79  82
ATOM     82  S   UNL A   1      35.649  33.173  30.881  1.00  0.00     0.127 S 
ATOM     83  O   UNL A   1      34.384  32.553  31.271  1.00  0.00    -0.237 OA
ATOM     84  O   UNL A   1      36.005  34.375  31.635  1.00  0.00    -0.237 OA
ATOM     85  O   UNL A   1      35.890  33.268  29.449  1.00  0.00    -0.744 OA
ENDBRANCH  79  82
ENDBRANCH  51  75
BRANCH  63  86
ATOM     86  C   UNL A   1      44.877  33.734  29.402  1.00  0.00     0.023 A 
ATOM     87  C   UNL A   1      45.585  33.998  30.591  1.00  0.00     0.012 A 
ATOM     88  C   UNL A   1      44.788  34.735  28.414  1.00  0.00     0.148 A 
ATOM     89  C   UNL A   1      46.170  35.246  30.806  1.00  0.00     0.002 A 
ATOM     90  C   UNL A   1      45.412  35.962  28.616  1.00  0.00     0.091 A 
ATOM     91  F   UNL A   1      44.094  34.473  27.297  1.00  0.00    -0.205 F 
ATOM     92  C   UNL A   1      46.094  36.222  29.816  1.00  0.00     0.022 A 
BRANCH  90  93
ATOM     93  S   UNL A   1      45.447  37.241  27.356  1.00  0.00     0.127 S 
ATOM     94  O   UNL A   1      46.226  38.289  28.015  1.00  0.00    -0.237 OA
ATOM     95  O   UNL A   1      46.137  36.574  26.251  1.00  0.00    -0.237 OA
ATOM     96  O   UNL A   1      44.055  37.573  27.083  1.00  0.00    -0.744 OA
ENDBRANCH  90  93
ENDBRANCH  63  86
ENDBRANCH  37  38
ENDBRANCH  30  32
ENDBRANCH  29  30
ENDBRANCH  28  29
ENDBRANCH  27  28
ENDBRANCH   1  27
TORSDOF 20
ENDMDL
MODEL 2
REMARK VINA RESULT:     -11.2      4.878     10.935
REMARK SMILES COc1cc(/C=C2\SC(=S)N(CC(=O)OCCOCCOC(=O)c3ccc(-c4c5nc(c(-c6cccc(S(=O)(=O)[O-])c6F)c6ccc([nH]6)c(-c6cccc(S(=O)(=O)[O-])c6F)c6nc(c(-c7cccc(S(=O)(=O)[O-])c7F)c7ccc4[nH]7)C=C6)C=C5)cc3)C2=O)cc2c1OCO2
REMARK SMILES IDX 18 1 17 2 16 3 15 4 13 5 14 6 12 7 11 8 6 9 7 10 8 11 87 12
REMARK SMILES IDX 9 13 88 14 10 15 5 16 3 17 4 18 91 19 90 20 92 21 89 22
REMARK SMILES IDX 94 23 93 24 2 25 1 26 19 27 20 28 21 29 22 30 23 31 24 32
REMARK SMILES IDX 25 33 86 34 26 35 85 36 27 37 28 38 29 39 79 40 30 41 84 42
REMARK SMILES IDX 78 43 80 44 31 45 83 46 77 47 76 48 32 50 64 51 44 52 63 53
REMARK SMILES IDX 45 54 48 55 62 56 81 57 46 58 47 59 61 61 82 62 49 63 33 64
REMARK SMILES IDX 34 65 42 66 35 67 37 68 43 69 36 70 38 71 39 72 40 73 41 74
REMARK SMILES IDX 65 75 66 76 74 77 67 78 69 79 75 80 68 81 70 82 71 83 72 84
REMARK SMILES IDX 73 85 50 86 51 87 59 88 52 89 54 90 60 91 53 92 55 93 56 94
REMARK SMILES IDX 57 95 58 96
REMARK H PARENT 80 49 48 60
REMARK Flexibility Score: inf
ROOT
ATOM      1  O   UNL A   1      32.409  31.149  26.951  1.00  0.00    -0.374 OA
ENDROOT
BRANCH   1   2
ATOM      2  C   UNL A   1      31.926  29.905  26.440  1.00  0.00     0.202 C 
BRANCH   2   3
ATOM      3  C   UNL A   1      32.003  29.713  24.921  1.00  0.00     0.261 C 
BRANCH   3   4
ATOM      4  O   UNL A   1      30.751  29.259  24.368  1.00  0.00    -0.462 OA
BRANCH   4   5
ATOM      5  C   UNL A   1      30.803  28.081  23.690  1.00  0.00     0.326 C 
ATOM      6  O   UNL A   1      29.842  27.349  23.477  1.00  0.00    -0.250 OA
BRANCH   5   7
ATOM      7  C   UNL A   1      32.184  27.758  23.134  1.00  0.00     0.250 C 
BRANCH   7   8
ATOM      8  N   UNL A   1      32.642  26.370  23.230  1.00  0.00    -0.282 N 
ATOM      9  C   UNL A   1      34.220  23.861  25.305  1.00  0.00     0.029 C 
ATOM     10  C   UNL A   1      33.641  24.514  24.288  1.00  0.00     0.081 C 
ATOM     11  S   UNL A   1      33.435  23.984  22.669  1.00  0.00    -0.054 SA
ATOM     12  C   UNL A   1      33.131  25.902  24.436  1.00  0.00     0.266 C 
ATOM     13  C   UNL A   1      32.708  25.502  22.161  1.00  0.00     0.148 C 
ATOM     14  O   UNL A   1      33.214  26.541  25.476  1.00  0.00    -0.268 OA
ATOM     15  S   UNL A   1      32.241  25.788  20.588  1.00  0.00    -0.052 S 
BRANCH   9  16
ATOM     16  C   UNL A   1      34.900  22.568  25.197  1.00  0.00    -0.017 A 
ATOM     17  C   UNL A   1      34.812  20.134  24.913  1.00  0.00     0.165 A 
ATOM     18  C   UNL A   1      34.170  21.382  24.990  1.00  0.00     0.058 A 
ATOM     19  C   UNL A   1      36.193  20.118  25.012  1.00  0.00     0.207 A 
ATOM     20  C   UNL A   1      36.904  21.282  25.215  1.00  0.00     0.170 A 
ATOM     21  O   UNL A   1      37.028  19.044  24.922  1.00  0.00    -0.450 OA
ATOM     22  C   UNL A   1      36.292  22.513  25.328  1.00  0.00     0.059 A 
ATOM     23  O   UNL A   1      38.249  21.080  25.285  1.00  0.00    -0.453 OA
ATOM     24  C   UNL A   1      38.319  19.677  24.974  1.00  0.00     0.468 C 
BRANCH  17  25
ATOM     25  O   UNL A   1      33.979  19.073  24.720  1.00  0.00    -0.493 OA
ATOM     26  C   UNL A   1      32.582  19.342  24.772  1.00  0.00     0.278 C 
ENDBRANCH  17  25
ENDBRANCH   9  16
ENDBRANCH   7   8
ENDBRANCH   5   7
ENDBRANCH   4   5
ENDBRANCH   3   4
ENDBRANCH   2   3
ENDBRANCH   1   2
BRANCH   1  27
ATOM     27  C   UNL A   1      31.546  32.281  26.835  1.00  0.00     0.202 C 
BRANCH  27  28
ATOM     28  C   UNL A   1      32.118  33.634  27.278  1.00  0.00     0.261 C 
BRANCH  28  29
ATOM     29  O   UNL A   1      32.716  33.584  28.588  1.00  0.00    -0.460 OA
BRANCH  29  30
ATOM     30  C   UNL A   1      33.838  34.335  28.714  1.00  0.00     0.338 C 
ATOM     31  O   UNL A   1      33.897  35.555  28.821  1.00  0.00    -0.246 OA
BRANCH  30  32
ATOM     32  C   UNL A   1      35.032  33.488  28.891  1.00  0.00     0.060 A 
ATOM     33  C   UNL A   1      34.862  32.293  29.603  1.00  0.00     0.016 A 
ATOM     34  C   UNL A   1      36.303  33.890  28.475  1.00  0.00     0.016 A 
ATOM     35  C   UNL A   1      35.970  31.533  29.967  1.00  0.00     0.010 A 
ATOM     36  C   UNL A   1      37.417  33.122  28.843  1.00  0.00     0.010 A 
ATOM     37  C   UNL A   1      37.259  31.968  29.630  1.00  0.00    -0.014 A 
BRANCH  37  38
ATOM     38  C   UNL A   1      38.426  31.275  30.233  1.00  0.00     0.031 A 
ATOM     39  C   UNL A   1      38.834  31.604  31.645  1.00  0.00     0.074 A 
ATOM     40  C   UNL A   1      39.088  30.327  29.546  1.00  0.00     0.049 A 
ATOM     41  N   UNL A   1      39.765  31.060  32.384  1.00  0.00    -0.248 NA
ATOM     42  C   UNL A   1      38.095  32.689  32.309  1.00  0.00     0.031 C 
ATOM     43  C   UNL A   1      38.800  29.930  28.170  1.00  0.00     0.029 A 
ATOM     44  N   UNL A   1      40.148  29.536  29.913  1.00  0.00    -0.354 N 
ATOM     45  C   UNL A   1      39.739  31.746  33.592  1.00  0.00     0.074 A 
ATOM     46  C   UNL A   1      38.715  32.762  33.478  1.00  0.00     0.031 C 
ATOM     47  C   UNL A   1      39.677  28.981  27.800  1.00  0.00     0.029 A 
ATOM     48  C   UNL A   1      40.592  28.712  28.907  1.00  0.00     0.049 A 
ATOM     49  H   UNL A   1      40.552  29.558  30.810  1.00  0.00     0.167 HD
ATOM     50  C   UNL A   1      40.482  31.537  34.706  1.00  0.00     0.034 A 
ATOM     51  C   UNL A   1      41.623  27.843  28.880  1.00  0.00     0.034 A 
ATOM     52  C   UNL A   1      41.487  30.516  34.825  1.00  0.00     0.049 A 
ATOM     53  C   UNL A   1      42.436  27.625  30.127  1.00  0.00     0.074 A 
ATOM     54  C   UNL A   1      42.252  30.183  35.930  1.00  0.00     0.029 A 
ATOM     55  N   UNL A   1      41.881  29.670  33.799  1.00  0.00    -0.354 N 
ATOM     56  N   UNL A   1      42.300  28.179  31.308  1.00  0.00    -0.248 NA
ATOM     57  C   UNL A   1      43.519  26.632  30.053  1.00  0.00     0.031 C 
ATOM     58  C   UNL A   1      43.125  29.152  35.563  1.00  0.00     0.029 A 
ATOM     59  C   UNL A   1      42.888  28.826  34.238  1.00  0.00     0.049 A 
ATOM     60  H   UNL A   1      41.500  29.669  32.891  1.00  0.00     0.167 HD
ATOM     61  C   UNL A   1      43.258  27.583  32.123  1.00  0.00     0.074 A 
ATOM     62  C   UNL A   1      43.953  26.610  31.306  1.00  0.00     0.031 C 
ATOM     63  C   UNL A   1      43.543  27.830  33.427  1.00  0.00     0.034 A 
BRANCH  50  64
ATOM     64  C   UNL A   1      40.208  32.417  35.898  1.00  0.00     0.023 A 
ATOM     65  C   UNL A   1      40.973  33.587  36.090  1.00  0.00     0.012 A 
ATOM     66  C   UNL A   1      39.180  32.109  36.810  1.00  0.00     0.148 A 
ATOM     67  C   UNL A   1      40.747  34.413  37.191  1.00  0.00     0.002 A 
ATOM     68  C   UNL A   1      38.933  32.959  37.883  1.00  0.00     0.091 A 
ATOM     69  F   UNL A   1      38.479  30.981  36.629  1.00  0.00    -0.205 F 
ATOM     70  C   UNL A   1      39.723  34.103  38.081  1.00  0.00     0.022 A 
BRANCH  68  71
ATOM     71  S   UNL A   1      37.587  32.680  39.039  1.00  0.00     0.127 S 
ATOM     72  O   UNL A   1      37.806  33.750  40.011  1.00  0.00    -0.237 OA
ATOM     73  O   UNL A   1      36.406  32.859  38.193  1.00  0.00    -0.237 OA
ATOM     74  O   UNL A   1      37.768  31.325  39.541  1.00  0.00    -0.744 OA
ENDBRANCH  68  71
ENDBRANCH  50  64
BRANCH  51  75
ATOM     75  C   UNL A   1      41.900  27.078  27.632  1.00  0.00     0.023 A 
ATOM     76  C   UNL A   1      42.447  27.738  26.516  1.00  0.00     0.012 A 
ATOM     77  C   UNL A   1      41.680  25.688  27.570  1.00  0.00     0.148 A 
ATOM     78  C   UNL A   1      42.756  27.031  25.354  1.00  0.00     0.002 A 
ATOM     79  C   UNL A   1      42.040  24.980  26.430  1.00  0.00     0.091 A 
ATOM     80  F   UNL A   1      41.145  25.084  28.640  1.00  0.00    -0.205 F 
ATOM     81  C   UNL A   1      42.565  25.651  25.315  1.00  0.00     0.022 A 
BRANCH  79  82
ATOM     82  S   UNL A   1      41.956  23.188  26.340  1.00  0.00     0.127 S 
ATOM     83  O   UNL A   1      40.517  22.952  26.425  1.00  0.00    -0.237 OA
ATOM     84  O   UNL A   1      42.548  22.927  25.027  1.00  0.00    -0.237 OA
ATOM     85  O   UNL A   1      42.743  22.698  27.462  1.00  0.00    -0.744 OA
ENDBRANCH  79  82
ENDBRANCH  51  75
BRANCH  63  86
ATOM     86  C   UNL A   1      44.643  27.024  34.068  1.00  0.00     0.023 A 
ATOM     87  C   UNL A   1      45.960  27.527  34.081  1.00  0.00     0.012 A 
ATOM     88  C   UNL A   1      44.360  25.813  34.730  1.00  0.00     0.148 A 
ATOM     89  C   UNL A   1      46.982  26.822  34.717  1.00  0.00     0.002 A 
ATOM     90  C   UNL A   1      45.375  25.139  35.400  1.00  0.00     0.091 A 
ATOM     91  F   UNL A   1      43.106  25.340  34.691  1.00  0.00    -0.205 F 
ATOM     92  C   UNL A   1      46.689  25.636  35.385  1.00  0.00     0.022 A 
BRANCH  90  93
ATOM     93  S   UNL A   1      45.069  23.655  36.367  1.00  0.00     0.127 S 
ATOM     94  O   UNL A   1      46.423  23.134  36.550  1.00  0.00    -0.237 OA
ATOM     95  O   UNL A   1      44.454  24.195  37.581  1.00  0.00    -0.237 OA
ATOM     96  O   UNL A   1      44.183  22.828  35.560  1.00  0.00    -0.744 OA
ENDBRANCH  90  93
ENDBRANCH  63  86
ENDBRANCH  37  38
ENDBRANCH  30  32
ENDBRANCH  29  30
ENDBRANCH  28  29
ENDBRANCH  27  28
ENDBRANCH   1  27
TORSDOF 20
ENDMDL
MODEL 3
REMARK VINA RESULT:     -11.1      5.106      9.129
REMARK SMILES COc1cc(/C=C2\SC(=S)N(CC(=O)OCCOCCOC(=O)c3ccc(-c4c5nc(c(-c6cccc(S(=O)(=O)[O-])c6F)c6ccc([nH]6)c(-c6cccc(S(=O)(=O)[O-])c6F)c6nc(c(-c7cccc(S(=O)(=O)[O-])c7F)c7ccc4[nH]7)C=C6)C=C5)cc3)C2=O)cc2c1OCO2
REMARK SMILES IDX 18 1 17 2 16 3 15 4 13 5 14 6 12 7 11 8 6 9 7 10 8 11 87 12
REMARK SMILES IDX 9 13 88 14 10 15 5 16 3 17 4 18 91 19 90 20 92 21 89 22
REMARK SMILES IDX 94 23 93 24 2 25 1 26 19 27 20 28 21 29 22 30 23 31 24 32
REMARK SMILES IDX 25 33 86 34 26 35 85 36 27 37 28 38 29 39 79 40 30 41 84 42
REMARK SMILES IDX 78 43 80 44 31 45 83 46 77 47 76 48 32 50 64 51 44 52 63 53
REMARK SMILES IDX 45 54 48 55 62 56 81 57 46 58 47 59 61 61 82 62 49 63 33 64
REMARK SMILES IDX 34 65 42 66 35 67 37 68 43 69 36 70 38 71 39 72 40 73 41 74
REMARK SMILES IDX 65 75 66 76 74 77 67 78 69 79 75 80 68 81 70 82 71 83 72 84
REMARK SMILES IDX 73 85 50 86 51 87 59 88 52 89 54 90 60 91 53 92 55 93 56 94
REMARK SMILES IDX 57 95 58 96
REMARK H PARENT 80 49 48 60
REMARK Flexibility Score: inf
ROOT
ATOM      1  O   UNL A   1      32.346  30.984  26.549  1.00  0.00    -0.374 OA
ENDROOT
BRANCH   1   2
ATOM      2  C   UNL A   1      31.806  29.689  26.274  1.00  0.00     0.202 C 
BRANCH   2   3
ATOM      3  C   UNL A   1      31.891  29.206  24.822  1.00  0.00     0.261 C 
BRANCH   3   4
ATOM      4  O   UNL A   1      30.668  28.578  24.386  1.00  0.00    -0.462 OA
BRANCH   4   5
ATOM      5  C   UNL A   1      30.561  27.251  24.664  1.00  0.00     0.326 C 
ATOM      6  O   UNL A   1      29.587  26.553  24.396  1.00  0.00    -0.250 OA
BRANCH   5   7
ATOM      7  C   UNL A   1      31.814  26.656  25.294  1.00  0.00     0.250 C 
BRANCH   7   8
ATOM      8  N   UNL A   1      32.217  25.318  24.859  1.00  0.00    -0.282 N 
ATOM      9  C   UNL A   1      32.471  21.818  25.740  1.00  0.00     0.029 C 
ATOM     10  C   UNL A   1      32.540  22.994  25.102  1.00  0.00     0.081 C 
ATOM     11  S   UNL A   1      33.331  23.351  23.622  1.00  0.00    -0.054 SA
ATOM     12  C   UNL A   1      31.954  24.233  25.676  1.00  0.00     0.266 C 
ATOM     13  C   UNL A   1      32.935  25.063  23.710  1.00  0.00     0.148 C 
ATOM     14  O   UNL A   1      31.387  24.269  26.760  1.00  0.00    -0.268 OA
ATOM     15  S   UNL A   1      33.437  26.157  22.559  1.00  0.00    -0.052 S 
BRANCH   9  16
ATOM     16  C   UNL A   1      33.167  20.595  25.330  1.00  0.00    -0.017 A 
ATOM     17  C   UNL A   1      35.247  19.379  24.880  1.00  0.00     0.165 A 
ATOM     18  C   UNL A   1      34.573  20.539  25.297  1.00  0.00     0.058 A 
ATOM     19  C   UNL A   1      34.477  18.280  24.536  1.00  0.00     0.207 A 
ATOM     20  C   UNL A   1      33.100  18.340  24.570  1.00  0.00     0.170 A 
ATOM     21  O   UNL A   1      34.905  17.045  24.149  1.00  0.00    -0.450 OA
ATOM     22  C   UNL A   1      32.418  19.478  24.944  1.00  0.00     0.059 A 
ATOM     23  O   UNL A   1      32.508  17.169  24.205  1.00  0.00    -0.453 OA
ATOM     24  C   UNL A   1      33.663  16.324  24.061  1.00  0.00     0.468 C 
BRANCH  17  25
ATOM     25  O   UNL A   1      36.607  19.473  24.889  1.00  0.00    -0.493 OA
ATOM     26  C   UNL A   1      37.154  20.787  24.877  1.00  0.00     0.278 C 
ENDBRANCH  17  25
ENDBRANCH   9  16
ENDBRANCH   7   8
ENDBRANCH   5   7
ENDBRANCH   4   5
ENDBRANCH   3   4
ENDBRANCH   2   3
ENDBRANCH   1   2
BRANCH   1  27
ATOM     27  C   UNL A   1      31.418  32.050  26.749  1.00  0.00     0.202 C 
BRANCH  27  28
ATOM     28  C   UNL A   1      32.001  33.466  26.847  1.00  0.00     0.261 C 
BRANCH  28  29
ATOM     29  O   UNL A   1      32.281  33.860  28.205  1.00  0.00    -0.460 OA
BRANCH  29  30
ATOM     30  C   UNL A   1      33.406  34.603  28.346  1.00  0.00     0.338 C 
ATOM     31  O   UNL A   1      33.483  35.827  28.333  1.00  0.00    -0.246 OA
BRANCH  30  32
ATOM     32  C   UNL A   1      34.562  33.762  28.704  1.00  0.00     0.060 A 
ATOM     33  C   UNL A   1      34.296  32.592  29.426  1.00  0.00     0.016 A 
ATOM     34  C   UNL A   1      35.879  34.150  28.444  1.00  0.00     0.016 A 
ATOM     35  C   UNL A   1      35.343  31.843  29.956  1.00  0.00     0.010 A 
ATOM     36  C   UNL A   1      36.932  33.394  28.979  1.00  0.00     0.010 A 
ATOM     37  C   UNL A   1      36.667  32.266  29.776  1.00  0.00    -0.014 A 
BRANCH  37  38
ATOM     38  C   UNL A   1      37.743  31.593  30.548  1.00  0.00     0.031 A 
ATOM     39  C   UNL A   1      38.577  30.531  29.884  1.00  0.00     0.074 A 
ATOM     40  C   UNL A   1      38.006  31.959  31.816  1.00  0.00     0.049 A 
ATOM     41  N   UNL A   1      39.613  29.883  30.348  1.00  0.00    -0.248 NA
ATOM     42  C   UNL A   1      38.193  30.150  28.516  1.00  0.00     0.031 C 
ATOM     43  C   UNL A   1      37.261  32.962  32.573  1.00  0.00     0.029 A 
ATOM     44  N   UNL A   1      38.966  31.517  32.691  1.00  0.00    -0.354 N 
ATOM     45  C   UNL A   1      39.993  29.004  29.341  1.00  0.00     0.074 A 
ATOM     46  C   UNL A   1      39.063  29.187  28.248  1.00  0.00     0.031 C 
ATOM     47  C   UNL A   1      37.780  33.045  33.810  1.00  0.00     0.029 A 
ATOM     48  C   UNL A   1      38.885  32.097  33.934  1.00  0.00     0.049 A 
ATOM     49  H   UNL A   1      39.647  30.848  32.451  1.00  0.00     0.167 HD
ATOM     50  C   UNL A   1      41.037  28.140  29.315  1.00  0.00     0.034 A 
ATOM     51  C   UNL A   1      39.615  31.884  35.047  1.00  0.00     0.034 A 
ATOM     52  C   UNL A   1      41.972  27.971  30.394  1.00  0.00     0.049 A 
ATOM     53  C   UNL A   1      40.770  30.919  34.998  1.00  0.00     0.074 A 
ATOM     54  C   UNL A   1      43.097  27.166  30.442  1.00  0.00     0.029 A 
ATOM     55  N   UNL A   1      41.885  28.607  31.623  1.00  0.00    -0.354 N 
ATOM     56  N   UNL A   1      41.207  30.205  33.988  1.00  0.00    -0.248 NA
ATOM     57  C   UNL A   1      41.560  30.760  36.228  1.00  0.00     0.031 C 
ATOM     58  C   UNL A   1      43.675  27.298  31.711  1.00  0.00     0.029 A 
ATOM     59  C   UNL A   1      42.925  28.203  32.443  1.00  0.00     0.049 A 
ATOM     60  H   UNL A   1      41.186  29.253  31.876  1.00  0.00     0.167 HD
ATOM     61  C   UNL A   1      42.335  29.536  34.450  1.00  0.00     0.074 A 
ATOM     62  C   UNL A   1      42.528  29.947  35.826  1.00  0.00     0.031 C 
ATOM     63  C   UNL A   1      43.132  28.652  33.798  1.00  0.00     0.034 A 
BRANCH  50  64
ATOM     64  C   UNL A   1      41.236  27.330  28.059  1.00  0.00     0.023 A 
ATOM     65  C   UNL A   1      41.781  27.947  26.914  1.00  0.00     0.012 A 
ATOM     66  C   UNL A   1      40.914  25.960  28.017  1.00  0.00     0.148 A 
ATOM     67  C   UNL A   1      41.966  27.223  25.736  1.00  0.00     0.002 A 
ATOM     68  C   UNL A   1      41.139  25.235  26.852  1.00  0.00     0.091 A 
ATOM     69  F   UNL A   1      40.373  25.395  29.106  1.00  0.00    -0.205 F 
ATOM     70  C   UNL A   1      41.653  25.867  25.708  1.00  0.00     0.022 A 
BRANCH  68  71
ATOM     71  S   UNL A   1      40.836  23.468  26.746  1.00  0.00     0.127 S 
ATOM     72  O   UNL A   1      41.641  23.099  25.582  1.00  0.00    -0.237 OA
ATOM     73  O   UNL A   1      41.359  22.983  28.025  1.00  0.00    -0.237 OA
ATOM     74  O   UNL A   1      39.396  23.320  26.590  1.00  0.00    -0.744 OA
ENDBRANCH  68  71
ENDBRANCH  50  64
BRANCH  51  75
ATOM     75  C   UNL A   1      39.298  32.647  36.286  1.00  0.00     0.023 A 
ATOM     76  C   UNL A   1      39.785  33.958  36.442  1.00  0.00     0.012 A 
ATOM     77  C   UNL A   1      38.465  32.099  37.281  1.00  0.00     0.148 A 
ATOM     78  C   UNL A   1      39.461  34.705  37.575  1.00  0.00     0.002 A 
ATOM     79  C   UNL A   1      38.102  32.867  38.381  1.00  0.00     0.091 A 
ATOM     80  F   UNL A   1      38.025  30.843  37.118  1.00  0.00    -0.205 F 
ATOM     81  C   UNL A   1      38.610  34.166  38.537  1.00  0.00     0.022 A 
BRANCH  79  82
ATOM     82  S   UNL A   1      36.907  32.305  39.598  1.00  0.00     0.127 S 
ATOM     83  O   UNL A   1      37.514  31.059  40.060  1.00  0.00    -0.237 OA
ATOM     84  O   UNL A   1      36.932  33.401  40.569  1.00  0.00    -0.237 OA
ATOM     85  O   UNL A   1      35.647  32.165  38.882  1.00  0.00    -0.744 OA
ENDBRANCH  79  82
ENDBRANCH  51  75
BRANCH  63  86
ATOM     86  C   UNL A   1      44.303  28.076  34.551  1.00  0.00     0.023 A 
ATOM     87  C   UNL A   1      45.543  28.744  34.531  1.00  0.00     0.012 A 
ATOM     88  C   UNL A   1      44.154  26.922  35.346  1.00  0.00     0.148 A 
ATOM     89  C   UNL A   1      46.624  28.256  35.264  1.00  0.00     0.002 A 
ATOM     90  C   UNL A   1      45.222  26.467  36.111  1.00  0.00     0.091 A 
ATOM     91  F   UNL A   1      42.972  26.288  35.339  1.00  0.00    -0.205 F 
ATOM     92  C   UNL A   1      46.461  27.126  36.063  1.00  0.00     0.022 A 
BRANCH  90  93
ATOM     93  S   UNL A   1      45.074  25.077  37.239  1.00  0.00     0.127 S 
ATOM     94  O   UNL A   1      45.175  23.939  36.326  1.00  0.00    -0.237 OA
ATOM     95  O   UNL A   1      46.233  25.260  38.115  1.00  0.00    -0.237 OA
ATOM     96  O   UNL A   1      43.788  25.235  37.902  1.00  0.00    -0.744 OA
ENDBRANCH  90  93
ENDBRANCH  63  86
ENDBRANCH  37  38
ENDBRANCH  30  32
ENDBRANCH  29  30
ENDBRANCH  28  29
ENDBRANCH  27  28
ENDBRANCH   1  27
TORSDOF 20
ENDMDL
