MODEL 1
REMARK VINA RESULT:     -10.4      0.000      0.000
REMARK SMILES CN(CC(=O)N1C[C@@H](O)C[C@H]1C(=O)OCCOCCOC(=O)c1ccc(-c2c3nc(c(-c4cccc(S(=O)(=O)[O-])c4F)c4ccc([nH]4)c(-c4cccc(S(=O)(=O)[O-])c4F)c4nc(c(-c5cccc(S(=O)(=O)[O-])c5F)c5ccc2[nH]5)C=C4)C=C3)cc1)C(=O)c1cccs1
REMARK SMILES IDX 16 1 15 2 14 3 12 4 13 5 11 6 6 7 7 8 8 9 10 10 4 11 5 12
REMARK SMILES IDX 3 13 2 14 1 15 86 16 87 17 88 18 89 19 92 20 90 21 91 22
REMARK SMILES IDX 9 23 17 25 18 26 19 27 20 28 21 29 22 30 23 31 24 32 85 33
REMARK SMILES IDX 25 34 84 35 26 36 27 37 28 38 78 39 29 40 83 41 77 42 79 43
REMARK SMILES IDX 30 44 82 45 76 46 75 47 31 49 63 50 43 51 62 52 44 53 47 54
REMARK SMILES IDX 61 55 80 56 45 57 46 58 60 60 81 61 48 62 32 63 33 64 41 65
REMARK SMILES IDX 34 66 36 67 42 68 35 69 37 70 38 71 39 72 40 73 64 74 65 75
REMARK SMILES IDX 73 76 66 77 68 78 74 79 67 80 69 81 70 82 71 83 72 84 49 85
REMARK SMILES IDX 50 86 58 87 51 88 53 89 59 90 52 91 54 92 55 93 56 94 57 95
REMARK H PARENT 9 24 79 48 47 59
REMARK Flexibility Score: inf
ROOT
ATOM      1  C   UNL A   1      34.543  22.469  26.200  1.00  0.00     0.202 C 
ENDROOT
BRANCH   1   2
ATOM      2  C   UNL A   1      33.271  22.195  27.015  1.00  0.00     0.261 C 
BRANCH   2   3
ATOM      3  O   UNL A   1      32.246  23.205  26.932  1.00  0.00    -0.462 OA
BRANCH   3   4
ATOM      4  C   UNL A   1      31.311  22.986  25.963  1.00  0.00     0.329 C 
ATOM      5  O   UNL A   1      30.568  22.009  25.920  1.00  0.00    -0.250 OA
BRANCH   4   6
ATOM      6  C   UNL A   1      31.381  23.979  24.796  1.00  0.00     0.197 C 
ATOM      7  N   UNL A   1      32.203  25.209  24.858  1.00  0.00    -0.325 N 
ATOM      8  C   UNL A   1      33.341  25.070  23.966  1.00  0.00     0.152 C 
ATOM      9  C   UNL A   1      32.783  24.208  22.840  1.00  0.00     0.136 C 
ATOM     10  C   UNL A   1      31.945  23.190  23.598  1.00  0.00     0.070 C 
BRANCH   7  11
ATOM     11  C   UNL A   1      31.676  26.330  25.455  1.00  0.00     0.243 C 
ATOM     12  O   UNL A   1      30.824  26.190  26.346  1.00  0.00    -0.273 OA
BRANCH  11  13
ATOM     13  C   UNL A   1      31.923  27.781  24.949  1.00  0.00     0.219 C 
BRANCH  13  14
ATOM     14  N   UNL A   1      31.912  28.175  23.543  1.00  0.00    -0.332 N 
ATOM     15  C   UNL A   1      33.185  28.622  22.984  1.00  0.00     0.147 C 
BRANCH  14  16
ATOM     16  C   UNL A   1      30.896  27.886  22.613  1.00  0.00     0.264 C 
ATOM     17  O   UNL A   1      31.062  26.958  21.818  1.00  0.00    -0.268 OA
BRANCH  16  18
ATOM     18  C   UNL A   1      29.644  28.634  22.653  1.00  0.00     0.092 A 
ATOM     19  C   UNL A   1      29.311  29.894  22.194  1.00  0.00     0.025 A 
ATOM     20  S   UNL A   1      28.273  27.863  23.355  1.00  0.00    -0.139 S 
ATOM     21  C   UNL A   1      27.969  30.258  22.517  1.00  0.00     0.012 A 
ATOM     22  C   UNL A   1      27.286  29.233  23.126  1.00  0.00     0.065 A 
ENDBRANCH  16  18
ENDBRANCH  14  16
ENDBRANCH  13  14
ENDBRANCH  11  13
ENDBRANCH   7  11
BRANCH   9  23
ATOM     23  O   UNL A   1      33.768  23.597  22.037  1.00  0.00    -0.391 OA
ATOM     24  H   UNL A   1      34.602  24.086  22.121  1.00  0.00     0.211 HD
ENDBRANCH   9  23
ENDBRANCH   4   6
ENDBRANCH   3   4
ENDBRANCH   2   3
ENDBRANCH   1   2
BRANCH   1  25
ATOM     25  O   UNL A   1      34.792  21.675  25.047  1.00  0.00    -0.374 OA
BRANCH  25  26
ATOM     26  C   UNL A   1      35.981  21.943  24.306  1.00  0.00     0.202 C 
BRANCH  26  27
ATOM     27  C   UNL A   1      37.227  21.112  24.636  1.00  0.00     0.261 C 
BRANCH  27  28
ATOM     28  O   UNL A   1      37.691  21.279  25.992  1.00  0.00    -0.460 OA
BRANCH  28  29
ATOM     29  C   UNL A   1      39.041  21.307  26.127  1.00  0.00     0.338 C 
ATOM     30  O   UNL A   1      39.833  20.454  25.745  1.00  0.00    -0.246 OA
BRANCH  29  31
ATOM     31  C   UNL A   1      39.500  22.574  26.722  1.00  0.00     0.060 A 
ATOM     32  C   UNL A   1      38.965  23.764  26.215  1.00  0.00     0.016 A 
ATOM     33  C   UNL A   1      40.553  22.608  27.637  1.00  0.00     0.016 A 
ATOM     34  C   UNL A   1      39.512  24.991  26.593  1.00  0.00     0.010 A 
ATOM     35  C   UNL A   1      41.103  23.838  28.013  1.00  0.00     0.010 A 
ATOM     36  C   UNL A   1      40.608  25.034  27.466  1.00  0.00    -0.014 A 
BRANCH  36  37
ATOM     37  C   UNL A   1      41.281  26.326  27.747  1.00  0.00     0.031 A 
ATOM     38  C   UNL A   1      42.704  26.543  27.311  1.00  0.00     0.074 A 
ATOM     39  C   UNL A   1      40.618  27.301  28.394  1.00  0.00     0.049 A 
ATOM     40  N   UNL A   1      43.449  27.612  27.429  1.00  0.00    -0.248 NA
ATOM     41  C   UNL A   1      43.379  25.410  26.658  1.00  0.00     0.031 C 
ATOM     42  C   UNL A   1      39.244  27.200  28.883  1.00  0.00     0.029 A 
ATOM     43  N   UNL A   1      41.019  28.558  28.767  1.00  0.00    -0.354 N 
ATOM     44  C   UNL A   1      44.680  27.282  26.873  1.00  0.00     0.074 A 
ATOM     45  C   UNL A   1      44.590  25.904  26.439  1.00  0.00     0.031 C 
ATOM     46  C   UNL A   1      38.920  28.344  29.508  1.00  0.00     0.029 A 
ATOM     47  C   UNL A   1      40.066  29.251  29.475  1.00  0.00     0.049 A 
ATOM     48  H   UNL A   1      41.903  28.930  28.548  1.00  0.00     0.167 HD
ATOM     49  C   UNL A   1      45.776  28.063  26.716  1.00  0.00     0.034 A 
ATOM     50  C   UNL A   1      40.113  30.475  30.037  1.00  0.00     0.034 A 
ATOM     51  C   UNL A   1      45.860  29.436  27.138  1.00  0.00     0.049 A 
ATOM     52  C   UNL A   1      41.355  31.312  29.874  1.00  0.00     0.074 A 
ATOM     53  C   UNL A   1      46.905  30.327  26.969  1.00  0.00     0.029 A 
ATOM     54  N   UNL A   1      44.866  30.113  27.826  1.00  0.00    -0.354 N 
ATOM     55  N   UNL A   1      42.452  31.040  29.210  1.00  0.00    -0.248 NA
ATOM     56  C   UNL A   1      41.351  32.638  30.508  1.00  0.00     0.031 C 
ATOM     57  C   UNL A   1      46.550  31.539  27.572  1.00  0.00     0.029 A 
ATOM     58  C   UNL A   1      45.278  31.406  28.105  1.00  0.00     0.049 A 
ATOM     59  H   UNL A   1      43.994  29.733  28.079  1.00  0.00     0.167 HD
ATOM     60  C   UNL A   1      43.257  32.168  29.322  1.00  0.00     0.074 A 
ATOM     61  C   UNL A   1      42.511  33.136  30.100  1.00  0.00     0.031 C 
ATOM     62  C   UNL A   1      44.507  32.377  28.839  1.00  0.00     0.034 A 
BRANCH  49  63
ATOM     63  C   UNL A   1      46.962  27.464  26.007  1.00  0.00     0.023 A 
ATOM     64  C   UNL A   1      47.058  27.585  24.605  1.00  0.00     0.012 A 
ATOM     65  C   UNL A   1      48.003  26.834  26.718  1.00  0.00     0.148 A 
ATOM     66  C   UNL A   1      48.156  27.068  23.920  1.00  0.00     0.002 A 
ATOM     67  C   UNL A   1      49.111  26.351  26.031  1.00  0.00     0.091 A 
ATOM     68  F   UNL A   1      47.884  26.707  28.047  1.00  0.00    -0.205 F 
ATOM     69  C   UNL A   1      49.185  26.459  24.633  1.00  0.00     0.022 A 
BRANCH  67  70
ATOM     70  S   UNL A   1      50.517  25.610  26.870  1.00  0.00     0.127 S 
ATOM     71  O   UNL A   1      49.899  24.454  27.517  1.00  0.00    -0.237 OA
ATOM     72  O   UNL A   1      51.408  25.281  25.756  1.00  0.00    -0.237 OA
ATOM     73  O   UNL A   1      51.029  26.637  27.768  1.00  0.00    -0.744 OA
ENDBRANCH  67  70
ENDBRANCH  49  63
BRANCH  50  74
ATOM     74  C   UNL A   1      38.920  31.005  30.753  1.00  0.00     0.023 A 
ATOM     75  C   UNL A   1      38.906  31.017  32.160  1.00  0.00     0.012 A 
ATOM     76  C   UNL A   1      37.821  31.538  30.050  1.00  0.00     0.148 A 
ATOM     77  C   UNL A   1      37.811  31.530  32.856  1.00  0.00     0.002 A 
ATOM     78  C   UNL A   1      36.758  32.096  30.749  1.00  0.00     0.091 A 
ATOM     79  F   UNL A   1      37.843  31.498  28.710  1.00  0.00    -0.205 F 
ATOM     80  C   UNL A   1      36.744  32.081  32.152  1.00  0.00     0.022 A 
BRANCH  78  81
ATOM     81  S   UNL A   1      35.414  32.952  29.918  1.00  0.00     0.127 S 
ATOM     82  O   UNL A   1      34.617  33.427  31.045  1.00  0.00    -0.237 OA
ATOM     83  O   UNL A   1      36.127  33.998  29.182  1.00  0.00    -0.237 OA
ATOM     84  O   UNL A   1      34.785  31.952  29.066  1.00  0.00    -0.744 OA
ENDBRANCH  78  81
ENDBRANCH  50  74
BRANCH  62  85
ATOM     85  C   UNL A   1      45.152  33.708  29.125  1.00  0.00     0.023 A 
ATOM     86  C   UNL A   1      45.895  33.877  30.310  1.00  0.00     0.012 A 
ATOM     87  C   UNL A   1      45.089  34.761  28.191  1.00  0.00     0.148 A 
ATOM     88  C   UNL A   1      46.546  35.081  30.573  1.00  0.00     0.002 A 
ATOM     89  C   UNL A   1      45.776  35.944  28.440  1.00  0.00     0.091 A 
ATOM     90  F   UNL A   1      44.360  34.588  27.079  1.00  0.00    -0.205 F 
ATOM     91  C   UNL A   1      46.496  36.110  29.634  1.00  0.00     0.022 A 
BRANCH  89  92
ATOM     92  S   UNL A   1      45.838  37.290  27.250  1.00  0.00     0.127 S 
ATOM     93  O   UNL A   1      44.435  37.691  27.180  1.00  0.00    -0.237 OA
ATOM     94  O   UNL A   1      46.716  38.254  27.914  1.00  0.00    -0.237 OA
ATOM     95  O   UNL A   1      46.389  36.716  26.030  1.00  0.00    -0.744 OA
ENDBRANCH  89  92
ENDBRANCH  62  85
ENDBRANCH  36  37
ENDBRANCH  29  31
ENDBRANCH  28  29
ENDBRANCH  27  28
ENDBRANCH  26  27
ENDBRANCH  25  26
ENDBRANCH   1  25
TORSDOF 23
ENDMDL
MODEL 2
REMARK VINA RESULT:     -10.3      1.110      7.784
REMARK SMILES CN(CC(=O)N1C[C@@H](O)C[C@H]1C(=O)OCCOCCOC(=O)c1ccc(-c2c3nc(c(-c4cccc(S(=O)(=O)[O-])c4F)c4ccc([nH]4)c(-c4cccc(S(=O)(=O)[O-])c4F)c4nc(c(-c5cccc(S(=O)(=O)[O-])c5F)c5ccc2[nH]5)C=C4)C=C3)cc1)C(=O)c1cccs1
REMARK SMILES IDX 16 1 15 2 14 3 12 4 13 5 11 6 6 7 7 8 8 9 10 10 4 11 5 12
REMARK SMILES IDX 3 13 2 14 1 15 86 16 87 17 88 18 89 19 92 20 90 21 91 22
REMARK SMILES IDX 9 23 17 25 18 26 19 27 20 28 21 29 22 30 23 31 24 32 85 33
REMARK SMILES IDX 25 34 84 35 26 36 27 37 28 38 78 39 29 40 83 41 77 42 79 43
REMARK SMILES IDX 30 44 82 45 76 46 75 47 31 49 63 50 43 51 62 52 44 53 47 54
REMARK SMILES IDX 61 55 80 56 45 57 46 58 60 60 81 61 48 62 32 63 33 64 41 65
REMARK SMILES IDX 34 66 36 67 42 68 35 69 37 70 38 71 39 72 40 73 64 74 65 75
REMARK SMILES IDX 73 76 66 77 68 78 74 79 67 80 69 81 70 82 71 83 72 84 49 85
REMARK SMILES IDX 50 86 58 87 51 88 53 89 59 90 52 91 54 92 55 93 56 94 57 95
REMARK H PARENT 9 24 79 48 47 59
REMARK Flexibility Score: inf
ROOT
ATOM      1  C   UNL A   1      34.833  22.490  25.877  1.00  0.00     0.202 C 
ENDROOT
BRANCH   1   2
ATOM      2  C   UNL A   1      33.829  21.867  26.858  1.00  0.00     0.261 C 
BRANCH   2   3
ATOM      3  O   UNL A   1      32.461  22.294  26.708  1.00  0.00    -0.462 OA
BRANCH   3   4
ATOM      4  C   UNL A   1      31.855  21.864  25.565  1.00  0.00     0.329 C 
ATOM      5  O   UNL A   1      31.754  20.686  25.230  1.00  0.00    -0.250 OA
BRANCH   4   6
ATOM      6  C   UNL A   1      31.459  22.995  24.608  1.00  0.00     0.197 C 
ATOM      7  N   UNL A   1      31.786  24.412  24.888  1.00  0.00    -0.325 N 
ATOM      8  C   UNL A   1      32.813  24.858  23.964  1.00  0.00     0.152 C 
ATOM      9  C   UNL A   1      32.506  24.057  22.705  1.00  0.00     0.136 C 
ATOM     10  C   UNL A   1      32.160  22.688  23.271  1.00  0.00     0.070 C 
BRANCH   7  11
ATOM     11  C   UNL A   1      30.945  25.139  25.699  1.00  0.00     0.243 C 
ATOM     12  O   UNL A   1      30.257  24.540  26.540  1.00  0.00    -0.273 OA
BRANCH  11  13
ATOM     13  C   UNL A   1      30.639  26.652  25.498  1.00  0.00     0.219 C 
BRANCH  13  14
ATOM     14  N   UNL A   1      30.898  27.387  24.263  1.00  0.00    -0.332 N 
ATOM     15  C   UNL A   1      29.799  27.452  23.304  1.00  0.00     0.147 C 
BRANCH  14  16
ATOM     16  C   UNL A   1      31.964  28.277  24.041  1.00  0.00     0.264 C 
ATOM     17  O   UNL A   1      32.248  28.590  22.883  1.00  0.00    -0.268 OA
BRANCH  16  18
ATOM     18  C   UNL A   1      32.662  28.869  25.178  1.00  0.00     0.092 A 
ATOM     19  C   UNL A   1      33.876  28.573  25.767  1.00  0.00     0.025 A 
ATOM     20  S   UNL A   1      31.918  30.209  25.965  1.00  0.00    -0.139 S 
ATOM     21  C   UNL A   1      34.136  29.372  26.921  1.00  0.00     0.012 A 
ATOM     22  C   UNL A   1      33.162  30.319  27.125  1.00  0.00     0.065 A 
ENDBRANCH  16  18
ENDBRANCH  14  16
ENDBRANCH  13  14
ENDBRANCH  11  13
ENDBRANCH   7  11
BRANCH   9  23
ATOM     23  O   UNL A   1      33.569  24.000  21.781  1.00  0.00    -0.391 OA
ATOM     24  H   UNL A   1      33.868  24.901  21.578  1.00  0.00     0.211 HD
ENDBRANCH   9  23
ENDBRANCH   4   6
ENDBRANCH   3   4
ENDBRANCH   2   3
ENDBRANCH   1   2
BRANCH   1  25
ATOM     25  O   UNL A   1      35.201  21.748  24.722  1.00  0.00    -0.374 OA
BRANCH  25  26
ATOM     26  C   UNL A   1      36.548  21.860  24.267  1.00  0.00     0.202 C 
BRANCH  26  27
ATOM     27  C   UNL A   1      37.534  20.763  24.689  1.00  0.00     0.261 C 
BRANCH  27  28
ATOM     28  O   UNL A   1      37.958  20.865  26.065  1.00  0.00    -0.460 OA
BRANCH  28  29
ATOM     29  C   UNL A   1      39.303  20.906  26.239  1.00  0.00     0.338 C 
ATOM     30  O   UNL A   1      40.109  20.039  25.924  1.00  0.00    -0.246 OA
BRANCH  29  31
ATOM     31  C   UNL A   1      39.739  22.203  26.783  1.00  0.00     0.060 A 
ATOM     32  C   UNL A   1      39.168  23.363  26.244  1.00  0.00     0.016 A 
ATOM     33  C   UNL A   1      40.804  22.294  27.681  1.00  0.00     0.016 A 
ATOM     34  C   UNL A   1      39.690  24.614  26.572  1.00  0.00     0.010 A 
ATOM     35  C   UNL A   1      41.329  23.550  28.005  1.00  0.00     0.010 A 
ATOM     36  C   UNL A   1      40.797  24.714  27.426  1.00  0.00    -0.014 A 
BRANCH  36  37
ATOM     37  C   UNL A   1      41.442  26.030  27.653  1.00  0.00     0.031 A 
ATOM     38  C   UNL A   1      40.742  27.081  28.468  1.00  0.00     0.074 A 
ATOM     39  C   UNL A   1      42.654  26.283  27.125  1.00  0.00     0.049 A 
ATOM     40  N   UNL A   1      41.158  28.274  28.810  1.00  0.00    -0.248 NA
ATOM     41  C   UNL A   1      39.397  26.749  28.965  1.00  0.00     0.031 C 
ATOM     42  C   UNL A   1      43.421  25.351  26.301  1.00  0.00     0.029 A 
ATOM     43  N   UNL A   1      43.440  27.405  27.190  1.00  0.00    -0.354 N 
ATOM     44  C   UNL A   1      40.127  28.838  29.554  1.00  0.00     0.074 A 
ATOM     45  C   UNL A   1      39.056  27.866  29.594  1.00  0.00     0.031 C 
ATOM     46  C   UNL A   1      44.564  25.946  25.920  1.00  0.00     0.029 A 
ATOM     47  C   UNL A   1      44.602  27.303  26.463  1.00  0.00     0.049 A 
ATOM     48  H   UNL A   1      43.196  28.206  27.707  1.00  0.00     0.167 HD
ATOM     49  C   UNL A   1      40.088  30.045  30.169  1.00  0.00     0.034 A 
ATOM     50  C   UNL A   1      45.583  28.203  26.254  1.00  0.00     0.034 A 
ATOM     51  C   UNL A   1      41.159  31.006  30.137  1.00  0.00     0.049 A 
ATOM     52  C   UNL A   1      45.501  29.550  26.924  1.00  0.00     0.074 A 
ATOM     53  C   UNL A   1      41.237  32.230  30.778  1.00  0.00     0.029 A 
ATOM     54  N   UNL A   1      42.332  30.858  29.415  1.00  0.00    -0.354 N 
ATOM     55  N   UNL A   1      44.591  30.006  27.751  1.00  0.00    -0.248 NA
ATOM     56  C   UNL A   1      46.598  30.492  26.660  1.00  0.00     0.031 C 
ATOM     57  C   UNL A   1      42.451  32.831  30.427  1.00  0.00     0.029 A 
ATOM     58  C   UNL A   1      43.134  31.975  29.579  1.00  0.00     0.049 A 
ATOM     59  H   UNL A   1      42.562  30.074  28.866  1.00  0.00     0.167 HD
ATOM     60  C   UNL A   1      45.018  31.275  28.127  1.00  0.00     0.074 A 
ATOM     61  C   UNL A   1      46.281  31.506  27.455  1.00  0.00     0.031 C 
ATOM     62  C   UNL A   1      44.411  32.173  28.942  1.00  0.00     0.034 A 
BRANCH  49  63
ATOM     63  C   UNL A   1      38.861  30.375  30.978  1.00  0.00     0.023 A 
ATOM     64  C   UNL A   1      38.770  29.912  32.307  1.00  0.00     0.012 A 
ATOM     65  C   UNL A   1      37.830  31.180  30.454  1.00  0.00     0.148 A 
ATOM     66  C   UNL A   1      37.661  30.222  33.093  1.00  0.00     0.002 A 
ATOM     67  C   UNL A   1      36.744  31.514  31.257  1.00  0.00     0.091 A 
ATOM     68  F   UNL A   1      37.922  31.591  29.182  1.00  0.00    -0.205 F 
ATOM     69  C   UNL A   1      36.654  31.030  32.572  1.00  0.00     0.022 A 
BRANCH  67  70
ATOM     70  S   UNL A   1      35.429  32.602  30.694  1.00  0.00     0.127 S 
ATOM     71  O   UNL A   1      36.144  33.867  30.527  1.00  0.00    -0.237 OA
ATOM     72  O   UNL A   1      35.013  31.967  29.443  1.00  0.00    -0.237 OA
ATOM     73  O   UNL A   1      34.421  32.582  31.746  1.00  0.00    -0.744 OA
ENDBRANCH  67  70
ENDBRANCH  49  63
BRANCH  50  74
ATOM     74  C   UNL A   1      46.760  27.833  25.419  1.00  0.00     0.023 A 
ATOM     75  C   UNL A   1      46.721  28.058  24.031  1.00  0.00     0.012 A 
ATOM     76  C   UNL A   1      47.929  27.303  25.998  1.00  0.00     0.148 A 
ATOM     77  C   UNL A   1      47.818  27.743  23.229  1.00  0.00     0.002 A 
ATOM     78  C   UNL A   1      49.038  27.042  25.201  1.00  0.00     0.091 A 
ATOM     79  F   UNL A   1      47.940  27.075  27.319  1.00  0.00    -0.205 F 
ATOM     80  C   UNL A   1      48.980  27.247  23.815  1.00  0.00     0.022 A 
BRANCH  78  81
ATOM     81  S   UNL A   1      50.616  26.538  25.897  1.00  0.00     0.127 S 
ATOM     82  O   UNL A   1      51.448  26.422  24.703  1.00  0.00    -0.237 OA
ATOM     83  O   UNL A   1      50.940  27.668  26.769  1.00  0.00    -0.237 OA
ATOM     84  O   UNL A   1      50.347  25.297  26.611  1.00  0.00    -0.744 OA
ENDBRANCH  78  81
ENDBRANCH  50  74
BRANCH  62  85
ATOM     85  C   UNL A   1      45.106  33.491  29.167  1.00  0.00     0.023 A 
ATOM     86  C   UNL A   1      45.978  33.636  30.263  1.00  0.00     0.012 A 
ATOM     87  C   UNL A   1      44.957  34.555  28.255  1.00  0.00     0.148 A 
ATOM     88  C   UNL A   1      46.673  34.827  30.464  1.00  0.00     0.002 A 
ATOM     89  C   UNL A   1      45.687  35.725  28.438  1.00  0.00     0.091 A 
ATOM     90  F   UNL A   1      44.108  34.405  27.229  1.00  0.00    -0.205 F 
ATOM     91  C   UNL A   1      46.537  35.867  29.546  1.00  0.00     0.022 A 
BRANCH  89  92
ATOM     92  S   UNL A   1      45.639  37.082  27.260  1.00  0.00     0.127 S 
ATOM     93  O   UNL A   1      46.131  36.439  26.044  1.00  0.00    -0.237 OA
ATOM     94  O   UNL A   1      44.217  37.426  27.236  1.00  0.00    -0.237 OA
ATOM     95  O   UNL A   1      46.499  38.119  27.814  1.00  0.00    -0.744 OA
ENDBRANCH  89  92
ENDBRANCH  62  85
ENDBRANCH  36  37
ENDBRANCH  29  31
ENDBRANCH  28  29
ENDBRANCH  27  28
ENDBRANCH  26  27
ENDBRANCH  25  26
ENDBRANCH   1  25
TORSDOF 23
ENDMDL
MODEL 3
REMARK VINA RESULT:     -10.3      1.699      2.187
REMARK SMILES CN(CC(=O)N1C[C@@H](O)C[C@H]1C(=O)OCCOCCOC(=O)c1ccc(-c2c3nc(c(-c4cccc(S(=O)(=O)[O-])c4F)c4ccc([nH]4)c(-c4cccc(S(=O)(=O)[O-])c4F)c4nc(c(-c5cccc(S(=O)(=O)[O-])c5F)c5ccc2[nH]5)C=C4)C=C3)cc1)C(=O)c1cccs1
REMARK SMILES IDX 16 1 15 2 14 3 12 4 13 5 11 6 6 7 7 8 8 9 10 10 4 11 5 12
REMARK SMILES IDX 3 13 2 14 1 15 86 16 87 17 88 18 89 19 92 20 90 21 91 22
REMARK SMILES IDX 9 23 17 25 18 26 19 27 20 28 21 29 22 30 23 31 24 32 85 33
REMARK SMILES IDX 25 34 84 35 26 36 27 37 28 38 78 39 29 40 83 41 77 42 79 43
REMARK SMILES IDX 30 44 82 45 76 46 75 47 31 49 63 50 43 51 62 52 44 53 47 54
REMARK SMILES IDX 61 55 80 56 45 57 46 58 60 60 81 61 48 62 32 63 33 64 41 65
REMARK SMILES IDX 34 66 36 67 42 68 35 69 37 70 38 71 39 72 40 73 64 74 65 75
REMARK SMILES IDX 73 76 66 77 68 78 74 79 67 80 69 81 70 82 71 83 72 84 49 85
REMARK SMILES IDX 50 86 58 87 51 88 53 89 59 90 52 91 54 92 55 93 56 94 57 95
REMARK H PARENT 9 24 79 48 47 59
REMARK Flexibility Score: inf
ROOT
ATOM      1  C   UNL A   1      35.037  22.056  26.049  1.00  0.00     0.202 C 
ENDROOT
BRANCH   1   2
ATOM      2  C   UNL A   1      33.979  21.450  26.982  1.00  0.00     0.261 C 
BRANCH   2   3
ATOM      3  O   UNL A   1      32.641  21.961  26.826  1.00  0.00    -0.462 OA
BRANCH   3   4
ATOM      4  C   UNL A   1      32.017  21.575  25.677  1.00  0.00     0.329 C 
ATOM      5  O   UNL A   1      31.952  20.416  25.273  1.00  0.00    -0.250 OA
BRANCH   4   6
ATOM      6  C   UNL A   1      31.547  22.744  24.802  1.00  0.00     0.197 C 
ATOM      7  N   UNL A   1      31.758  24.156  25.197  1.00  0.00    -0.325 N 
ATOM      8  C   UNL A   1      32.760  24.751  24.331  1.00  0.00     0.152 C 
ATOM      9  C   UNL A   1      32.534  24.029  23.008  1.00  0.00     0.136 C 
ATOM     10  C   UNL A   1      32.289  22.597  23.460  1.00  0.00     0.070 C 
BRANCH   7  11
ATOM     11  C   UNL A   1      30.851  24.750  26.044  1.00  0.00     0.243 C 
ATOM     12  O   UNL A   1      30.262  24.047  26.879  1.00  0.00    -0.273 OA
BRANCH  11  13
ATOM     13  C   UNL A   1      30.357  26.218  25.895  1.00  0.00     0.219 C 
BRANCH  13  14
ATOM     14  N   UNL A   1      30.311  26.947  24.630  1.00  0.00    -0.332 N 
ATOM     15  C   UNL A   1      29.189  26.644  23.746  1.00  0.00     0.147 C 
BRANCH  14  16
ATOM     16  C   UNL A   1      31.048  28.104  24.317  1.00  0.00     0.264 C 
ATOM     17  O   UNL A   1      30.841  28.670  23.242  1.00  0.00    -0.268 OA
BRANCH  16  18
ATOM     18  C   UNL A   1      31.982  28.653  25.294  1.00  0.00     0.092 A 
ATOM     19  C   UNL A   1      31.783  29.414  26.430  1.00  0.00     0.025 A 
ATOM     20  S   UNL A   1      33.657  28.307  25.083  1.00  0.00    -0.139 S 
ATOM     21  C   UNL A   1      33.007  29.797  27.056  1.00  0.00     0.012 A 
ATOM     22  C   UNL A   1      34.101  29.240  26.439  1.00  0.00     0.065 A 
ENDBRANCH  16  18
ENDBRANCH  14  16
ENDBRANCH  13  14
ENDBRANCH  11  13
ENDBRANCH   7  11
BRANCH   9  23
ATOM     23  O   UNL A   1      33.611  24.127  22.104  1.00  0.00    -0.391 OA
ATOM     24  H   UNL A   1      34.241  24.793  22.423  1.00  0.00     0.211 HD
ENDBRANCH   9  23
ENDBRANCH   4   6
ENDBRANCH   3   4
ENDBRANCH   2   3
ENDBRANCH   1   2
BRANCH   1  25
ATOM     25  O   UNL A   1      35.707  21.196  25.136  1.00  0.00    -0.374 OA
BRANCH  25  26
ATOM     26  C   UNL A   1      36.982  21.613  24.651  1.00  0.00     0.202 C 
BRANCH  26  27
ATOM     27  C   UNL A   1      38.194  20.739  24.999  1.00  0.00     0.261 C 
BRANCH  27  28
ATOM     28  O   UNL A   1      38.664  20.914  26.352  1.00  0.00    -0.460 OA
BRANCH  28  29
ATOM     29  C   UNL A   1      39.994  21.162  26.460  1.00  0.00     0.338 C 
ATOM     30  O   UNL A   1      40.906  20.457  26.044  1.00  0.00    -0.246 OA
BRANCH  29  31
ATOM     31  C   UNL A   1      40.253  22.476  27.071  1.00  0.00     0.060 A 
ATOM     32  C   UNL A   1      39.620  23.593  26.511  1.00  0.00     0.016 A 
ATOM     33  C   UNL A   1      41.223  22.639  28.061  1.00  0.00     0.016 A 
ATOM     34  C   UNL A   1      39.987  24.877  26.914  1.00  0.00     0.010 A 
ATOM     35  C   UNL A   1      41.593  23.928  28.461  1.00  0.00     0.010 A 
ATOM     36  C   UNL A   1      41.002  25.054  27.865  1.00  0.00    -0.014 A 
BRANCH  36  37
ATOM     37  C   UNL A   1      41.493  26.418  28.179  1.00  0.00     0.031 A 
ATOM     38  C   UNL A   1      42.912  26.799  27.855  1.00  0.00     0.074 A 
ATOM     39  C   UNL A   1      40.669  27.312  28.755  1.00  0.00     0.049 A 
ATOM     40  N   UNL A   1      43.514  27.950  28.016  1.00  0.00    -0.248 NA
ATOM     41  C   UNL A   1      43.765  25.750  27.276  1.00  0.00     0.031 C 
ATOM     42  C   UNL A   1      39.282  27.052  29.134  1.00  0.00     0.029 A 
ATOM     43  N   UNL A   1      40.888  28.610  29.139  1.00  0.00    -0.354 N 
ATOM     44  C   UNL A   1      44.816  27.765  27.566  1.00  0.00     0.074 A 
ATOM     45  C   UNL A   1      44.924  26.383  27.147  1.00  0.00     0.031 C 
ATOM     46  C   UNL A   1      38.775  28.154  29.713  1.00  0.00     0.029 A 
ATOM     47  C   UNL A   1      39.806  29.189  29.758  1.00  0.00     0.049 A 
ATOM     48  H   UNL A   1      41.738  29.082  28.987  1.00  0.00     0.167 HD
ATOM     49  C   UNL A   1      45.822  28.668  27.484  1.00  0.00     0.034 A 
ATOM     50  C   UNL A   1      39.664  30.413  30.302  1.00  0.00     0.034 A 
ATOM     51  C   UNL A   1      45.710  30.045  27.890  1.00  0.00     0.049 A 
ATOM     52  C   UNL A   1      40.807  31.390  30.227  1.00  0.00     0.074 A 
ATOM     53  C   UNL A   1      46.653  31.052  27.792  1.00  0.00     0.029 A 
ATOM     54  N   UNL A   1      44.590  30.604  28.486  1.00  0.00    -0.354 N 
ATOM     55  N   UNL A   1      41.979  31.246  29.657  1.00  0.00    -0.248 NA
ATOM     56  C   UNL A   1      40.596  32.711  30.838  1.00  0.00     0.031 C 
ATOM     57  C   UNL A   1      46.110  32.217  28.346  1.00  0.00     0.029 A 
ATOM     58  C   UNL A   1      44.823  31.937  28.777  1.00  0.00     0.049 A 
ATOM     59  H   UNL A   1      43.752  30.124  28.674  1.00  0.00     0.167 HD
ATOM     60  C   UNL A   1      42.634  32.462  29.816  1.00  0.00     0.074 A 
ATOM     61  C   UNL A   1      41.719  33.340  30.517  1.00  0.00     0.031 C 
ATOM     62  C   UNL A   1      43.886  32.814  29.432  1.00  0.00     0.034 A 
BRANCH  49  63
ATOM     63  C   UNL A   1      47.124  28.210  26.883  1.00  0.00     0.023 A 
ATOM     64  C   UNL A   1      48.217  27.941  27.733  1.00  0.00     0.012 A 
ATOM     65  C   UNL A   1      47.257  27.992  25.497  1.00  0.00     0.148 A 
ATOM     66  C   UNL A   1      49.428  27.488  27.213  1.00  0.00     0.002 A 
ATOM     67  C   UNL A   1      48.458  27.507  24.990  1.00  0.00     0.091 A 
ATOM     68  F   UNL A   1      46.216  28.275  24.702  1.00  0.00    -0.205 F 
ATOM     69  C   UNL A   1      49.546  27.263  25.844  1.00  0.00     0.022 A 
BRANCH  67  70
ATOM     70  S   UNL A   1      48.684  27.124  23.248  1.00  0.00     0.127 S 
ATOM     71  O   UNL A   1      50.141  27.079  23.142  1.00  0.00    -0.237 OA
ATOM     72  O   UNL A   1      48.024  25.823  23.127  1.00  0.00    -0.237 OA
ATOM     73  O   UNL A   1      48.030  28.202  22.518  1.00  0.00    -0.744 OA
ENDBRANCH  67  70
ENDBRANCH  49  63
BRANCH  50  74
ATOM     74  C   UNL A   1      38.362  30.803  30.912  1.00  0.00     0.023 A 
ATOM     75  C   UNL A   1      38.115  30.507  32.265  1.00  0.00     0.012 A 
ATOM     76  C   UNL A   1      37.388  31.504  30.173  1.00  0.00     0.148 A 
ATOM     77  C   UNL A   1      36.915  30.881  32.868  1.00  0.00     0.002 A 
ATOM     78  C   UNL A   1      36.217  31.921  30.795  1.00  0.00     0.091 A 
ATOM     79  F   UNL A   1      37.631  31.758  28.880  1.00  0.00    -0.205 F 
ATOM     80  C   UNL A   1      35.972  31.599  32.137  1.00  0.00     0.022 A 
BRANCH  78  81
ATOM     81  S   UNL A   1      35.019  32.972  29.963  1.00  0.00     0.127 S 
ATOM     82  O   UNL A   1      34.068  33.249  31.035  1.00  0.00    -0.237 OA
ATOM     83  O   UNL A   1      35.842  34.112  29.558  1.00  0.00    -0.237 OA
ATOM     84  O   UNL A   1      34.514  32.179  28.850  1.00  0.00    -0.744 OA
ENDBRANCH  78  81
ENDBRANCH  50  74
BRANCH  62  85
ATOM     85  C   UNL A   1      44.345  34.214  29.748  1.00  0.00     0.023 A 
ATOM     86  C   UNL A   1      45.049  34.459  30.943  1.00  0.00     0.012 A 
ATOM     87  C   UNL A   1      44.150  35.267  28.831  1.00  0.00     0.148 A 
ATOM     88  C   UNL A   1      45.530  35.734  31.235  1.00  0.00     0.002 A 
ATOM     89  C   UNL A   1      44.670  36.526  29.109  1.00  0.00     0.091 A 
ATOM     90  F   UNL A   1      43.461  35.019  27.708  1.00  0.00    -0.205 F 
ATOM     91  C   UNL A   1      45.352  36.765  30.313  1.00  0.00     0.022 A 
BRANCH  89  92
ATOM     92  S   UNL A   1      44.563  37.890  27.943  1.00  0.00     0.127 S 
ATOM     93  O   UNL A   1      43.118  38.051  27.805  1.00  0.00    -0.237 OA
ATOM     94  O   UNL A   1      45.233  38.972  28.665  1.00  0.00    -0.237 OA
ATOM     95  O   UNL A   1      45.261  37.444  26.744  1.00  0.00    -0.744 OA
ENDBRANCH  89  92
ENDBRANCH  62  85
ENDBRANCH  36  37
ENDBRANCH  29  31
ENDBRANCH  28  29
ENDBRANCH  27  28
ENDBRANCH  26  27
ENDBRANCH  25  26
ENDBRANCH   1  25
TORSDOF 23
ENDMDL
