MODEL 1
REMARK VINA RESULT:     -10.1      0.000      0.000
REMARK SMILES O=C(OCCOCCOC(=O)c1cc(/C=C/c2cc(O)cc(O)c2)ccc1O)c1ccc(-c2c3nc(c(-c4cccc(S(=O)(=O)[O-])c4F)c4ccc([nH]4)c(-c4cccc(S(=O)(=O)[O-])c4F)c4nc(c(-c5cccc(S(=O)(=O)[O-])c5F)c5ccc2[nH]5)C=C4)C=C3)cc1
REMARK SMILES IDX 6 1 5 2 4 3 3 4 2 5 1 6 29 7 30 8 91 9 31 10 90 11 32 12
REMARK SMILES IDX 33 13 34 14 84 15 35 16 89 17 83 18 85 19 36 20 88 21 82 22
REMARK SMILES IDX 81 23 37 25 69 26 49 27 68 28 50 29 53 30 67 31 86 32 51 33
REMARK SMILES IDX 52 34 66 36 87 37 54 38 38 39 39 40 47 41 40 42 42 43 48 44
REMARK SMILES IDX 41 45 43 46 44 47 45 48 46 49 70 50 71 51 79 52 72 53 74 54
REMARK SMILES IDX 80 55 73 56 75 57 76 58 77 59 78 60 55 61 56 62 64 63 57 64
REMARK SMILES IDX 59 65 65 66 58 67 60 68 61 69 62 70 63 71 7 72 8 73 9 74
REMARK SMILES IDX 10 75 11 76 12 77 13 78 27 79 14 80 26 81 25 82 28 83 15 85
REMARK SMILES IDX 16 86 17 87 18 88 24 89 19 90 22 91 21 92 20 93 23 95
REMARK H PARENT 85 24 53 35 28 84 20 94 23 96
REMARK Flexibility Score: inf
ROOT
ATOM      1  O   UNL A   1      32.604  34.831  29.715  1.00  0.00    -0.374 OA
ENDROOT
BRANCH   1   2
ATOM      2  C   UNL A   1      33.367  34.485  28.562  1.00  0.00     0.202 C 
BRANCH   2   3
ATOM      3  C   UNL A   1      34.317  33.304  28.769  1.00  0.00     0.261 C 
BRANCH   3   4
ATOM      4  O   UNL A   1      34.110  32.311  27.753  1.00  0.00    -0.460 OA
BRANCH   4   5
ATOM      5  C   UNL A   1      34.341  30.978  27.813  1.00  0.00     0.338 C 
ATOM      6  O   UNL A   1      33.437  30.218  27.469  1.00  0.00    -0.246 OA
BRANCH   5   7
ATOM      7  C   UNL A   1      35.640  30.376  28.245  1.00  0.00     0.060 A 
ATOM      8  C   UNL A   1      35.846  29.680  29.438  1.00  0.00     0.016 A 
ATOM      9  C   UNL A   1      36.717  30.460  27.345  1.00  0.00     0.016 A 
ATOM     10  C   UNL A   1      37.085  29.159  29.775  1.00  0.00     0.010 A 
ATOM     11  C   UNL A   1      37.961  29.899  27.655  1.00  0.00     0.010 A 
ATOM     12  C   UNL A   1      38.152  29.274  28.891  1.00  0.00    -0.014 A 
BRANCH  12  13
ATOM     13  C   UNL A   1      39.473  28.826  29.365  1.00  0.00     0.031 A 
ATOM     14  C   UNL A   1      40.013  29.422  30.628  1.00  0.00     0.074 A 
ATOM     15  C   UNL A   1      40.081  27.795  28.750  1.00  0.00     0.049 A 
ATOM     16  N   UNL A   1      41.103  29.123  31.280  1.00  0.00    -0.248 NA
ATOM     17  C   UNL A   1      39.207  30.485  31.256  1.00  0.00     0.031 C 
ATOM     18  C   UNL A   1      39.568  27.102  27.565  1.00  0.00     0.029 A 
ATOM     19  N   UNL A   1      41.238  27.129  29.052  1.00  0.00    -0.354 N 
ATOM     20  C   UNL A   1      41.138  29.989  32.364  1.00  0.00     0.074 A 
ATOM     21  C   UNL A   1      39.954  30.814  32.297  1.00  0.00     0.031 C 
ATOM     22  C   UNL A   1      40.396  26.094  27.253  1.00  0.00     0.029 A 
ATOM     23  C   UNL A   1      41.519  26.097  28.186  1.00  0.00     0.049 A 
ATOM     24  H   UNL A   1      41.813  27.366  29.814  1.00  0.00     0.167 HD
ATOM     25  C   UNL A   1      42.081  30.084  33.330  1.00  0.00     0.034 A 
ATOM     26  C   UNL A   1      42.574  25.262  28.154  1.00  0.00     0.034 A 
ATOM     27  C   UNL A   1      43.241  29.241  33.382  1.00  0.00     0.049 A 
ATOM     28  C   UNL A   1      43.619  25.408  29.227  1.00  0.00     0.074 A 
ATOM     29  C   UNL A   1      44.288  29.268  34.282  1.00  0.00     0.029 A 
ATOM     30  N   UNL A   1      43.505  28.215  32.483  1.00  0.00    -0.354 N 
ATOM     31  N   UNL A   1      43.629  26.213  30.264  1.00  0.00    -0.248 NA
ATOM     32  C   UNL A   1      44.789  24.525  29.140  1.00  0.00     0.031 C 
ATOM     33  C   UNL A   1      45.196  28.267  33.916  1.00  0.00     0.029 A 
ATOM     34  C   UNL A   1      44.700  27.602  32.803  1.00  0.00     0.049 A 
ATOM     35  H   UNL A   1      42.924  27.962  31.730  1.00  0.00     0.167 HD
ATOM     36  C   UNL A   1      44.790  25.918  30.968  1.00  0.00     0.074 A 
ATOM     37  C   UNL A   1      45.444  24.840  30.249  1.00  0.00     0.031 C 
ATOM     38  C   UNL A   1      45.286  26.493  32.090  1.00  0.00     0.034 A 
BRANCH  25  39
ATOM     39  C   UNL A   1      41.893  31.156  34.366  1.00  0.00     0.023 A 
ATOM     40  C   UNL A   1      41.206  30.870  35.563  1.00  0.00     0.012 A 
ATOM     41  C   UNL A   1      42.375  32.459  34.138  1.00  0.00     0.148 A 
ATOM     42  C   UNL A   1      40.971  31.874  36.502  1.00  0.00     0.002 A 
ATOM     43  C   UNL A   1      42.166  33.446  35.094  1.00  0.00     0.091 A 
ATOM     44  F   UNL A   1      42.994  32.717  32.978  1.00  0.00    -0.205 F 
ATOM     45  C   UNL A   1      41.456  33.158  36.270  1.00  0.00     0.022 A 
BRANCH  43  46
ATOM     46  S   UNL A   1      42.791  35.118  34.904  1.00  0.00     0.127 S 
ATOM     47  O   UNL A   1      42.308  35.755  36.128  1.00  0.00    -0.237 OA
ATOM     48  O   UNL A   1      44.239  34.903  34.859  1.00  0.00    -0.237 OA
ATOM     49  O   UNL A   1      42.217  35.623  33.665  1.00  0.00    -0.744 OA
ENDBRANCH  43  46
ENDBRANCH  25  39
BRANCH  26  50
ATOM     50  C   UNL A   1      42.674  24.210  27.101  1.00  0.00     0.023 A 
ATOM     51  C   UNL A   1      43.419  24.458  25.933  1.00  0.00     0.012 A 
ATOM     52  C   UNL A   1      42.056  22.953  27.261  1.00  0.00     0.148 A 
ATOM     53  C   UNL A   1      43.524  23.486  24.933  1.00  0.00     0.002 A 
ATOM     54  C   UNL A   1      42.212  21.970  26.290  1.00  0.00     0.091 A 
ATOM     55  F   UNL A   1      41.328  22.738  28.366  1.00  0.00    -0.205 F 
ATOM     56  C   UNL A   1      42.931  22.240  25.117  1.00  0.00     0.022 A 
BRANCH  54  57
ATOM     57  S   UNL A   1      41.587  20.299  26.513  1.00  0.00     0.127 S 
ATOM     58  O   UNL A   1      40.145  20.500  26.394  1.00  0.00    -0.237 OA
ATOM     59  O   UNL A   1      42.205  19.588  25.393  1.00  0.00    -0.237 OA
ATOM     60  O   UNL A   1      42.067  19.879  27.823  1.00  0.00    -0.744 OA
ENDBRANCH  54  57
ENDBRANCH  26  50
BRANCH  38  61
ATOM     61  C   UNL A   1      46.581  25.951  32.626  1.00  0.00     0.023 A 
ATOM     62  C   UNL A   1      47.795  26.570  32.275  1.00  0.00     0.012 A 
ATOM     63  C   UNL A   1      46.581  24.884  33.546  1.00  0.00     0.148 A 
ATOM     64  C   UNL A   1      48.999  26.118  32.814  1.00  0.00     0.002 A 
ATOM     65  C   UNL A   1      47.778  24.472  34.115  1.00  0.00     0.091 A 
ATOM     66  F   UNL A   1      45.415  24.294  33.845  1.00  0.00    -0.205 F 
ATOM     67  C   UNL A   1      48.989  25.080  33.743  1.00  0.00     0.022 A 
BRANCH  65  68
ATOM     68  S   UNL A   1      47.832  23.215  35.397  1.00  0.00     0.127 S 
ATOM     69  O   UNL A   1      46.978  23.803  36.427  1.00  0.00    -0.237 OA
ATOM     70  O   UNL A   1      47.260  22.050  34.720  1.00  0.00    -0.237 OA
ATOM     71  O   UNL A   1      49.239  23.072  35.749  1.00  0.00    -0.744 OA
ENDBRANCH  65  68
ENDBRANCH  38  61
ENDBRANCH  12  13
ENDBRANCH   5   7
ENDBRANCH   4   5
ENDBRANCH   3   4
ENDBRANCH   2   3
ENDBRANCH   1   2
BRANCH   1  72
ATOM     72  C   UNL A   1      32.939  36.083  30.326  1.00  0.00     0.202 C 
BRANCH  72  73
ATOM     73  C   UNL A   1      33.369  35.843  31.773  1.00  0.00     0.261 C 
BRANCH  73  74
ATOM     74  O   UNL A   1      34.586  35.082  31.752  1.00  0.00    -0.460 OA
BRANCH  74  75
ATOM     75  C   UNL A   1      34.642  34.019  32.596  1.00  0.00     0.342 C 
ATOM     76  O   UNL A   1      33.821  33.127  32.731  1.00  0.00    -0.246 OA
BRANCH  75  77
ATOM     77  C   UNL A   1      36.015  33.955  33.134  1.00  0.00     0.102 A 
ATOM     78  C   UNL A   1      37.076  34.073  32.214  1.00  0.00     0.027 A 
ATOM     79  C   UNL A   1      36.275  33.911  34.505  1.00  0.00     0.130 A 
ATOM     80  C   UNL A   1      38.387  34.246  32.667  1.00  0.00    -0.025 A 
ATOM     81  C   UNL A   1      37.582  34.029  34.964  1.00  0.00     0.048 A 
ATOM     82  C   UNL A   1      38.625  34.207  34.050  1.00  0.00     0.012 A 
BRANCH  79  83
ATOM     83  O   UNL A   1      35.257  33.742  35.399  1.00  0.00    -0.507 OA
ATOM     84  H   UNL A   1      34.657  34.442  35.563  1.00  0.00     0.293 HD
ENDBRANCH  79  83
BRANCH  80  85
ATOM     85  C   UNL A   1      39.544  34.447  31.778  1.00  0.00     0.009 C 
ATOM     86  C   UNL A   1      39.600  34.216  30.455  1.00  0.00     0.009 C 
BRANCH  86  87
ATOM     87  C   UNL A   1      40.810  34.516  29.666  1.00  0.00    -0.018 A 
ATOM     88  C   UNL A   1      42.031  33.878  29.937  1.00  0.00     0.054 A 
ATOM     89  C   UNL A   1      40.749  35.445  28.615  1.00  0.00     0.054 A 
ATOM     90  C   UNL A   1      43.172  34.206  29.208  1.00  0.00     0.119 A 
ATOM     91  C   UNL A   1      41.906  35.754  27.893  1.00  0.00     0.119 A 
ATOM     92  C   UNL A   1      43.120  35.149  28.193  1.00  0.00     0.092 A 
BRANCH  90  93
ATOM     93  O   UNL A   1      44.372  33.613  29.472  1.00  0.00    -0.508 OA
ATOM     94  H   UNL A   1      45.082  33.702  28.866  1.00  0.00     0.293 HD
ENDBRANCH  90  93
BRANCH  91  95
ATOM     95  O   UNL A   1      41.891  36.665  26.877  1.00  0.00    -0.508 OA
ATOM     96  H   UNL A   1      41.709  36.386  26.001  1.00  0.00     0.293 HD
ENDBRANCH  91  95
ENDBRANCH  86  87
ENDBRANCH  80  85
ENDBRANCH  75  77
ENDBRANCH  74  75
ENDBRANCH  73  74
ENDBRANCH  72  73
ENDBRANCH   1  72
TORSDOF 22
ENDMDL
MODEL 2
REMARK VINA RESULT:      -9.8      1.591      2.164
REMARK SMILES O=C(OCCOCCOC(=O)c1cc(/C=C/c2cc(O)cc(O)c2)ccc1O)c1ccc(-c2c3nc(c(-c4cccc(S(=O)(=O)[O-])c4F)c4ccc([nH]4)c(-c4cccc(S(=O)(=O)[O-])c4F)c4nc(c(-c5cccc(S(=O)(=O)[O-])c5F)c5ccc2[nH]5)C=C4)C=C3)cc1
REMARK SMILES IDX 6 1 5 2 4 3 3 4 2 5 1 6 29 7 30 8 91 9 31 10 90 11 32 12
REMARK SMILES IDX 33 13 34 14 84 15 35 16 89 17 83 18 85 19 36 20 88 21 82 22
REMARK SMILES IDX 81 23 37 25 69 26 49 27 68 28 50 29 53 30 67 31 86 32 51 33
REMARK SMILES IDX 52 34 66 36 87 37 54 38 38 39 39 40 47 41 40 42 42 43 48 44
REMARK SMILES IDX 41 45 43 46 44 47 45 48 46 49 70 50 71 51 79 52 72 53 74 54
REMARK SMILES IDX 80 55 73 56 75 57 76 58 77 59 78 60 55 61 56 62 64 63 57 64
REMARK SMILES IDX 59 65 65 66 58 67 60 68 61 69 62 70 63 71 7 72 8 73 9 74
REMARK SMILES IDX 10 75 11 76 12 77 13 78 27 79 14 80 26 81 25 82 28 83 15 85
REMARK SMILES IDX 16 86 17 87 18 88 24 89 19 90 22 91 21 92 20 93 23 95
REMARK H PARENT 85 24 53 35 28 84 20 94 23 96
REMARK Flexibility Score: inf
ROOT
ATOM      1  O   UNL A   1      32.635  35.246  29.658  1.00  0.00    -0.374 OA
ENDROOT
BRANCH   1   2
ATOM      2  C   UNL A   1      33.111  34.458  28.570  1.00  0.00     0.202 C 
BRANCH   2   3
ATOM      3  C   UNL A   1      34.303  33.564  28.918  1.00  0.00     0.261 C 
BRANCH   3   4
ATOM      4  O   UNL A   1      34.514  32.589  27.885  1.00  0.00    -0.460 OA
BRANCH   4   5
ATOM      5  C   UNL A   1      34.855  31.284  28.012  1.00  0.00     0.338 C 
ATOM      6  O   UNL A   1      34.042  30.436  27.646  1.00  0.00    -0.246 OA
BRANCH   5   7
ATOM      7  C   UNL A   1      36.172  30.813  28.542  1.00  0.00     0.060 A 
ATOM      8  C   UNL A   1      37.395  31.455  28.341  1.00  0.00     0.016 A 
ATOM      9  C   UNL A   1      36.161  29.673  29.365  1.00  0.00     0.016 A 
ATOM     10  C   UNL A   1      38.578  30.949  28.857  1.00  0.00     0.010 A 
ATOM     11  C   UNL A   1      37.343  29.179  29.928  1.00  0.00     0.010 A 
ATOM     12  C   UNL A   1      38.561  29.804  29.645  1.00  0.00    -0.014 A 
BRANCH  12  13
ATOM     13  C   UNL A   1      39.861  29.240  30.044  1.00  0.00     0.031 A 
ATOM     14  C   UNL A   1      40.486  29.724  31.316  1.00  0.00     0.074 A 
ATOM     15  C   UNL A   1      40.374  28.207  29.350  1.00  0.00     0.049 A 
ATOM     16  N   UNL A   1      41.573  29.315  31.908  1.00  0.00    -0.248 NA
ATOM     17  C   UNL A   1      39.778  30.802  32.031  1.00  0.00     0.031 C 
ATOM     18  C   UNL A   1      39.774  27.620  28.149  1.00  0.00     0.029 A 
ATOM     19  N   UNL A   1      41.490  27.447  29.571  1.00  0.00    -0.354 N 
ATOM     20  C   UNL A   1      41.706  30.113  33.036  1.00  0.00     0.074 A 
ATOM     21  C   UNL A   1      40.582  31.020  33.059  1.00  0.00     0.031 C 
ATOM     22  C   UNL A   1      40.518  26.577  27.751  1.00  0.00     0.029 A 
ATOM     23  C   UNL A   1      41.668  26.449  28.640  1.00  0.00     0.049 A 
ATOM     24  H   UNL A   1      42.107  27.599  30.323  1.00  0.00     0.167 HD
ATOM     25  C   UNL A   1      42.685  30.087  33.970  1.00  0.00     0.034 A 
ATOM     26  C   UNL A   1      42.660  25.546  28.523  1.00  0.00     0.034 A 
ATOM     27  C   UNL A   1      43.784  29.164  33.932  1.00  0.00     0.049 A 
ATOM     28  C   UNL A   1      43.749  25.559  29.561  1.00  0.00     0.074 A 
ATOM     29  C   UNL A   1      44.860  29.067  34.791  1.00  0.00     0.029 A 
ATOM     30  N   UNL A   1      43.943  28.176  32.969  1.00  0.00    -0.354 N 
ATOM     31  N   UNL A   1      43.851  26.301  30.640  1.00  0.00    -0.248 NA
ATOM     32  C   UNL A   1      44.850  24.604  29.382  1.00  0.00     0.031 C 
ATOM     33  C   UNL A   1      45.682  28.029  34.337  1.00  0.00     0.029 A 
ATOM     34  C   UNL A   1      45.103  27.465  33.209  1.00  0.00     0.049 A 
ATOM     35  H   UNL A   1      43.321  28.007  32.225  1.00  0.00     0.167 HD
ATOM     36  C   UNL A   1      45.011  25.887  31.282  1.00  0.00     0.074 A 
ATOM     37  C   UNL A   1      45.563  24.809  30.481  1.00  0.00     0.031 C 
ATOM     38  C   UNL A   1      45.584  26.361  32.415  1.00  0.00     0.034 A 
BRANCH  25  39
ATOM     39  C   UNL A   1      42.608  31.107  35.069  1.00  0.00     0.023 A 
ATOM     40  C   UNL A   1      41.988  30.784  36.293  1.00  0.00     0.012 A 
ATOM     41  C   UNL A   1      43.129  32.402  34.877  1.00  0.00     0.148 A 
ATOM     42  C   UNL A   1      41.855  31.745  37.295  1.00  0.00     0.002 A 
ATOM     43  C   UNL A   1      43.024  33.344  35.894  1.00  0.00     0.091 A 
ATOM     44  F   UNL A   1      43.684  32.698  33.694  1.00  0.00    -0.205 F 
ATOM     45  C   UNL A   1      42.378  33.020  37.098  1.00  0.00     0.022 A 
BRANCH  43  46
ATOM     46  S   UNL A   1      43.705  34.998  35.749  1.00  0.00     0.127 S 
ATOM     47  O   UNL A   1      45.102  34.715  35.424  1.00  0.00    -0.237 OA
ATOM     48  O   UNL A   1      42.923  35.558  34.646  1.00  0.00    -0.237 OA
ATOM     49  O   UNL A   1      43.479  35.639  37.037  1.00  0.00    -0.744 OA
ENDBRANCH  43  46
ENDBRANCH  25  39
BRANCH  26  50
ATOM     50  C   UNL A   1      42.650  24.552  27.411  1.00  0.00     0.023 A 
ATOM     51  C   UNL A   1      43.268  24.866  26.186  1.00  0.00     0.012 A 
ATOM     52  C   UNL A   1      42.053  23.285  27.567  1.00  0.00     0.148 A 
ATOM     53  C   UNL A   1      43.269  23.949  25.130  1.00  0.00     0.002 A 
ATOM     54  C   UNL A   1      42.106  22.355  26.534  1.00  0.00     0.091 A 
ATOM     55  F   UNL A   1      41.445  23.007  28.730  1.00  0.00    -0.205 F 
ATOM     56  C   UNL A   1      42.699  22.691  25.309  1.00  0.00     0.022 A 
BRANCH  54  57
ATOM     57  S   UNL A   1      41.509  20.672  26.732  1.00  0.00     0.127 S 
ATOM     58  O   UNL A   1      42.239  20.232  27.918  1.00  0.00    -0.237 OA
ATOM     59  O   UNL A   1      40.073  20.877  26.932  1.00  0.00    -0.237 OA
ATOM     60  O   UNL A   1      41.845  19.994  25.487  1.00  0.00    -0.744 OA
ENDBRANCH  54  57
ENDBRANCH  26  50
BRANCH  38  61
ATOM     61  C   UNL A   1      46.855  25.701  32.871  1.00  0.00     0.023 A 
ATOM     62  C   UNL A   1      46.812  24.738  33.896  1.00  0.00     0.012 A 
ATOM     63  C   UNL A   1      48.074  25.974  32.219  1.00  0.00     0.148 A 
ATOM     64  C   UNL A   1      47.972  24.070  34.285  1.00  0.00     0.002 A 
ATOM     65  C   UNL A   1      49.215  25.270  32.579  1.00  0.00     0.091 A 
ATOM     66  F   UNL A   1      48.095  26.913  31.263  1.00  0.00    -0.205 F 
ATOM     67  C   UNL A   1      49.169  24.326  33.619  1.00  0.00     0.022 A 
BRANCH  65  68
ATOM     68  S   UNL A   1      50.766  25.467  31.696  1.00  0.00     0.127 S 
ATOM     69  O   UNL A   1      51.651  24.576  32.444  1.00  0.00    -0.237 OA
ATOM     70  O   UNL A   1      50.424  24.999  30.352  1.00  0.00    -0.237 OA
ATOM     71  O   UNL A   1      51.085  26.886  31.773  1.00  0.00    -0.744 OA
ENDBRANCH  65  68
ENDBRANCH  38  61
ENDBRANCH  12  13
ENDBRANCH   5   7
ENDBRANCH   4   5
ENDBRANCH   3   4
ENDBRANCH   2   3
ENDBRANCH   1   2
BRANCH   1  72
ATOM     72  C   UNL A   1      33.278  36.513  29.833  1.00  0.00     0.202 C 
BRANCH  72  73
ATOM     73  C   UNL A   1      33.003  37.031  31.245  1.00  0.00     0.261 C 
BRANCH  73  74
ATOM     74  O   UNL A   1      33.049  35.912  32.143  1.00  0.00    -0.460 OA
BRANCH  74  75
ATOM     75  C   UNL A   1      34.164  35.806  32.911  1.00  0.00     0.342 C 
ATOM     76  O   UNL A   1      34.435  36.425  33.927  1.00  0.00    -0.246 OA
BRANCH  75  77
ATOM     77  C   UNL A   1      34.886  34.594  32.475  1.00  0.00     0.102 A 
ATOM     78  C   UNL A   1      36.162  34.772  31.905  1.00  0.00     0.027 A 
ATOM     79  C   UNL A   1      34.400  33.309  32.724  1.00  0.00     0.130 A 
ATOM     80  C   UNL A   1      36.992  33.671  31.677  1.00  0.00    -0.025 A 
ATOM     81  C   UNL A   1      35.198  32.204  32.451  1.00  0.00     0.048 A 
ATOM     82  C   UNL A   1      36.487  32.389  31.943  1.00  0.00     0.012 A 
BRANCH  79  83
ATOM     83  O   UNL A   1      33.142  33.127  33.225  1.00  0.00    -0.507 OA
ATOM     84  H   UNL A   1      32.688  33.844  33.622  1.00  0.00     0.293 HD
ENDBRANCH  79  83
BRANCH  80  85
ATOM     85  C   UNL A   1      38.365  33.772  31.152  1.00  0.00     0.009 C 
ATOM     86  C   UNL A   1      38.780  34.502  30.103  1.00  0.00     0.009 C 
BRANCH  86  87
ATOM     87  C   UNL A   1      40.202  34.562  29.714  1.00  0.00    -0.018 A 
ATOM     88  C   UNL A   1      40.643  35.437  28.707  1.00  0.00     0.054 A 
ATOM     89  C   UNL A   1      41.142  33.745  30.362  1.00  0.00     0.054 A 
ATOM     90  C   UNL A   1      41.983  35.448  28.325  1.00  0.00     0.119 A 
ATOM     91  C   UNL A   1      42.482  33.779  29.966  1.00  0.00     0.119 A 
ATOM     92  C   UNL A   1      42.906  34.617  28.942  1.00  0.00     0.092 A 
BRANCH  90  93
ATOM     93  O   UNL A   1      42.427  36.275  27.334  1.00  0.00    -0.508 OA
ATOM     94  H   UNL A   1      42.974  35.937  26.653  1.00  0.00     0.293 HD
ENDBRANCH  90  93
BRANCH  91  95
ATOM     95  O   UNL A   1      43.421  32.986  30.559  1.00  0.00    -0.508 OA
ATOM     96  H   UNL A   1      43.658  33.131  31.454  1.00  0.00     0.293 HD
ENDBRANCH  91  95
ENDBRANCH  86  87
ENDBRANCH  80  85
ENDBRANCH  75  77
ENDBRANCH  74  75
ENDBRANCH  73  74
ENDBRANCH  72  73
ENDBRANCH   1  72
TORSDOF 22
ENDMDL
MODEL 3
REMARK VINA RESULT:      -9.6      5.803     12.166
REMARK SMILES O=C(OCCOCCOC(=O)c1cc(/C=C/c2cc(O)cc(O)c2)ccc1O)c1ccc(-c2c3nc(c(-c4cccc(S(=O)(=O)[O-])c4F)c4ccc([nH]4)c(-c4cccc(S(=O)(=O)[O-])c4F)c4nc(c(-c5cccc(S(=O)(=O)[O-])c5F)c5ccc2[nH]5)C=C4)C=C3)cc1
REMARK SMILES IDX 6 1 5 2 4 3 3 4 2 5 1 6 29 7 30 8 91 9 31 10 90 11 32 12
REMARK SMILES IDX 33 13 34 14 84 15 35 16 89 17 83 18 85 19 36 20 88 21 82 22
REMARK SMILES IDX 81 23 37 25 69 26 49 27 68 28 50 29 53 30 67 31 86 32 51 33
REMARK SMILES IDX 52 34 66 36 87 37 54 38 38 39 39 40 47 41 40 42 42 43 48 44
REMARK SMILES IDX 41 45 43 46 44 47 45 48 46 49 70 50 71 51 79 52 72 53 74 54
REMARK SMILES IDX 80 55 73 56 75 57 76 58 77 59 78 60 55 61 56 62 64 63 57 64
REMARK SMILES IDX 59 65 65 66 58 67 60 68 61 69 62 70 63 71 7 72 8 73 9 74
REMARK SMILES IDX 10 75 11 76 12 77 13 78 27 79 14 80 26 81 25 82 28 83 15 85
REMARK SMILES IDX 16 86 17 87 18 88 24 89 19 90 22 91 21 92 20 93 23 95
REMARK H PARENT 85 24 53 35 28 84 20 94 23 96
REMARK Flexibility Score: inf
ROOT
ATOM      1  O   UNL A   1      38.040  21.685  25.732  1.00  0.00    -0.374 OA
ENDROOT
BRANCH   1   2
ATOM      2  C   UNL A   1      39.300  21.118  26.083  1.00  0.00     0.202 C 
BRANCH   2   3
ATOM      3  C   UNL A   1      39.443  19.637  25.724  1.00  0.00     0.261 C 
BRANCH   3   4
ATOM      4  O   UNL A   1      40.723  19.142  26.145  1.00  0.00    -0.460 OA
BRANCH   4   5
ATOM      5  C   UNL A   1      41.955  19.604  25.824  1.00  0.00     0.338 C 
ATOM      6  O   UNL A   1      42.667  18.903  25.106  1.00  0.00    -0.246 OA
BRANCH   5   7
ATOM      7  C   UNL A   1      42.491  20.929  26.266  1.00  0.00     0.060 A 
ATOM      8  C   UNL A   1      42.659  21.325  27.594  1.00  0.00     0.016 A 
ATOM      9  C   UNL A   1      42.921  21.814  25.262  1.00  0.00     0.016 A 
ATOM     10  C   UNL A   1      43.152  22.578  27.925  1.00  0.00     0.010 A 
ATOM     11  C   UNL A   1      43.462  23.064  25.585  1.00  0.00     0.010 A 
ATOM     12  C   UNL A   1      43.547  23.457  26.923  1.00  0.00    -0.014 A 
BRANCH  12  13
ATOM     13  C   UNL A   1      43.929  24.819  27.334  1.00  0.00     0.031 A 
ATOM     14  C   UNL A   1      45.336  25.268  27.087  1.00  0.00     0.074 A 
ATOM     15  C   UNL A   1      42.979  25.668  27.770  1.00  0.00     0.049 A 
ATOM     16  N   UNL A   1      45.873  26.440  27.283  1.00  0.00    -0.248 NA
ATOM     17  C   UNL A   1      46.260  24.267  26.524  1.00  0.00     0.031 C 
ATOM     18  C   UNL A   1      41.565  25.327  27.949  1.00  0.00     0.029 A 
ATOM     19  N   UNL A   1      43.049  26.993  28.104  1.00  0.00    -0.354 N 
ATOM     20  C   UNL A   1      47.204  26.307  26.912  1.00  0.00     0.074 A 
ATOM     21  C   UNL A   1      47.393  24.947  26.463  1.00  0.00     0.031 C 
ATOM     22  C   UNL A   1      40.897  26.422  28.342  1.00  0.00     0.029 A 
ATOM     23  C   UNL A   1      41.839  27.527  28.484  1.00  0.00     0.049 A 
ATOM     24  H   UNL A   1      43.884  27.513  28.077  1.00  0.00     0.167 HD
ATOM     25  C   UNL A   1      48.181  27.242  26.946  1.00  0.00     0.034 A 
ATOM     26  C   UNL A   1      41.540  28.770  28.908  1.00  0.00     0.034 A 
ATOM     27  C   UNL A   1      47.963  28.592  27.383  1.00  0.00     0.049 A 
ATOM     28  C   UNL A   1      42.653  29.782  28.960  1.00  0.00     0.074 A 
ATOM     29  C   UNL A   1      48.878  29.619  27.505  1.00  0.00     0.029 A 
ATOM     30  N   UNL A   1      46.730  29.098  27.774  1.00  0.00    -0.354 N 
ATOM     31  N   UNL A   1      43.903  29.652  28.580  1.00  0.00    -0.248 NA
ATOM     32  C   UNL A   1      42.317  31.114  29.479  1.00  0.00     0.031 C 
ATOM     33  C   UNL A   1      48.200  30.744  27.988  1.00  0.00     0.029 A 
ATOM     34  C   UNL A   1      46.859  30.423  28.142  1.00  0.00     0.049 A 
ATOM     35  H   UNL A   1      45.888  28.588  27.786  1.00  0.00     0.167 HD
ATOM     36  C   UNL A   1      44.498  30.890  28.790  1.00  0.00     0.074 A 
ATOM     37  C   UNL A   1      43.460  31.763  29.307  1.00  0.00     0.031 C 
ATOM     38  C   UNL A   1      45.784  31.271  28.598  1.00  0.00     0.034 A 
BRANCH  25  39
ATOM     39  C   UNL A   1      49.558  26.808  26.532  1.00  0.00     0.023 A 
ATOM     40  C   UNL A   1      50.371  26.084  27.428  1.00  0.00     0.012 A 
ATOM     41  C   UNL A   1      50.059  27.144  25.260  1.00  0.00     0.148 A 
ATOM     42  C   UNL A   1      51.674  25.732  27.076  1.00  0.00     0.002 A 
ATOM     43  C   UNL A   1      51.347  26.761  24.904  1.00  0.00     0.091 A 
ATOM     44  F   UNL A   1      49.283  27.864  24.437  1.00  0.00    -0.205 F 
ATOM     45  C   UNL A   1      52.158  26.064  25.814  1.00  0.00     0.022 A 
BRANCH  43  46
ATOM     46  S   UNL A   1      52.042  27.105  23.285  1.00  0.00     0.127 S 
ATOM     47  O   UNL A   1      52.469  28.495  23.437  1.00  0.00    -0.237 OA
ATOM     48  O   UNL A   1      53.137  26.136  23.208  1.00  0.00    -0.237 OA
ATOM     49  O   UNL A   1      50.966  26.880  22.330  1.00  0.00    -0.744 OA
ENDBRANCH  43  46
ENDBRANCH  25  39
BRANCH  26  50
ATOM     50  C   UNL A   1      40.140  29.125  29.281  1.00  0.00     0.023 A 
ATOM     51  C   UNL A   1      39.204  29.434  28.276  1.00  0.00     0.012 A 
ATOM     52  C   UNL A   1      39.722  29.136  30.628  1.00  0.00     0.148 A 
ATOM     53  C   UNL A   1      37.888  29.771  28.605  1.00  0.00     0.002 A 
ATOM     54  C   UNL A   1      38.398  29.417  30.945  1.00  0.00     0.091 A 
ATOM     55  F   UNL A   1      40.629  28.867  31.577  1.00  0.00    -0.205 F 
ATOM     56  C   UNL A   1      37.482  29.750  29.937  1.00  0.00     0.022 A 
BRANCH  54  57
ATOM     57  S   UNL A   1      37.770  29.286  32.624  1.00  0.00     0.127 S 
ATOM     58  O   UNL A   1      36.447  29.890  32.498  1.00  0.00    -0.237 OA
ATOM     59  O   UNL A   1      37.768  27.838  32.839  1.00  0.00    -0.237 OA
ATOM     60  O   UNL A   1      38.726  30.009  33.452  1.00  0.00    -0.744 OA
ENDBRANCH  54  57
ENDBRANCH  26  50
BRANCH  38  61
ATOM     61  C   UNL A   1      46.134  32.697  28.918  1.00  0.00     0.023 A 
ATOM     62  C   UNL A   1      46.746  33.007  30.147  1.00  0.00     0.012 A 
ATOM     63  C   UNL A   1      45.936  33.711  27.961  1.00  0.00     0.148 A 
ATOM     64  C   UNL A   1      47.134  34.315  30.431  1.00  0.00     0.002 A 
ATOM     65  C   UNL A   1      46.370  35.002  28.232  1.00  0.00     0.091 A 
ATOM     66  F   UNL A   1      45.329  33.397  26.807  1.00  0.00    -0.205 F 
ATOM     67  C   UNL A   1      46.959  35.308  29.470  1.00  0.00     0.022 A 
BRANCH  65  68
ATOM     68  S   UNL A   1      46.276  36.309  27.004  1.00  0.00     0.127 S 
ATOM     69  O   UNL A   1      47.126  37.339  27.599  1.00  0.00    -0.237 OA
ATOM     70  O   UNL A   1      46.839  35.665  25.816  1.00  0.00    -0.237 OA
ATOM     71  O   UNL A   1      44.863  36.643  26.892  1.00  0.00    -0.744 OA
ENDBRANCH  65  68
ENDBRANCH  38  61
ENDBRANCH  12  13
ENDBRANCH   5   7
ENDBRANCH   4   5
ENDBRANCH   3   4
ENDBRANCH   2   3
ENDBRANCH   1   2
BRANCH   1  72
ATOM     72  C   UNL A   1      37.917  23.097  25.940  1.00  0.00     0.202 C 
BRANCH  72  73
ATOM     73  C   UNL A   1      36.606  23.588  25.327  1.00  0.00     0.261 C 
BRANCH  73  74
ATOM     74  O   UNL A   1      35.663  22.506  25.375  1.00  0.00    -0.460 OA
BRANCH  74  75
ATOM     75  C   UNL A   1      34.499  22.754  26.028  1.00  0.00     0.342 C 
ATOM     76  O   UNL A   1      34.352  23.231  27.141  1.00  0.00    -0.246 OA
BRANCH  75  77
ATOM     77  C   UNL A   1      33.405  22.617  25.046  1.00  0.00     0.102 A 
ATOM     78  C   UNL A   1      32.668  23.776  24.732  1.00  0.00     0.027 A 
ATOM     79  C   UNL A   1      33.176  21.428  24.349  1.00  0.00     0.130 A 
ATOM     80  C   UNL A   1      31.774  23.774  23.658  1.00  0.00    -0.025 A 
ATOM     81  C   UNL A   1      32.250  21.402  23.313  1.00  0.00     0.048 A 
ATOM     82  C   UNL A   1      31.566  22.571  22.966  1.00  0.00     0.012 A 
BRANCH  79  83
ATOM     83  O   UNL A   1      33.847  20.287  24.685  1.00  0.00    -0.507 OA
ATOM     84  H   UNL A   1      34.425  20.282  25.422  1.00  0.00     0.293 HD
ENDBRANCH  79  83
BRANCH  80  85
ATOM     85  C   UNL A   1      31.018  24.959  23.216  1.00  0.00     0.009 C 
ATOM     86  C   UNL A   1      30.592  25.980  23.981  1.00  0.00     0.009 C 
BRANCH  86  87
ATOM     87  C   UNL A   1      29.891  27.142  23.402  1.00  0.00    -0.018 A 
ATOM     88  C   UNL A   1      30.590  28.131  22.690  1.00  0.00     0.054 A 
ATOM     89  C   UNL A   1      28.500  27.266  23.546  1.00  0.00     0.054 A 
ATOM     90  C   UNL A   1      29.915  29.242  22.187  1.00  0.00     0.119 A 
ATOM     91  C   UNL A   1      27.844  28.386  23.028  1.00  0.00     0.119 A 
ATOM     92  C   UNL A   1      28.547  29.382  22.360  1.00  0.00     0.092 A 
BRANCH  90  93
ATOM     93  O   UNL A   1      30.580  30.224  21.513  1.00  0.00    -0.508 OA
ATOM     94  H   UNL A   1      30.427  31.124  21.725  1.00  0.00     0.293 HD
ENDBRANCH  90  93
BRANCH  91  95
ATOM     95  O   UNL A   1      26.497  28.550  23.165  1.00  0.00    -0.508 OA
ATOM     96  H   UNL A   1      25.920  27.827  23.019  1.00  0.00     0.293 HD
ENDBRANCH  91  95
ENDBRANCH  86  87
ENDBRANCH  80  85
ENDBRANCH  75  77
ENDBRANCH  74  75
ENDBRANCH  73  74
ENDBRANCH  72  73
ENDBRANCH   1  72
TORSDOF 22
ENDMDL
