MODEL 1
REMARK VINA RESULT:     -10.5      0.000      0.000
REMARK SMILES CCn1cnc(S(=O)(=O)N[C@H](Cc2cnc[nH]2)C(=O)OCCOCCOC(=O)c2ccc(-c3c4nc(c(-c5cccc(S(=O)(=O)[O-])c5F)c5ccc([nH]5)c(-c5cccc(S(=O)(=O)[O-])c5F)c5nc(c(-c6cccc(S(=O)(=O)[O-])c6F)c6ccc3[nH]6)C=C5)C=C4)cc2)c1
REMARK SMILES IDX 22 1 21 2 20 3 18 4 19 5 11 6 10 7 7 9 8 10 9 11 6 12 3 13
REMARK SMILES IDX 4 14 92 15 5 16 2 17 1 18 12 19 13 20 14 21 17 22 15 23
REMARK SMILES IDX 16 24 23 26 24 27 25 28 26 29 27 30 28 31 29 32 30 33 91 34
REMARK SMILES IDX 31 35 90 36 32 37 33 38 34 39 84 40 35 41 89 42 83 43 85 44
REMARK SMILES IDX 36 45 88 46 82 47 81 48 37 50 69 51 49 52 68 53 50 54 53 55
REMARK SMILES IDX 67 56 86 57 51 58 52 59 66 61 87 62 54 63 38 64 39 65 47 66
REMARK SMILES IDX 40 67 42 68 48 69 41 70 43 71 44 72 45 73 46 74 70 75 71 76
REMARK SMILES IDX 79 77 72 78 74 79 80 80 73 81 75 82 76 83 77 84 78 85 55 86
REMARK SMILES IDX 56 87 64 88 57 89 59 90 65 91 58 92 60 93 61 94 62 95 63 96
REMARK H PARENT 10 8 17 25 85 49 53 60
REMARK Flexibility Score: inf
ROOT
ATOM      1  C   UNL A   1      33.658  19.439  25.228  1.00  0.00     0.202 C 
ENDROOT
BRANCH   1   2
ATOM      2  C   UNL A   1      32.768  19.483  23.983  1.00  0.00     0.261 C 
BRANCH   2   3
ATOM      3  O   UNL A   1      32.076  20.742  23.962  1.00  0.00    -0.462 OA
BRANCH   3   4
ATOM      4  C   UNL A   1      32.047  21.402  22.782  1.00  0.00     0.324 C 
ATOM      5  O   UNL A   1      31.891  20.863  21.692  1.00  0.00    -0.250 OA
BRANCH   4   6
ATOM      6  C   UNL A   1      32.183  22.922  22.947  1.00  0.00     0.185 C 
BRANCH   6   7
ATOM      7  N   UNL A   1      33.184  23.179  24.030  1.00  0.00    -0.195 NA
ATOM      8  H   UNL A   1      32.673  23.384  24.888  1.00  0.00     0.142 HD
BRANCH   7   9
ATOM      9  S   UNL A   1      34.258  24.458  23.746  1.00  0.00     0.260 S 
ATOM     10  O   UNL A   1      34.154  24.817  22.349  1.00  0.00    -0.205 OA
ATOM     11  O   UNL A   1      35.510  24.107  24.375  1.00  0.00    -0.205 OA
BRANCH   9  12
ATOM     12  C   UNL A   1      33.676  25.845  24.631  1.00  0.00     0.188 A 
ATOM     13  N   UNL A   1      33.103  27.888  25.146  1.00  0.00    -0.336 N 
ATOM     14  C   UNL A   1      33.191  27.127  26.278  1.00  0.00     0.201 A 
ATOM     15  C   UNL A   1      33.372  27.075  24.080  1.00  0.00     0.129 A 
ATOM     16  N   UNL A   1      33.556  25.893  26.009  1.00  0.00    -0.224 NA
BRANCH  13  17
ATOM     17  C   UNL A   1      32.900  29.321  25.081  1.00  0.00     0.120 C 
ATOM     18  C   UNL A   1      31.446  29.758  25.070  1.00  0.00     0.027 C 
ENDBRANCH  13  17
ENDBRANCH   9  12
ENDBRANCH   7   9
ENDBRANCH   6   7
BRANCH   6  19
ATOM     19  C   UNL A   1      30.885  23.706  23.247  1.00  0.00     0.087 C 
BRANCH  19  20
ATOM     20  C   UNL A   1      30.640  24.051  24.698  1.00  0.00     0.037 A 
ATOM     21  C   UNL A   1      30.878  23.294  25.831  1.00  0.00     0.134 A 
ATOM     22  N   UNL A   1      30.067  25.205  25.186  1.00  0.00    -0.348 N 
ATOM     23  N   UNL A   1      30.492  23.959  26.965  1.00  0.00    -0.245 NA
ATOM     24  C   UNL A   1      29.998  25.098  26.547  1.00  0.00     0.196 A 
ATOM     25  H   UNL A   1      29.762  25.972  24.649  1.00  0.00     0.167 HD
ENDBRANCH  19  20
ENDBRANCH   6  19
ENDBRANCH   4   6
ENDBRANCH   3   4
ENDBRANCH   2   3
ENDBRANCH   1   2
BRANCH   1  26
ATOM     26  O   UNL A   1      35.065  19.402  24.956  1.00  0.00    -0.374 OA
BRANCH  26  27
ATOM     27  C   UNL A   1      35.707  20.642  24.657  1.00  0.00     0.202 C 
BRANCH  27  28
ATOM     28  C   UNL A   1      37.238  20.649  24.730  1.00  0.00     0.261 C 
BRANCH  28  29
ATOM     29  O   UNL A   1      37.713  21.221  25.961  1.00  0.00    -0.460 OA
BRANCH  29  30
ATOM     30  C   UNL A   1      39.049  21.096  26.157  1.00  0.00     0.338 C 
ATOM     31  O   UNL A   1      39.762  20.178  25.786  1.00  0.00    -0.246 OA
BRANCH  30  32
ATOM     32  C   UNL A   1      39.597  22.337  26.738  1.00  0.00     0.060 A 
ATOM     33  C   UNL A   1      39.013  23.541  26.327  1.00  0.00     0.016 A 
ATOM     34  C   UNL A   1      40.699  22.337  27.596  1.00  0.00     0.016 A 
ATOM     35  C   UNL A   1      39.567  24.756  26.723  1.00  0.00     0.010 A 
ATOM     36  C   UNL A   1      41.259  23.560  27.986  1.00  0.00     0.010 A 
ATOM     37  C   UNL A   1      40.721  24.771  27.515  1.00  0.00    -0.014 A 
BRANCH  37  38
ATOM     38  C   UNL A   1      41.453  26.048  27.694  1.00  0.00     0.031 A 
ATOM     39  C   UNL A   1      40.778  27.174  28.431  1.00  0.00     0.074 A 
ATOM     40  C   UNL A   1      42.710  26.195  27.241  1.00  0.00     0.049 A 
ATOM     41  N   UNL A   1      41.238  28.359  28.732  1.00  0.00    -0.248 NA
ATOM     42  C   UNL A   1      39.400  26.929  28.890  1.00  0.00     0.031 C 
ATOM     43  C   UNL A   1      43.470  25.178  26.517  1.00  0.00     0.029 A 
ATOM     44  N   UNL A   1      43.563  27.269  27.311  1.00  0.00    -0.354 N 
ATOM     45  C   UNL A   1      40.206  29.008  29.397  1.00  0.00     0.074 A 
ATOM     46  C   UNL A   1      39.087  28.092  29.444  1.00  0.00     0.031 C 
ATOM     47  C   UNL A   1      44.672  25.686  26.188  1.00  0.00     0.029 A 
ATOM     48  C   UNL A   1      44.759  27.064  26.668  1.00  0.00     0.049 A 
ATOM     49  H   UNL A   1      43.337  28.105  27.780  1.00  0.00     0.167 HD
ATOM     50  C   UNL A   1      40.194  30.247  29.944  1.00  0.00     0.034 A 
ATOM     51  C   UNL A   1      45.801  27.900  26.479  1.00  0.00     0.034 A 
ATOM     52  C   UNL A   1      41.313  31.149  29.922  1.00  0.00     0.049 A 
ATOM     53  C   UNL A   1      45.757  29.280  27.081  1.00  0.00     0.074 A 
ATOM     54  C   UNL A   1      41.414  32.406  30.490  1.00  0.00     0.029 A 
ATOM     55  N   UNL A   1      42.521  30.893  29.294  1.00  0.00    -0.354 N 
ATOM     56  N   UNL A   1      44.824  29.830  27.820  1.00  0.00    -0.248 NA
ATOM     57  C   UNL A   1      46.924  30.145  26.851  1.00  0.00     0.031 C 
ATOM     58  C   UNL A   1      42.682  32.919  30.190  1.00  0.00     0.029 A 
ATOM     59  C   UNL A   1      43.372  31.973  29.447  1.00  0.00     0.049 A 
ATOM     60  H   UNL A   1      42.741  30.066  28.808  1.00  0.00     0.167 HD
ATOM     61  C   UNL A   1      45.303  31.088  28.170  1.00  0.00     0.074 A 
ATOM     62  C   UNL A   1      46.619  31.213  27.578  1.00  0.00     0.031 C 
ATOM     63  C   UNL A   1      44.702  32.060  28.900  1.00  0.00     0.034 A 
BRANCH  50  64
ATOM     64  C   UNL A   1      38.939  30.683  30.649  1.00  0.00     0.023 A 
ATOM     65  C   UNL A   1      38.844  30.534  32.047  1.00  0.00     0.012 A 
ATOM     66  C   UNL A   1      37.879  31.279  29.940  1.00  0.00     0.148 A 
ATOM     67  C   UNL A   1      37.700  30.949  32.727  1.00  0.00     0.002 A 
ATOM     68  C   UNL A   1      36.756  31.723  30.632  1.00  0.00     0.091 A 
ATOM     69  F   UNL A   1      37.977  31.385  28.607  1.00  0.00    -0.205 F 
ATOM     70  C   UNL A   1      36.662  31.552  32.022  1.00  0.00     0.022 A 
BRANCH  68  71
ATOM     71  S   UNL A   1      35.398  32.569  29.816  1.00  0.00     0.127 S 
ATOM     72  O   UNL A   1      36.076  33.730  29.240  1.00  0.00    -0.237 OA
ATOM     73  O   UNL A   1      34.955  31.575  28.837  1.00  0.00    -0.237 OA
ATOM     74  O   UNL A   1      34.427  32.862  30.861  1.00  0.00    -0.744 OA
ENDBRANCH  68  71
ENDBRANCH  50  64
BRANCH  51  75
ATOM     75  C   UNL A   1      46.996  27.435  25.722  1.00  0.00     0.023 A 
ATOM     76  C   UNL A   1      47.931  26.589  26.346  1.00  0.00     0.012 A 
ATOM     77  C   UNL A   1      47.197  27.806  24.377  1.00  0.00     0.148 A 
ATOM     78  C   UNL A   1      49.057  26.139  25.655  1.00  0.00     0.002 A 
ATOM     79  C   UNL A   1      48.291  27.312  23.679  1.00  0.00     0.091 A 
ATOM     80  F   UNL A   1      46.309  28.632  23.806  1.00  0.00    -0.205 F 
ATOM     81  C   UNL A   1      49.231  26.490  24.319  1.00  0.00     0.022 A 
BRANCH  79  82
ATOM     82  S   UNL A   1      48.516  27.609  21.921  1.00  0.00     0.127 S 
ATOM     83  O   UNL A   1      48.873  26.280  21.434  1.00  0.00    -0.237 OA
ATOM     84  O   UNL A   1      47.190  28.078  21.519  1.00  0.00    -0.237 OA
ATOM     85  O   UNL A   1      49.558  28.624  21.831  1.00  0.00    -0.744 OA
ENDBRANCH  79  82
ENDBRANCH  51  75
BRANCH  63  86
ATOM     86  C   UNL A   1      45.462  33.341  29.125  1.00  0.00     0.023 A 
ATOM     87  C   UNL A   1      46.384  33.423  30.187  1.00  0.00     0.012 A 
ATOM     88  C   UNL A   1      45.329  34.426  28.237  1.00  0.00     0.148 A 
ATOM     89  C   UNL A   1      47.144  34.576  30.377  1.00  0.00     0.002 A 
ATOM     90  C   UNL A   1      46.122  35.556  28.407  1.00  0.00     0.091 A 
ATOM     91  F   UNL A   1      44.431  34.336  27.245  1.00  0.00    -0.205 F 
ATOM     92  C   UNL A   1      47.022  35.636  29.481  1.00  0.00     0.022 A 
BRANCH  90  93
ATOM     93  S   UNL A   1      46.093  36.927  27.247  1.00  0.00     0.127 S 
ATOM     94  O   UNL A   1      44.659  37.118  27.045  1.00  0.00    -0.237 OA
ATOM     95  O   UNL A   1      46.749  37.995  28.005  1.00  0.00    -0.237 OA
ATOM     96  O   UNL A   1      46.840  36.475  26.081  1.00  0.00    -0.744 OA
ENDBRANCH  90  93
ENDBRANCH  63  86
ENDBRANCH  37  38
ENDBRANCH  30  32
ENDBRANCH  29  30
ENDBRANCH  28  29
ENDBRANCH  27  28
ENDBRANCH  26  27
ENDBRANCH   1  26
TORSDOF 23
ENDMDL
MODEL 2
REMARK VINA RESULT:     -10.3      1.686      2.584
REMARK SMILES CCn1cnc(S(=O)(=O)N[C@H](Cc2cnc[nH]2)C(=O)OCCOCCOC(=O)c2ccc(-c3c4nc(c(-c5cccc(S(=O)(=O)[O-])c5F)c5ccc([nH]5)c(-c5cccc(S(=O)(=O)[O-])c5F)c5nc(c(-c6cccc(S(=O)(=O)[O-])c6F)c6ccc3[nH]6)C=C5)C=C4)cc2)c1
REMARK SMILES IDX 22 1 21 2 20 3 18 4 19 5 11 6 10 7 7 9 8 10 9 11 6 12 3 13
REMARK SMILES IDX 4 14 92 15 5 16 2 17 1 18 12 19 13 20 14 21 17 22 15 23
REMARK SMILES IDX 16 24 23 26 24 27 25 28 26 29 27 30 28 31 29 32 30 33 91 34
REMARK SMILES IDX 31 35 90 36 32 37 33 38 34 39 84 40 35 41 89 42 83 43 85 44
REMARK SMILES IDX 36 45 88 46 82 47 81 48 37 50 69 51 49 52 68 53 50 54 53 55
REMARK SMILES IDX 67 56 86 57 51 58 52 59 66 61 87 62 54 63 38 64 39 65 47 66
REMARK SMILES IDX 40 67 42 68 48 69 41 70 43 71 44 72 45 73 46 74 70 75 71 76
REMARK SMILES IDX 79 77 72 78 74 79 80 80 73 81 75 82 76 83 77 84 78 85 55 86
REMARK SMILES IDX 56 87 64 88 57 89 59 90 65 91 58 92 60 93 61 94 62 95 63 96
REMARK H PARENT 10 8 17 25 85 49 53 60
REMARK Flexibility Score: inf
ROOT
ATOM      1  C   UNL A   1      33.950  21.312  25.402  1.00  0.00     0.202 C 
ENDROOT
BRANCH   1   2
ATOM      2  C   UNL A   1      33.243  22.154  24.336  1.00  0.00     0.261 C 
BRANCH   2   3
ATOM      3  O   UNL A   1      32.789  23.374  24.946  1.00  0.00    -0.462 OA
BRANCH   3   4
ATOM      4  C   UNL A   1      33.493  24.493  24.667  1.00  0.00     0.324 C 
ATOM      5  O   UNL A   1      34.515  24.517  23.991  1.00  0.00    -0.250 OA
BRANCH   4   6
ATOM      6  C   UNL A   1      32.852  25.761  25.250  1.00  0.00     0.185 C 
BRANCH   6   7
ATOM      7  N   UNL A   1      31.993  26.371  24.187  1.00  0.00    -0.195 NA
ATOM      8  H   UNL A   1      32.063  27.385  24.270  1.00  0.00     0.142 HD
BRANCH   7   9
ATOM      9  S   UNL A   1      30.352  25.955  24.244  1.00  0.00     0.260 S 
ATOM     10  O   UNL A   1      29.952  25.934  25.633  1.00  0.00    -0.205 OA
ATOM     11  O   UNL A   1      30.170  24.830  23.358  1.00  0.00    -0.205 OA
BRANCH   9  12
ATOM     12  C   UNL A   1      29.449  27.260  23.517  1.00  0.00     0.188 A 
ATOM     13  N   UNL A   1      28.933  29.197  22.650  1.00  0.00    -0.336 N 
ATOM     14  C   UNL A   1      27.796  28.510  22.973  1.00  0.00     0.201 A 
ATOM     15  C   UNL A   1      29.999  28.396  22.954  1.00  0.00     0.129 A 
ATOM     16  N   UNL A   1      28.068  27.346  23.519  1.00  0.00    -0.224 NA
BRANCH  13  17
ATOM     17  C   UNL A   1      29.016  30.570  22.197  1.00  0.00     0.120 C 
ATOM     18  C   UNL A   1      28.102  30.912  21.033  1.00  0.00     0.027 C 
ENDBRANCH  13  17
ENDBRANCH   9  12
ENDBRANCH   7   9
ENDBRANCH   6   7
BRANCH   6  19
ATOM     19  C   UNL A   1      33.817  26.830  25.812  1.00  0.00     0.087 C 
BRANCH  19  20
ATOM     20  C   UNL A   1      33.192  28.151  26.197  1.00  0.00     0.037 A 
ATOM     21  C   UNL A   1      33.708  29.429  26.090  1.00  0.00     0.134 A 
ATOM     22  N   UNL A   1      31.965  28.339  26.796  1.00  0.00    -0.348 N 
ATOM     23  N   UNL A   1      32.833  30.363  26.577  1.00  0.00    -0.245 NA
ATOM     24  C   UNL A   1      31.800  29.679  27.006  1.00  0.00     0.196 A 
ATOM     25  H   UNL A   1      31.321  27.632  27.030  1.00  0.00     0.167 HD
ENDBRANCH  19  20
ENDBRANCH   6  19
ENDBRANCH   4   6
ENDBRANCH   3   4
ENDBRANCH   2   3
ENDBRANCH   1   2
BRANCH   1  26
ATOM     26  O   UNL A   1      35.162  20.686  24.962  1.00  0.00    -0.374 OA
BRANCH  26  27
ATOM     27  C   UNL A   1      36.238  21.543  24.577  1.00  0.00     0.202 C 
BRANCH  27  28
ATOM     28  C   UNL A   1      37.653  20.991  24.784  1.00  0.00     0.261 C 
BRANCH  28  29
ATOM     29  O   UNL A   1      38.119  21.200  26.127  1.00  0.00    -0.460 OA
BRANCH  29  30
ATOM     30  C   UNL A   1      39.469  21.199  26.258  1.00  0.00     0.338 C 
ATOM     31  O   UNL A   1      40.250  20.379  25.804  1.00  0.00    -0.246 OA
BRANCH  30  32
ATOM     32  C   UNL A   1      39.921  22.455  26.887  1.00  0.00     0.060 A 
ATOM     33  C   UNL A   1      39.336  23.641  26.427  1.00  0.00     0.016 A 
ATOM     34  C   UNL A   1      40.941  22.489  27.841  1.00  0.00     0.016 A 
ATOM     35  C   UNL A   1      39.811  24.872  26.871  1.00  0.00     0.010 A 
ATOM     36  C   UNL A   1      41.422  23.728  28.281  1.00  0.00     0.010 A 
ATOM     37  C   UNL A   1      40.889  24.923  27.764  1.00  0.00    -0.014 A 
BRANCH  37  38
ATOM     38  C   UNL A   1      41.558  26.223  28.009  1.00  0.00     0.031 A 
ATOM     39  C   UNL A   1      40.785  27.319  28.691  1.00  0.00     0.074 A 
ATOM     40  C   UNL A   1      42.844  26.415  27.664  1.00  0.00     0.049 A 
ATOM     41  N   UNL A   1      41.178  28.518  29.034  1.00  0.00    -0.248 NA
ATOM     42  C   UNL A   1      39.382  27.025  29.031  1.00  0.00     0.031 C 
ATOM     43  C   UNL A   1      43.697  25.430  27.003  1.00  0.00     0.029 A 
ATOM     44  N   UNL A   1      43.649  27.516  27.811  1.00  0.00    -0.354 N 
ATOM     45  C   UNL A   1      40.071  29.126  29.612  1.00  0.00     0.074 A 
ATOM     46  C   UNL A   1      38.984  28.172  29.560  1.00  0.00     0.031 C 
ATOM     47  C   UNL A   1      44.903  25.980  26.779  1.00  0.00     0.029 A 
ATOM     48  C   UNL A   1      44.902  27.357  27.270  1.00  0.00     0.049 A 
ATOM     49  H   UNL A   1      43.357  28.342  28.262  1.00  0.00     0.167 HD
ATOM     50  C   UNL A   1      39.971  30.361  30.160  1.00  0.00     0.034 A 
ATOM     51  C   UNL A   1      45.927  28.229  27.173  1.00  0.00     0.034 A 
ATOM     52  C   UNL A   1      41.056  31.300  30.237  1.00  0.00     0.049 A 
ATOM     53  C   UNL A   1      45.784  29.603  27.774  1.00  0.00     0.074 A 
ATOM     54  C   UNL A   1      41.065  32.556  30.816  1.00  0.00     0.029 A 
ATOM     55  N   UNL A   1      42.320  31.090  29.712  1.00  0.00    -0.354 N 
ATOM     56  N   UNL A   1      44.774  30.116  28.434  1.00  0.00    -0.248 NA
ATOM     57  C   UNL A   1      46.936  30.509  27.646  1.00  0.00     0.031 C 
ATOM     58  C   UNL A   1      42.335  33.114  30.626  1.00  0.00     0.029 A 
ATOM     59  C   UNL A   1      43.117  32.198  29.941  1.00  0.00     0.049 A 
ATOM     60  H   UNL A   1      42.609  30.274  29.243  1.00  0.00     0.167 HD
ATOM     61  C   UNL A   1      45.179  31.387  28.828  1.00  0.00     0.074 A 
ATOM     62  C   UNL A   1      46.535  31.560  28.350  1.00  0.00     0.031 C 
ATOM     63  C   UNL A   1      44.485  32.333  29.508  1.00  0.00     0.034 A 
BRANCH  50  64
ATOM     64  C   UNL A   1      38.646  30.749  30.758  1.00  0.00     0.023 A 
ATOM     65  C   UNL A   1      38.374  30.429  32.104  1.00  0.00     0.012 A 
ATOM     66  C   UNL A   1      37.695  31.467  30.010  1.00  0.00     0.148 A 
ATOM     67  C   UNL A   1      37.163  30.795  32.688  1.00  0.00     0.002 A 
ATOM     68  C   UNL A   1      36.503  31.860  30.612  1.00  0.00     0.091 A 
ATOM     69  F   UNL A   1      37.960  31.736  28.724  1.00  0.00    -0.205 F 
ATOM     70  C   UNL A   1      36.233  31.518  31.946  1.00  0.00     0.022 A 
BRANCH  68  71
ATOM     71  S   UNL A   1      35.274  32.850  29.753  1.00  0.00     0.127 S 
ATOM     72  O   UNL A   1      34.865  31.945  28.679  1.00  0.00    -0.237 OA
ATOM     73  O   UNL A   1      34.264  33.060  30.791  1.00  0.00    -0.237 OA
ATOM     74  O   UNL A   1      35.964  34.060  29.328  1.00  0.00    -0.744 OA
ENDBRANCH  68  71
ENDBRANCH  50  64
BRANCH  51  75
ATOM     75  C   UNL A   1      47.196  27.810  26.517  1.00  0.00     0.023 A 
ATOM     76  C   UNL A   1      48.240  27.277  27.296  1.00  0.00     0.012 A 
ATOM     77  C   UNL A   1      47.365  27.913  25.122  1.00  0.00     0.148 A 
ATOM     78  C   UNL A   1      49.438  26.876  26.703  1.00  0.00     0.002 A 
ATOM     79  C   UNL A   1      48.540  27.463  24.531  1.00  0.00     0.091 A 
ATOM     80  F   UNL A   1      46.370  28.446  24.399  1.00  0.00    -0.205 F 
ATOM     81  C   UNL A   1      49.583  26.957  25.321  1.00  0.00     0.022 A 
BRANCH  79  82
ATOM     82  S   UNL A   1      48.752  27.411  22.748  1.00  0.00     0.127 S 
ATOM     83  O   UNL A   1      47.874  28.491  22.309  1.00  0.00    -0.237 OA
ATOM     84  O   UNL A   1      50.183  27.680  22.603  1.00  0.00    -0.237 OA
ATOM     85  O   UNL A   1      48.357  26.065  22.351  1.00  0.00    -0.744 OA
ENDBRANCH  79  82
ENDBRANCH  51  75
BRANCH  63  86
ATOM     86  C   UNL A   1      45.178  33.637  29.801  1.00  0.00     0.023 A 
ATOM     87  C   UNL A   1      46.007  33.743  30.936  1.00  0.00     0.012 A 
ATOM     88  C   UNL A   1      45.081  34.725  28.911  1.00  0.00     0.148 A 
ATOM     89  C   UNL A   1      46.708  34.920  31.194  1.00  0.00     0.002 A 
ATOM     90  C   UNL A   1      45.817  35.880  29.152  1.00  0.00     0.091 A 
ATOM     91  F   UNL A   1      44.271  34.611  27.848  1.00  0.00    -0.205 F 
ATOM     92  C   UNL A   1      46.623  35.982  30.296  1.00  0.00     0.022 A 
BRANCH  90  93
ATOM     93  S   UNL A   1      45.836  37.259  28.000  1.00  0.00     0.127 S 
ATOM     94  O   UNL A   1      44.443  37.300  27.561  1.00  0.00    -0.237 OA
ATOM     95  O   UNL A   1      46.239  38.377  28.855  1.00  0.00    -0.237 OA
ATOM     96  O   UNL A   1      46.810  36.906  26.976  1.00  0.00    -0.744 OA
ENDBRANCH  90  93
ENDBRANCH  63  86
ENDBRANCH  37  38
ENDBRANCH  30  32
ENDBRANCH  29  30
ENDBRANCH  28  29
ENDBRANCH  27  28
ENDBRANCH  26  27
ENDBRANCH   1  26
TORSDOF 23
ENDMDL
MODEL 3
REMARK VINA RESULT:     -10.3      2.421      8.001
REMARK SMILES CCn1cnc(S(=O)(=O)N[C@H](Cc2cnc[nH]2)C(=O)OCCOCCOC(=O)c2ccc(-c3c4nc(c(-c5cccc(S(=O)(=O)[O-])c5F)c5ccc([nH]5)c(-c5cccc(S(=O)(=O)[O-])c5F)c5nc(c(-c6cccc(S(=O)(=O)[O-])c6F)c6ccc3[nH]6)C=C5)C=C4)cc2)c1
REMARK SMILES IDX 22 1 21 2 20 3 18 4 19 5 11 6 10 7 7 9 8 10 9 11 6 12 3 13
REMARK SMILES IDX 4 14 92 15 5 16 2 17 1 18 12 19 13 20 14 21 17 22 15 23
REMARK SMILES IDX 16 24 23 26 24 27 25 28 26 29 27 30 28 31 29 32 30 33 91 34
REMARK SMILES IDX 31 35 90 36 32 37 33 38 34 39 84 40 35 41 89 42 83 43 85 44
REMARK SMILES IDX 36 45 88 46 82 47 81 48 37 50 69 51 49 52 68 53 50 54 53 55
REMARK SMILES IDX 67 56 86 57 51 58 52 59 66 61 87 62 54 63 38 64 39 65 47 66
REMARK SMILES IDX 40 67 42 68 48 69 41 70 43 71 44 72 45 73 46 74 70 75 71 76
REMARK SMILES IDX 79 77 72 78 74 79 80 80 73 81 75 82 76 83 77 84 78 85 55 86
REMARK SMILES IDX 56 87 64 88 57 89 59 90 65 91 58 92 60 93 61 94 62 95 63 96
REMARK H PARENT 10 8 17 25 85 49 53 60
REMARK Flexibility Score: inf
ROOT
ATOM      1  C   UNL A   1      36.036  21.914  25.667  1.00  0.00     0.202 C 
ENDROOT
BRANCH   1   2
ATOM      2  C   UNL A   1      34.581  22.138  26.087  1.00  0.00     0.261 C 
BRANCH   2   3
ATOM      3  O   UNL A   1      34.358  23.551  26.224  1.00  0.00    -0.462 OA
BRANCH   3   4
ATOM      4  C   UNL A   1      33.091  23.944  26.486  1.00  0.00     0.324 C 
ATOM      5  O   UNL A   1      32.297  23.311  27.172  1.00  0.00    -0.250 OA
BRANCH   4   6
ATOM      6  C   UNL A   1      32.753  25.310  25.869  1.00  0.00     0.185 C 
BRANCH   6   7
ATOM      7  N   UNL A   1      32.253  25.074  24.478  1.00  0.00    -0.195 NA
ATOM      8  H   UNL A   1      32.664  25.783  23.872  1.00  0.00     0.142 HD
BRANCH   7   9
ATOM      9  S   UNL A   1      30.571  25.136  24.286  1.00  0.00     0.260 S 
ATOM     10  O   UNL A   1      29.976  25.096  25.602  1.00  0.00    -0.205 OA
ATOM     11  O   UNL A   1      30.229  24.198  23.241  1.00  0.00    -0.205 OA
BRANCH   9  12
ATOM     12  C   UNL A   1      30.170  26.706  23.637  1.00  0.00     0.188 A 
ATOM     13  N   UNL A   1      29.034  28.435  22.937  1.00  0.00    -0.336 N 
ATOM     14  C   UNL A   1      30.332  28.526  22.518  1.00  0.00     0.201 A 
ATOM     15  C   UNL A   1      28.922  27.297  23.687  1.00  0.00     0.129 A 
ATOM     16  N   UNL A   1      31.042  27.490  22.902  1.00  0.00    -0.224 NA
BRANCH  13  17
ATOM     17  C   UNL A   1      27.937  29.300  22.554  1.00  0.00     0.120 C 
ATOM     18  C   UNL A   1      28.007  30.706  23.123  1.00  0.00     0.027 C 
ENDBRANCH  13  17
ENDBRANCH   9  12
ENDBRANCH   7   9
ENDBRANCH   6   7
BRANCH   6  19
ATOM     19  C   UNL A   1      33.890  26.357  25.839  1.00  0.00     0.087 C 
BRANCH  19  20
ATOM     20  C   UNL A   1      33.467  27.799  25.997  1.00  0.00     0.037 A 
ATOM     21  C   UNL A   1      33.372  28.563  27.146  1.00  0.00     0.134 A 
ATOM     22  N   UNL A   1      33.033  28.646  25.001  1.00  0.00    -0.348 N 
ATOM     23  N   UNL A   1      32.923  29.827  26.869  1.00  0.00    -0.245 NA
ATOM     24  C   UNL A   1      32.716  29.845  25.575  1.00  0.00     0.196 A 
ATOM     25  H   UNL A   1      32.964  28.426  24.044  1.00  0.00     0.167 HD
ENDBRANCH  19  20
ENDBRANCH   6  19
ENDBRANCH   4   6
ENDBRANCH   3   4
ENDBRANCH   2   3
ENDBRANCH   1   2
BRANCH   1  26
ATOM     26  O   UNL A   1      36.350  20.567  25.294  1.00  0.00    -0.374 OA
BRANCH  26  27
ATOM     27  C   UNL A   1      37.582  20.349  24.604  1.00  0.00     0.202 C 
BRANCH  27  28
ATOM     28  C   UNL A   1      38.539  19.328  25.230  1.00  0.00     0.261 C 
BRANCH  28  29
ATOM     29  O   UNL A   1      39.106  19.810  26.459  1.00  0.00    -0.460 OA
BRANCH  29  30
ATOM     30  C   UNL A   1      40.414  20.157  26.375  1.00  0.00     0.338 C 
ATOM     31  O   UNL A   1      41.297  19.556  25.784  1.00  0.00    -0.246 OA
BRANCH  30  32
ATOM     32  C   UNL A   1      40.623  21.501  26.949  1.00  0.00     0.060 A 
ATOM     33  C   UNL A   1      40.041  22.578  26.270  1.00  0.00     0.016 A 
ATOM     34  C   UNL A   1      41.427  21.717  28.071  1.00  0.00     0.016 A 
ATOM     35  C   UNL A   1      40.312  23.884  26.672  1.00  0.00     0.010 A 
ATOM     36  C   UNL A   1      41.703  23.031  28.468  1.00  0.00     0.010 A 
ATOM     37  C   UNL A   1      41.182  24.118  27.744  1.00  0.00    -0.014 A 
BRANCH  37  38
ATOM     38  C   UNL A   1      41.675  25.496  27.980  1.00  0.00     0.031 A 
ATOM     39  C   UNL A   1      43.052  25.867  27.499  1.00  0.00     0.074 A 
ATOM     40  C   UNL A   1      40.899  26.415  28.581  1.00  0.00     0.049 A 
ATOM     41  N   UNL A   1      43.671  27.016  27.567  1.00  0.00    -0.248 NA
ATOM     42  C   UNL A   1      43.835  24.799  26.854  1.00  0.00     0.031 C 
ATOM     43  C   UNL A   1      39.549  26.178  29.088  1.00  0.00     0.029 A 
ATOM     44  N   UNL A   1      41.147  27.731  28.881  1.00  0.00    -0.354 N 
ATOM     45  C   UNL A   1      44.919  26.808  26.993  1.00  0.00     0.074 A 
ATOM     46  C   UNL A   1      44.978  25.418  26.595  1.00  0.00     0.031 C 
ATOM     47  C   UNL A   1      39.094  27.308  29.658  1.00  0.00     0.029 A 
ATOM     48  C   UNL A   1      40.124  28.342  29.566  1.00  0.00     0.049 A 
ATOM     49  H   UNL A   1      41.978  28.194  28.627  1.00  0.00     0.167 HD
ATOM     50  C   UNL A   1      45.920  27.698  26.792  1.00  0.00     0.034 A 
ATOM     51  C   UNL A   1      40.037  29.589  30.072  1.00  0.00     0.034 A 
ATOM     52  C   UNL A   1      45.852  29.085  27.162  1.00  0.00     0.049 A 
ATOM     53  C   UNL A   1      41.171  30.555  29.851  1.00  0.00     0.074 A 
ATOM     54  C   UNL A   1      46.796  30.076  26.956  1.00  0.00     0.029 A 
ATOM     55  N   UNL A   1      44.787  29.675  27.821  1.00  0.00    -0.354 N 
ATOM     56  N   UNL A   1      42.290  30.378  29.191  1.00  0.00    -0.248 NA
ATOM     57  C   UNL A   1      41.017  31.904  30.417  1.00  0.00     0.031 C 
ATOM     58  C   UNL A   1      46.306  31.265  27.507  1.00  0.00     0.029 A 
ATOM     59  C   UNL A   1      45.051  31.015  28.043  1.00  0.00     0.049 A 
ATOM     60  H   UNL A   1      43.963  29.210  28.093  1.00  0.00     0.167 HD
ATOM     61  C   UNL A   1      42.957  31.598  29.233  1.00  0.00     0.074 A 
ATOM     62  C   UNL A   1      42.107  32.513  29.967  1.00  0.00     0.031 C 
ATOM     63  C   UNL A   1      44.171  31.928  28.725  1.00  0.00     0.034 A 
BRANCH  50  64
ATOM     64  C   UNL A   1      47.161  27.202  26.102  1.00  0.00     0.023 A 
ATOM     65  C   UNL A   1      47.269  27.322  24.702  1.00  0.00     0.012 A 
ATOM     66  C   UNL A   1      48.234  26.663  26.837  1.00  0.00     0.148 A 
ATOM     67  C   UNL A   1      48.417  26.889  24.040  1.00  0.00     0.002 A 
ATOM     68  C   UNL A   1      49.390  26.267  26.172  1.00  0.00     0.091 A 
ATOM     69  F   UNL A   1      48.099  26.530  28.164  1.00  0.00    -0.205 F 
ATOM     70  C   UNL A   1      49.479  26.371  24.775  1.00  0.00     0.022 A 
BRANCH  68  71
ATOM     71  S   UNL A   1      50.834  25.648  27.043  1.00  0.00     0.127 S 
ATOM     72  O   UNL A   1      50.355  24.354  27.526  1.00  0.00    -0.237 OA
ATOM     73  O   UNL A   1      51.831  25.569  25.975  1.00  0.00    -0.237 OA
ATOM     74  O   UNL A   1      51.130  26.634  28.073  1.00  0.00    -0.744 OA
ENDBRANCH  68  71
ENDBRANCH  50  64
BRANCH  51  75
ATOM     75  C   UNL A   1      38.806  30.009  30.799  1.00  0.00     0.023 A 
ATOM     76  C   UNL A   1      38.663  29.696  32.163  1.00  0.00     0.012 A 
ATOM     77  C   UNL A   1      37.790  30.737  30.151  1.00  0.00     0.148 A 
ATOM     78  C   UNL A   1      37.519  30.080  32.865  1.00  0.00     0.002 A 
ATOM     79  C   UNL A   1      36.678  31.164  30.868  1.00  0.00     0.091 A 
ATOM     80  F   UNL A   1      37.932  31.005  28.845  1.00  0.00    -0.205 F 
ATOM     81  C   UNL A   1      36.533  30.824  32.221  1.00  0.00     0.022 A 
BRANCH  79  82
ATOM     82  S   UNL A   1      35.430  32.236  30.147  1.00  0.00     0.127 S 
ATOM     83  O   UNL A   1      36.207  33.429  29.828  1.00  0.00    -0.237 OA
ATOM     84  O   UNL A   1      34.990  31.457  28.990  1.00  0.00    -0.237 OA
ATOM     85  O   UNL A   1      34.413  32.394  31.179  1.00  0.00    -0.744 OA
ENDBRANCH  79  82
ENDBRANCH  51  75
BRANCH  63  86
ATOM     86  C   UNL A   1      44.653  33.341  28.922  1.00  0.00     0.023 A 
ATOM     87  C   UNL A   1      44.302  34.331  27.983  1.00  0.00     0.012 A 
ATOM     88  C   UNL A   1      45.375  33.705  30.075  1.00  0.00     0.148 A 
ATOM     89  C   UNL A   1      44.686  35.658  28.176  1.00  0.00     0.002 A 
ATOM     90  C   UNL A   1      45.716  35.038  30.282  1.00  0.00     0.091 A 
ATOM     91  F   UNL A   1      45.717  32.745  30.947  1.00  0.00    -0.205 F 
ATOM     92  C   UNL A   1      45.380  36.013  29.330  1.00  0.00     0.022 A 
BRANCH  90  93
ATOM     93  S   UNL A   1      46.531  35.593  31.784  1.00  0.00     0.127 S 
ATOM     94  O   UNL A   1      45.790  34.866  32.812  1.00  0.00    -0.237 OA
ATOM     95  O   UNL A   1      47.907  35.134  31.584  1.00  0.00    -0.237 OA
ATOM     96  O   UNL A   1      46.379  37.043  31.803  1.00  0.00    -0.744 OA
ENDBRANCH  90  93
ENDBRANCH  63  86
ENDBRANCH  37  38
ENDBRANCH  30  32
ENDBRANCH  29  30
ENDBRANCH  28  29
ENDBRANCH  27  28
ENDBRANCH  26  27
ENDBRANCH   1  26
TORSDOF 23
ENDMDL
