MODEL 1
REMARK VINA RESULT:      -8.8      0.000      0.000
REMARK SMILES COc1ccc2cc([C@H](C)C(=O)OCCOCCOC(=O)c3ccc(-c4c5nc(c(-c6cccc(S(=O)(=O)[O-])c6F)c6ccc([nH]6)c(-c6cccc(S(=O)(=O)[O-])c6F)c6nc(c(-c7cccc(S(=O)(=O)[O-])c7F)c7ccc4[nH]7)C=C6)C=C5)cc3)ccc2c1
REMARK SMILES IDX 17 1 16 2 15 3 14 4 13 5 11 6 12 7 9 8 10 9 8 10 3 11 4 12
REMARK SMILES IDX 88 13 5 14 87 15 6 16 86 17 7 18 85 19 2 20 1 21 18 22 19 23
REMARK SMILES IDX 20 24 21 25 22 26 23 27 84 28 24 29 83 30 25 31 26 32 27 33
REMARK SMILES IDX 77 34 28 35 82 36 76 37 78 38 29 39 81 40 75 41 74 42 30 44
REMARK SMILES IDX 62 45 42 46 61 47 43 48 46 49 60 50 79 51 44 52 45 53 59 55
REMARK SMILES IDX 80 56 47 57 31 58 32 59 40 60 33 61 35 62 41 63 34 64 36 65
REMARK SMILES IDX 37 66 38 67 39 68 63 69 64 70 72 71 65 72 67 73 73 74 66 75
REMARK SMILES IDX 68 76 69 77 70 78 71 79 48 80 49 81 57 82 50 83 52 84 58 85
REMARK SMILES IDX 51 86 53 87 54 88 55 89 56 90
REMARK H PARENT 78 43 46 54
REMARK Flexibility Score: inf
ROOT
ATOM      1  C   UNL A   1      33.628  34.813  29.072  1.00  0.00     0.202 C 
ENDROOT
BRANCH   1   2
ATOM      2  O   UNL A   1      32.889  34.974  30.281  1.00  0.00    -0.374 OA
BRANCH   2   3
ATOM      3  C   UNL A   1      33.146  36.169  31.025  1.00  0.00     0.202 C 
BRANCH   3   4
ATOM      4  C   UNL A   1      33.388  35.929  32.516  1.00  0.00     0.261 C 
BRANCH   4   5
ATOM      5  O   UNL A   1      34.803  35.845  32.751  1.00  0.00    -0.463 OA
BRANCH   5   6
ATOM      6  C   UNL A   1      35.377  34.631  32.982  1.00  0.00     0.313 C 
ATOM      7  O   UNL A   1      34.926  33.556  32.610  1.00  0.00    -0.252 OA
BRANCH   6   8
ATOM      8  C   UNL A   1      36.695  34.795  33.759  1.00  0.00     0.126 C 
ATOM      9  C   UNL A   1      36.784  33.777  34.893  1.00  0.00     0.025 C 
BRANCH   8  10
ATOM     10  C   UNL A   1      37.859  34.763  32.776  1.00  0.00    -0.033 A 
ATOM     11  C   UNL A   1      41.762  32.364  30.729  1.00  0.00     0.119 A 
ATOM     12  C   UNL A   1      42.102  32.572  32.064  1.00  0.00     0.047 A 
ATOM     13  C   UNL A   1      40.640  32.995  30.190  1.00  0.00     0.055 A 
ATOM     14  C   UNL A   1      41.276  33.345  32.881  1.00  0.00     0.012 A 
ATOM     15  C   UNL A   1      39.770  33.726  31.008  1.00  0.00    -0.015 A 
ATOM     16  C   UNL A   1      40.087  33.884  32.374  1.00  0.00    -0.018 A 
ATOM     17  C   UNL A   1      38.556  34.228  30.521  1.00  0.00     0.009 A 
ATOM     18  C   UNL A   1      39.158  34.481  33.229  1.00  0.00     0.013 A 
ATOM     19  C   UNL A   1      37.591  34.713  31.403  1.00  0.00     0.005 A 
BRANCH  11  20
ATOM     20  O   UNL A   1      42.460  31.568  29.864  1.00  0.00    -0.497 OA
ATOM     21  C   UNL A   1      43.565  30.882  30.442  1.00  0.00     0.278 C 
ENDBRANCH  11  20
ENDBRANCH   8  10
ENDBRANCH   6   8
ENDBRANCH   5   6
ENDBRANCH   4   5
ENDBRANCH   3   4
ENDBRANCH   2   3
ENDBRANCH   1   2
BRANCH   1  22
ATOM     22  C   UNL A   1      33.052  33.788  28.091  1.00  0.00     0.261 C 
BRANCH  22  23
ATOM     23  O   UNL A   1      34.071  33.046  27.399  1.00  0.00    -0.460 OA
BRANCH  23  24
ATOM     24  C   UNL A   1      34.020  31.707  27.600  1.00  0.00     0.338 C 
ATOM     25  O   UNL A   1      33.067  30.969  27.382  1.00  0.00    -0.246 OA
BRANCH  24  26
ATOM     26  C   UNL A   1      35.328  31.184  28.036  1.00  0.00     0.060 A 
ATOM     27  C   UNL A   1      35.386  29.842  28.431  1.00  0.00     0.016 A 
ATOM     28  C   UNL A   1      36.448  32.009  28.177  1.00  0.00     0.016 A 
ATOM     29  C   UNL A   1      36.540  29.336  29.027  1.00  0.00     0.010 A 
ATOM     30  C   UNL A   1      37.608  31.498  28.777  1.00  0.00     0.010 A 
ATOM     31  C   UNL A   1      37.644  30.172  29.242  1.00  0.00    -0.014 A 
BRANCH  31  32
ATOM     32  C   UNL A   1      38.778  29.689  30.072  1.00  0.00     0.031 A 
ATOM     33  C   UNL A   1      38.860  30.096  31.520  1.00  0.00     0.074 A 
ATOM     34  C   UNL A   1      39.712  28.873  29.549  1.00  0.00     0.049 A 
ATOM     35  N   UNL A   1      39.766  29.791  32.415  1.00  0.00    -0.248 NA
ATOM     36  C   UNL A   1      37.780  30.958  32.029  1.00  0.00     0.031 C 
ATOM     37  C   UNL A   1      39.744  28.404  28.164  1.00  0.00     0.029 A 
ATOM     38  N   UNL A   1      40.826  28.311  30.120  1.00  0.00    -0.354 N 
ATOM     39  C   UNL A   1      39.373  30.430  33.586  1.00  0.00     0.074 A 
ATOM     40  C   UNL A   1      38.159  31.157  33.284  1.00  0.00     0.031 C 
ATOM     41  C   UNL A   1      40.841  27.647  27.985  1.00  0.00     0.029 A 
ATOM     42  C   UNL A   1      41.594  27.590  29.236  1.00  0.00     0.049 A 
ATOM     43  H   UNL A   1      41.055  28.414  31.072  1.00  0.00     0.167 HD
ATOM     44  C   UNL A   1      39.952  30.393  34.810  1.00  0.00     0.034 A 
ATOM     45  C   UNL A   1      42.778  26.970  29.413  1.00  0.00     0.034 A 
ATOM     46  C   UNL A   1      41.149  29.658  35.119  1.00  0.00     0.049 A 
ATOM     47  C   UNL A   1      43.418  26.975  30.779  1.00  0.00     0.074 A 
ATOM     48  C   UNL A   1      41.805  29.555  36.334  1.00  0.00     0.029 A 
ATOM     49  N   UNL A   1      41.870  28.901  34.210  1.00  0.00    -0.354 N 
ATOM     50  N   UNL A   1      42.976  27.493  31.898  1.00  0.00    -0.248 NA
ATOM     51  C   UNL A   1      44.707  26.277  30.911  1.00  0.00     0.031 C 
ATOM     52  C   UNL A   1      42.928  28.740  36.157  1.00  0.00     0.029 A 
ATOM     53  C   UNL A   1      42.963  28.325  34.836  1.00  0.00     0.049 A 
ATOM     54  H   UNL A   1      41.640  28.790  33.260  1.00  0.00     0.167 HD
ATOM     55  C   UNL A   1      43.910  27.154  32.872  1.00  0.00     0.074 A 
ATOM     56  C   UNL A   1      44.932  26.366  32.215  1.00  0.00     0.031 C 
ATOM     57  C   UNL A   1      43.933  27.483  34.187  1.00  0.00     0.034 A 
BRANCH  44  58
ATOM     58  C   UNL A   1      39.268  31.129  35.931  1.00  0.00     0.023 A 
ATOM     59  C   UNL A   1      38.164  30.528  36.571  1.00  0.00     0.012 A 
ATOM     60  C   UNL A   1      39.755  32.363  36.403  1.00  0.00     0.148 A 
ATOM     61  C   UNL A   1      37.543  31.153  37.650  1.00  0.00     0.002 A 
ATOM     62  C   UNL A   1      39.152  32.963  37.503  1.00  0.00     0.091 A 
ATOM     63  F   UNL A   1      40.792  32.926  35.768  1.00  0.00    -0.205 F 
ATOM     64  C   UNL A   1      38.043  32.364  38.122  1.00  0.00     0.022 A 
BRANCH  62  65
ATOM     65  S   UNL A   1      39.761  34.489  38.232  1.00  0.00     0.127 S 
ATOM     66  O   UNL A   1      41.168  34.163  38.464  1.00  0.00    -0.237 OA
ATOM     67  O   UNL A   1      39.529  35.456  37.160  1.00  0.00    -0.237 OA
ATOM     68  O   UNL A   1      38.966  34.706  39.432  1.00  0.00    -0.744 OA
ENDBRANCH  62  65
ENDBRANCH  44  58
BRANCH  45  69
ATOM     69  C   UNL A   1      43.431  26.260  28.278  1.00  0.00     0.023 A 
ATOM     70  C   UNL A   1      43.079  24.926  27.996  1.00  0.00     0.012 A 
ATOM     71  C   UNL A   1      44.409  26.892  27.488  1.00  0.00     0.148 A 
ATOM     72  C   UNL A   1      43.714  24.223  26.973  1.00  0.00     0.002 A 
ATOM     73  C   UNL A   1      45.003  26.202  26.437  1.00  0.00     0.091 A 
ATOM     74  F   UNL A   1      44.752  28.154  27.787  1.00  0.00    -0.205 F 
ATOM     75  C   UNL A   1      44.669  24.863  26.187  1.00  0.00     0.022 A 
BRANCH  73  76
ATOM     76  S   UNL A   1      46.156  27.000  25.315  1.00  0.00     0.127 S 
ATOM     77  O   UNL A   1      45.333  28.063  24.746  1.00  0.00    -0.237 OA
ATOM     78  O   UNL A   1      47.207  27.456  26.225  1.00  0.00    -0.237 OA
ATOM     79  O   UNL A   1      46.574  25.950  24.395  1.00  0.00    -0.744 OA
ENDBRANCH  73  76
ENDBRANCH  45  69
BRANCH  57  80
ATOM     80  C   UNL A   1      45.073  26.961  35.021  1.00  0.00     0.023 A 
ATOM     81  C   UNL A   1      46.265  27.704  35.119  1.00  0.00     0.012 A 
ATOM     82  C   UNL A   1      44.935  25.774  35.769  1.00  0.00     0.148 A 
ATOM     83  C   UNL A   1      47.314  27.261  35.922  1.00  0.00     0.002 A 
ATOM     84  C   UNL A   1      45.969  25.361  36.602  1.00  0.00     0.091 A 
ATOM     85  F   UNL A   1      43.801  25.069  35.649  1.00  0.00    -0.205 F 
ATOM     86  C   UNL A   1      47.162  26.097  36.672  1.00  0.00     0.022 A 
BRANCH  84  87
ATOM     87  S   UNL A   1      45.825  23.923  37.671  1.00  0.00     0.127 S 
ATOM     88  O   UNL A   1      45.324  22.911  36.743  1.00  0.00    -0.237 OA
ATOM     89  O   UNL A   1      47.207  23.719  38.108  1.00  0.00    -0.237 OA
ATOM     90  O   UNL A   1      44.908  24.307  38.736  1.00  0.00    -0.744 OA
ENDBRANCH  84  87
ENDBRANCH  57  80
ENDBRANCH  31  32
ENDBRANCH  24  26
ENDBRANCH  23  24
ENDBRANCH  22  23
ENDBRANCH   1  22
TORSDOF 19
ENDMDL
MODEL 2
REMARK VINA RESULT:      -8.7      3.039      3.767
REMARK SMILES COc1ccc2cc([C@H](C)C(=O)OCCOCCOC(=O)c3ccc(-c4c5nc(c(-c6cccc(S(=O)(=O)[O-])c6F)c6ccc([nH]6)c(-c6cccc(S(=O)(=O)[O-])c6F)c6nc(c(-c7cccc(S(=O)(=O)[O-])c7F)c7ccc4[nH]7)C=C6)C=C5)cc3)ccc2c1
REMARK SMILES IDX 17 1 16 2 15 3 14 4 13 5 11 6 12 7 9 8 10 9 8 10 3 11 4 12
REMARK SMILES IDX 88 13 5 14 87 15 6 16 86 17 7 18 85 19 2 20 1 21 18 22 19 23
REMARK SMILES IDX 20 24 21 25 22 26 23 27 84 28 24 29 83 30 25 31 26 32 27 33
REMARK SMILES IDX 77 34 28 35 82 36 76 37 78 38 29 39 81 40 75 41 74 42 30 44
REMARK SMILES IDX 62 45 42 46 61 47 43 48 46 49 60 50 79 51 44 52 45 53 59 55
REMARK SMILES IDX 80 56 47 57 31 58 32 59 40 60 33 61 35 62 41 63 34 64 36 65
REMARK SMILES IDX 37 66 38 67 39 68 63 69 64 70 72 71 65 72 67 73 73 74 66 75
REMARK SMILES IDX 68 76 69 77 70 78 71 79 48 80 49 81 57 82 50 83 52 84 58 85
REMARK SMILES IDX 51 86 53 87 54 88 55 89 56 90
REMARK H PARENT 78 43 46 54
REMARK Flexibility Score: inf
ROOT
ATOM      1  C   UNL A   1      34.027  34.992  28.629  1.00  0.00     0.202 C 
ENDROOT
BRANCH   1   2
ATOM      2  O   UNL A   1      32.918  35.389  29.434  1.00  0.00    -0.374 OA
BRANCH   2   3
ATOM      3  C   UNL A   1      33.224  36.174  30.590  1.00  0.00     0.202 C 
BRANCH   3   4
ATOM      4  C   UNL A   1      33.236  35.374  31.895  1.00  0.00     0.261 C 
BRANCH   4   5
ATOM      5  O   UNL A   1      34.557  34.853  32.110  1.00  0.00    -0.463 OA
BRANCH   5   6
ATOM      6  C   UNL A   1      34.797  33.525  31.927  1.00  0.00     0.313 C 
ATOM      7  O   UNL A   1      34.054  32.749  31.340  1.00  0.00    -0.252 OA
BRANCH   6   8
ATOM      8  C   UNL A   1      36.151  33.129  32.541  1.00  0.00     0.126 C 
ATOM      9  C   UNL A   1      36.268  31.612  32.659  1.00  0.00     0.025 C 
BRANCH   8  10
ATOM     10  C   UNL A   1      37.269  33.799  31.752  1.00  0.00    -0.033 A 
ATOM     11  C   UNL A   1      42.127  34.177  30.554  1.00  0.00     0.119 A 
ATOM     12  C   UNL A   1      42.040  34.530  31.898  1.00  0.00     0.047 A 
ATOM     13  C   UNL A   1      40.965  34.033  29.794  1.00  0.00     0.055 A 
ATOM     14  C   UNL A   1      40.790  34.660  32.504  1.00  0.00     0.012 A 
ATOM     15  C   UNL A   1      39.704  34.104  30.399  1.00  0.00    -0.015 A 
ATOM     16  C   UNL A   1      39.622  34.402  31.775  1.00  0.00    -0.018 A 
ATOM     17  C   UNL A   1      38.534  33.802  29.688  1.00  0.00     0.009 A 
ATOM     18  C   UNL A   1      38.385  34.330  32.419  1.00  0.00     0.013 A 
ATOM     19  C   UNL A   1      37.329  33.617  30.365  1.00  0.00     0.005 A 
BRANCH  11  20
ATOM     20  O   UNL A   1      43.298  33.953  29.883  1.00  0.00    -0.497 OA
ATOM     21  C   UNL A   1      43.370  32.702  29.206  1.00  0.00     0.278 C 
ENDBRANCH  11  20
ENDBRANCH   8  10
ENDBRANCH   6   8
ENDBRANCH   5   6
ENDBRANCH   4   5
ENDBRANCH   3   4
ENDBRANCH   2   3
ENDBRANCH   1   2
BRANCH   1  22
ATOM     22  C   UNL A   1      33.851  33.662  27.892  1.00  0.00     0.261 C 
BRANCH  22  23
ATOM     23  O   UNL A   1      34.972  32.777  28.064  1.00  0.00    -0.460 OA
BRANCH  23  24
ATOM     24  C   UNL A   1      34.645  31.463  28.103  1.00  0.00     0.338 C 
ATOM     25  O   UNL A   1      33.536  30.978  27.914  1.00  0.00    -0.246 OA
BRANCH  24  26
ATOM     26  C   UNL A   1      35.840  30.623  28.308  1.00  0.00     0.060 A 
ATOM     27  C   UNL A   1      35.869  29.810  29.447  1.00  0.00     0.016 A 
ATOM     28  C   UNL A   1      36.962  30.713  27.478  1.00  0.00     0.016 A 
ATOM     29  C   UNL A   1      37.038  29.136  29.797  1.00  0.00     0.010 A 
ATOM     30  C   UNL A   1      38.136  30.035  27.832  1.00  0.00     0.010 A 
ATOM     31  C   UNL A   1      38.192  29.277  29.015  1.00  0.00    -0.014 A 
BRANCH  31  32
ATOM     32  C   UNL A   1      39.484  28.738  29.513  1.00  0.00     0.031 A 
ATOM     33  C   UNL A   1      40.159  29.403  30.685  1.00  0.00     0.074 A 
ATOM     34  C   UNL A   1      40.039  27.652  28.945  1.00  0.00     0.049 A 
ATOM     35  N   UNL A   1      41.289  29.097  31.270  1.00  0.00    -0.248 NA
ATOM     36  C   UNL A   1      39.470  30.562  31.277  1.00  0.00     0.031 C 
ATOM     37  C   UNL A   1      39.484  26.917  27.808  1.00  0.00     0.029 A 
ATOM     38  N   UNL A   1      41.205  26.991  29.236  1.00  0.00    -0.354 N 
ATOM     39  C   UNL A   1      41.453  30.028  32.289  1.00  0.00     0.074 A 
ATOM     40  C   UNL A   1      40.317  30.924  32.230  1.00  0.00     0.031 C 
ATOM     41  C   UNL A   1      40.327  25.922  27.480  1.00  0.00     0.029 A 
ATOM     42  C   UNL A   1      41.484  25.958  28.372  1.00  0.00     0.049 A 
ATOM     43  H   UNL A   1      41.788  27.232  29.992  1.00  0.00     0.167 HD
ATOM     44  C   UNL A   1      42.443  30.116  33.210  1.00  0.00     0.034 A 
ATOM     45  C   UNL A   1      42.558  25.146  28.300  1.00  0.00     0.034 A 
ATOM     46  C   UNL A   1      43.564  29.219  33.284  1.00  0.00     0.049 A 
ATOM     47  C   UNL A   1      43.662  25.289  29.317  1.00  0.00     0.074 A 
ATOM     48  C   UNL A   1      44.612  29.224  34.188  1.00  0.00     0.029 A 
ATOM     49  N   UNL A   1      43.785  28.156  32.423  1.00  0.00    -0.354 N 
ATOM     50  N   UNL A   1      43.745  26.105  30.339  1.00  0.00    -0.248 NA
ATOM     51  C   UNL A   1      44.806  24.371  29.190  1.00  0.00     0.031 C 
ATOM     52  C   UNL A   1      45.471  28.167  33.869  1.00  0.00     0.029 A 
ATOM     53  C   UNL A   1      44.951  27.497  32.775  1.00  0.00     0.049 A 
ATOM     54  H   UNL A   1      43.201  27.907  31.672  1.00  0.00     0.167 HD
ATOM     55  C   UNL A   1      44.928  25.777  30.995  1.00  0.00     0.074 A 
ATOM     56  C   UNL A   1      45.516  24.671  30.269  1.00  0.00     0.031 C 
ATOM     57  C   UNL A   1      45.488  26.352  32.087  1.00  0.00     0.034 A 
BRANCH  44  58
ATOM     58  C   UNL A   1      42.333  31.193  34.256  1.00  0.00     0.023 A 
ATOM     59  C   UNL A   1      43.239  32.272  34.226  1.00  0.00     0.012 A 
ATOM     60  C   UNL A   1      41.298  31.184  35.212  1.00  0.00     0.148 A 
ATOM     61  C   UNL A   1      43.132  33.316  35.142  1.00  0.00     0.002 A 
ATOM     62  C   UNL A   1      41.175  32.247  36.100  1.00  0.00     0.091 A 
ATOM     63  F   UNL A   1      40.460  30.139  35.237  1.00  0.00    -0.205 F 
ATOM     64  C   UNL A   1      42.094  33.309  36.072  1.00  0.00     0.022 A 
BRANCH  62  65
ATOM     65  S   UNL A   1      39.835  32.368  37.291  1.00  0.00     0.127 S 
ATOM     66  O   UNL A   1      40.566  32.362  38.558  1.00  0.00    -0.237 OA
ATOM     67  O   UNL A   1      39.229  33.653  36.944  1.00  0.00    -0.237 OA
ATOM     68  O   UNL A   1      38.985  31.210  37.057  1.00  0.00    -0.744 OA
ENDBRANCH  62  65
ENDBRANCH  44  58
BRANCH  45  69
ATOM     69  C   UNL A   1      42.637  24.097  27.245  1.00  0.00     0.023 A 
ATOM     70  C   UNL A   1      43.300  24.377  26.034  1.00  0.00     0.012 A 
ATOM     71  C   UNL A   1      42.047  22.833  27.428  1.00  0.00     0.148 A 
ATOM     72  C   UNL A   1      43.341  23.430  25.011  1.00  0.00     0.002 A 
ATOM     73  C   UNL A   1      42.135  21.876  26.423  1.00  0.00     0.091 A 
ATOM     74  F   UNL A   1      41.397  22.592  28.575  1.00  0.00    -0.205 F 
ATOM     75  C   UNL A   1      42.768  22.176  25.208  1.00  0.00     0.022 A 
BRANCH  73  76
ATOM     76  S   UNL A   1      41.519  20.205  26.653  1.00  0.00     0.127 S 
ATOM     77  O   UNL A   1      41.911  19.566  25.400  1.00  0.00    -0.237 OA
ATOM     78  O   UNL A   1      42.266  19.759  27.830  1.00  0.00    -0.237 OA
ATOM     79  O   UNL A   1      40.087  20.358  26.875  1.00  0.00    -0.744 OA
ENDBRANCH  73  76
ENDBRANCH  45  69
BRANCH  57  80
ATOM     80  C   UNL A   1      46.782  25.776  32.598  1.00  0.00     0.023 A 
ATOM     81  C   UNL A   1      46.768  24.886  33.689  1.00  0.00     0.012 A 
ATOM     82  C   UNL A   1      48.002  26.056  31.950  1.00  0.00     0.148 A 
ATOM     83  C   UNL A   1      47.950  24.307  34.148  1.00  0.00     0.002 A 
ATOM     84  C   UNL A   1      49.171  25.441  32.386  1.00  0.00     0.091 A 
ATOM     85  F   UNL A   1      48.000  26.921  30.926  1.00  0.00    -0.205 F 
ATOM     86  C   UNL A   1      49.148  24.574  33.490  1.00  0.00     0.022 A 
BRANCH  84  87
ATOM     87  S   UNL A   1      50.743  25.659  31.543  1.00  0.00     0.127 S 
ATOM     88  O   UNL A   1      51.601  24.721  32.265  1.00  0.00    -0.237 OA
ATOM     89  O   UNL A   1      50.420  25.259  30.173  1.00  0.00    -0.237 OA
ATOM     90  O   UNL A   1      51.085  27.067  31.694  1.00  0.00    -0.744 OA
ENDBRANCH  84  87
ENDBRANCH  57  80
ENDBRANCH  31  32
ENDBRANCH  24  26
ENDBRANCH  23  24
ENDBRANCH  22  23
ENDBRANCH   1  22
TORSDOF 19
ENDMDL
MODEL 3
REMARK VINA RESULT:      -8.6      4.330      7.087
REMARK SMILES COc1ccc2cc([C@H](C)C(=O)OCCOCCOC(=O)c3ccc(-c4c5nc(c(-c6cccc(S(=O)(=O)[O-])c6F)c6ccc([nH]6)c(-c6cccc(S(=O)(=O)[O-])c6F)c6nc(c(-c7cccc(S(=O)(=O)[O-])c7F)c7ccc4[nH]7)C=C6)C=C5)cc3)ccc2c1
REMARK SMILES IDX 17 1 16 2 15 3 14 4 13 5 11 6 12 7 9 8 10 9 8 10 3 11 4 12
REMARK SMILES IDX 88 13 5 14 87 15 6 16 86 17 7 18 85 19 2 20 1 21 18 22 19 23
REMARK SMILES IDX 20 24 21 25 22 26 23 27 84 28 24 29 83 30 25 31 26 32 27 33
REMARK SMILES IDX 77 34 28 35 82 36 76 37 78 38 29 39 81 40 75 41 74 42 30 44
REMARK SMILES IDX 62 45 42 46 61 47 43 48 46 49 60 50 79 51 44 52 45 53 59 55
REMARK SMILES IDX 80 56 47 57 31 58 32 59 40 60 33 61 35 62 41 63 34 64 36 65
REMARK SMILES IDX 37 66 38 67 39 68 63 69 64 70 72 71 65 72 67 73 73 74 66 75
REMARK SMILES IDX 68 76 69 77 70 78 71 79 48 80 49 81 57 82 50 83 52 84 58 85
REMARK SMILES IDX 51 86 53 87 54 88 55 89 56 90
REMARK H PARENT 78 43 46 54
REMARK Flexibility Score: inf
ROOT
ATOM      1  C   UNL A   1      32.885  29.546  25.021  1.00  0.00     0.202 C 
ENDROOT
BRANCH   1   2
ATOM      2  O   UNL A   1      32.498  28.178  24.910  1.00  0.00    -0.374 OA
BRANCH   2   3
ATOM      3  C   UNL A   1      31.108  27.895  25.102  1.00  0.00     0.202 C 
BRANCH   3   4
ATOM      4  C   UNL A   1      30.841  26.710  26.032  1.00  0.00     0.261 C 
BRANCH   4   5
ATOM      5  O   UNL A   1      31.605  25.581  25.578  1.00  0.00    -0.463 OA
BRANCH   5   6
ATOM      6  C   UNL A   1      31.229  24.323  25.940  1.00  0.00     0.313 C 
ATOM      7  O   UNL A   1      31.150  23.915  27.091  1.00  0.00    -0.252 OA
BRANCH   6   8
ATOM      8  C   UNL A   1      30.887  23.482  24.698  1.00  0.00     0.126 C 
ATOM      9  C   UNL A   1      30.468  24.379  23.536  1.00  0.00     0.025 C 
BRANCH   8  10
ATOM     10  C   UNL A   1      32.050  22.544  24.397  1.00  0.00    -0.033 A 
ATOM     11  C   UNL A   1      36.947  21.473  24.620  1.00  0.00     0.119 A 
ATOM     12  C   UNL A   1      36.840  22.589  23.793  1.00  0.00     0.047 A 
ATOM     13  C   UNL A   1      35.799  20.777  25.002  1.00  0.00     0.055 A 
ATOM     14  C   UNL A   1      35.581  23.057  23.415  1.00  0.00     0.012 A 
ATOM     15  C   UNL A   1      34.527  21.266  24.679  1.00  0.00    -0.015 A 
ATOM     16  C   UNL A   1      34.423  22.431  23.892  1.00  0.00    -0.018 A 
ATOM     17  C   UNL A   1      33.364  20.673  25.191  1.00  0.00     0.009 A 
ATOM     18  C   UNL A   1      33.168  23.011  23.688  1.00  0.00     0.013 A 
ATOM     19  C   UNL A   1      32.137  21.325  25.080  1.00  0.00     0.005 A 
BRANCH  11  20
ATOM     20  O   UNL A   1      38.124  20.976  25.107  1.00  0.00    -0.497 OA
ATOM     21  C   UNL A   1      38.243  19.558  25.052  1.00  0.00     0.278 C 
ENDBRANCH  11  20
ENDBRANCH   8  10
ENDBRANCH   6   8
ENDBRANCH   5   6
ENDBRANCH   4   5
ENDBRANCH   3   4
ENDBRANCH   2   3
ENDBRANCH   1   2
BRANCH   1  22
ATOM     22  C   UNL A   1      32.061  30.376  26.008  1.00  0.00     0.261 C 
BRANCH  22  23
ATOM     23  O   UNL A   1      32.656  30.440  27.316  1.00  0.00    -0.460 OA
BRANCH  23  24
ATOM     24  C   UNL A   1      33.456  31.515  27.512  1.00  0.00     0.338 C 
ATOM     25  O   UNL A   1      33.114  32.691  27.526  1.00  0.00    -0.246 OA
BRANCH  24  26
ATOM     26  C   UNL A   1      34.837  31.101  27.825  1.00  0.00     0.060 A 
ATOM     27  C   UNL A   1      35.061  29.743  28.078  1.00  0.00     0.016 A 
ATOM     28  C   UNL A   1      35.870  32.028  27.992  1.00  0.00     0.016 A 
ATOM     29  C   UNL A   1      36.297  29.314  28.560  1.00  0.00     0.010 A 
ATOM     30  C   UNL A   1      37.112  31.595  28.477  1.00  0.00     0.010 A 
ATOM     31  C   UNL A   1      37.317  30.243  28.802  1.00  0.00    -0.014 A 
BRANCH  31  32
ATOM     32  C   UNL A   1      38.545  29.812  29.519  1.00  0.00     0.031 A 
ATOM     33  C   UNL A   1      38.860  30.406  30.868  1.00  0.00     0.074 A 
ATOM     34  C   UNL A   1      39.358  28.880  28.988  1.00  0.00     0.049 A 
ATOM     35  N   UNL A   1      39.879  30.173  31.656  1.00  0.00    -0.248 NA
ATOM     36  C   UNL A   1      37.902  31.389  31.400  1.00  0.00     0.031 C 
ATOM     37  C   UNL A   1      39.163  28.228  27.694  1.00  0.00     0.029 A 
ATOM     38  N   UNL A   1      40.524  28.338  29.466  1.00  0.00    -0.354 N 
ATOM     39  C   UNL A   1      39.692  30.985  32.769  1.00  0.00     0.074 A 
ATOM     40  C   UNL A   1      38.473  31.734  32.546  1.00  0.00     0.031 C 
ATOM     41  C   UNL A   1      40.192  27.392  27.468  1.00  0.00     0.029 A 
ATOM     42  C   UNL A   1      41.123  27.462  28.592  1.00  0.00     0.049 A 
ATOM     43  H   UNL A   1      40.898  28.556  30.351  1.00  0.00     0.167 HD
ATOM     44  C   UNL A   1      40.448  31.081  33.889  1.00  0.00     0.034 A 
ATOM     45  C   UNL A   1      42.297  26.804  28.682  1.00  0.00     0.034 A 
ATOM     46  C   UNL A   1      41.650  30.327  34.123  1.00  0.00     0.049 A 
ATOM     47  C   UNL A   1      43.136  26.957  29.926  1.00  0.00     0.074 A 
ATOM     48  C   UNL A   1      42.478  30.351  35.232  1.00  0.00     0.029 A 
ATOM     49  N   UNL A   1      42.197  29.414  33.236  1.00  0.00    -0.354 N 
ATOM     50  N   UNL A   1      42.887  27.645  31.012  1.00  0.00    -0.248 NA
ATOM     51  C   UNL A   1      44.404  26.210  29.968  1.00  0.00     0.031 C 
ATOM     52  C   UNL A   1      43.530  29.457  35.013  1.00  0.00     0.029 A 
ATOM     53  C   UNL A   1      43.350  28.866  33.773  1.00  0.00     0.049 A 
ATOM     54  H   UNL A   1      41.822  29.189  32.355  1.00  0.00     0.167 HD
ATOM     55  C   UNL A   1      43.945  27.388  31.879  1.00  0.00     0.074 A 
ATOM     56  C   UNL A   1      44.826  26.461  31.200  1.00  0.00     0.031 C 
ATOM     57  C   UNL A   1      44.179  27.890  33.116  1.00  0.00     0.034 A 
BRANCH  44  58
ATOM     58  C   UNL A   1      39.969  31.999  34.981  1.00  0.00     0.023 A 
ATOM     59  C   UNL A   1      40.274  33.374  34.903  1.00  0.00     0.012 A 
ATOM     60  C   UNL A   1      39.158  31.529  36.032  1.00  0.00     0.148 A 
ATOM     61  C   UNL A   1      39.798  34.263  35.865  1.00  0.00     0.002 A 
ATOM     62  C   UNL A   1      38.657  32.427  36.968  1.00  0.00     0.091 A 
ATOM     63  F   UNL A   1      38.896  30.216  36.098  1.00  0.00    -0.205 F 
ATOM     64  C   UNL A   1      38.982  33.791  36.891  1.00  0.00     0.022 A 
BRANCH  62  65
ATOM     65  S   UNL A   1      37.541  31.934  38.288  1.00  0.00     0.127 S 
ATOM     66  O   UNL A   1      36.482  32.935  38.167  1.00  0.00    -0.237 OA
ATOM     67  O   UNL A   1      37.154  30.585  37.875  1.00  0.00    -0.237 OA
ATOM     68  O   UNL A   1      38.320  31.996  39.516  1.00  0.00    -0.744 OA
ENDBRANCH  62  65
ENDBRANCH  44  58
BRANCH  45  69
ATOM     69  C   UNL A   1      42.745  25.910  27.577  1.00  0.00     0.023 A 
ATOM     70  C   UNL A   1      43.609  26.411  26.584  1.00  0.00     0.012 A 
ATOM     71  C   UNL A   1      42.306  24.576  27.495  1.00  0.00     0.148 A 
ATOM     72  C   UNL A   1      43.999  25.610  25.511  1.00  0.00     0.002 A 
ATOM     73  C   UNL A   1      42.739  23.768  26.450  1.00  0.00     0.091 A 
ATOM     74  F   UNL A   1      41.462  24.123  28.434  1.00  0.00    -0.205 F 
ATOM     75  C   UNL A   1      43.572  24.286  25.448  1.00  0.00     0.022 A 
BRANCH  73  76
ATOM     76  S   UNL A   1      42.320  22.023  26.369  1.00  0.00     0.127 S 
ATOM     77  O   UNL A   1      42.545  21.597  27.747  1.00  0.00    -0.237 OA
ATOM     78  O   UNL A   1      40.916  22.061  25.959  1.00  0.00    -0.237 OA
ATOM     79  O   UNL A   1      43.221  21.465  25.369  1.00  0.00    -0.744 OA
ENDBRANCH  73  76
ENDBRANCH  45  69
BRANCH  57  80
ATOM     80  C   UNL A   1      45.412  27.420  33.843  1.00  0.00     0.023 A 
ATOM     81  C   UNL A   1      46.608  28.155  33.734  1.00  0.00     0.012 A 
ATOM     82  C   UNL A   1      45.365  26.297  34.693  1.00  0.00     0.148 A 
ATOM     83  C   UNL A   1      47.748  27.763  34.435  1.00  0.00     0.002 A 
ATOM     84  C   UNL A   1      46.493  25.938  35.423  1.00  0.00     0.091 A 
ATOM     85  F   UNL A   1      44.222  25.599  34.769  1.00  0.00    -0.205 F 
ATOM     86  C   UNL A   1      47.687  26.663  35.287  1.00  0.00     0.022 A 
BRANCH  84  87
ATOM     87  S   UNL A   1      46.478  24.589  36.611  1.00  0.00     0.127 S 
ATOM     88  O   UNL A   1      45.456  25.035  37.555  1.00  0.00    -0.237 OA
ATOM     89  O   UNL A   1      46.088  23.448  35.782  1.00  0.00    -0.237 OA
ATOM     90  O   UNL A   1      47.833  24.511  37.142  1.00  0.00    -0.744 OA
ENDBRANCH  84  87
ENDBRANCH  57  80
ENDBRANCH  31  32
ENDBRANCH  24  26
ENDBRANCH  23  24
ENDBRANCH  22  23
ENDBRANCH   1  22
TORSDOF 19
ENDMDL
