MODEL 1
REMARK VINA RESULT:     -12.2      0.000      0.000
REMARK SMILES COc1ccc(-c2cc(Cl)cc3c2O[C@@H](C(F)(F)F)C(C(=O)OCCOCCOC(=O)c2ccc(-c4c5nc(c(-c6cccc(S(=O)(=O)[O-])c6F)c6ccc([nH]6)c(-c6cccc(S(=O)(=O)[O-])c6F)c6nc(c(-c7cccc(S(=O)(=O)[O-])c7F)c7ccc4[nH]7)C=C6)C=C5)cc2)=C3)cc1C
REMARK SMILES IDX 27 1 26 2 25 3 24 4 23 5 21 6 22 7 20 8 7 9 8 10 13 11 9 12
REMARK SMILES IDX 12 13 14 14 10 15 11 16 95 17 15 18 6 19 3 20 4 21 97 22
REMARK SMILES IDX 5 23 96 24 98 25 2 26 1 27 16 28 17 29 18 30 19 31 28 32
REMARK SMILES IDX 29 33 30 34 31 35 32 36 33 37 94 38 34 39 93 40 35 41 36 42
REMARK SMILES IDX 37 43 87 44 38 45 92 46 86 47 88 48 39 49 91 50 85 51 84 52
REMARK SMILES IDX 40 54 72 55 52 56 71 57 53 58 56 59 70 60 89 61 54 62 55 63
REMARK SMILES IDX 69 65 90 66 57 67 41 68 42 69 50 70 43 71 45 72 51 73 44 74
REMARK SMILES IDX 46 75 47 76 48 77 49 78 73 79 74 80 82 81 75 82 77 83 83 84
REMARK SMILES IDX 76 85 78 86 79 87 80 88 81 89 58 90 59 91 67 92 60 93 62 94
REMARK SMILES IDX 68 95 61 96 63 97 64 98 65 99 66 100
REMARK H PARENT 88 53 56 64
REMARK Flexibility Score: inf
ROOT
ATOM      1  C   UNL A   1      32.232  29.346  26.433  1.00  0.00     0.202 C 
ENDROOT
BRANCH   1   2
ATOM      2  O   UNL A   1      32.191  28.092  25.777  1.00  0.00    -0.374 OA
BRANCH   2   3
ATOM      3  C   UNL A   1      32.873  27.040  26.423  1.00  0.00     0.202 C 
BRANCH   3   4
ATOM      4  C   UNL A   1      33.992  26.588  25.520  1.00  0.00     0.261 C 
BRANCH   4   5
ATOM      5  O   UNL A   1      34.841  25.519  26.022  1.00  0.00    -0.460 OA
BRANCH   5   6
ATOM      6  C   UNL A   1      35.209  24.401  25.323  1.00  0.00     0.338 C 
ATOM      7  O   UNL A   1      35.828  24.326  24.288  1.00  0.00    -0.246 OA
BRANCH   6   8
ATOM      8  C   UNL A   1      34.980  23.191  26.229  1.00  0.00     0.087 C 
ATOM      9  C   UNL A   1      31.267  23.798  24.719  1.00  0.00     0.026 A 
ATOM     10  C   UNL A   1      30.146  23.473  25.519  1.00  0.00     0.033 A 
ATOM     11  C   UNL A   1      32.505  23.254  25.175  1.00  0.00     0.135 A 
ATOM     12  C   UNL A   1      30.274  22.850  26.759  1.00  0.00     0.042 A 
ATOM     13  C   UNL A   1      32.648  23.016  26.568  1.00  0.00     0.019 A 
ATOM     14  O   UNL A   1      33.565  22.711  24.357  1.00  0.00    -0.475 OA
ATOM     15  Cl  UNL A   1      28.867  22.411  27.643  1.00  0.00    -0.084 Cl
ATOM     16  C   UNL A   1      31.529  22.697  27.327  1.00  0.00     0.032 A 
ATOM     17  C   UNL A   1      34.012  23.112  27.170  1.00  0.00     0.027 C 
ATOM     18  C   UNL A   1      34.686  22.126  25.198  1.00  0.00     0.316 C 
BRANCH   9  19
ATOM     19  C   UNL A   1      31.000  25.037  23.872  1.00  0.00    -0.014 A 
ATOM     20  C   UNL A   1      30.789  27.569  22.455  1.00  0.00     0.121 A 
ATOM     21  C   UNL A   1      29.807  27.129  23.345  1.00  0.00     0.047 A 
ATOM     22  C   UNL A   1      31.979  26.853  22.414  1.00  0.00    -0.008 A 
ATOM     23  C   UNL A   1      29.935  25.914  24.079  1.00  0.00     0.013 A 
ATOM     24  C   UNL A   1      32.031  25.561  23.025  1.00  0.00     0.016 A 
ATOM     25  C   UNL A   1      33.243  27.507  21.917  1.00  0.00     0.048 C 
BRANCH  20  26
ATOM     26  O   UNL A   1      30.569  28.773  21.832  1.00  0.00    -0.496 OA
ATOM     27  C   UNL A   1      29.419  29.495  22.295  1.00  0.00     0.278 C 
ENDBRANCH  20  26
ENDBRANCH   9  19
BRANCH  18  28
ATOM     28  C   UNL A   1      36.076  21.561  24.725  1.00  0.00     0.430 C 
ATOM     29  F   UNL A   1      37.090  21.820  25.610  1.00  0.00    -0.167 F 
ATOM     30  F   UNL A   1      36.034  20.197  24.693  1.00  0.00    -0.167 F 
ATOM     31  F   UNL A   1      36.496  21.944  23.513  1.00  0.00    -0.167 F 
ENDBRANCH  18  28
ENDBRANCH   6   8
ENDBRANCH   5   6
ENDBRANCH   4   5
ENDBRANCH   3   4
ENDBRANCH   2   3
ENDBRANCH   1   2
BRANCH   1  32
ATOM     32  C   UNL A   1      33.623  29.994  26.466  1.00  0.00     0.261 C 
BRANCH  32  33
ATOM     33  O   UNL A   1      33.784  30.768  27.676  1.00  0.00    -0.460 OA
BRANCH  33  34
ATOM     34  C   UNL A   1      35.006  31.361  27.861  1.00  0.00     0.338 C 
ATOM     35  O   UNL A   1      35.214  32.542  27.638  1.00  0.00    -0.246 OA
BRANCH  34  36
ATOM     36  C   UNL A   1      36.037  30.343  28.254  1.00  0.00     0.060 A 
ATOM     37  C   UNL A   1      36.148  29.788  29.531  1.00  0.00     0.016 A 
ATOM     38  C   UNL A   1      37.063  30.087  27.367  1.00  0.00     0.016 A 
ATOM     39  C   UNL A   1      37.351  29.149  29.941  1.00  0.00     0.010 A 
ATOM     40  C   UNL A   1      38.239  29.480  27.770  1.00  0.00     0.010 A 
ATOM     41  C   UNL A   1      38.448  29.081  29.089  1.00  0.00    -0.014 A 
BRANCH  41  42
ATOM     42  C   UNL A   1      39.847  28.676  29.377  1.00  0.00     0.031 A 
ATOM     43  C   UNL A   1      40.224  27.278  29.047  1.00  0.00     0.074 A 
ATOM     44  C   UNL A   1      40.867  29.573  29.518  1.00  0.00     0.049 A 
ATOM     45  N   UNL A   1      41.427  26.829  29.045  1.00  0.00    -0.248 NA
ATOM     46  C   UNL A   1      39.254  26.241  28.728  1.00  0.00     0.031 C 
ATOM     47  C   UNL A   1      42.257  29.420  29.041  1.00  0.00     0.029 A 
ATOM     48  N   UNL A   1      40.881  30.881  29.994  1.00  0.00    -0.354 N 
ATOM     49  C   UNL A   1      41.440  25.583  28.475  1.00  0.00     0.074 A 
ATOM     50  C   UNL A   1      40.054  25.217  28.405  1.00  0.00     0.031 C 
ATOM     51  C   UNL A   1      43.007  30.468  29.413  1.00  0.00     0.029 A 
ATOM     52  C   UNL A   1      42.196  31.247  30.316  1.00  0.00     0.049 A 
ATOM     53  H   UNL A   1      40.090  31.461  30.090  1.00  0.00     0.167 HD
ATOM     54  C   UNL A   1      42.644  25.081  28.079  1.00  0.00     0.034 A 
ATOM     55  C   UNL A   1      42.490  31.614  31.590  1.00  0.00     0.034 A 
ATOM     56  C   UNL A   1      43.733  25.921  28.623  1.00  0.00     0.049 A 
ATOM     57  C   UNL A   1      43.366  30.545  32.192  1.00  0.00     0.074 A 
ATOM     58  C   UNL A   1      44.624  26.842  28.102  1.00  0.00     0.029 A 
ATOM     59  N   UNL A   1      43.796  26.065  30.009  1.00  0.00    -0.354 N 
ATOM     60  N   UNL A   1      43.565  29.397  31.599  1.00  0.00    -0.248 NA
ATOM     61  C   UNL A   1      44.188  30.677  33.385  1.00  0.00     0.031 C 
ATOM     62  C   UNL A   1      45.161  27.593  29.196  1.00  0.00     0.029 A 
ATOM     63  C   UNL A   1      44.623  27.110  30.382  1.00  0.00     0.049 A 
ATOM     64  H   UNL A   1      43.310  25.492  30.645  1.00  0.00     0.167 HD
ATOM     65  C   UNL A   1      44.491  28.655  32.248  1.00  0.00     0.074 A 
ATOM     66  C   UNL A   1      44.853  29.503  33.375  1.00  0.00     0.031 C 
ATOM     67  C   UNL A   1      44.839  27.408  31.805  1.00  0.00     0.034 A 
BRANCH  54  68
ATOM     68  C   UNL A   1      42.895  23.914  27.131  1.00  0.00     0.023 A 
ATOM     69  C   UNL A   1      43.696  24.174  25.994  1.00  0.00     0.012 A 
ATOM     70  C   UNL A   1      42.366  22.602  27.212  1.00  0.00     0.148 A 
ATOM     71  C   UNL A   1      43.933  23.220  24.994  1.00  0.00     0.002 A 
ATOM     72  C   UNL A   1      42.595  21.646  26.212  1.00  0.00     0.091 A 
ATOM     73  F   UNL A   1      41.630  22.244  28.261  1.00  0.00    -0.205 F 
ATOM     74  C   UNL A   1      43.376  21.956  25.099  1.00  0.00     0.022 A 
BRANCH  72  75
ATOM     75  S   UNL A   1      41.884  19.985  26.256  1.00  0.00     0.127 S 
ATOM     76  O   UNL A   1      42.305  19.508  27.574  1.00  0.00    -0.237 OA
ATOM     77  O   UNL A   1      40.452  20.251  26.137  1.00  0.00    -0.237 OA
ATOM     78  O   UNL A   1      42.470  19.254  25.139  1.00  0.00    -0.744 OA
ENDBRANCH  72  75
ENDBRANCH  54  68
BRANCH  55  79
ATOM     79  C   UNL A   1      41.374  32.465  32.131  1.00  0.00     0.023 A 
ATOM     80  C   UNL A   1      41.036  33.576  31.301  1.00  0.00     0.012 A 
ATOM     81  C   UNL A   1      40.363  31.925  32.953  1.00  0.00     0.148 A 
ATOM     82  C   UNL A   1      39.712  34.004  31.153  1.00  0.00     0.002 A 
ATOM     83  C   UNL A   1      39.042  32.371  32.807  1.00  0.00     0.091 A 
ATOM     84  F   UNL A   1      40.682  30.917  33.775  1.00  0.00    -0.205 F 
ATOM     85  C   UNL A   1      38.710  33.367  31.871  1.00  0.00     0.022 A 
BRANCH  83  86
ATOM     86  S   UNL A   1      37.670  31.627  33.704  1.00  0.00     0.127 S 
ATOM     87  O   UNL A   1      36.547  32.445  33.255  1.00  0.00    -0.237 OA
ATOM     88  O   UNL A   1      37.660  30.257  33.190  1.00  0.00    -0.237 OA
ATOM     89  O   UNL A   1      38.012  31.742  35.113  1.00  0.00    -0.744 OA
ENDBRANCH  83  86
ENDBRANCH  55  79
BRANCH  67  90
ATOM     90  C   UNL A   1      45.377  26.330  32.721  1.00  0.00     0.023 A 
ATOM     91  C   UNL A   1      46.759  26.091  32.843  1.00  0.00     0.012 A 
ATOM     92  C   UNL A   1      44.535  25.666  33.649  1.00  0.00     0.148 A 
ATOM     93  C   UNL A   1      47.281  25.204  33.785  1.00  0.00     0.002 A 
ATOM     94  C   UNL A   1      45.071  24.898  34.675  1.00  0.00     0.091 A 
ATOM     95  F   UNL A   1      43.202  25.763  33.546  1.00  0.00    -0.205 F 
ATOM     96  C   UNL A   1      46.440  24.631  34.723  1.00  0.00     0.022 A 
BRANCH  94  97
ATOM     97  S   UNL A   1      44.063  24.384  36.072  1.00  0.00     0.127 S 
ATOM     98  O   UNL A   1      43.554  25.665  36.558  1.00  0.00    -0.237 OA
ATOM     99  O   UNL A   1      43.060  23.531  35.432  1.00  0.00    -0.237 OA
ATOM    100  O   UNL A   1      44.974  23.672  36.958  1.00  0.00    -0.744 OA
ENDBRANCH  94  97
ENDBRANCH  67  90
ENDBRANCH  41  42
ENDBRANCH  34  36
ENDBRANCH  33  34
ENDBRANCH  32  33
ENDBRANCH   1  32
TORSDOF 20
ENDMDL
MODEL 2
REMARK VINA RESULT:     -11.2      1.743      2.031
REMARK SMILES COc1ccc(-c2cc(Cl)cc3c2O[C@@H](C(F)(F)F)C(C(=O)OCCOCCOC(=O)c2ccc(-c4c5nc(c(-c6cccc(S(=O)(=O)[O-])c6F)c6ccc([nH]6)c(-c6cccc(S(=O)(=O)[O-])c6F)c6nc(c(-c7cccc(S(=O)(=O)[O-])c7F)c7ccc4[nH]7)C=C6)C=C5)cc2)=C3)cc1C
REMARK SMILES IDX 27 1 26 2 25 3 24 4 23 5 21 6 22 7 20 8 7 9 8 10 13 11 9 12
REMARK SMILES IDX 12 13 14 14 10 15 11 16 95 17 15 18 6 19 3 20 4 21 97 22
REMARK SMILES IDX 5 23 96 24 98 25 2 26 1 27 16 28 17 29 18 30 19 31 28 32
REMARK SMILES IDX 29 33 30 34 31 35 32 36 33 37 94 38 34 39 93 40 35 41 36 42
REMARK SMILES IDX 37 43 87 44 38 45 92 46 86 47 88 48 39 49 91 50 85 51 84 52
REMARK SMILES IDX 40 54 72 55 52 56 71 57 53 58 56 59 70 60 89 61 54 62 55 63
REMARK SMILES IDX 69 65 90 66 57 67 41 68 42 69 50 70 43 71 45 72 51 73 44 74
REMARK SMILES IDX 46 75 47 76 48 77 49 78 73 79 74 80 82 81 75 82 77 83 83 84
REMARK SMILES IDX 76 85 78 86 79 87 80 88 81 89 58 90 59 91 67 92 60 93 62 94
REMARK SMILES IDX 68 95 61 96 63 97 64 98 65 99 66 100
REMARK H PARENT 88 53 56 64
REMARK Flexibility Score: inf
ROOT
ATOM      1  C   UNL A   1      32.595  29.510  27.035  1.00  0.00     0.202 C 
ENDROOT
BRANCH   1   2
ATOM      2  O   UNL A   1      33.137  28.624  26.075  1.00  0.00    -0.374 OA
BRANCH   2   3
ATOM      3  C   UNL A   1      33.139  27.260  26.432  1.00  0.00     0.202 C 
BRANCH   3   4
ATOM      4  C   UNL A   1      34.074  26.536  25.497  1.00  0.00     0.261 C 
BRANCH   4   5
ATOM      5  O   UNL A   1      34.857  25.452  26.072  1.00  0.00    -0.460 OA
BRANCH   5   6
ATOM      6  C   UNL A   1      35.285  24.339  25.400  1.00  0.00     0.338 C 
ATOM      7  O   UNL A   1      35.965  24.271  24.404  1.00  0.00    -0.246 OA
BRANCH   6   8
ATOM      8  C   UNL A   1      35.026  23.128  26.297  1.00  0.00     0.087 C 
ATOM      9  C   UNL A   1      31.342  23.801  24.745  1.00  0.00     0.026 A 
ATOM     10  C   UNL A   1      30.207  23.489  25.530  1.00  0.00     0.033 A 
ATOM     11  C   UNL A   1      32.566  23.235  25.213  1.00  0.00     0.135 A 
ATOM     12  C   UNL A   1      30.310  22.858  26.768  1.00  0.00     0.042 A 
ATOM     13  C   UNL A   1      32.688  22.988  26.606  1.00  0.00     0.019 A 
ATOM     14  O   UNL A   1      33.627  22.680  24.405  1.00  0.00    -0.475 OA
ATOM     15  Cl  UNL A   1      28.885  22.437  27.632  1.00  0.00    -0.084 Cl
ATOM     16  C   UNL A   1      31.555  22.682  27.350  1.00  0.00     0.032 A 
ATOM     17  C   UNL A   1      34.046  23.059  27.225  1.00  0.00     0.027 C 
ATOM     18  C   UNL A   1      34.728  22.073  25.257  1.00  0.00     0.316 C 
BRANCH   9  19
ATOM     19  C   UNL A   1      31.105  25.048  23.902  1.00  0.00    -0.014 A 
ATOM     20  C   UNL A   1      30.957  27.587  22.488  1.00  0.00     0.121 A 
ATOM     21  C   UNL A   1      29.970  27.175  23.386  1.00  0.00     0.047 A 
ATOM     22  C   UNL A   1      32.125  26.835  22.436  1.00  0.00    -0.008 A 
ATOM     23  C   UNL A   1      30.068  25.956  24.118  1.00  0.00     0.013 A 
ATOM     24  C   UNL A   1      32.143  25.542  23.046  1.00  0.00     0.016 A 
ATOM     25  C   UNL A   1      33.404  27.451  21.928  1.00  0.00     0.048 C 
BRANCH  20  26
ATOM     26  O   UNL A   1      30.768  28.797  21.867  1.00  0.00    -0.496 OA
ATOM     27  C   UNL A   1      29.632  29.542  22.327  1.00  0.00     0.278 C 
ENDBRANCH  20  26
ENDBRANCH   9  19
BRANCH  18  28
ATOM     28  C   UNL A   1      36.115  21.489  24.799  1.00  0.00     0.430 C 
ATOM     29  F   UNL A   1      37.125  21.740  25.690  1.00  0.00    -0.167 F 
ATOM     30  F   UNL A   1      36.057  20.125  24.772  1.00  0.00    -0.167 F 
ATOM     31  F   UNL A   1      36.550  21.861  23.588  1.00  0.00    -0.167 F 
ENDBRANCH  18  28
ENDBRANCH   6   8
ENDBRANCH   5   6
ENDBRANCH   4   5
ENDBRANCH   3   4
ENDBRANCH   2   3
ENDBRANCH   1   2
BRANCH   1  32
ATOM     32  C   UNL A   1      33.190  30.925  26.995  1.00  0.00     0.261 C 
BRANCH  32  33
ATOM     33  O   UNL A   1      33.964  31.174  28.189  1.00  0.00    -0.460 OA
BRANCH  33  34
ATOM     34  C   UNL A   1      35.258  31.586  28.001  1.00  0.00     0.338 C 
ATOM     35  O   UNL A   1      35.549  32.670  27.525  1.00  0.00    -0.246 OA
BRANCH  34  36
ATOM     36  C   UNL A   1      36.221  30.489  28.351  1.00  0.00     0.060 A 
ATOM     37  C   UNL A   1      36.200  29.776  29.552  1.00  0.00     0.016 A 
ATOM     38  C   UNL A   1      37.317  30.306  27.533  1.00  0.00     0.016 A 
ATOM     39  C   UNL A   1      37.343  29.046  29.982  1.00  0.00     0.010 A 
ATOM     40  C   UNL A   1      38.435  29.611  27.957  1.00  0.00     0.010 A 
ATOM     41  C   UNL A   1      38.511  29.043  29.229  1.00  0.00    -0.014 A 
BRANCH  41  42
ATOM     42  C   UNL A   1      39.867  28.554  29.584  1.00  0.00     0.031 A 
ATOM     43  C   UNL A   1      40.214  27.172  29.165  1.00  0.00     0.074 A 
ATOM     44  C   UNL A   1      40.906  29.388  29.879  1.00  0.00     0.049 A 
ATOM     45  N   UNL A   1      41.396  26.671  29.215  1.00  0.00    -0.248 NA
ATOM     46  C   UNL A   1      39.233  26.209  28.686  1.00  0.00     0.031 C 
ATOM     47  C   UNL A   1      42.322  29.213  29.496  1.00  0.00     0.029 A 
ATOM     48  N   UNL A   1      40.933  30.651  30.465  1.00  0.00    -0.354 N 
ATOM     49  C   UNL A   1      41.406  25.477  28.542  1.00  0.00     0.074 A 
ATOM     50  C   UNL A   1      40.017  25.181  28.337  1.00  0.00     0.031 C 
ATOM     51  C   UNL A   1      43.080  30.192  30.013  1.00  0.00     0.029 A 
ATOM     52  C   UNL A   1      42.232  30.929  30.916  1.00  0.00     0.049 A 
ATOM     53  H   UNL A   1      40.160  31.255  30.551  1.00  0.00     0.167 HD
ATOM     54  C   UNL A   1      42.616  24.956  28.196  1.00  0.00     0.034 A 
ATOM     55  C   UNL A   1      42.438  31.177  32.234  1.00  0.00     0.034 A 
ATOM     56  C   UNL A   1      43.691  25.698  28.891  1.00  0.00     0.049 A 
ATOM     57  C   UNL A   1      43.223  30.023  32.806  1.00  0.00     0.074 A 
ATOM     58  C   UNL A   1      44.655  26.619  28.519  1.00  0.00     0.029 A 
ATOM     59  N   UNL A   1      43.650  25.724  30.285  1.00  0.00    -0.354 N 
ATOM     60  N   UNL A   1      43.424  28.920  32.134  1.00  0.00    -0.248 NA
ATOM     61  C   UNL A   1      43.953  30.019  34.065  1.00  0.00     0.031 C 
ATOM     62  C   UNL A   1      45.133  27.251  29.712  1.00  0.00     0.029 A 
ATOM     63  C   UNL A   1      44.485  26.696  30.807  1.00  0.00     0.049 A 
ATOM     64  H   UNL A   1      43.095  25.123  30.831  1.00  0.00     0.167 HD
ATOM     65  C   UNL A   1      44.266  28.086  32.784  1.00  0.00     0.074 A 
ATOM     66  C   UNL A   1      44.570  28.820  34.004  1.00  0.00     0.031 C 
ATOM     67  C   UNL A   1      44.600  26.865  32.263  1.00  0.00     0.034 A 
BRANCH  54  68
ATOM     68  C   UNL A   1      42.896  23.862  27.172  1.00  0.00     0.023 A 
ATOM     69  C   UNL A   1      43.610  24.239  26.010  1.00  0.00     0.012 A 
ATOM     70  C   UNL A   1      42.469  22.511  27.209  1.00  0.00     0.148 A 
ATOM     71  C   UNL A   1      43.857  23.359  24.948  1.00  0.00     0.002 A 
ATOM     72  C   UNL A   1      42.709  21.628  26.147  1.00  0.00     0.091 A 
ATOM     73  F   UNL A   1      41.823  22.045  28.275  1.00  0.00    -0.205 F 
ATOM     74  C   UNL A   1      43.400  22.052  25.012  1.00  0.00     0.022 A 
BRANCH  72  75
ATOM     75  S   UNL A   1      42.124  19.918  26.136  1.00  0.00     0.127 S 
ATOM     76  O   UNL A   1      40.676  20.091  26.008  1.00  0.00    -0.237 OA
ATOM     77  O   UNL A   1      42.775  19.368  24.949  1.00  0.00    -0.237 OA
ATOM     78  O   UNL A   1      42.546  19.327  27.400  1.00  0.00    -0.744 OA
ENDBRANCH  72  75
ENDBRANCH  54  68
BRANCH  55  79
ATOM     79  C   UNL A   1      41.316  32.029  32.761  1.00  0.00     0.023 A 
ATOM     80  C   UNL A   1      40.274  31.289  33.396  1.00  0.00     0.012 A 
ATOM     81  C   UNL A   1      41.532  33.358  33.181  1.00  0.00     0.148 A 
ATOM     82  C   UNL A   1      39.608  31.783  34.523  1.00  0.00     0.002 A 
ATOM     83  C   UNL A   1      40.848  33.848  34.303  1.00  0.00     0.091 A 
ATOM     84  F   UNL A   1      42.471  34.080  32.556  1.00  0.00    -0.205 F 
ATOM     85  C   UNL A   1      39.931  33.043  35.003  1.00  0.00     0.022 A 
BRANCH  83  86
ATOM     86  S   UNL A   1      41.177  35.475  34.996  1.00  0.00     0.127 S 
ATOM     87  O   UNL A   1      39.828  36.016  35.132  1.00  0.00    -0.237 OA
ATOM     88  O   UNL A   1      41.828  35.153  36.268  1.00  0.00    -0.237 OA
ATOM     89  O   UNL A   1      42.033  36.149  34.033  1.00  0.00    -0.744 OA
ENDBRANCH  83  86
ENDBRANCH  55  79
BRANCH  67  90
ATOM     90  C   UNL A   1      45.022  25.692  33.120  1.00  0.00     0.023 A 
ATOM     91  C   UNL A   1      44.175  24.585  33.320  1.00  0.00     0.012 A 
ATOM     92  C   UNL A   1      46.357  25.558  33.578  1.00  0.00     0.148 A 
ATOM     93  C   UNL A   1      44.599  23.434  33.985  1.00  0.00     0.002 A 
ATOM     94  C   UNL A   1      46.812  24.358  34.110  1.00  0.00     0.091 A 
ATOM     95  F   UNL A   1      47.204  26.595  33.513  1.00  0.00    -0.205 F 
ATOM     96  C   UNL A   1      45.927  23.307  34.353  1.00  0.00     0.022 A 
BRANCH  94  97
ATOM     97  S   UNL A   1      48.569  24.046  34.324  1.00  0.00     0.127 S 
ATOM     98  O   UNL A   1      48.863  24.817  35.531  1.00  0.00    -0.237 OA
ATOM     99  O   UNL A   1      48.606  22.593  34.503  1.00  0.00    -0.237 OA
ATOM    100  O   UNL A   1      49.191  24.512  33.093  1.00  0.00    -0.744 OA
ENDBRANCH  94  97
ENDBRANCH  67  90
ENDBRANCH  41  42
ENDBRANCH  34  36
ENDBRANCH  33  34
ENDBRANCH  32  33
ENDBRANCH   1  32
TORSDOF 20
ENDMDL
MODEL 3
REMARK VINA RESULT:     -11.1      1.752      2.369
REMARK SMILES COc1ccc(-c2cc(Cl)cc3c2O[C@@H](C(F)(F)F)C(C(=O)OCCOCCOC(=O)c2ccc(-c4c5nc(c(-c6cccc(S(=O)(=O)[O-])c6F)c6ccc([nH]6)c(-c6cccc(S(=O)(=O)[O-])c6F)c6nc(c(-c7cccc(S(=O)(=O)[O-])c7F)c7ccc4[nH]7)C=C6)C=C5)cc2)=C3)cc1C
REMARK SMILES IDX 27 1 26 2 25 3 24 4 23 5 21 6 22 7 20 8 7 9 8 10 13 11 9 12
REMARK SMILES IDX 12 13 14 14 10 15 11 16 95 17 15 18 6 19 3 20 4 21 97 22
REMARK SMILES IDX 5 23 96 24 98 25 2 26 1 27 16 28 17 29 18 30 19 31 28 32
REMARK SMILES IDX 29 33 30 34 31 35 32 36 33 37 94 38 34 39 93 40 35 41 36 42
REMARK SMILES IDX 37 43 87 44 38 45 92 46 86 47 88 48 39 49 91 50 85 51 84 52
REMARK SMILES IDX 40 54 72 55 52 56 71 57 53 58 56 59 70 60 89 61 54 62 55 63
REMARK SMILES IDX 69 65 90 66 57 67 41 68 42 69 50 70 43 71 45 72 51 73 44 74
REMARK SMILES IDX 46 75 47 76 48 77 49 78 73 79 74 80 82 81 75 82 77 83 83 84
REMARK SMILES IDX 76 85 78 86 79 87 80 88 81 89 58 90 59 91 67 92 60 93 62 94
REMARK SMILES IDX 68 95 61 96 63 97 64 98 65 99 66 100
REMARK H PARENT 88 53 56 64
REMARK Flexibility Score: inf
ROOT
ATOM      1  C   UNL A   1      32.844  29.738  25.428  1.00  0.00     0.202 C 
ENDROOT
BRANCH   1   2
ATOM      2  O   UNL A   1      32.797  28.324  25.445  1.00  0.00    -0.374 OA
BRANCH   2   3
ATOM      3  C   UNL A   1      33.940  27.679  25.961  1.00  0.00     0.202 C 
BRANCH   3   4
ATOM      4  C   UNL A   1      34.133  26.393  25.196  1.00  0.00     0.261 C 
BRANCH   4   5
ATOM      5  O   UNL A   1      34.508  25.224  25.976  1.00  0.00    -0.460 OA
BRANCH   5   6
ATOM      6  C   UNL A   1      35.258  24.173  25.521  1.00  0.00     0.338 C 
ATOM      7  O   UNL A   1      36.157  24.178  24.714  1.00  0.00    -0.246 OA
BRANCH   6   8
ATOM      8  C   UNL A   1      34.993  22.980  26.441  1.00  0.00     0.087 C 
ATOM      9  C   UNL A   1      31.326  23.603  24.830  1.00  0.00     0.026 A 
ATOM     10  C   UNL A   1      30.182  23.304  25.607  1.00  0.00     0.033 A 
ATOM     11  C   UNL A   1      32.546  23.053  25.326  1.00  0.00     0.135 A 
ATOM     12  C   UNL A   1      30.272  22.701  26.860  1.00  0.00     0.042 A 
ATOM     13  C   UNL A   1      32.652  22.837  26.725  1.00  0.00     0.019 A 
ATOM     14  O   UNL A   1      33.620  22.484  24.543  1.00  0.00    -0.475 OA
ATOM     15  Cl  UNL A   1      28.839  22.292  27.716  1.00  0.00    -0.084 Cl
ATOM     16  C   UNL A   1      31.511  22.543  27.462  1.00  0.00     0.032 A 
ATOM     17  C   UNL A   1      34.001  22.929  27.359  1.00  0.00     0.027 C 
ATOM     18  C   UNL A   1      34.712  21.902  25.422  1.00  0.00     0.316 C 
BRANCH   9  19
ATOM     19  C   UNL A   1      31.094  24.830  23.956  1.00  0.00    -0.014 A 
ATOM     20  C   UNL A   1      30.997  27.304  22.428  1.00  0.00     0.121 A 
ATOM     21  C   UNL A   1      30.120  27.044  23.483  1.00  0.00     0.047 A 
ATOM     22  C   UNL A   1      32.059  26.425  22.251  1.00  0.00    -0.008 A 
ATOM     23  C   UNL A   1      30.201  25.856  24.265  1.00  0.00     0.013 A 
ATOM     24  C   UNL A   1      32.036  25.166  22.930  1.00  0.00     0.016 A 
ATOM     25  C   UNL A   1      33.304  26.872  21.527  1.00  0.00     0.048 C 
BRANCH  20  26
ATOM     26  O   UNL A   1      30.842  28.499  21.769  1.00  0.00    -0.496 OA
ATOM     27  C   UNL A   1      30.151  29.514  22.510  1.00  0.00     0.278 C 
ENDBRANCH  20  26
ENDBRANCH   9  19
BRANCH  18  28
ATOM     28  C   UNL A   1      36.107  21.314  24.994  1.00  0.00     0.430 C 
ATOM     29  F   UNL A   1      37.091  21.533  25.922  1.00  0.00    -0.167 F 
ATOM     30  F   UNL A   1      36.037  19.952  24.933  1.00  0.00    -0.167 F 
ATOM     31  F   UNL A   1      36.584  21.709  23.807  1.00  0.00    -0.167 F 
ENDBRANCH  18  28
ENDBRANCH   6   8
ENDBRANCH   5   6
ENDBRANCH   4   5
ENDBRANCH   3   4
ENDBRANCH   2   3
ENDBRANCH   1   2
BRANCH   1  32
ATOM     32  C   UNL A   1      32.879  30.384  26.820  1.00  0.00     0.261 C 
BRANCH  32  33
ATOM     33  O   UNL A   1      34.204  30.886  27.104  1.00  0.00    -0.460 OA
BRANCH  33  34
ATOM     34  C   UNL A   1      34.279  31.970  27.940  1.00  0.00     0.338 C 
ATOM     35  O   UNL A   1      33.463  32.876  27.930  1.00  0.00    -0.246 OA
BRANCH  34  36
ATOM     36  C   UNL A   1      35.538  31.926  28.756  1.00  0.00     0.060 A 
ATOM     37  C   UNL A   1      36.738  32.536  28.385  1.00  0.00     0.016 A 
ATOM     38  C   UNL A   1      35.579  31.065  29.834  1.00  0.00     0.016 A 
ATOM     39  C   UNL A   1      37.968  32.140  28.981  1.00  0.00     0.010 A 
ATOM     40  C   UNL A   1      36.776  30.667  30.403  1.00  0.00     0.010 A 
ATOM     41  C   UNL A   1      38.005  31.123  29.928  1.00  0.00    -0.014 A 
BRANCH  41  42
ATOM     42  C   UNL A   1      39.171  30.404  30.501  1.00  0.00     0.031 A 
ATOM     43  C   UNL A   1      39.548  29.118  29.860  1.00  0.00     0.074 A 
ATOM     44  C   UNL A   1      40.125  31.018  31.260  1.00  0.00     0.049 A 
ATOM     45  N   UNL A   1      40.635  28.477  30.099  1.00  0.00    -0.248 NA
ATOM     46  C   UNL A   1      38.696  28.414  28.913  1.00  0.00     0.031 C 
ATOM     47  C   UNL A   1      41.580  30.760  31.239  1.00  0.00     0.029 A 
ATOM     48  N   UNL A   1      40.051  32.105  32.126  1.00  0.00    -0.354 N 
ATOM     49  C   UNL A   1      40.774  27.470  29.179  1.00  0.00     0.074 A 
ATOM     50  C   UNL A   1      39.489  27.401  28.543  1.00  0.00     0.031 C 
ATOM     51  C   UNL A   1      42.208  31.498  32.166  1.00  0.00     0.029 A 
ATOM     52  C   UNL A   1      41.177  32.115  32.962  1.00  0.00     0.049 A 
ATOM     53  H   UNL A   1      39.320  32.766  32.149  1.00  0.00     0.167 HD
ATOM     54  C   UNL A   1      42.002  26.895  29.052  1.00  0.00     0.034 A 
ATOM     55  C   UNL A   1      41.006  32.036  34.307  1.00  0.00     0.034 A 
ATOM     56  C   UNL A   1      42.868  27.326  30.170  1.00  0.00     0.049 A 
ATOM     57  C   UNL A   1      41.526  30.696  34.763  1.00  0.00     0.074 A 
ATOM     58  C   UNL A   1      43.948  28.180  30.310  1.00  0.00     0.029 A 
ATOM     59  N   UNL A   1      42.428  27.046  31.464  1.00  0.00    -0.354 N 
ATOM     60  N   UNL A   1      41.852  29.754  33.917  1.00  0.00    -0.248 NA
ATOM     61  C   UNL A   1      41.860  30.323  36.129  1.00  0.00     0.031 C 
ATOM     62  C   UNL A   1      44.095  28.468  31.706  1.00  0.00     0.029 A 
ATOM     63  C   UNL A   1      43.128  27.767  32.415  1.00  0.00     0.049 A 
ATOM     64  H   UNL A   1      41.706  26.412  31.675  1.00  0.00     0.167 HD
ATOM     65  C   UNL A   1      42.423  28.699  34.542  1.00  0.00     0.074 A 
ATOM     66  C   UNL A   1      42.402  29.101  35.941  1.00  0.00     0.031 C 
ATOM     67  C   UNL A   1      42.826  27.593  33.842  1.00  0.00     0.034 A 
BRANCH  54  68
ATOM     68  C   UNL A   1      42.505  26.029  27.902  1.00  0.00     0.023 A 
ATOM     69  C   UNL A   1      43.285  26.670  26.912  1.00  0.00     0.012 A 
ATOM     70  C   UNL A   1      42.232  24.659  27.665  1.00  0.00     0.148 A 
ATOM     71  C   UNL A   1      43.736  26.018  25.756  1.00  0.00     0.002 A 
ATOM     72  C   UNL A   1      42.675  24.003  26.508  1.00  0.00     0.091 A 
ATOM     73  F   UNL A   1      41.538  23.954  28.555  1.00  0.00    -0.205 F 
ATOM     74  C   UNL A   1      43.425  24.684  25.549  1.00  0.00     0.022 A 
BRANCH  72  75
ATOM     75  S   UNL A   1      42.291  22.275  26.146  1.00  0.00     0.127 S 
ATOM     76  O   UNL A   1      40.833  22.307  26.012  1.00  0.00    -0.237 OA
ATOM     77  O   UNL A   1      43.009  22.046  24.894  1.00  0.00    -0.237 OA
ATOM     78  O   UNL A   1      42.770  21.497  27.282  1.00  0.00    -0.744 OA
ENDBRANCH  72  75
ENDBRANCH  54  68
BRANCH  55  79
ATOM     79  C   UNL A   1      39.829  32.881  34.708  1.00  0.00     0.023 A 
ATOM     80  C   UNL A   1      40.124  34.273  34.819  1.00  0.00     0.012 A 
ATOM     81  C   UNL A   1      38.507  32.511  34.383  1.00  0.00     0.148 A 
ATOM     82  C   UNL A   1      39.199  35.251  34.435  1.00  0.00     0.002 A 
ATOM     83  C   UNL A   1      37.584  33.500  34.015  1.00  0.00     0.091 A 
ATOM     84  F   UNL A   1      38.205  31.208  34.329  1.00  0.00    -0.205 F 
ATOM     85  C   UNL A   1      37.946  34.859  33.988  1.00  0.00     0.022 A 
BRANCH  83  86
ATOM     86  S   UNL A   1      35.926  33.102  33.438  1.00  0.00     0.127 S 
ATOM     87  O   UNL A   1      35.835  33.912  32.226  1.00  0.00    -0.237 OA
ATOM     88  O   UNL A   1      36.012  31.661  33.194  1.00  0.00    -0.237 OA
ATOM     89  O   UNL A   1      35.030  33.481  34.519  1.00  0.00    -0.744 OA
ENDBRANCH  83  86
ENDBRANCH  55  79
BRANCH  67  90
ATOM     90  C   UNL A   1      42.916  26.216  34.463  1.00  0.00     0.023 A 
ATOM     91  C   UNL A   1      41.823  25.641  35.138  1.00  0.00     0.012 A 
ATOM     92  C   UNL A   1      44.021  25.365  34.207  1.00  0.00     0.148 A 
ATOM     93  C   UNL A   1      41.838  24.321  35.590  1.00  0.00     0.002 A 
ATOM     94  C   UNL A   1      43.972  24.015  34.533  1.00  0.00     0.091 A 
ATOM     95  F   UNL A   1      45.140  25.853  33.654  1.00  0.00    -0.205 F 
ATOM     96  C   UNL A   1      42.900  23.497  35.259  1.00  0.00     0.022 A 
BRANCH  94  97
ATOM     97  S   UNL A   1      45.178  22.858  33.870  1.00  0.00     0.127 S 
ATOM     98  O   UNL A   1      46.423  23.367  34.442  1.00  0.00    -0.237 OA
ATOM     99  O   UNL A   1      44.724  21.583  34.430  1.00  0.00    -0.237 OA
ATOM    100  O   UNL A   1      45.045  22.956  32.423  1.00  0.00    -0.744 OA
ENDBRANCH  94  97
ENDBRANCH  67  90
ENDBRANCH  41  42
ENDBRANCH  34  36
ENDBRANCH  33  34
ENDBRANCH  32  33
ENDBRANCH   1  32
TORSDOF 20
ENDMDL
