MODEL 1
REMARK VINA RESULT:     -11.4      0.000      0.000
REMARK SMILES O=C(C[C@H](C(=O)OCCOCCOC(=O)c1ccc(-c2c3nc(c(-c4cccc(S(=O)(=O)[O-])c4F)c4ccc([nH]4)c(-c4cccc(S(=O)(=O)[O-])c4F)c4nc(c(-c5cccc(S(=O)(=O)[O-])c5F)c5ccc2[nH]5)C=C4)C=C3)cc1)c1ccccc1)Nc1ccc(Cl)cc1Cl
REMARK SMILES IDX 10 1 9 2 8 3 7 4 5 5 6 6 4 7 3 8 2 9 1 10 85 11 86 13 87 14
REMARK SMILES IDX 92 15 88 16 91 17 93 18 89 19 90 20 79 21 80 22 84 23 81 24
REMARK SMILES IDX 83 25 82 26 11 27 12 28 13 29 14 30 15 31 16 32 17 33 78 34
REMARK SMILES IDX 18 35 77 36 19 37 20 38 21 39 71 40 22 41 76 42 70 43 72 44
REMARK SMILES IDX 23 45 75 46 69 47 68 48 24 50 56 51 36 52 55 53 37 54 40 55
REMARK SMILES IDX 54 56 73 57 38 58 39 59 53 61 74 62 41 63 25 64 26 65 34 66
REMARK SMILES IDX 27 67 29 68 35 69 28 70 30 71 31 72 32 73 33 74 57 75 58 76
REMARK SMILES IDX 66 77 59 78 61 79 67 80 60 81 62 82 63 83 64 84 65 85 42 86
REMARK SMILES IDX 43 87 51 88 44 89 46 90 52 91 45 92 47 93 48 94 49 95 50 96
REMARK H PARENT 85 12 72 49 40 60
REMARK Flexibility Score: inf
ROOT
ATOM      1  O   UNL A   1      36.528  22.291  24.468  1.00  0.00    -0.374 OA
ENDROOT
BRANCH   1   2
ATOM      2  C   UNL A   1      35.490  22.891  23.701  1.00  0.00     0.202 C 
BRANCH   2   3
ATOM      3  C   UNL A   1      34.815  24.161  24.234  1.00  0.00     0.261 C 
BRANCH   3   4
ATOM      4  O   UNL A   1      33.447  23.994  24.643  1.00  0.00    -0.463 OA
BRANCH   4   5
ATOM      5  C   UNL A   1      33.297  23.370  25.843  1.00  0.00     0.314 C 
ATOM      6  O   UNL A   1      34.039  23.575  26.796  1.00  0.00    -0.252 OA
BRANCH   5   7
ATOM      7  C   UNL A   1      32.201  22.301  25.857  1.00  0.00     0.138 C 
BRANCH   7   8
ATOM      8  C   UNL A   1      30.792  22.926  25.989  1.00  0.00     0.120 C 
BRANCH   8   9
ATOM      9  C   UNL A   1      30.706  24.440  25.827  1.00  0.00     0.225 C 
ATOM     10  O   UNL A   1      30.804  25.158  26.817  1.00  0.00    -0.275 OA
ATOM     11  N   UNL A   1      30.485  24.857  24.525  1.00  0.00    -0.325 N 
ATOM     12  H   UNL A   1      30.574  24.181  23.815  1.00  0.00     0.169 HD
BRANCH  11  13
ATOM     13  C   UNL A   1      30.143  26.172  24.128  1.00  0.00     0.060 A 
ATOM     14  C   UNL A   1      28.795  26.343  23.763  1.00  0.00     0.029 A 
ATOM     15  C   UNL A   1      30.999  27.285  24.073  1.00  0.00     0.066 A 
ATOM     16  C   UNL A   1      28.291  27.601  23.426  1.00  0.00     0.023 A 
ATOM     17  C   UNL A   1      30.487  28.549  23.743  1.00  0.00     0.043 A 
ATOM     18  Cl  UNL A   1      32.724  27.180  24.172  1.00  0.00    -0.082 Cl
ATOM     19  C   UNL A   1      29.139  28.701  23.432  1.00  0.00     0.042 A 
ATOM     20  Cl  UNL A   1      28.527  30.254  23.013  1.00  0.00    -0.084 Cl
ENDBRANCH  11  13
ENDBRANCH   8   9
ENDBRANCH   7   8
BRANCH   7  21
ATOM     21  C   UNL A   1      32.238  21.283  24.714  1.00  0.00    -0.033 A 
ATOM     22  C   UNL A   1      31.923  21.696  23.408  1.00  0.00     0.004 A 
ATOM     23  C   UNL A   1      32.604  19.940  24.909  1.00  0.00     0.004 A 
ATOM     24  C   UNL A   1      31.978  20.798  22.338  1.00  0.00     0.000 A 
ATOM     25  C   UNL A   1      32.643  19.040  23.840  1.00  0.00     0.000 A 
ATOM     26  C   UNL A   1      32.334  19.470  22.553  1.00  0.00     0.000 A 
ENDBRANCH   7  21
ENDBRANCH   5   7
ENDBRANCH   4   5
ENDBRANCH   3   4
ENDBRANCH   2   3
ENDBRANCH   1   2
BRANCH   1  27
ATOM     27  C   UNL A   1      36.356  20.931  24.864  1.00  0.00     0.202 C 
BRANCH  27  28
ATOM     28  C   UNL A   1      37.586  20.165  25.361  1.00  0.00     0.261 C 
BRANCH  28  29
ATOM     29  O   UNL A   1      38.795  20.932  25.217  1.00  0.00    -0.460 OA
BRANCH  29  30
ATOM     30  C   UNL A   1      39.684  20.792  26.227  1.00  0.00     0.338 C 
ATOM     31  O   UNL A   1      40.266  19.767  26.563  1.00  0.00    -0.246 OA
BRANCH  30  32
ATOM     32  C   UNL A   1      40.045  22.114  26.763  1.00  0.00     0.060 A 
ATOM     33  C   UNL A   1      39.397  23.233  26.219  1.00  0.00     0.016 A 
ATOM     34  C   UNL A   1      41.044  22.268  27.724  1.00  0.00     0.016 A 
ATOM     35  C   UNL A   1      39.775  24.515  26.608  1.00  0.00     0.010 A 
ATOM     36  C   UNL A   1      41.432  23.558  28.102  1.00  0.00     0.010 A 
ATOM     37  C   UNL A   1      40.821  24.685  27.522  1.00  0.00    -0.014 A 
BRANCH  37  38
ATOM     38  C   UNL A   1      41.354  26.044  27.777  1.00  0.00     0.031 A 
ATOM     39  C   UNL A   1      42.749  26.381  27.334  1.00  0.00     0.074 A 
ATOM     40  C   UNL A   1      40.599  26.966  28.401  1.00  0.00     0.049 A 
ATOM     41  N   UNL A   1      43.419  27.493  27.483  1.00  0.00    -0.248 NA
ATOM     42  C   UNL A   1      43.489  25.320  26.630  1.00  0.00     0.031 C 
ATOM     43  C   UNL A   1      39.234  26.753  28.877  1.00  0.00     0.029 A 
ATOM     44  N   UNL A   1      40.890  28.254  28.772  1.00  0.00    -0.354 N 
ATOM     45  C   UNL A   1      44.668  27.261  26.921  1.00  0.00     0.074 A 
ATOM     46  C   UNL A   1      44.666  25.897  26.435  1.00  0.00     0.031 C 
ATOM     47  C   UNL A   1      38.819  27.860  29.516  1.00  0.00     0.029 A 
ATOM     48  C   UNL A   1      39.899  28.846  29.515  1.00  0.00     0.049 A 
ATOM     49  H   UNL A   1      41.728  28.711  28.528  1.00  0.00     0.167 HD
ATOM     50  C   UNL A   1      45.716  28.110  26.807  1.00  0.00     0.034 A 
ATOM     51  C   UNL A   1      39.876  30.034  30.153  1.00  0.00     0.034 A 
ATOM     52  C   UNL A   1      45.708  29.467  27.281  1.00  0.00     0.049 A 
ATOM     53  C   UNL A   1      41.063  30.954  30.035  1.00  0.00     0.074 A 
ATOM     54  C   UNL A   1      46.696  30.428  27.159  1.00  0.00     0.029 A 
ATOM     55  N   UNL A   1      44.668  30.051  27.990  1.00  0.00    -0.354 N 
ATOM     56  N   UNL A   1      42.184  30.773  29.381  1.00  0.00    -0.248 NA
ATOM     57  C   UNL A   1      40.970  32.253  30.716  1.00  0.00     0.031 C 
ATOM     58  C   UNL A   1      46.267  31.582  27.823  1.00  0.00     0.029 A 
ATOM     59  C   UNL A   1      44.999  31.350  28.334  1.00  0.00     0.049 A 
ATOM     60  H   UNL A   1      43.820  29.606  28.216  1.00  0.00     0.167 HD
ATOM     61  C   UNL A   1      42.920  31.940  29.549  1.00  0.00     0.074 A 
ATOM     62  C   UNL A   1      42.105  32.833  30.349  1.00  0.00     0.031 C 
ATOM     63  C   UNL A   1      44.163  32.242  29.096  1.00  0.00     0.034 A 
BRANCH  50  64
ATOM     64  C   UNL A   1      46.959  27.595  26.130  1.00  0.00     0.023 A 
ATOM     65  C   UNL A   1      47.885  26.821  26.860  1.00  0.00     0.012 A 
ATOM     66  C   UNL A   1      47.192  27.843  24.763  1.00  0.00     0.148 A 
ATOM     67  C   UNL A   1      49.041  26.335  26.250  1.00  0.00     0.002 A 
ATOM     68  C   UNL A   1      48.325  27.318  24.151  1.00  0.00     0.091 A 
ATOM     69  F   UNL A   1      46.314  28.603  24.093  1.00  0.00    -0.205 F 
ATOM     70  C   UNL A   1      49.255  26.575  24.895  1.00  0.00     0.022 A 
BRANCH  68  71
ATOM     71  S   UNL A   1      48.649  27.512  22.396  1.00  0.00     0.127 S 
ATOM     72  O   UNL A   1      49.941  28.197  22.408  1.00  0.00    -0.237 OA
ATOM     73  O   UNL A   1      48.698  26.125  21.935  1.00  0.00    -0.237 OA
ATOM     74  O   UNL A   1      47.534  28.286  21.866  1.00  0.00    -0.744 OA
ENDBRANCH  68  71
ENDBRANCH  50  64
BRANCH  51  75
ATOM     75  C   UNL A   1      38.677  30.415  30.949  1.00  0.00     0.023 A 
ATOM     76  C   UNL A   1      38.625  30.122  32.325  1.00  0.00     0.012 A 
ATOM     77  C   UNL A   1      37.607  31.114  30.355  1.00  0.00     0.148 A 
ATOM     78  C   UNL A   1      37.522  30.501  33.090  1.00  0.00     0.002 A 
ATOM     79  C   UNL A   1      36.540  31.542  31.135  1.00  0.00     0.091 A 
ATOM     80  F   UNL A   1      37.668  31.369  29.040  1.00  0.00    -0.205 F 
ATOM     81  C   UNL A   1      36.486  31.221  32.499  1.00  0.00     0.022 A 
BRANCH  79  82
ATOM     82  S   UNL A   1      35.240  32.600  30.488  1.00  0.00     0.127 S 
ATOM     83  O   UNL A   1      34.751  31.817  29.356  1.00  0.00    -0.237 OA
ATOM     84  O   UNL A   1      34.323  32.680  31.626  1.00  0.00    -0.237 OA
ATOM     85  O   UNL A   1      35.886  33.861  30.153  1.00  0.00    -0.744 OA
ENDBRANCH  79  82
ENDBRANCH  51  75
BRANCH  63  86
ATOM     86  C   UNL A   1      44.723  33.600  29.437  1.00  0.00     0.023 A 
ATOM     87  C   UNL A   1      45.416  33.786  30.650  1.00  0.00     0.012 A 
ATOM     88  C   UNL A   1      44.639  34.665  28.519  1.00  0.00     0.148 A 
ATOM     89  C   UNL A   1      45.994  35.017  30.954  1.00  0.00     0.002 A 
ATOM     90  C   UNL A   1      45.258  35.875  28.808  1.00  0.00     0.091 A 
ATOM     91  F   UNL A   1      43.960  34.473  27.377  1.00  0.00    -0.205 F 
ATOM     92  C   UNL A   1      45.926  36.057  30.029  1.00  0.00     0.022 A 
BRANCH  90  93
ATOM     93  S   UNL A   1      45.304  37.241  27.641  1.00  0.00     0.127 S 
ATOM     94  O   UNL A   1      46.050  38.250  28.393  1.00  0.00    -0.237 OA
ATOM     95  O   UNL A   1      46.032  36.659  26.513  1.00  0.00    -0.237 OA
ATOM     96  O   UNL A   1      43.915  37.575  27.357  1.00  0.00    -0.744 OA
ENDBRANCH  90  93
ENDBRANCH  63  86
ENDBRANCH  37  38
ENDBRANCH  30  32
ENDBRANCH  29  30
ENDBRANCH  28  29
ENDBRANCH  27  28
ENDBRANCH   1  27
TORSDOF 21
ENDMDL
MODEL 2
REMARK VINA RESULT:     -11.3      1.600      7.556
REMARK SMILES O=C(C[C@H](C(=O)OCCOCCOC(=O)c1ccc(-c2c3nc(c(-c4cccc(S(=O)(=O)[O-])c4F)c4ccc([nH]4)c(-c4cccc(S(=O)(=O)[O-])c4F)c4nc(c(-c5cccc(S(=O)(=O)[O-])c5F)c5ccc2[nH]5)C=C4)C=C3)cc1)c1ccccc1)Nc1ccc(Cl)cc1Cl
REMARK SMILES IDX 10 1 9 2 8 3 7 4 5 5 6 6 4 7 3 8 2 9 1 10 85 11 86 13 87 14
REMARK SMILES IDX 92 15 88 16 91 17 93 18 89 19 90 20 79 21 80 22 84 23 81 24
REMARK SMILES IDX 83 25 82 26 11 27 12 28 13 29 14 30 15 31 16 32 17 33 78 34
REMARK SMILES IDX 18 35 77 36 19 37 20 38 21 39 71 40 22 41 76 42 70 43 72 44
REMARK SMILES IDX 23 45 75 46 69 47 68 48 24 50 56 51 36 52 55 53 37 54 40 55
REMARK SMILES IDX 54 56 73 57 38 58 39 59 53 61 74 62 41 63 25 64 26 65 34 66
REMARK SMILES IDX 27 67 29 68 35 69 28 70 30 71 31 72 32 73 33 74 57 75 58 76
REMARK SMILES IDX 66 77 59 78 61 79 67 80 60 81 62 82 63 83 64 84 65 85 42 86
REMARK SMILES IDX 43 87 51 88 44 89 46 90 52 91 45 92 47 93 48 94 49 95 50 96
REMARK H PARENT 85 12 72 49 40 60
REMARK Flexibility Score: inf
ROOT
ATOM      1  O   UNL A   1      37.703  22.348  24.812  1.00  0.00    -0.374 OA
ENDROOT
BRANCH   1   2
ATOM      2  C   UNL A   1      37.010  23.557  25.097  1.00  0.00     0.202 C 
BRANCH   2   3
ATOM      3  C   UNL A   1      35.489  23.603  24.898  1.00  0.00     0.261 C 
BRANCH   3   4
ATOM      4  O   UNL A   1      34.904  22.383  24.414  1.00  0.00    -0.463 OA
BRANCH   4   5
ATOM      5  C   UNL A   1      34.163  21.716  25.339  1.00  0.00     0.314 C 
ATOM      6  O   UNL A   1      34.470  21.661  26.524  1.00  0.00    -0.252 OA
BRANCH   5   7
ATOM      7  C   UNL A   1      32.983  20.938  24.749  1.00  0.00     0.138 C 
BRANCH   7   8
ATOM      8  C   UNL A   1      32.204  21.778  23.709  1.00  0.00     0.120 C 
BRANCH   8   9
ATOM      9  C   UNL A   1      31.620  23.096  24.205  1.00  0.00     0.225 C 
ATOM     10  O   UNL A   1      30.661  23.080  24.971  1.00  0.00    -0.275 OA
ATOM     11  N   UNL A   1      32.244  24.220  23.689  1.00  0.00    -0.325 N 
ATOM     12  H   UNL A   1      33.089  24.081  23.203  1.00  0.00     0.169 HD
BRANCH  11  13
ATOM     13  C   UNL A   1      31.771  25.549  23.800  1.00  0.00     0.060 A 
ATOM     14  C   UNL A   1      31.388  26.139  22.582  1.00  0.00     0.029 A 
ATOM     15  C   UNL A   1      31.647  26.304  24.979  1.00  0.00     0.066 A 
ATOM     16  C   UNL A   1      30.827  27.417  22.542  1.00  0.00     0.023 A 
ATOM     17  C   UNL A   1      31.073  27.583  24.937  1.00  0.00     0.043 A 
ATOM     18  Cl  UNL A   1      32.364  25.855  26.490  1.00  0.00    -0.082 Cl
ATOM     19  C   UNL A   1      30.659  28.127  23.724  1.00  0.00     0.042 A 
ATOM     20  Cl  UNL A   1      29.972  29.704  23.684  1.00  0.00    -0.084 Cl
ENDBRANCH  11  13
ENDBRANCH   8   9
ENDBRANCH   7   8
BRANCH   7  21
ATOM     21  C   UNL A   1      33.303  19.547  24.194  1.00  0.00    -0.033 A 
ATOM     22  C   UNL A   1      34.406  18.837  24.698  1.00  0.00     0.004 A 
ATOM     23  C   UNL A   1      32.519  18.928  23.206  1.00  0.00     0.004 A 
ATOM     24  C   UNL A   1      34.707  17.554  24.234  1.00  0.00     0.000 A 
ATOM     25  C   UNL A   1      32.831  17.651  22.731  1.00  0.00     0.000 A 
ATOM     26  C   UNL A   1      33.923  16.961  23.248  1.00  0.00     0.000 A 
ENDBRANCH   7  21
ENDBRANCH   5   7
ENDBRANCH   4   5
ENDBRANCH   3   4
ENDBRANCH   2   3
ENDBRANCH   1   2
BRANCH   1  27
ATOM     27  C   UNL A   1      38.414  21.726  25.881  1.00  0.00     0.202 C 
BRANCH  27  28
ATOM     28  C   UNL A   1      39.051  20.356  25.622  1.00  0.00     0.261 C 
BRANCH  28  29
ATOM     29  O   UNL A   1      39.963  19.978  26.668  1.00  0.00    -0.460 OA
BRANCH  29  30
ATOM     30  C   UNL A   1      41.256  19.868  26.286  1.00  0.00     0.338 C 
ATOM     31  O   UNL A   1      41.769  18.937  25.674  1.00  0.00    -0.246 OA
BRANCH  30  32
ATOM     32  C   UNL A   1      41.955  21.142  26.512  1.00  0.00     0.060 A 
ATOM     33  C   UNL A   1      42.284  21.475  27.834  1.00  0.00     0.016 A 
ATOM     34  C   UNL A   1      42.223  22.027  25.467  1.00  0.00     0.016 A 
ATOM     35  C   UNL A   1      42.848  22.715  28.122  1.00  0.00     0.010 A 
ATOM     36  C   UNL A   1      42.777  23.278  25.761  1.00  0.00     0.010 A 
ATOM     37  C   UNL A   1      43.061  23.638  27.091  1.00  0.00    -0.014 A 
BRANCH  37  38
ATOM     38  C   UNL A   1      43.468  25.023  27.425  1.00  0.00     0.031 A 
ATOM     39  C   UNL A   1      42.454  25.967  28.004  1.00  0.00     0.074 A 
ATOM     40  C   UNL A   1      44.731  25.433  27.210  1.00  0.00     0.049 A 
ATOM     41  N   UNL A   1      42.588  27.224  28.337  1.00  0.00    -0.248 NA
ATOM     42  C   UNL A   1      41.106  25.422  28.235  1.00  0.00     0.031 C 
ATOM     43  C   UNL A   1      45.799  24.606  26.652  1.00  0.00     0.029 A 
ATOM     44  N   UNL A   1      45.316  26.659  27.403  1.00  0.00    -0.354 N 
ATOM     45  C   UNL A   1      41.339  27.631  28.790  1.00  0.00     0.074 A 
ATOM     46  C   UNL A   1      40.456  26.489  28.679  1.00  0.00     0.031 C 
ATOM     47  C   UNL A   1      46.902  25.361  26.507  1.00  0.00     0.029 A 
ATOM     48  C   UNL A   1      46.607  26.727  26.938  1.00  0.00     0.049 A 
ATOM     49  H   UNL A   1      44.856  27.415  27.834  1.00  0.00     0.167 HD
ATOM     50  C   UNL A   1      40.965  28.842  29.266  1.00  0.00     0.034 A 
ATOM     51  C   UNL A   1      47.444  27.779  26.839  1.00  0.00     0.034 A 
ATOM     52  C   UNL A   1      41.849  29.969  29.385  1.00  0.00     0.049 A 
ATOM     53  C   UNL A   1      46.999  29.124  27.352  1.00  0.00     0.074 A 
ATOM     54  C   UNL A   1      41.584  31.219  29.914  1.00  0.00     0.029 A 
ATOM     55  N   UNL A   1      43.165  29.991  28.948  1.00  0.00    -0.354 N 
ATOM     56  N   UNL A   1      45.859  29.459  27.905  1.00  0.00    -0.248 NA
ATOM     57  C   UNL A   1      47.966  30.227  27.256  1.00  0.00     0.031 C 
ATOM     58  C   UNL A   1      42.730  32.008  29.766  1.00  0.00     0.029 A 
ATOM     59  C   UNL A   1      43.719  31.239  29.171  1.00  0.00     0.049 A 
ATOM     60  H   UNL A   1      43.636  29.229  28.538  1.00  0.00     0.167 HD
ATOM     61  C   UNL A   1      45.978  30.801  28.246  1.00  0.00     0.074 A 
ATOM     62  C   UNL A   1      47.312  31.213  27.857  1.00  0.00     0.031 C 
ATOM     63  C   UNL A   1      45.062  31.624  28.815  1.00  0.00     0.034 A 
BRANCH  50  64
ATOM     64  C   UNL A   1      39.534  29.003  29.709  1.00  0.00     0.023 A 
ATOM     65  C   UNL A   1      39.155  28.611  31.009  1.00  0.00     0.012 A 
ATOM     66  C   UNL A   1      38.574  29.578  28.854  1.00  0.00     0.148 A 
ATOM     67  C   UNL A   1      37.836  28.753  31.438  1.00  0.00     0.002 A 
ATOM     68  C   UNL A   1      37.271  29.758  29.303  1.00  0.00     0.091 A 
ATOM     69  F   UNL A   1      38.947  29.921  27.613  1.00  0.00    -0.205 F 
ATOM     70  C   UNL A   1      36.897  29.335  30.589  1.00  0.00     0.022 A 
BRANCH  68  71
ATOM     71  S   UNL A   1      36.011  30.564  28.310  1.00  0.00     0.127 S 
ATOM     72  O   UNL A   1      36.683  31.806  27.931  1.00  0.00    -0.237 OA
ATOM     73  O   UNL A   1      35.825  29.612  27.214  1.00  0.00    -0.237 OA
ATOM     74  O   UNL A   1      34.853  30.717  29.180  1.00  0.00    -0.744 OA
ENDBRANCH  68  71
ENDBRANCH  50  64
BRANCH  51  75
ATOM     75  C   UNL A   1      48.792  27.588  26.234  1.00  0.00     0.023 A 
ATOM     76  C   UNL A   1      49.878  27.209  27.046  1.00  0.00     0.012 A 
ATOM     77  C   UNL A   1      48.988  27.731  24.846  1.00  0.00     0.148 A 
ATOM     78  C   UNL A   1      51.139  26.997  26.489  1.00  0.00     0.002 A 
ATOM     79  C   UNL A   1      50.232  27.459  24.290  1.00  0.00     0.091 A 
ATOM     80  F   UNL A   1      47.945  28.109  24.093  1.00  0.00    -0.205 F 
ATOM     81  C   UNL A   1      51.314  27.109  25.111  1.00  0.00     0.022 A 
BRANCH  79  82
ATOM     82  S   UNL A   1      50.506  27.434  22.514  1.00  0.00     0.127 S 
ATOM     83  O   UNL A   1      51.815  26.794  22.422  1.00  0.00    -0.237 OA
ATOM     84  O   UNL A   1      49.384  26.616  22.049  1.00  0.00    -0.237 OA
ATOM     85  O   UNL A   1      50.448  28.824  22.085  1.00  0.00    -0.744 OA
ENDBRANCH  79  82
ENDBRANCH  51  75
BRANCH  63  86
ATOM     86  C   UNL A   1      45.465  33.054  29.071  1.00  0.00     0.023 A 
ATOM     87  C   UNL A   1      46.167  33.382  30.248  1.00  0.00     0.012 A 
ATOM     88  C   UNL A   1      45.226  34.054  28.108  1.00  0.00     0.148 A 
ATOM     89  C   UNL A   1      46.601  34.688  30.474  1.00  0.00     0.002 A 
ATOM     90  C   UNL A   1      45.703  35.342  28.318  1.00  0.00     0.091 A 
ATOM     91  F   UNL A   1      44.541  33.725  27.002  1.00  0.00    -0.205 F 
ATOM     92  C   UNL A   1      46.381  35.663  29.505  1.00  0.00     0.022 A 
BRANCH  90  93
ATOM     93  S   UNL A   1      45.550  36.642  27.087  1.00  0.00     0.127 S 
ATOM     94  O   UNL A   1      44.100  36.722  26.917  1.00  0.00    -0.237 OA
ATOM     95  O   UNL A   1      46.149  37.789  27.770  1.00  0.00    -0.237 OA
ATOM     96  O   UNL A   1      46.290  36.180  25.920  1.00  0.00    -0.744 OA
ENDBRANCH  90  93
ENDBRANCH  63  86
ENDBRANCH  37  38
ENDBRANCH  30  32
ENDBRANCH  29  30
ENDBRANCH  28  29
ENDBRANCH  27  28
ENDBRANCH   1  27
TORSDOF 21
ENDMDL
MODEL 3
REMARK VINA RESULT:     -11.2      2.059      3.925
REMARK SMILES O=C(C[C@H](C(=O)OCCOCCOC(=O)c1ccc(-c2c3nc(c(-c4cccc(S(=O)(=O)[O-])c4F)c4ccc([nH]4)c(-c4cccc(S(=O)(=O)[O-])c4F)c4nc(c(-c5cccc(S(=O)(=O)[O-])c5F)c5ccc2[nH]5)C=C4)C=C3)cc1)c1ccccc1)Nc1ccc(Cl)cc1Cl
REMARK SMILES IDX 10 1 9 2 8 3 7 4 5 5 6 6 4 7 3 8 2 9 1 10 85 11 86 13 87 14
REMARK SMILES IDX 92 15 88 16 91 17 93 18 89 19 90 20 79 21 80 22 84 23 81 24
REMARK SMILES IDX 83 25 82 26 11 27 12 28 13 29 14 30 15 31 16 32 17 33 78 34
REMARK SMILES IDX 18 35 77 36 19 37 20 38 21 39 71 40 22 41 76 42 70 43 72 44
REMARK SMILES IDX 23 45 75 46 69 47 68 48 24 50 56 51 36 52 55 53 37 54 40 55
REMARK SMILES IDX 54 56 73 57 38 58 39 59 53 61 74 62 41 63 25 64 26 65 34 66
REMARK SMILES IDX 27 67 29 68 35 69 28 70 30 71 31 72 32 73 33 74 57 75 58 76
REMARK SMILES IDX 66 77 59 78 61 79 67 80 60 81 62 82 63 83 64 84 65 85 42 86
REMARK SMILES IDX 43 87 51 88 44 89 46 90 52 91 45 92 47 93 48 94 49 95 50 96
REMARK H PARENT 85 12 72 49 40 60
REMARK Flexibility Score: inf
ROOT
ATOM      1  O   UNL A   1      35.876  22.448  25.148  1.00  0.00    -0.374 OA
ENDROOT
BRANCH   1   2
ATOM      2  C   UNL A   1      35.793  23.853  24.935  1.00  0.00     0.202 C 
BRANCH   2   3
ATOM      3  C   UNL A   1      35.622  24.377  23.503  1.00  0.00     0.261 C 
BRANCH   3   4
ATOM      4  O   UNL A   1      34.341  24.112  22.910  1.00  0.00    -0.463 OA
BRANCH   4   5
ATOM      5  C   UNL A   1      33.603  25.227  22.659  1.00  0.00     0.314 C 
ATOM      6  O   UNL A   1      34.026  26.171  22.003  1.00  0.00    -0.252 OA
BRANCH   5   7
ATOM      7  C   UNL A   1      32.246  25.250  23.370  1.00  0.00     0.138 C 
BRANCH   7   8
ATOM      8  C   UNL A   1      32.316  24.578  24.761  1.00  0.00     0.120 C 
BRANCH   8   9
ATOM      9  C   UNL A   1      31.926  23.104  24.821  1.00  0.00     0.225 C 
ATOM     10  O   UNL A   1      30.889  22.779  25.391  1.00  0.00    -0.275 OA
ATOM     11  N   UNL A   1      32.842  22.253  24.226  1.00  0.00    -0.325 N 
ATOM     12  H   UNL A   1      33.552  22.666  23.682  1.00  0.00     0.169 HD
BRANCH  11  13
ATOM     13  C   UNL A   1      32.846  20.842  24.333  1.00  0.00     0.060 A 
ATOM     14  C   UNL A   1      32.378  20.166  23.192  1.00  0.00     0.029 A 
ATOM     15  C   UNL A   1      33.266  20.082  25.438  1.00  0.00     0.066 A 
ATOM     16  C   UNL A   1      32.397  18.771  23.120  1.00  0.00     0.023 A 
ATOM     17  C   UNL A   1      33.293  18.682  25.358  1.00  0.00     0.043 A 
ATOM     18  Cl  UNL A   1      33.556  20.746  27.011  1.00  0.00    -0.082 Cl
ATOM     19  C   UNL A   1      32.870  18.037  24.199  1.00  0.00     0.042 A 
ATOM     20  Cl  UNL A   1      32.893  16.318  24.120  1.00  0.00    -0.084 Cl
ENDBRANCH  11  13
ENDBRANCH   8   9
ENDBRANCH   7   8
BRANCH   7  21
ATOM     21  C   UNL A   1      31.557  26.614  23.459  1.00  0.00    -0.033 A 
ATOM     22  C   UNL A   1      31.903  27.498  24.495  1.00  0.00     0.004 A 
ATOM     23  C   UNL A   1      30.597  27.039  22.525  1.00  0.00     0.004 A 
ATOM     24  C   UNL A   1      31.314  28.763  24.587  1.00  0.00     0.000 A 
ATOM     25  C   UNL A   1      29.997  28.298  22.627  1.00  0.00     0.000 A 
ATOM     26  C   UNL A   1      30.359  29.162  23.656  1.00  0.00     0.000 A 
ENDBRANCH   7  21
ENDBRANCH   5   7
ENDBRANCH   4   5
ENDBRANCH   3   4
ENDBRANCH   2   3
ENDBRANCH   1   2
BRANCH   1  27
ATOM     27  C   UNL A   1      36.637  21.683  24.215  1.00  0.00     0.202 C 
BRANCH  27  28
ATOM     28  C   UNL A   1      37.555  20.585  24.763  1.00  0.00     0.261 C 
BRANCH  28  29
ATOM     29  O   UNL A   1      38.026  20.887  26.088  1.00  0.00    -0.460 OA
BRANCH  29  30
ATOM     30  C   UNL A   1      39.372  20.916  26.222  1.00  0.00     0.338 C 
ATOM     31  O   UNL A   1      40.173  20.078  25.823  1.00  0.00    -0.246 OA
BRANCH  30  32
ATOM     32  C   UNL A   1      39.796  22.228  26.736  1.00  0.00     0.060 A 
ATOM     33  C   UNL A   1      39.152  23.364  26.225  1.00  0.00     0.016 A 
ATOM     34  C   UNL A   1      40.848  22.354  27.645  1.00  0.00     0.016 A 
ATOM     35  C   UNL A   1      39.583  24.635  26.591  1.00  0.00     0.010 A 
ATOM     36  C   UNL A   1      41.289  23.633  28.000  1.00  0.00     0.010 A 
ATOM     37  C   UNL A   1      40.680  24.776  27.450  1.00  0.00    -0.014 A 
BRANCH  37  38
ATOM     38  C   UNL A   1      41.262  26.121  27.675  1.00  0.00     0.031 A 
ATOM     39  C   UNL A   1      42.661  26.402  27.208  1.00  0.00     0.074 A 
ATOM     40  C   UNL A   1      40.547  27.078  28.293  1.00  0.00     0.049 A 
ATOM     41  N   UNL A   1      43.371  27.493  27.330  1.00  0.00    -0.248 NA
ATOM     42  C   UNL A   1      43.355  25.305  26.513  1.00  0.00     0.031 C 
ATOM     43  C   UNL A   1      39.182  26.919  28.790  1.00  0.00     0.029 A 
ATOM     44  N   UNL A   1      40.887  28.361  28.638  1.00  0.00    -0.354 N 
ATOM     45  C   UNL A   1      44.603  27.209  26.756  1.00  0.00     0.074 A 
ATOM     46  C   UNL A   1      44.548  25.838  26.293  1.00  0.00     0.031 C 
ATOM     47  C   UNL A   1      38.814  28.050  29.416  1.00  0.00     0.029 A 
ATOM     48  C   UNL A   1      39.926  28.999  29.384  1.00  0.00     0.049 A 
ATOM     49  H   UNL A   1      41.736  28.785  28.376  1.00  0.00     0.167 HD
ATOM     50  C   UNL A   1      45.678  28.020  26.615  1.00  0.00     0.034 A 
ATOM     51  C   UNL A   1      39.952  30.197  30.002  1.00  0.00     0.034 A 
ATOM     52  C   UNL A   1      45.723  29.384  27.065  1.00  0.00     0.049 A 
ATOM     53  C   UNL A   1      41.168  31.074  29.853  1.00  0.00     0.074 A 
ATOM     54  C   UNL A   1      46.741  30.309  26.914  1.00  0.00     0.029 A 
ATOM     55  N   UNL A   1      44.713  30.015  27.778  1.00  0.00    -0.354 N 
ATOM     56  N   UNL A   1      42.274  30.844  29.187  1.00  0.00    -0.248 NA
ATOM     57  C   UNL A   1      41.128  32.387  30.513  1.00  0.00     0.031 C 
ATOM     58  C   UNL A   1      46.360  31.488  27.564  1.00  0.00     0.029 A 
ATOM     59  C   UNL A   1      45.092  31.308  28.095  1.00  0.00     0.049 A 
ATOM     60  H   UNL A   1      43.853  29.603  28.022  1.00  0.00     0.167 HD
ATOM     61  C   UNL A   1      43.050  31.989  29.327  1.00  0.00     0.074 A 
ATOM     62  C   UNL A   1      42.278  32.922  30.121  1.00  0.00     0.031 C 
ATOM     63  C   UNL A   1      44.296  32.240  28.853  1.00  0.00     0.034 A 
BRANCH  50  64
ATOM     64  C   UNL A   1      46.894  27.452  25.930  1.00  0.00     0.023 A 
ATOM     65  C   UNL A   1      47.041  27.595  24.535  1.00  0.00     0.012 A 
ATOM     66  C   UNL A   1      47.906  26.811  26.669  1.00  0.00     0.148 A 
ATOM     67  C   UNL A   1      48.160  27.076  23.882  1.00  0.00     0.002 A 
ATOM     68  C   UNL A   1      49.039  26.335  26.018  1.00  0.00     0.091 A 
ATOM     69  F   UNL A   1      47.735  26.661  27.991  1.00  0.00    -0.205 F 
ATOM     70  C   UNL A   1      49.161  26.456  24.624  1.00  0.00     0.022 A 
BRANCH  68  71
ATOM     71  S   UNL A   1      50.414  25.588  26.898  1.00  0.00     0.127 S 
ATOM     72  O   UNL A   1      50.817  26.673  27.792  1.00  0.00    -0.237 OA
ATOM     73  O   UNL A   1      49.775  24.453  27.565  1.00  0.00    -0.237 OA
ATOM     74  O   UNL A   1      51.388  25.220  25.879  1.00  0.00    -0.744 OA
ENDBRANCH  68  71
ENDBRANCH  50  64
BRANCH  51  75
ATOM     75  C   UNL A   1      38.777  30.632  30.807  1.00  0.00     0.023 A 
ATOM     76  C   UNL A   1      38.772  30.440  32.202  1.00  0.00     0.012 A 
ATOM     77  C   UNL A   1      37.686  31.284  30.199  1.00  0.00     0.148 A 
ATOM     78  C   UNL A   1      37.692  30.871  32.973  1.00  0.00     0.002 A 
ATOM     79  C   UNL A   1      36.642  31.764  30.980  1.00  0.00     0.091 A 
ATOM     80  F   UNL A   1      37.703  31.442  28.867  1.00  0.00    -0.205 F 
ATOM     81  C   UNL A   1      36.634  31.543  32.365  1.00  0.00     0.022 A 
BRANCH  79  82
ATOM     82  S   UNL A   1      35.316  32.769  30.300  1.00  0.00     0.127 S 
ATOM     83  O   UNL A   1      36.041  33.948  29.835  1.00  0.00    -0.237 OA
ATOM     84  O   UNL A   1      34.798  31.904  29.239  1.00  0.00    -0.237 OA
ATOM     85  O   UNL A   1      34.385  32.990  31.397  1.00  0.00    -0.744 OA
ENDBRANCH  79  82
ENDBRANCH  51  75
BRANCH  63  86
ATOM     86  C   UNL A   1      44.908  33.583  29.163  1.00  0.00     0.023 A 
ATOM     87  C   UNL A   1      45.605  33.772  30.373  1.00  0.00     0.012 A 
ATOM     88  C   UNL A   1      44.865  34.629  28.219  1.00  0.00     0.148 A 
ATOM     89  C   UNL A   1      46.228  34.987  30.650  1.00  0.00     0.002 A 
ATOM     90  C   UNL A   1      45.529  35.822  28.482  1.00  0.00     0.091 A 
ATOM     91  F   UNL A   1      44.182  34.436  27.081  1.00  0.00    -0.205 F 
ATOM     92  C   UNL A   1      46.201  36.006  29.701  1.00  0.00     0.022 A 
BRANCH  90  93
ATOM     93  S   UNL A   1      45.629  37.156  27.283  1.00  0.00     0.127 S 
ATOM     94  O   UNL A   1      46.347  38.182  28.039  1.00  0.00    -0.237 OA
ATOM     95  O   UNL A   1      46.400  36.544  26.201  1.00  0.00    -0.237 OA
ATOM     96  O   UNL A   1      44.255  37.488  26.934  1.00  0.00    -0.744 OA
ENDBRANCH  90  93
ENDBRANCH  63  86
ENDBRANCH  37  38
ENDBRANCH  30  32
ENDBRANCH  29  30
ENDBRANCH  28  29
ENDBRANCH  27  28
ENDBRANCH   1  27
TORSDOF 21
ENDMDL
