MODEL 1
REMARK VINA RESULT:     -10.8      0.000      0.000
REMARK SMILES O=C1C[N@@H+](Cc2ccc(C(=O)OCCOCCOC(=O)c3ccc(-c4c5nc(c(-c6cccc(S(=O)(=O)[O-])c6F)c6ccc([nH]6)c(-c6cccc(S(=O)(=O)[O-])c6F)c6nc(c(-c7cccc(S(=O)(=O)[O-])c7F)c7ccc4[nH]7)C=C6)C=C5)cc3)cc2)CCN1
REMARK SMILES IDX 16 1 15 2 14 3 13 4 12 5 10 6 11 7 9 8 6 9 7 10 85 11 8 12
REMARK SMILES IDX 84 13 5 14 4 15 1 16 2 17 3 18 88 19 87 20 86 22 17 24 18 25
REMARK SMILES IDX 19 26 20 27 21 28 22 29 83 30 23 31 82 32 24 33 25 34 26 35
REMARK SMILES IDX 76 36 27 37 81 38 75 39 77 40 28 41 80 42 74 43 73 44 29 46
REMARK SMILES IDX 61 47 41 48 60 49 42 50 45 51 59 52 78 53 43 54 44 55 58 57
REMARK SMILES IDX 79 58 46 59 30 60 31 61 39 62 32 63 34 64 40 65 33 66 35 67
REMARK SMILES IDX 36 68 37 69 38 70 62 71 63 72 71 73 64 74 66 75 72 76 65 77
REMARK SMILES IDX 67 78 68 79 69 80 70 81 47 82 48 83 56 84 49 85 51 86 57 87
REMARK SMILES IDX 50 88 52 89 53 90 54 91 55 92
REMARK H PARENT 88 21 4 23 77 45 45 56
REMARK Flexibility Score: inf
ROOT
ATOM      1  C   UNL A   1      37.931  19.849  25.011  1.00  0.00     0.202 C 
ENDROOT
BRANCH   1   2
ATOM      2  O   UNL A   1      37.621  21.220  25.259  1.00  0.00    -0.374 OA
BRANCH   2   3
ATOM      3  C   UNL A   1      36.242  21.583  25.349  1.00  0.00     0.202 C 
BRANCH   3   4
ATOM      4  C   UNL A   1      35.211  20.514  24.978  1.00  0.00     0.261 C 
BRANCH   4   5
ATOM      5  O   UNL A   1      34.079  20.564  25.853  1.00  0.00    -0.460 OA
BRANCH   5   6
ATOM      6  C   UNL A   1      32.877  20.610  25.229  1.00  0.00     0.338 C 
ATOM      7  O   UNL A   1      32.166  19.657  24.955  1.00  0.00    -0.246 OA
BRANCH   6   8
ATOM      8  C   UNL A   1      32.462  22.019  25.007  1.00  0.00     0.060 A 
ATOM      9  C   UNL A   1      31.866  24.669  24.347  1.00  0.00     0.006 A 
ATOM     10  C   UNL A   1      31.535  23.632  23.465  1.00  0.00     0.010 A 
ATOM     11  C   UNL A   1      32.338  24.353  25.628  1.00  0.00     0.010 A 
ATOM     12  C   UNL A   1      31.842  22.315  23.790  1.00  0.00     0.016 A 
ATOM     13  C   UNL A   1      32.655  23.034  25.952  1.00  0.00     0.016 A 
BRANCH   9  14
ATOM     14  C   UNL A   1      31.853  26.098  23.863  1.00  0.00     0.299 C 
BRANCH  14  15
ATOM     15  N   UNL A   1      30.811  26.962  24.432  1.00  0.00    -0.322 N 
ATOM     16  O   UNL A   1      29.817  29.132  21.677  1.00  0.00    -0.269 OA
ATOM     17  C   UNL A   1      30.250  28.813  22.785  1.00  0.00     0.275 C 
ATOM     18  C   UNL A   1      29.837  27.503  23.463  1.00  0.00     0.363 C 
ATOM     19  N   UNL A   1      31.035  29.679  23.493  1.00  0.00    -0.346 N 
ATOM     20  C   UNL A   1      31.696  29.348  24.735  1.00  0.00     0.177 C 
ATOM     21  H   UNL A   1      31.158  30.587  23.133  1.00  0.00     0.163 HD
ATOM     22  C   UNL A   1      31.264  28.009  25.357  1.00  0.00     0.284 C 
ATOM     23  H   UNL A   1      30.312  26.282  25.006  1.00  0.00     0.348 HD
ENDBRANCH  14  15
ENDBRANCH   9  14
ENDBRANCH   6   8
ENDBRANCH   5   6
ENDBRANCH   4   5
ENDBRANCH   3   4
ENDBRANCH   2   3
ENDBRANCH   1   2
BRANCH   1  24
ATOM     24  C   UNL A   1      39.324  19.351  25.421  1.00  0.00     0.261 C 
BRANCH  24  25
ATOM     25  O   UNL A   1      39.716  19.806  26.726  1.00  0.00    -0.460 OA
BRANCH  25  26
ATOM     26  C   UNL A   1      41.041  20.063  26.864  1.00  0.00     0.338 C 
ATOM     27  O   UNL A   1      41.969  19.305  26.640  1.00  0.00    -0.246 OA
BRANCH  26  28
ATOM     28  C   UNL A   1      41.237  21.495  27.158  1.00  0.00     0.060 A 
ATOM     29  C   UNL A   1      40.886  22.420  26.166  1.00  0.00     0.016 A 
ATOM     30  C   UNL A   1      41.798  21.920  28.364  1.00  0.00     0.016 A 
ATOM     31  C   UNL A   1      41.114  23.780  26.369  1.00  0.00     0.010 A 
ATOM     32  C   UNL A   1      42.040  23.282  28.558  1.00  0.00     0.010 A 
ATOM     33  C   UNL A   1      41.718  24.215  27.554  1.00  0.00    -0.014 A 
BRANCH  33  34
ATOM     34  C   UNL A   1      42.095  25.638  27.722  1.00  0.00     0.031 A 
ATOM     35  C   UNL A   1      43.467  26.090  27.316  1.00  0.00     0.074 A 
ATOM     36  C   UNL A   1      41.225  26.508  28.265  1.00  0.00     0.049 A 
ATOM     37  N   UNL A   1      44.022  27.265  27.447  1.00  0.00    -0.248 NA
ATOM     38  C   UNL A   1      44.330  25.081  26.680  1.00  0.00     0.031 C 
ATOM     39  C   UNL A   1      39.863  26.187  28.686  1.00  0.00     0.029 A 
ATOM     40  N   UNL A   1      41.375  27.834  28.586  1.00  0.00    -0.354 N 
ATOM     41  C   UNL A   1      45.306  27.137  26.933  1.00  0.00     0.074 A 
ATOM     42  C   UNL A   1      45.452  25.765  26.498  1.00  0.00     0.031 C 
ATOM     43  C   UNL A   1      39.311  27.278  29.242  1.00  0.00     0.029 A 
ATOM     44  C   UNL A   1      40.291  28.363  29.245  1.00  0.00     0.049 A 
ATOM     45  H   UNL A   1      42.180  28.356  28.365  1.00  0.00     0.167 HD
ATOM     46  C   UNL A   1      46.271  28.080  26.822  1.00  0.00     0.034 A 
ATOM     47  C   UNL A   1      40.122  29.572  29.814  1.00  0.00     0.034 A 
ATOM     48  C   UNL A   1      46.119  29.445  27.248  1.00  0.00     0.049 A 
ATOM     49  C   UNL A   1      41.235  30.585  29.738  1.00  0.00     0.074 A 
ATOM     50  C   UNL A   1      47.015  30.491  27.122  1.00  0.00     0.029 A 
ATOM     51  N   UNL A   1      45.005  29.950  27.900  1.00  0.00    -0.354 N 
ATOM     52  N   UNL A   1      42.396  30.489  29.137  1.00  0.00    -0.248 NA
ATOM     53  C   UNL A   1      41.008  31.875  30.404  1.00  0.00     0.031 C 
ATOM     54  C   UNL A   1      46.455  31.621  27.730  1.00  0.00     0.029 A 
ATOM     55  C   UNL A   1      45.201  31.284  28.214  1.00  0.00     0.049 A 
ATOM     56  H   UNL A   1      44.192  29.434  28.110  1.00  0.00     0.167 HD
ATOM     57  C   UNL A   1      43.029  31.713  29.331  1.00  0.00     0.074 A 
ATOM     58  C   UNL A   1      42.112  32.540  30.087  1.00  0.00     0.031 C 
ATOM     59  C   UNL A   1      44.265  32.109  28.935  1.00  0.00     0.034 A 
BRANCH  46  60
ATOM     60  C   UNL A   1      47.574  27.668  26.191  1.00  0.00     0.023 A 
ATOM     61  C   UNL A   1      48.616  27.180  27.005  1.00  0.00     0.012 A 
ATOM     62  C   UNL A   1      47.756  27.727  24.796  1.00  0.00     0.148 A 
ATOM     63  C   UNL A   1      49.831  26.787  26.444  1.00  0.00     0.002 A 
ATOM     64  C   UNL A   1      48.956  27.297  24.240  1.00  0.00     0.091 A 
ATOM     65  F   UNL A   1      46.764  28.218  24.041  1.00  0.00    -0.205 F 
ATOM     66  C   UNL A   1      49.998  26.837  25.062  1.00  0.00     0.022 A 
BRANCH  64  67
ATOM     67  S   UNL A   1      49.237  27.261  22.466  1.00  0.00     0.127 S 
ATOM     68  O   UNL A   1      48.417  26.119  22.063  1.00  0.00    -0.237 OA
ATOM     69  O   UNL A   1      48.719  28.562  22.042  1.00  0.00    -0.237 OA
ATOM     70  O   UNL A   1      50.673  27.096  22.293  1.00  0.00    -0.744 OA
ENDBRANCH  64  67
ENDBRANCH  46  60
BRANCH  47  71
ATOM     71  C   UNL A   1      38.836  29.896  30.492  1.00  0.00     0.023 A 
ATOM     72  C   UNL A   1      38.605  29.428  31.799  1.00  0.00     0.012 A 
ATOM     73  C   UNL A   1      37.859  30.696  29.866  1.00  0.00     0.148 A 
ATOM     74  C   UNL A   1      37.418  29.736  32.465  1.00  0.00     0.002 A 
ATOM     75  C   UNL A   1      36.703  31.044  30.554  1.00  0.00     0.091 A 
ATOM     76  F   UNL A   1      38.089  31.114  28.613  1.00  0.00    -0.205 F 
ATOM     77  C   UNL A   1      36.473  30.552  31.848  1.00  0.00     0.022 A 
BRANCH  75  78
ATOM     78  S   UNL A   1      35.495  32.195  29.888  1.00  0.00     0.127 S 
ATOM     79  O   UNL A   1      36.327  33.356  29.579  1.00  0.00    -0.237 OA
ATOM     80  O   UNL A   1      34.994  31.467  28.724  1.00  0.00    -0.237 OA
ATOM     81  O   UNL A   1      34.509  32.388  30.943  1.00  0.00    -0.744 OA
ENDBRANCH  75  78
ENDBRANCH  47  71
BRANCH  59  82
ATOM     82  C   UNL A   1      44.708  33.500  29.308  1.00  0.00     0.023 A 
ATOM     83  C   UNL A   1      45.432  33.700  30.500  1.00  0.00     0.012 A 
ATOM     84  C   UNL A   1      44.486  34.590  28.442  1.00  0.00     0.148 A 
ATOM     85  C   UNL A   1      45.910  34.966  30.836  1.00  0.00     0.002 A 
ATOM     86  C   UNL A   1      45.005  35.839  28.762  1.00  0.00     0.091 A 
ATOM     87  F   UNL A   1      43.782  34.380  27.320  1.00  0.00    -0.205 F 
ATOM     88  C   UNL A   1      45.707  36.032  29.962  1.00  0.00     0.022 A 
BRANCH  86  89
ATOM     89  S   UNL A   1      44.872  37.253  27.660  1.00  0.00     0.127 S 
ATOM     90  O   UNL A   1      45.112  38.368  28.576  1.00  0.00    -0.237 OA
ATOM     91  O   UNL A   1      45.955  37.003  26.707  1.00  0.00    -0.237 OA
ATOM     92  O   UNL A   1      43.535  37.194  27.087  1.00  0.00    -0.744 OA
ENDBRANCH  86  89
ENDBRANCH  59  82
ENDBRANCH  33  34
ENDBRANCH  26  28
ENDBRANCH  25  26
ENDBRANCH  24  25
ENDBRANCH   1  24
TORSDOF 19
ENDMDL
MODEL 2
REMARK VINA RESULT:     -10.8      5.176      8.626
REMARK SMILES O=C1C[N@@H+](Cc2ccc(C(=O)OCCOCCOC(=O)c3ccc(-c4c5nc(c(-c6cccc(S(=O)(=O)[O-])c6F)c6ccc([nH]6)c(-c6cccc(S(=O)(=O)[O-])c6F)c6nc(c(-c7cccc(S(=O)(=O)[O-])c7F)c7ccc4[nH]7)C=C6)C=C5)cc3)cc2)CCN1
REMARK SMILES IDX 16 1 15 2 14 3 13 4 12 5 10 6 11 7 9 8 6 9 7 10 85 11 8 12
REMARK SMILES IDX 84 13 5 14 4 15 1 16 2 17 3 18 88 19 87 20 86 22 17 24 18 25
REMARK SMILES IDX 19 26 20 27 21 28 22 29 83 30 23 31 82 32 24 33 25 34 26 35
REMARK SMILES IDX 76 36 27 37 81 38 75 39 77 40 28 41 80 42 74 43 73 44 29 46
REMARK SMILES IDX 61 47 41 48 60 49 42 50 45 51 59 52 78 53 43 54 44 55 58 57
REMARK SMILES IDX 79 58 46 59 30 60 31 61 39 62 32 63 34 64 40 65 33 66 35 67
REMARK SMILES IDX 36 68 37 69 38 70 62 71 63 72 71 73 64 74 66 75 72 76 65 77
REMARK SMILES IDX 67 78 68 79 69 80 70 81 47 82 48 83 56 84 49 85 51 86 57 87
REMARK SMILES IDX 50 88 52 89 53 90 54 91 55 92
REMARK H PARENT 88 21 4 23 77 45 45 56
REMARK Flexibility Score: inf
ROOT
ATOM      1  C   UNL A   1      32.771  28.863  24.711  1.00  0.00     0.202 C 
ENDROOT
BRANCH   1   2
ATOM      2  O   UNL A   1      32.659  28.742  23.293  1.00  0.00    -0.374 OA
BRANCH   2   3
ATOM      3  C   UNL A   1      31.417  29.111  22.691  1.00  0.00     0.202 C 
BRANCH   3   4
ATOM      4  C   UNL A   1      30.319  28.045  22.642  1.00  0.00     0.261 C 
BRANCH   4   5
ATOM      5  O   UNL A   1      29.894  27.682  23.959  1.00  0.00    -0.460 OA
BRANCH   5   6
ATOM      6  C   UNL A   1      29.235  26.501  24.042  1.00  0.00     0.338 C 
ATOM      7  O   UNL A   1      28.028  26.337  23.966  1.00  0.00    -0.246 OA
BRANCH   6   8
ATOM      8  C   UNL A   1      30.200  25.375  24.130  1.00  0.00     0.060 A 
ATOM      9  C   UNL A   1      32.234  23.468  24.327  1.00  0.00     0.006 A 
ATOM     10  C   UNL A   1      31.962  24.321  25.405  1.00  0.00     0.010 A 
ATOM     11  C   UNL A   1      31.371  23.463  23.223  1.00  0.00     0.010 A 
ATOM     12  C   UNL A   1      30.957  25.276  25.301  1.00  0.00     0.016 A 
ATOM     13  C   UNL A   1      30.368  24.428  23.113  1.00  0.00     0.016 A 
BRANCH   9  14
ATOM     14  C   UNL A   1      33.520  22.680  24.300  1.00  0.00     0.299 C 
BRANCH  14  15
ATOM     15  N   UNL A   1      33.830  21.910  25.512  1.00  0.00    -0.322 N 
ATOM     16  O   UNL A   1      37.421  21.318  25.327  1.00  0.00    -0.269 OA
ATOM     17  C   UNL A   1      36.220  21.058  25.389  1.00  0.00     0.275 C 
ATOM     18  C   UNL A   1      35.215  22.035  26.006  1.00  0.00     0.363 C 
ATOM     19  N   UNL A   1      35.761  19.830  25.001  1.00  0.00    -0.346 N 
ATOM     20  C   UNL A   1      34.362  19.476  24.912  1.00  0.00     0.177 C 
ATOM     21  H   UNL A   1      36.426  19.144  24.767  1.00  0.00     0.163 HD
ATOM     22  C   UNL A   1      33.396  20.506  25.522  1.00  0.00     0.284 C 
ATOM     23  H   UNL A   1      33.230  22.389  26.184  1.00  0.00     0.348 HD
ENDBRANCH  14  15
ENDBRANCH   9  14
ENDBRANCH   6   8
ENDBRANCH   5   6
ENDBRANCH   4   5
ENDBRANCH   3   4
ENDBRANCH   2   3
ENDBRANCH   1   2
BRANCH   1  24
ATOM     24  C   UNL A   1      32.101  30.073  25.375  1.00  0.00     0.261 C 
BRANCH  24  25
ATOM     25  O   UNL A   1      32.443  30.207  26.765  1.00  0.00    -0.460 OA
BRANCH  25  26
ATOM     26  C   UNL A   1      33.064  31.369  27.088  1.00  0.00     0.338 C 
ATOM     27  O   UNL A   1      32.593  32.493  27.059  1.00  0.00    -0.246 OA
BRANCH  26  28
ATOM     28  C   UNL A   1      34.384  31.074  27.676  1.00  0.00     0.060 A 
ATOM     29  C   UNL A   1      34.652  29.750  28.048  1.00  0.00     0.016 A 
ATOM     30  C   UNL A   1      35.321  32.083  27.905  1.00  0.00     0.016 A 
ATOM     31  C   UNL A   1      35.858  29.432  28.670  1.00  0.00     0.010 A 
ATOM     32  C   UNL A   1      36.522  31.763  28.543  1.00  0.00     0.010 A 
ATOM     33  C   UNL A   1      36.787  30.441  28.946  1.00  0.00    -0.014 A 
BRANCH  33  34
ATOM     34  C   UNL A   1      38.006  30.140  29.732  1.00  0.00     0.031 A 
ATOM     35  C   UNL A   1      39.007  29.160  29.193  1.00  0.00     0.074 A 
ATOM     36  C   UNL A   1      38.196  30.715  30.933  1.00  0.00     0.049 A 
ATOM     37  N   UNL A   1      40.096  28.701  29.751  1.00  0.00    -0.248 NA
ATOM     38  C   UNL A   1      38.744  28.624  27.848  1.00  0.00     0.031 C 
ATOM     39  C   UNL A   1      37.299  31.690  31.551  1.00  0.00     0.029 A 
ATOM     40  N   UNL A   1      39.191  30.534  31.860  1.00  0.00    -0.354 N 
ATOM     41  C   UNL A   1      40.638  27.804  28.839  1.00  0.00     0.074 A 
ATOM     42  C   UNL A   1      39.752  27.776  27.695  1.00  0.00     0.031 C 
ATOM     43  C   UNL A   1      37.767  31.996  32.773  1.00  0.00     0.029 A 
ATOM     44  C   UNL A   1      38.976  31.216  33.033  1.00  0.00     0.049 A 
ATOM     45  H   UNL A   1      39.982  29.970  31.700  1.00  0.00     0.167 HD
ATOM     46  C   UNL A   1      41.778  27.081  28.939  1.00  0.00     0.034 A 
ATOM     47  C   UNL A   1      39.658  31.189  34.195  1.00  0.00     0.034 A 
ATOM     48  C   UNL A   1      42.660  27.119  30.074  1.00  0.00     0.049 A 
ATOM     49  C   UNL A   1      40.886  30.324  34.308  1.00  0.00     0.074 A 
ATOM     50  C   UNL A   1      43.870  26.470  30.246  1.00  0.00     0.029 A 
ATOM     51  N   UNL A   1      42.419  27.828  31.240  1.00  0.00    -0.354 N 
ATOM     52  N   UNL A   1      41.457  29.580  33.393  1.00  0.00    -0.248 NA
ATOM     53  C   UNL A   1      41.572  30.308  35.608  1.00  0.00     0.031 C 
ATOM     54  C   UNL A   1      44.343  26.762  31.531  1.00  0.00     0.029 A 
ATOM     55  C   UNL A   1      43.440  27.611  32.150  1.00  0.00     0.049 A 
ATOM     56  H   UNL A   1      41.636  28.404  31.398  1.00  0.00     0.167 HD
ATOM     57  C   UNL A   1      42.581  29.025  33.997  1.00  0.00     0.074 A 
ATOM     58  C   UNL A   1      42.622  29.539  35.351  1.00  0.00     0.031 C 
ATOM     59  C   UNL A   1      43.487  28.156  33.483  1.00  0.00     0.034 A 
BRANCH  46  60
ATOM     60  C   UNL A   1      42.147  26.201  27.775  1.00  0.00     0.023 A 
ATOM     61  C   UNL A   1      42.905  26.735  26.713  1.00  0.00     0.012 A 
ATOM     62  C   UNL A   1      41.778  24.842  27.747  1.00  0.00     0.148 A 
ATOM     63  C   UNL A   1      43.263  25.938  25.626  1.00  0.00     0.002 A 
ATOM     64  C   UNL A   1      42.172  24.045  26.678  1.00  0.00     0.091 A 
ATOM     65  F   UNL A   1      41.035  24.359  28.752  1.00  0.00    -0.205 F 
ATOM     66  C   UNL A   1      42.904  24.593  25.612  1.00  0.00     0.022 A 
BRANCH  64  67
ATOM     67  S   UNL A   1      41.815  22.285  26.607  1.00  0.00     0.127 S 
ATOM     68  O   UNL A   1      42.459  21.806  27.829  1.00  0.00    -0.237 OA
ATOM     69  O   UNL A   1      40.352  22.263  26.641  1.00  0.00    -0.237 OA
ATOM     70  O   UNL A   1      42.398  21.811  25.360  1.00  0.00    -0.744 OA
ENDBRANCH  64  67
ENDBRANCH  46  60
BRANCH  47  71
ATOM     71  C   UNL A   1      39.200  32.025  35.340  1.00  0.00     0.023 A 
ATOM     72  C   UNL A   1      38.290  31.487  36.269  1.00  0.00     0.012 A 
ATOM     73  C   UNL A   1      39.690  33.331  35.535  1.00  0.00     0.148 A 
ATOM     74  C   UNL A   1      37.862  32.241  37.362  1.00  0.00     0.002 A 
ATOM     75  C   UNL A   1      39.302  34.058  36.654  1.00  0.00     0.091 A 
ATOM     76  F   UNL A   1      40.540  33.832  34.627  1.00  0.00    -0.205 F 
ATOM     77  C   UNL A   1      38.376  33.520  37.562  1.00  0.00     0.022 A 
BRANCH  75  78
ATOM     78  S   UNL A   1      40.013  35.657  37.059  1.00  0.00     0.127 S 
ATOM     79  O   UNL A   1      39.649  36.452  35.889  1.00  0.00    -0.237 OA
ATOM     80  O   UNL A   1      39.297  36.002  38.287  1.00  0.00    -0.237 OA
ATOM     81  O   UNL A   1      41.438  35.420  37.245  1.00  0.00    -0.744 OA
ENDBRANCH  75  78
ENDBRANCH  47  71
BRANCH  59  82
ATOM     82  C   UNL A   1      44.606  27.697  34.382  1.00  0.00     0.023 A 
ATOM     83  C   UNL A   1      45.793  28.454  34.453  1.00  0.00     0.012 A 
ATOM     84  C   UNL A   1      44.451  26.574  35.219  1.00  0.00     0.148 A 
ATOM     85  C   UNL A   1      46.816  28.088  35.326  1.00  0.00     0.002 A 
ATOM     86  C   UNL A   1      45.457  26.241  36.119  1.00  0.00     0.091 A 
ATOM     87  F   UNL A   1      43.320  25.859  35.125  1.00  0.00    -0.205 F 
ATOM     88  C   UNL A   1      46.644  26.990  36.166  1.00  0.00     0.022 A 
BRANCH  86  89
ATOM     89  S   UNL A   1      45.293  24.899  37.303  1.00  0.00     0.127 S 
ATOM     90  O   UNL A   1      46.590  24.935  37.976  1.00  0.00    -0.237 OA
ATOM     91  O   UNL A   1      44.167  25.348  38.124  1.00  0.00    -0.237 OA
ATOM     92  O   UNL A   1      45.031  23.700  36.519  1.00  0.00    -0.744 OA
ENDBRANCH  86  89
ENDBRANCH  59  82
ENDBRANCH  33  34
ENDBRANCH  26  28
ENDBRANCH  25  26
ENDBRANCH  24  25
ENDBRANCH   1  24
TORSDOF 19
ENDMDL
MODEL 3
REMARK VINA RESULT:     -10.6      1.878      7.946
REMARK SMILES O=C1C[N@@H+](Cc2ccc(C(=O)OCCOCCOC(=O)c3ccc(-c4c5nc(c(-c6cccc(S(=O)(=O)[O-])c6F)c6ccc([nH]6)c(-c6cccc(S(=O)(=O)[O-])c6F)c6nc(c(-c7cccc(S(=O)(=O)[O-])c7F)c7ccc4[nH]7)C=C6)C=C5)cc3)cc2)CCN1
REMARK SMILES IDX 16 1 15 2 14 3 13 4 12 5 10 6 11 7 9 8 6 9 7 10 85 11 8 12
REMARK SMILES IDX 84 13 5 14 4 15 1 16 2 17 3 18 88 19 87 20 86 22 17 24 18 25
REMARK SMILES IDX 19 26 20 27 21 28 22 29 83 30 23 31 82 32 24 33 25 34 26 35
REMARK SMILES IDX 76 36 27 37 81 38 75 39 77 40 28 41 80 42 74 43 73 44 29 46
REMARK SMILES IDX 61 47 41 48 60 49 42 50 45 51 59 52 78 53 43 54 44 55 58 57
REMARK SMILES IDX 79 58 46 59 30 60 31 61 39 62 32 63 34 64 40 65 33 66 35 67
REMARK SMILES IDX 36 68 37 69 38 70 62 71 63 72 71 73 64 74 66 75 72 76 65 77
REMARK SMILES IDX 67 78 68 79 69 80 70 81 47 82 48 83 56 84 49 85 51 86 57 87
REMARK SMILES IDX 50 88 52 89 53 90 54 91 55 92
REMARK H PARENT 88 21 4 23 77 45 45 56
REMARK Flexibility Score: inf
ROOT
ATOM      1  C   UNL A   1      35.830  19.893  24.991  1.00  0.00     0.202 C 
ENDROOT
BRANCH   1   2
ATOM      2  O   UNL A   1      35.075  20.940  25.601  1.00  0.00    -0.374 OA
BRANCH   2   3
ATOM      3  C   UNL A   1      34.146  21.652  24.783  1.00  0.00     0.202 C 
BRANCH   3   4
ATOM      4  C   UNL A   1      33.903  23.126  25.119  1.00  0.00     0.261 C 
BRANCH   4   5
ATOM      5  O   UNL A   1      32.735  23.620  24.455  1.00  0.00    -0.460 OA
BRANCH   5   6
ATOM      6  C   UNL A   1      32.975  24.310  23.315  1.00  0.00     0.338 C 
ATOM      7  O   UNL A   1      33.680  23.952  22.385  1.00  0.00    -0.246 OA
BRANCH   6   8
ATOM      8  C   UNL A   1      32.164  25.554  23.281  1.00  0.00     0.060 A 
ATOM      9  C   UNL A   1      30.874  28.026  23.078  1.00  0.00     0.006 A 
ATOM     10  C   UNL A   1      31.229  27.319  21.921  1.00  0.00     0.010 A 
ATOM     11  C   UNL A   1      31.015  27.408  24.327  1.00  0.00     0.010 A 
ATOM     12  C   UNL A   1      31.880  26.095  22.024  1.00  0.00     0.016 A 
ATOM     13  C   UNL A   1      31.677  26.184  24.433  1.00  0.00     0.016 A 
BRANCH   9  14
ATOM     14  C   UNL A   1      30.489  29.481  22.979  1.00  0.00     0.299 C 
BRANCH  14  15
ATOM     15  N   UNL A   1      29.353  29.789  22.101  1.00  0.00    -0.322 N 
ATOM     16  O   UNL A   1      28.457  33.223  22.935  1.00  0.00    -0.269 OA
ATOM     17  C   UNL A   1      28.324  32.007  22.791  1.00  0.00     0.275 C 
ATOM     18  C   UNL A   1      29.166  31.219  21.784  1.00  0.00     0.363 C 
ATOM     19  N   UNL A   1      27.335  31.340  23.458  1.00  0.00    -0.346 N 
ATOM     20  C   UNL A   1      27.181  29.903  23.458  1.00  0.00     0.177 C 
ATOM     21  H   UNL A   1      26.686  31.873  23.971  1.00  0.00     0.163 HD
ATOM     22  C   UNL A   1      28.071  29.160  22.447  1.00  0.00     0.284 C 
ATOM     23  H   UNL A   1      29.663  29.332  21.244  1.00  0.00     0.348 HD
ENDBRANCH  14  15
ENDBRANCH   9  14
ENDBRANCH   6   8
ENDBRANCH   5   6
ENDBRANCH   4   5
ENDBRANCH   3   4
ENDBRANCH   2   3
ENDBRANCH   1   2
BRANCH   1  24
ATOM     24  C   UNL A   1      37.313  20.164  24.701  1.00  0.00     0.261 C 
BRANCH  24  25
ATOM     25  O   UNL A   1      37.856  21.217  25.514  1.00  0.00    -0.460 OA
BRANCH  25  26
ATOM     26  C   UNL A   1      39.050  20.931  26.090  1.00  0.00     0.338 C 
ATOM     27  O   UNL A   1      39.657  19.875  26.052  1.00  0.00    -0.246 OA
BRANCH  26  28
ATOM     28  C   UNL A   1      39.637  22.166  26.645  1.00  0.00     0.060 A 
ATOM     29  C   UNL A   1      39.181  23.390  26.138  1.00  0.00     0.016 A 
ATOM     30  C   UNL A   1      40.649  22.124  27.605  1.00  0.00     0.016 A 
ATOM     31  C   UNL A   1      39.751  24.583  26.580  1.00  0.00     0.010 A 
ATOM     32  C   UNL A   1      41.229  23.320  28.034  1.00  0.00     0.010 A 
ATOM     33  C   UNL A   1      40.797  24.552  27.509  1.00  0.00    -0.014 A 
BRANCH  33  34
ATOM     34  C   UNL A   1      41.505  25.800  27.878  1.00  0.00     0.031 A 
ATOM     35  C   UNL A   1      40.759  26.886  28.597  1.00  0.00     0.074 A 
ATOM     36  C   UNL A   1      42.796  25.970  27.541  1.00  0.00     0.049 A 
ATOM     37  N   UNL A   1      41.166  28.078  28.942  1.00  0.00    -0.248 NA
ATOM     38  C   UNL A   1      39.368  26.589  28.974  1.00  0.00     0.031 C 
ATOM     39  C   UNL A   1      43.625  24.982  26.853  1.00  0.00     0.029 A 
ATOM     40  N   UNL A   1      43.624  27.052  27.703  1.00  0.00    -0.354 N 
ATOM     41  C   UNL A   1      40.079  28.686  29.556  1.00  0.00     0.074 A 
ATOM     42  C   UNL A   1      38.989  27.734  29.526  1.00  0.00     0.031 C 
ATOM     43  C   UNL A   1      44.835  25.516  26.621  1.00  0.00     0.029 A 
ATOM     44  C   UNL A   1      44.855  26.892  27.114  1.00  0.00     0.049 A 
ATOM     45  H   UNL A   1      43.361  27.865  28.194  1.00  0.00     0.167 HD
ATOM     46  C   UNL A   1      39.999  29.920  30.107  1.00  0.00     0.034 A 
ATOM     47  C   UNL A   1      45.869  27.766  26.962  1.00  0.00     0.034 A 
ATOM     48  C   UNL A   1      41.086  30.860  30.143  1.00  0.00     0.049 A 
ATOM     49  C   UNL A   1      45.733  29.158  27.524  1.00  0.00     0.074 A 
ATOM     50  C   UNL A   1      41.124  32.111  30.731  1.00  0.00     0.029 A 
ATOM     51  N   UNL A   1      42.322  30.662  29.548  1.00  0.00    -0.354 N 
ATOM     52  N   UNL A   1      44.745  29.675  28.213  1.00  0.00    -0.248 NA
ATOM     53  C   UNL A   1      46.856  30.079  27.300  1.00  0.00     0.031 C 
ATOM     54  C   UNL A   1      42.373  32.683  30.463  1.00  0.00     0.029 A 
ATOM     55  C   UNL A   1      43.122  31.778  29.726  1.00  0.00     0.049 A 
ATOM     56  H   UNL A   1      42.593  29.845  29.068  1.00  0.00     0.167 HD
ATOM     57  C   UNL A   1      45.137  30.973  28.526  1.00  0.00     0.074 A 
ATOM     58  C   UNL A   1      46.461  31.154  27.969  1.00  0.00     0.031 C 
ATOM     59  C   UNL A   1      44.453  31.933  29.198  1.00  0.00     0.034 A 
BRANCH  46  60
ATOM     60  C   UNL A   1      38.691  30.315  30.738  1.00  0.00     0.023 A 
ATOM     61  C   UNL A   1      38.438  29.977  32.083  1.00  0.00     0.012 A 
ATOM     62  C   UNL A   1      37.730  31.050  30.018  1.00  0.00     0.148 A 
ATOM     63  C   UNL A   1      37.235  30.336  32.692  1.00  0.00     0.002 A 
ATOM     64  C   UNL A   1      36.550  31.438  30.643  1.00  0.00     0.091 A 
ATOM     65  F   UNL A   1      37.976  31.340  28.732  1.00  0.00    -0.205 F 
ATOM     66  C   UNL A   1      36.296  31.073  31.975  1.00  0.00     0.022 A 
BRANCH  64  67
ATOM     67  S   UNL A   1      35.312  32.448  29.821  1.00  0.00     0.127 S 
ATOM     68  O   UNL A   1      34.862  31.553  28.756  1.00  0.00    -0.237 OA
ATOM     69  O   UNL A   1      34.332  32.667  30.886  1.00  0.00    -0.237 OA
ATOM     70  O   UNL A   1      36.006  33.650  29.382  1.00  0.00    -0.744 OA
ENDBRANCH  64  67
ENDBRANCH  46  60
BRANCH  47  71
ATOM     71  C   UNL A   1      47.112  27.341  26.259  1.00  0.00     0.023 A 
ATOM     72  C   UNL A   1      47.292  27.680  24.905  1.00  0.00     0.012 A 
ATOM     73  C   UNL A   1      48.130  26.639  26.934  1.00  0.00     0.148 A 
ATOM     74  C   UNL A   1      48.457  27.312  24.230  1.00  0.00     0.002 A 
ATOM     75  C   UNL A   1      49.311  26.323  26.272  1.00  0.00     0.091 A 
ATOM     76  F   UNL A   1      47.930  26.308  28.218  1.00  0.00    -0.205 F 
ATOM     77  C   UNL A   1      49.470  26.646  24.915  1.00  0.00     0.022 A 
BRANCH  75  78
ATOM     78  S   UNL A   1      50.717  25.584  27.109  1.00  0.00     0.127 S 
ATOM     79  O   UNL A   1      50.138  24.352  27.639  1.00  0.00    -0.237 OA
ATOM     80  O   UNL A   1      51.660  25.398  26.006  1.00  0.00    -0.237 OA
ATOM     81  O   UNL A   1      51.144  26.560  28.102  1.00  0.00    -0.744 OA
ENDBRANCH  75  78
ENDBRANCH  47  71
BRANCH  59  82
ATOM     82  C   UNL A   1      45.119  33.274  29.373  1.00  0.00     0.023 A 
ATOM     83  C   UNL A   1      45.910  33.510  30.515  1.00  0.00     0.012 A 
ATOM     84  C   UNL A   1      45.035  34.263  28.373  1.00  0.00     0.148 A 
ATOM     85  C   UNL A   1      46.590  34.718  30.670  1.00  0.00     0.002 A 
ATOM     86  C   UNL A   1      45.752  35.446  28.512  1.00  0.00     0.091 A 
ATOM     87  F   UNL A   1      44.265  34.023  27.301  1.00  0.00    -0.205 F 
ATOM     88  C   UNL A   1      46.521  35.680  29.664  1.00  0.00     0.022 A 
BRANCH  86  89
ATOM     89  S   UNL A   1      45.797  36.708  27.234  1.00  0.00     0.127 S 
ATOM     90  O   UNL A   1      44.389  37.088  27.139  1.00  0.00    -0.237 OA
ATOM     91  O   UNL A   1      46.665  37.723  27.833  1.00  0.00    -0.237 OA
ATOM     92  O   UNL A   1      46.348  36.063  26.050  1.00  0.00    -0.744 OA
ENDBRANCH  86  89
ENDBRANCH  59  82
ENDBRANCH  33  34
ENDBRANCH  26  28
ENDBRANCH  25  26
ENDBRANCH  24  25
ENDBRANCH   1  24
TORSDOF 19
ENDMDL
