MODEL 1
REMARK VINA RESULT:     -10.9      0.000      0.000
REMARK SMILES Cc1cccc(C(=O)[C@H](C)[C@@H](C)C(=O)OCCOCCOC(=O)c2ccc(-c3c4nc(c(-c5cccc(S(=O)(=O)[O-])c5F)c5ccc([nH]5)c(-c5cccc(S(=O)(=O)[O-])c5F)c5nc(c(-c6cccc(S(=O)(=O)[O-])c6F)c6ccc3[nH]6)C=C5)C=C4)cc2)c1C
REMARK SMILES IDX 18 1 17 2 16 3 15 4 13 5 14 6 11 7 12 8 9 9 10 10 7 11 8 12
REMARK SMILES IDX 6 13 1 14 2 15 3 16 87 17 4 18 88 19 5 20 19 21 20 22 21 23
REMARK SMILES IDX 22 24 23 25 24 26 25 27 86 28 26 29 85 30 27 31 28 32 29 33
REMARK SMILES IDX 79 34 30 35 84 36 78 37 80 38 31 39 83 40 77 41 76 42 32 44
REMARK SMILES IDX 64 45 44 46 63 47 45 48 48 49 62 50 81 51 46 52 47 53 61 55
REMARK SMILES IDX 82 56 49 57 33 58 34 59 42 60 35 61 37 62 43 63 36 64 38 65
REMARK SMILES IDX 39 66 40 67 41 68 65 69 66 70 74 71 67 72 69 73 75 74 68 75
REMARK SMILES IDX 70 76 71 77 72 78 73 79 50 80 51 81 59 82 52 83 54 84 60 85
REMARK SMILES IDX 53 86 55 87 56 88 57 89 58 90
REMARK H PARENT 80 43 48 54
REMARK Flexibility Score: inf
ROOT
ATOM      1  O   UNL A   1      35.729  20.708  24.770  1.00  0.00    -0.374 OA
ENDROOT
BRANCH   1   2
ATOM      2  C   UNL A   1      34.337  20.412  24.714  1.00  0.00     0.202 C 
BRANCH   2   3
ATOM      3  C   UNL A   1      33.559  20.465  26.033  1.00  0.00     0.261 C 
BRANCH   3   4
ATOM      4  O   UNL A   1      34.101  21.328  27.049  1.00  0.00    -0.463 OA
BRANCH   4   5
ATOM      5  C   UNL A   1      33.367  22.451  27.292  1.00  0.00     0.309 C 
ATOM      6  O   UNL A   1      32.547  22.561  28.199  1.00  0.00    -0.252 OA
BRANCH   5   7
ATOM      7  C   UNL A   1      33.530  23.523  26.222  1.00  0.00     0.106 C 
ATOM      8  C   UNL A   1      35.026  23.857  26.189  1.00  0.00     0.021 C 
BRANCH   7   9
ATOM      9  C   UNL A   1      32.632  24.783  26.382  1.00  0.00     0.072 C 
ATOM     10  C   UNL A   1      33.418  26.070  26.090  1.00  0.00     0.017 C 
BRANCH   9  11
ATOM     11  C   UNL A   1      31.447  24.749  25.404  1.00  0.00     0.166 C 
ATOM     12  O   UNL A   1      30.545  23.930  25.570  1.00  0.00    -0.294 OA
BRANCH  11  13
ATOM     13  C   UNL A   1      31.388  25.726  24.242  1.00  0.00     0.021 A 
ATOM     14  C   UNL A   1      32.091  25.853  20.464  1.00  0.00     0.044 C 
ATOM     15  C   UNL A   1      31.684  26.232  21.865  1.00  0.00    -0.047 A 
ATOM     16  C   UNL A   1      30.952  27.413  22.035  1.00  0.00     0.004 A 
ATOM     17  C   UNL A   1      32.015  25.444  22.997  1.00  0.00    -0.037 A 
ATOM     18  C   UNL A   1      30.481  27.775  23.289  1.00  0.00     0.001 A 
ATOM     19  C   UNL A   1      33.033  24.338  22.856  1.00  0.00     0.045 C 
ATOM     20  C   UNL A   1      30.653  26.915  24.370  1.00  0.00     0.012 A 
ENDBRANCH  11  13
ENDBRANCH   9  11
ENDBRANCH   7   9
ENDBRANCH   5   7
ENDBRANCH   4   5
ENDBRANCH   3   4
ENDBRANCH   2   3
ENDBRANCH   1   2
BRANCH   1  21
ATOM     21  C   UNL A   1      36.617  19.610  24.998  1.00  0.00     0.202 C 
BRANCH  21  22
ATOM     22  C   UNL A   1      38.099  19.924  24.784  1.00  0.00     0.261 C 
BRANCH  22  23
ATOM     23  O   UNL A   1      38.458  21.160  25.428  1.00  0.00    -0.460 OA
BRANCH  23  24
ATOM     24  C   UNL A   1      39.601  21.083  26.141  1.00  0.00     0.338 C 
ATOM     25  O   UNL A   1      40.394  20.146  26.164  1.00  0.00    -0.246 OA
BRANCH  24  26
ATOM     26  C   UNL A   1      39.869  22.365  26.807  1.00  0.00     0.060 A 
ATOM     27  C   UNL A   1      39.186  23.508  26.382  1.00  0.00     0.016 A 
ATOM     28  C   UNL A   1      40.899  22.468  27.739  1.00  0.00     0.016 A 
ATOM     29  C   UNL A   1      39.586  24.765  26.844  1.00  0.00     0.010 A 
ATOM     30  C   UNL A   1      41.277  23.720  28.226  1.00  0.00     0.010 A 
ATOM     31  C   UNL A   1      40.663  24.884  27.738  1.00  0.00    -0.014 A 
BRANCH  31  32
ATOM     32  C   UNL A   1      41.235  26.215  28.068  1.00  0.00     0.031 A 
ATOM     33  C   UNL A   1      42.667  26.525  27.703  1.00  0.00     0.074 A 
ATOM     34  C   UNL A   1      40.499  27.131  28.725  1.00  0.00     0.049 A 
ATOM     35  N   UNL A   1      43.357  27.616  27.913  1.00  0.00    -0.248 NA
ATOM     36  C   UNL A   1      43.427  25.458  27.031  1.00  0.00     0.031 C 
ATOM     37  C   UNL A   1      39.129  26.933  29.194  1.00  0.00     0.029 A 
ATOM     38  N   UNL A   1      40.814  28.402  29.134  1.00  0.00    -0.354 N 
ATOM     39  C   UNL A   1      44.638  27.354  27.439  1.00  0.00     0.074 A 
ATOM     40  C   UNL A   1      44.637  25.992  26.952  1.00  0.00     0.031 C 
ATOM     41  C   UNL A   1      38.723  28.041  29.836  1.00  0.00     0.029 A 
ATOM     42  C   UNL A   1      39.806  29.023  29.831  1.00  0.00     0.049 A 
ATOM     43  H   UNL A   1      41.681  28.830  28.946  1.00  0.00     0.167 HD
ATOM     44  C   UNL A   1      45.711  28.180  27.382  1.00  0.00     0.034 A 
ATOM     45  C   UNL A   1      39.756  30.246  30.397  1.00  0.00     0.034 A 
ATOM     46  C   UNL A   1      45.692  29.555  27.802  1.00  0.00     0.049 A 
ATOM     47  C   UNL A   1      40.932  31.175  30.249  1.00  0.00     0.074 A 
ATOM     48  C   UNL A   1      46.697  30.501  27.699  1.00  0.00     0.029 A 
ATOM     49  N   UNL A   1      44.612  30.182  28.400  1.00  0.00    -0.354 N 
ATOM     50  N   UNL A   1      42.081  30.962  29.653  1.00  0.00    -0.248 NA
ATOM     51  C   UNL A   1      40.790  32.527  30.809  1.00  0.00     0.031 C 
ATOM     52  C   UNL A   1      46.223  31.702  28.238  1.00  0.00     0.029 A 
ATOM     53  C   UNL A   1      44.921  31.504  28.669  1.00  0.00     0.049 A 
ATOM     54  H   UNL A   1      43.751  29.752  28.605  1.00  0.00     0.167 HD
ATOM     55  C   UNL A   1      42.782  32.160  29.734  1.00  0.00     0.074 A 
ATOM     56  C   UNL A   1      41.923  33.102  30.422  1.00  0.00     0.031 C 
ATOM     57  C   UNL A   1      44.032  32.449  29.293  1.00  0.00     0.034 A 
BRANCH  44  58
ATOM     58  C   UNL A   1      46.982  27.640  26.777  1.00  0.00     0.023 A 
ATOM     59  C   UNL A   1      47.912  26.977  27.603  1.00  0.00     0.012 A 
ATOM     60  C   UNL A   1      47.229  27.728  25.393  1.00  0.00     0.148 A 
ATOM     61  C   UNL A   1      49.084  26.442  27.069  1.00  0.00     0.002 A 
ATOM     62  C   UNL A   1      48.380  27.156  24.861  1.00  0.00     0.091 A 
ATOM     63  F   UNL A   1      46.345  28.381  24.624  1.00  0.00    -0.205 F 
ATOM     64  C   UNL A   1      49.313  26.522  25.698  1.00  0.00     0.022 A 
BRANCH  62  65
ATOM     65  S   UNL A   1      48.724  27.143  23.097  1.00  0.00     0.127 S 
ATOM     66  O   UNL A   1      50.175  27.326  23.077  1.00  0.00    -0.237 OA
ATOM     67  O   UNL A   1      48.274  25.809  22.701  1.00  0.00    -0.237 OA
ATOM     68  O   UNL A   1      47.943  28.236  22.533  1.00  0.00    -0.744 OA
ENDBRANCH  62  65
ENDBRANCH  44  58
BRANCH  45  69
ATOM     69  C   UNL A   1      38.507  30.691  31.074  1.00  0.00     0.023 A 
ATOM     70  C   UNL A   1      38.394  30.556  32.472  1.00  0.00     0.012 A 
ATOM     71  C   UNL A   1      37.457  31.296  30.356  1.00  0.00     0.148 A 
ATOM     72  C   UNL A   1      37.251  30.995  33.140  1.00  0.00     0.002 A 
ATOM     73  C   UNL A   1      36.344  31.779  31.035  1.00  0.00     0.091 A 
ATOM     74  F   UNL A   1      37.573  31.399  29.025  1.00  0.00    -0.205 F 
ATOM     75  C   UNL A   1      36.233  31.619  32.424  1.00  0.00     0.022 A 
BRANCH  73  76
ATOM     76  S   UNL A   1      35.056  32.718  30.206  1.00  0.00     0.127 S 
ATOM     77  O   UNL A   1      34.090  32.919  31.282  1.00  0.00    -0.237 OA
ATOM     78  O   UNL A   1      35.774  33.924  29.788  1.00  0.00    -0.237 OA
ATOM     79  O   UNL A   1      34.615  31.877  29.100  1.00  0.00    -0.744 OA
ENDBRANCH  73  76
ENDBRANCH  45  69
BRANCH  57  80
ATOM     80  C   UNL A   1      44.546  33.848  29.508  1.00  0.00     0.023 A 
ATOM     81  C   UNL A   1      45.171  34.178  30.725  1.00  0.00     0.012 A 
ATOM     82  C   UNL A   1      44.494  34.803  28.473  1.00  0.00     0.148 A 
ATOM     83  C   UNL A   1      45.716  35.447  30.919  1.00  0.00     0.002 A 
ATOM     84  C   UNL A   1      45.075  36.052  28.660  1.00  0.00     0.091 A 
ATOM     85  F   UNL A   1      43.877  34.475  27.329  1.00  0.00    -0.205 F 
ATOM     86  C   UNL A   1      45.680  36.379  29.884  1.00  0.00     0.022 A 
BRANCH  84  87
ATOM     87  S   UNL A   1      45.147  37.278  27.347  1.00  0.00     0.127 S 
ATOM     88  O   UNL A   1      43.746  37.365  26.943  1.00  0.00    -0.237 OA
ATOM     89  O   UNL A   1      45.654  38.459  28.048  1.00  0.00    -0.237 OA
ATOM     90  O   UNL A   1      46.059  36.735  26.349  1.00  0.00    -0.744 OA
ENDBRANCH  84  87
ENDBRANCH  57  80
ENDBRANCH  31  32
ENDBRANCH  24  26
ENDBRANCH  23  24
ENDBRANCH  22  23
ENDBRANCH  21  22
ENDBRANCH   1  21
TORSDOF 20
ENDMDL
MODEL 2
REMARK VINA RESULT:     -10.7      1.205      2.257
REMARK SMILES Cc1cccc(C(=O)[C@H](C)[C@@H](C)C(=O)OCCOCCOC(=O)c2ccc(-c3c4nc(c(-c5cccc(S(=O)(=O)[O-])c5F)c5ccc([nH]5)c(-c5cccc(S(=O)(=O)[O-])c5F)c5nc(c(-c6cccc(S(=O)(=O)[O-])c6F)c6ccc3[nH]6)C=C5)C=C4)cc2)c1C
REMARK SMILES IDX 18 1 17 2 16 3 15 4 13 5 14 6 11 7 12 8 9 9 10 10 7 11 8 12
REMARK SMILES IDX 6 13 1 14 2 15 3 16 87 17 4 18 88 19 5 20 19 21 20 22 21 23
REMARK SMILES IDX 22 24 23 25 24 26 25 27 86 28 26 29 85 30 27 31 28 32 29 33
REMARK SMILES IDX 79 34 30 35 84 36 78 37 80 38 31 39 83 40 77 41 76 42 32 44
REMARK SMILES IDX 64 45 44 46 63 47 45 48 48 49 62 50 81 51 46 52 47 53 61 55
REMARK SMILES IDX 82 56 49 57 33 58 34 59 42 60 35 61 37 62 43 63 36 64 38 65
REMARK SMILES IDX 39 66 40 67 41 68 65 69 66 70 74 71 67 72 69 73 75 74 68 75
REMARK SMILES IDX 70 76 71 77 72 78 73 79 50 80 51 81 59 82 52 83 54 84 60 85
REMARK SMILES IDX 53 86 55 87 56 88 57 89 58 90
REMARK H PARENT 80 43 48 54
REMARK Flexibility Score: inf
ROOT
ATOM      1  O   UNL A   1      37.010  22.182  23.956  1.00  0.00    -0.374 OA
ENDROOT
BRANCH   1   2
ATOM      2  C   UNL A   1      36.544  23.489  24.279  1.00  0.00     0.202 C 
BRANCH   2   3
ATOM      3  C   UNL A   1      35.034  23.734  24.183  1.00  0.00     0.261 C 
BRANCH   3   4
ATOM      4  O   UNL A   1      34.576  24.371  22.977  1.00  0.00    -0.463 OA
BRANCH   4   5
ATOM      5  C   UNL A   1      33.311  24.033  22.600  1.00  0.00     0.309 C 
ATOM      6  O   UNL A   1      32.921  22.880  22.434  1.00  0.00    -0.252 OA
BRANCH   5   7
ATOM      7  C   UNL A   1      32.448  25.233  22.234  1.00  0.00     0.106 C 
ATOM      8  C   UNL A   1      33.423  26.393  21.998  1.00  0.00     0.021 C 
BRANCH   7   9
ATOM      9  C   UNL A   1      31.317  25.588  23.240  1.00  0.00     0.072 C 
ATOM     10  C   UNL A   1      30.229  24.505  23.263  1.00  0.00     0.017 C 
BRANCH   9  11
ATOM     11  C   UNL A   1      31.864  25.705  24.672  1.00  0.00     0.166 C 
ATOM     12  O   UNL A   1      31.815  24.731  25.422  1.00  0.00    -0.294 OA
BRANCH  11  13
ATOM     13  C   UNL A   1      32.467  27.013  25.155  1.00  0.00     0.021 A 
ATOM     14  C   UNL A   1      31.437  30.654  25.835  1.00  0.00     0.044 C 
ATOM     15  C   UNL A   1      32.238  29.382  25.727  1.00  0.00    -0.047 A 
ATOM     16  C   UNL A   1      33.480  29.336  26.373  1.00  0.00     0.004 A 
ATOM     17  C   UNL A   1      31.783  28.251  25.004  1.00  0.00    -0.037 A 
ATOM     18  C   UNL A   1      34.229  28.168  26.376  1.00  0.00     0.001 A 
ATOM     19  C   UNL A   1      30.596  28.391  24.082  1.00  0.00     0.045 C 
ATOM     20  C   UNL A   1      33.704  27.005  25.818  1.00  0.00     0.012 A 
ENDBRANCH  11  13
ENDBRANCH   9  11
ENDBRANCH   7   9
ENDBRANCH   5   7
ENDBRANCH   4   5
ENDBRANCH   3   4
ENDBRANCH   2   3
ENDBRANCH   1   2
BRANCH   1  21
ATOM     21  C   UNL A   1      36.795  21.156  24.930  1.00  0.00     0.202 C 
BRANCH  21  22
ATOM     22  C   UNL A   1      38.053  20.402  25.362  1.00  0.00     0.261 C 
BRANCH  22  23
ATOM     23  O   UNL A   1      39.191  21.282  25.394  1.00  0.00    -0.460 OA
BRANCH  23  24
ATOM     24  C   UNL A   1      39.952  21.138  26.500  1.00  0.00     0.338 C 
ATOM     25  O   UNL A   1      40.499  20.111  26.888  1.00  0.00    -0.246 OA
BRANCH  24  26
ATOM     26  C   UNL A   1      40.173  22.444  27.136  1.00  0.00     0.060 A 
ATOM     27  C   UNL A   1      39.410  23.540  26.723  1.00  0.00     0.016 A 
ATOM     28  C   UNL A   1      41.233  22.620  28.022  1.00  0.00     0.016 A 
ATOM     29  C   UNL A   1      39.757  24.825  27.150  1.00  0.00     0.010 A 
ATOM     30  C   UNL A   1      41.559  23.899  28.475  1.00  0.00     0.010 A 
ATOM     31  C   UNL A   1      40.861  25.019  27.997  1.00  0.00    -0.014 A 
BRANCH  31  32
ATOM     32  C   UNL A   1      41.369  26.385  28.283  1.00  0.00     0.031 A 
ATOM     33  C   UNL A   1      42.777  26.756  27.886  1.00  0.00     0.074 A 
ATOM     34  C   UNL A   1      40.598  27.279  28.928  1.00  0.00     0.049 A 
ATOM     35  N   UNL A   1      43.415  27.886  28.058  1.00  0.00    -0.248 NA
ATOM     36  C   UNL A   1      43.581  25.712  27.230  1.00  0.00     0.031 C 
ATOM     37  C   UNL A   1      39.246  27.026  29.423  1.00  0.00     0.029 A 
ATOM     38  N   UNL A   1      40.854  28.576  29.299  1.00  0.00    -0.354 N 
ATOM     39  C   UNL A   1      44.700  27.677  27.570  1.00  0.00     0.074 A 
ATOM     40  C   UNL A   1      44.761  26.304  27.118  1.00  0.00     0.031 C 
ATOM     41  C   UNL A   1      38.794  28.128  30.044  1.00  0.00     0.029 A 
ATOM     42  C   UNL A   1      39.825  29.163  29.996  1.00  0.00     0.049 A 
ATOM     43  H   UNL A   1      41.695  29.042  29.087  1.00  0.00     0.167 HD
ATOM     44  C   UNL A   1      45.729  28.554  27.474  1.00  0.00     0.034 A 
ATOM     45  C   UNL A   1      39.722  30.397  30.532  1.00  0.00     0.034 A 
ATOM     46  C   UNL A   1      45.646  29.937  27.860  1.00  0.00     0.049 A 
ATOM     47  C   UNL A   1      40.848  31.379  30.341  1.00  0.00     0.074 A 
ATOM     48  C   UNL A   1      46.601  30.929  27.716  1.00  0.00     0.029 A 
ATOM     49  N   UNL A   1      44.545  30.524  28.459  1.00  0.00    -0.354 N 
ATOM     50  N   UNL A   1      41.996  31.208  29.732  1.00  0.00    -0.248 NA
ATOM     51  C   UNL A   1      40.645  32.737  30.868  1.00  0.00     0.031 C 
ATOM     52  C   UNL A   1      46.074  32.119  28.232  1.00  0.00     0.029 A 
ATOM     53  C   UNL A   1      44.790  31.867  28.689  1.00  0.00     0.049 A 
ATOM     54  H   UNL A   1      43.710  30.057  28.689  1.00  0.00     0.167 HD
ATOM     55  C   UNL A   1      42.637  32.442  29.771  1.00  0.00     0.074 A 
ATOM     56  C   UNL A   1      41.741  33.357  30.448  1.00  0.00     0.031 C 
ATOM     57  C   UNL A   1      43.864  32.782  29.303  1.00  0.00     0.034 A 
BRANCH  44  58
ATOM     58  C   UNL A   1      47.016  28.063  26.863  1.00  0.00     0.023 A 
ATOM     59  C   UNL A   1      48.069  27.655  27.707  1.00  0.00     0.012 A 
ATOM     60  C   UNL A   1      47.165  27.943  25.467  1.00  0.00     0.148 A 
ATOM     61  C   UNL A   1      49.262  27.169  27.173  1.00  0.00     0.002 A 
ATOM     62  C   UNL A   1      48.343  27.420  24.943  1.00  0.00     0.091 A 
ATOM     63  F   UNL A   1      46.163  28.356  24.678  1.00  0.00    -0.205 F 
ATOM     64  C   UNL A   1      49.395  27.042  25.792  1.00  0.00     0.022 A 
BRANCH  62  65
ATOM     65  S   UNL A   1      48.576  27.149  23.182  1.00  0.00     0.127 S 
ATOM     66  O   UNL A   1      48.218  25.737  23.050  1.00  0.00    -0.237 OA
ATOM     67  O   UNL A   1      47.613  28.079  22.592  1.00  0.00    -0.237 OA
ATOM     68  O   UNL A   1      49.971  27.472  22.912  1.00  0.00    -0.744 OA
ENDBRANCH  62  65
ENDBRANCH  44  58
BRANCH  45  69
ATOM     69  C   UNL A   1      38.462  30.795  31.218  1.00  0.00     0.023 A 
ATOM     70  C   UNL A   1      38.328  30.569  32.601  1.00  0.00     0.012 A 
ATOM     71  C   UNL A   1      37.422  31.446  30.525  1.00  0.00     0.148 A 
ATOM     72  C   UNL A   1      37.175  30.963  33.279  1.00  0.00     0.002 A 
ATOM     73  C   UNL A   1      36.299  31.884  31.216  1.00  0.00     0.091 A 
ATOM     74  F   UNL A   1      37.559  31.637  29.205  1.00  0.00    -0.205 F 
ATOM     75  C   UNL A   1      36.167  31.632  32.590  1.00  0.00     0.022 A 
BRANCH  73  76
ATOM     76  S   UNL A   1      35.023  32.875  30.431  1.00  0.00     0.127 S 
ATOM     77  O   UNL A   1      34.528  31.967  29.401  1.00  0.00    -0.237 OA
ATOM     78  O   UNL A   1      34.096  33.117  31.538  1.00  0.00    -0.237 OA
ATOM     79  O   UNL A   1      35.703  34.073  29.954  1.00  0.00    -0.744 OA
ENDBRANCH  73  76
ENDBRANCH  45  69
BRANCH  57  80
ATOM     80  C   UNL A   1      44.310  34.210  29.474  1.00  0.00     0.023 A 
ATOM     81  C   UNL A   1      45.096  34.563  30.587  1.00  0.00     0.012 A 
ATOM     82  C   UNL A   1      44.029  35.177  28.488  1.00  0.00     0.148 A 
ATOM     83  C   UNL A   1      45.578  35.864  30.728  1.00  0.00     0.002 A 
ATOM     84  C   UNL A   1      44.546  36.460  28.616  1.00  0.00     0.091 A 
ATOM     85  F   UNL A   1      43.262  34.825  27.446  1.00  0.00    -0.205 F 
ATOM     86  C   UNL A   1      45.314  36.808  29.738  1.00  0.00     0.022 A 
BRANCH  84  87
ATOM     87  S   UNL A   1      44.326  37.711  27.344  1.00  0.00     0.127 S 
ATOM     88  O   UNL A   1      44.308  38.940  28.134  1.00  0.00    -0.237 OA
ATOM     89  O   UNL A   1      45.523  37.534  26.519  1.00  0.00    -0.237 OA
ATOM     90  O   UNL A   1      43.078  37.375  26.670  1.00  0.00    -0.744 OA
ENDBRANCH  84  87
ENDBRANCH  57  80
ENDBRANCH  31  32
ENDBRANCH  24  26
ENDBRANCH  23  24
ENDBRANCH  22  23
ENDBRANCH  21  22
ENDBRANCH   1  21
TORSDOF 20
ENDMDL
MODEL 3
REMARK VINA RESULT:     -10.4      1.291      7.782
REMARK SMILES Cc1cccc(C(=O)[C@H](C)[C@@H](C)C(=O)OCCOCCOC(=O)c2ccc(-c3c4nc(c(-c5cccc(S(=O)(=O)[O-])c5F)c5ccc([nH]5)c(-c5cccc(S(=O)(=O)[O-])c5F)c5nc(c(-c6cccc(S(=O)(=O)[O-])c6F)c6ccc3[nH]6)C=C5)C=C4)cc2)c1C
REMARK SMILES IDX 18 1 17 2 16 3 15 4 13 5 14 6 11 7 12 8 9 9 10 10 7 11 8 12
REMARK SMILES IDX 6 13 1 14 2 15 3 16 87 17 4 18 88 19 5 20 19 21 20 22 21 23
REMARK SMILES IDX 22 24 23 25 24 26 25 27 86 28 26 29 85 30 27 31 28 32 29 33
REMARK SMILES IDX 79 34 30 35 84 36 78 37 80 38 31 39 83 40 77 41 76 42 32 44
REMARK SMILES IDX 64 45 44 46 63 47 45 48 48 49 62 50 81 51 46 52 47 53 61 55
REMARK SMILES IDX 82 56 49 57 33 58 34 59 42 60 35 61 37 62 43 63 36 64 38 65
REMARK SMILES IDX 39 66 40 67 41 68 65 69 66 70 74 71 67 72 69 73 75 74 68 75
REMARK SMILES IDX 70 76 71 77 72 78 73 79 50 80 51 81 59 82 52 83 54 84 60 85
REMARK SMILES IDX 53 86 55 87 56 88 57 89 58 90
REMARK H PARENT 80 43 48 54
REMARK Flexibility Score: inf
ROOT
ATOM      1  O   UNL A   1      36.807  22.101  24.048  1.00  0.00    -0.374 OA
ENDROOT
BRANCH   1   2
ATOM      2  C   UNL A   1      36.486  23.392  24.559  1.00  0.00     0.202 C 
BRANCH   2   3
ATOM      3  C   UNL A   1      35.212  24.056  24.027  1.00  0.00     0.261 C 
BRANCH   3   4
ATOM      4  O   UNL A   1      34.693  23.525  22.795  1.00  0.00    -0.463 OA
BRANCH   4   5
ATOM      5  C   UNL A   1      33.341  23.358  22.772  1.00  0.00     0.309 C 
ATOM      6  O   UNL A   1      32.621  23.658  21.824  1.00  0.00    -0.252 OA
BRANCH   5   7
ATOM      7  C   UNL A   1      32.763  22.912  24.109  1.00  0.00     0.106 C 
ATOM      8  C   UNL A   1      32.499  21.408  23.971  1.00  0.00     0.021 C 
BRANCH   7   9
ATOM      9  C   UNL A   1      31.520  23.701  24.607  1.00  0.00     0.072 C 
ATOM     10  C   UNL A   1      30.754  22.916  25.683  1.00  0.00     0.017 C 
BRANCH   9  11
ATOM     11  C   UNL A   1      31.929  25.042  25.237  1.00  0.00     0.166 C 
ATOM     12  O   UNL A   1      32.663  25.052  26.224  1.00  0.00    -0.294 OA
BRANCH  11  13
ATOM     13  C   UNL A   1      31.433  26.349  24.640  1.00  0.00     0.021 A 
ATOM     14  C   UNL A   1      31.441  30.119  25.392  1.00  0.00     0.044 C 
ATOM     15  C   UNL A   1      31.227  28.787  24.721  1.00  0.00    -0.047 A 
ATOM     16  C   UNL A   1      30.833  28.789  23.378  1.00  0.00     0.004 A 
ATOM     17  C   UNL A   1      31.406  27.553  25.396  1.00  0.00    -0.037 A 
ATOM     18  C   UNL A   1      30.696  27.596  22.682  1.00  0.00     0.001 A 
ATOM     19  C   UNL A   1      31.550  27.546  26.899  1.00  0.00     0.045 C 
ATOM     20  C   UNL A   1      31.042  26.393  23.292  1.00  0.00     0.012 A 
ENDBRANCH  11  13
ENDBRANCH   9  11
ENDBRANCH   7   9
ENDBRANCH   5   7
ENDBRANCH   4   5
ENDBRANCH   3   4
ENDBRANCH   2   3
ENDBRANCH   1   2
BRANCH   1  21
ATOM     21  C   UNL A   1      36.450  20.976  24.857  1.00  0.00     0.202 C 
BRANCH  21  22
ATOM     22  C   UNL A   1      37.614  20.059  25.236  1.00  0.00     0.261 C 
BRANCH  22  23
ATOM     23  O   UNL A   1      38.870  20.752  25.122  1.00  0.00    -0.460 OA
BRANCH  23  24
ATOM     24  C   UNL A   1      39.681  20.576  26.186  1.00  0.00     0.338 C 
ATOM     25  O   UNL A   1      40.177  19.519  26.566  1.00  0.00    -0.246 OA
BRANCH  24  26
ATOM     26  C   UNL A   1      40.029  21.874  26.778  1.00  0.00     0.060 A 
ATOM     27  C   UNL A   1      39.414  23.031  26.291  1.00  0.00     0.016 A 
ATOM     28  C   UNL A   1      41.068  21.966  27.701  1.00  0.00     0.016 A 
ATOM     29  C   UNL A   1      39.891  24.285  26.681  1.00  0.00     0.010 A 
ATOM     30  C   UNL A   1      41.524  23.219  28.116  1.00  0.00     0.010 A 
ATOM     31  C   UNL A   1      40.978  24.389  27.565  1.00  0.00    -0.014 A 
BRANCH  31  32
ATOM     32  C   UNL A   1      41.631  25.699  27.818  1.00  0.00     0.031 A 
ATOM     33  C   UNL A   1      40.884  26.773  28.571  1.00  0.00     0.074 A 
ATOM     34  C   UNL A   1      42.867  25.949  27.348  1.00  0.00     0.049 A 
ATOM     35  N   UNL A   1      41.267  27.985  28.882  1.00  0.00    -0.248 NA
ATOM     36  C   UNL A   1      39.517  26.448  29.011  1.00  0.00     0.031 C 
ATOM     37  C   UNL A   1      43.669  25.023  26.550  1.00  0.00     0.029 A 
ATOM     38  N   UNL A   1      43.653  27.069  27.452  1.00  0.00    -0.354 N 
ATOM     39  C   UNL A   1      40.180  28.577  29.517  1.00  0.00     0.074 A 
ATOM     40  C   UNL A   1      39.113  27.601  29.525  1.00  0.00     0.031 C 
ATOM     41  C   UNL A   1      44.830  25.616  26.228  1.00  0.00     0.029 A 
ATOM     42  C   UNL A   1      44.852  26.966  26.789  1.00  0.00     0.049 A 
ATOM     43  H   UNL A   1      43.383  27.872  27.955  1.00  0.00     0.167 HD
ATOM     44  C   UNL A   1      40.086  29.809  30.074  1.00  0.00     0.034 A 
ATOM     45  C   UNL A   1      45.857  27.855  26.653  1.00  0.00     0.034 A 
ATOM     46  C   UNL A   1      41.169  30.753  30.127  1.00  0.00     0.049 A 
ATOM     47  C   UNL A   1      45.762  29.187  27.349  1.00  0.00     0.074 A 
ATOM     48  C   UNL A   1      41.205  31.989  30.751  1.00  0.00     0.029 A 
ATOM     49  N   UNL A   1      42.410  30.565  29.542  1.00  0.00    -0.354 N 
ATOM     50  N   UNL A   1      44.786  29.666  28.082  1.00  0.00    -0.248 NA
ATOM     51  C   UNL A   1      46.924  30.081  27.240  1.00  0.00     0.031 C 
ATOM     52  C   UNL A   1      42.470  32.549  30.539  1.00  0.00     0.029 A 
ATOM     53  C   UNL A   1      43.223  31.657  29.790  1.00  0.00     0.049 A 
ATOM     54  H   UNL A   1      42.676  29.771  29.024  1.00  0.00     0.167 HD
ATOM     55  C   UNL A   1      45.229  30.898  28.550  1.00  0.00     0.074 A 
ATOM     56  C   UNL A   1      46.568  31.086  28.032  1.00  0.00     0.031 C 
ATOM     57  C   UNL A   1      44.577  31.801  29.325  1.00  0.00     0.034 A 
BRANCH  44  58
ATOM     58  C   UNL A   1      38.785  30.183  30.736  1.00  0.00     0.023 A 
ATOM     59  C   UNL A   1      38.552  29.793  32.070  1.00  0.00     0.012 A 
ATOM     60  C   UNL A   1      37.824  30.970  30.070  1.00  0.00     0.148 A 
ATOM     61  C   UNL A   1      37.370  30.147  32.720  1.00  0.00     0.002 A 
ATOM     62  C   UNL A   1      36.666  31.354  30.739  1.00  0.00     0.091 A 
ATOM     63  F   UNL A   1      38.050  31.315  28.794  1.00  0.00    -0.205 F 
ATOM     64  C   UNL A   1      36.433  30.936  32.058  1.00  0.00     0.022 A 
BRANCH  62  65
ATOM     65  S   UNL A   1      35.436  32.432  29.994  1.00  0.00     0.127 S 
ATOM     66  O   UNL A   1      36.226  33.629  29.709  1.00  0.00    -0.237 OA
ATOM     67  O   UNL A   1      35.032  31.674  28.809  1.00  0.00    -0.237 OA
ATOM     68  O   UNL A   1      34.390  32.591  30.994  1.00  0.00    -0.744 OA
ENDBRANCH  62  65
ENDBRANCH  44  58
BRANCH  45  69
ATOM     69  C   UNL A   1      47.081  27.468  25.898  1.00  0.00     0.023 A 
ATOM     70  C   UNL A   1      48.067  26.690  26.535  1.00  0.00     0.012 A 
ATOM     71  C   UNL A   1      47.248  27.813  24.542  1.00  0.00     0.148 A 
ATOM     72  C   UNL A   1      49.208  26.282  25.843  1.00  0.00     0.002 A 
ATOM     73  C   UNL A   1      48.361  27.358  23.845  1.00  0.00     0.091 A 
ATOM     74  F   UNL A   1      46.307  28.569  23.957  1.00  0.00    -0.205 F 
ATOM     75  C   UNL A   1      49.348  26.604  24.496  1.00  0.00     0.022 A 
BRANCH  73  76
ATOM     76  S   UNL A   1      48.546  27.610  22.076  1.00  0.00     0.127 S 
ATOM     77  O   UNL A   1      49.638  28.578  22.022  1.00  0.00    -0.237 OA
ATOM     78  O   UNL A   1      48.888  26.266  21.607  1.00  0.00    -0.237 OA
ATOM     79  O   UNL A   1      47.247  28.085  21.615  1.00  0.00    -0.744 OA
ENDBRANCH  73  76
ENDBRANCH  45  69
BRANCH  57  80
ATOM     80  C   UNL A   1      45.306  33.066  29.693  1.00  0.00     0.023 A 
ATOM     81  C   UNL A   1      46.105  33.095  30.852  1.00  0.00     0.012 A 
ATOM     82  C   UNL A   1      45.272  34.191  28.846  1.00  0.00     0.148 A 
ATOM     83  C   UNL A   1      46.844  34.234  31.174  1.00  0.00     0.002 A 
ATOM     84  C   UNL A   1      46.041  35.307  29.153  1.00  0.00     0.091 A 
ATOM     85  F   UNL A   1      44.488  34.151  27.758  1.00  0.00    -0.205 F 
ATOM     86  C   UNL A   1      46.821  35.334  30.319  1.00  0.00     0.022 A 
BRANCH  84  87
ATOM     87  S   UNL A   1      46.136  36.732  28.060  1.00  0.00     0.127 S 
ATOM     88  O   UNL A   1      47.026  37.620  28.806  1.00  0.00    -0.237 OA
ATOM     89  O   UNL A   1      46.723  36.159  26.848  1.00  0.00    -0.237 OA
ATOM     90  O   UNL A   1      44.766  37.201  27.901  1.00  0.00    -0.744 OA
ENDBRANCH  84  87
ENDBRANCH  57  80
ENDBRANCH  31  32
ENDBRANCH  24  26
ENDBRANCH  23  24
ENDBRANCH  22  23
ENDBRANCH  21  22
ENDBRANCH   1  21
TORSDOF 20
ENDMDL
