MODEL 1
REMARK VINA RESULT:     -10.5      0.000      0.000
REMARK SMILES Cc1cc(C(=O)N[C@@H](C)C(=O)OCCOCCOC(=O)c2ccc(-c3c4nc(c(-c5cccc(S(=O)(=O)[O-])c5F)c5ccc([nH]5)c(-c5cccc(S(=O)(=O)[O-])c5F)c5nc(c(-c6cccc(S(=O)(=O)[O-])c6F)c6ccc3[nH]6)C=C5)C=C4)cc2)cc(C)c1OC(F)F
REMARK SMILES IDX 14 1 13 2 12 3 10 4 11 5 8 6 9 7 7 8 5 9 6 10 4 12 1 13 2 14
REMARK SMILES IDX 3 15 87 16 85 17 84 18 86 19 88 20 89 21 90 22 91 23 15 24
REMARK SMILES IDX 16 25 17 26 18 27 19 28 20 29 21 30 22 31 83 32 23 33 82 34
REMARK SMILES IDX 24 35 25 36 26 37 76 38 27 39 81 40 75 41 77 42 28 43 80 44
REMARK SMILES IDX 74 45 73 46 29 48 61 49 41 50 60 51 42 52 45 53 59 54 78 55
REMARK SMILES IDX 43 56 44 57 58 59 79 60 46 61 30 62 31 63 39 64 32 65 34 66
REMARK SMILES IDX 40 67 33 68 35 69 36 70 37 71 38 72 62 73 63 74 71 75 64 76
REMARK SMILES IDX 66 77 72 78 65 79 67 80 68 81 69 82 70 83 47 84 48 85 56 86
REMARK SMILES IDX 49 87 51 88 57 89 50 90 52 91 53 92 54 93 55 94
REMARK H PARENT 7 11 77 47 45 58
REMARK Flexibility Score: inf
ROOT
ATOM      1  C   UNL A   1      33.348  29.190  25.939  1.00  0.00     0.202 C 
ENDROOT
BRANCH   1   2
ATOM      2  C   UNL A   1      32.981  27.990  26.818  1.00  0.00     0.261 C 
BRANCH   2   3
ATOM      3  O   UNL A   1      32.110  27.076  26.128  1.00  0.00    -0.462 OA
BRANCH   3   4
ATOM      4  C   UNL A   1      32.504  25.772  26.103  1.00  0.00     0.328 C 
ATOM      5  O   UNL A   1      33.664  25.389  25.988  1.00  0.00    -0.250 OA
BRANCH   4   6
ATOM      6  C   UNL A   1      31.309  24.802  26.128  1.00  0.00     0.189 C 
ATOM      7  C   UNL A   1      31.566  23.772  27.220  1.00  0.00     0.043 C 
BRANCH   6   8
ATOM      8  N   UNL A   1      31.060  24.133  24.845  1.00  0.00    -0.339 N 
ATOM      9  C   UNL A   1      30.469  24.561  23.680  1.00  0.00     0.251 C 
ATOM     10  O   UNL A   1      30.367  23.760  22.751  1.00  0.00    -0.269 OA
ATOM     11  H   UNL A   1      31.376  23.202  24.813  1.00  0.00     0.164 HD
BRANCH   9  12
ATOM     12  C   UNL A   1      29.940  25.940  23.483  1.00  0.00     0.040 A 
ATOM     13  C   UNL A   1      31.557  29.156  22.338  1.00  0.00     0.048 C 
ATOM     14  C   UNL A   1      30.429  28.280  22.810  1.00  0.00    -0.008 A 
ATOM     15  C   UNL A   1      30.820  26.928  23.025  1.00  0.00     0.021 A 
ATOM     16  C   UNL A   1      29.082  28.623  23.018  1.00  0.00     0.131 A 
ATOM     17  C   UNL A   1      28.202  27.634  23.537  1.00  0.00    -0.008 A 
ATOM     18  C   UNL A   1      28.650  26.326  23.802  1.00  0.00     0.021 A 
ATOM     19  C   UNL A   1      26.736  27.900  23.792  1.00  0.00     0.048 C 
BRANCH  16  20
ATOM     20  O   UNL A   1      28.425  29.788  22.769  1.00  0.00    -0.434 OA
BRANCH  20  21
ATOM     21  C   UNL A   1      28.597  30.993  23.479  1.00  0.00     0.542 C 
ATOM     22  F   UNL A   1      29.030  31.973  22.655  1.00  0.00    -0.167 F 
ATOM     23  F   UNL A   1      27.435  31.362  24.063  1.00  0.00    -0.167 F 
ENDBRANCH  20  21
ENDBRANCH  16  20
ENDBRANCH   9  12
ENDBRANCH   6   8
ENDBRANCH   4   6
ENDBRANCH   3   4
ENDBRANCH   2   3
ENDBRANCH   1   2
BRANCH   1  24
ATOM     24  O   UNL A   1      32.275  30.064  25.587  1.00  0.00    -0.374 OA
BRANCH  24  25
ATOM     25  C   UNL A   1      31.468  30.563  26.655  1.00  0.00     0.202 C 
BRANCH  25  26
ATOM     26  C   UNL A   1      31.462  32.081  26.880  1.00  0.00     0.261 C 
BRANCH  26  27
ATOM     27  O   UNL A   1      32.735  32.692  26.598  1.00  0.00    -0.460 OA
BRANCH  27  28
ATOM     28  C   UNL A   1      33.314  33.308  27.654  1.00  0.00     0.338 C 
ATOM     29  O   UNL A   1      32.835  34.208  28.339  1.00  0.00    -0.246 OA
BRANCH  28  30
ATOM     30  C   UNL A   1      34.572  32.634  28.023  1.00  0.00     0.060 A 
ATOM     31  C   UNL A   1      34.488  31.305  28.457  1.00  0.00     0.016 A 
ATOM     32  C   UNL A   1      35.795  33.309  28.037  1.00  0.00     0.016 A 
ATOM     33  C   UNL A   1      35.617  30.660  28.957  1.00  0.00     0.010 A 
ATOM     34  C   UNL A   1      36.926  32.661  28.547  1.00  0.00     0.010 A 
ATOM     35  C   UNL A   1      36.836  31.348  29.045  1.00  0.00    -0.014 A 
BRANCH  35  36
ATOM     36  C   UNL A   1      37.971  30.734  29.777  1.00  0.00     0.031 A 
ATOM     37  C   UNL A   1      38.237  31.151  31.201  1.00  0.00     0.074 A 
ATOM     38  C   UNL A   1      38.756  29.815  29.185  1.00  0.00     0.049 A 
ATOM     39  N   UNL A   1      39.175  30.747  32.018  1.00  0.00    -0.248 NA
ATOM     40  C   UNL A   1      37.328  32.155  31.780  1.00  0.00     0.031 C 
ATOM     41  C   UNL A   1      38.601  29.330  27.815  1.00  0.00     0.029 A 
ATOM     42  N   UNL A   1      39.855  29.143  29.658  1.00  0.00    -0.354 N 
ATOM     43  C   UNL A   1      38.994  31.470  33.191  1.00  0.00     0.074 A 
ATOM     44  C   UNL A   1      37.855  32.338  32.983  1.00  0.00     0.031 C 
ATOM     45  C   UNL A   1      39.591  28.460  27.546  1.00  0.00     0.029 A 
ATOM     46  C   UNL A   1      40.457  28.341  28.717  1.00  0.00     0.049 A 
ATOM     47  H   UNL A   1      40.182  29.227  30.583  1.00  0.00     0.167 HD
ATOM     48  C   UNL A   1      39.704  31.409  34.342  1.00  0.00     0.034 A 
ATOM     49  C   UNL A   1      41.588  27.610  28.787  1.00  0.00     0.034 A 
ATOM     50  C   UNL A   1      40.810  30.517  34.563  1.00  0.00     0.049 A 
ATOM     51  C   UNL A   1      42.359  27.568  30.082  1.00  0.00     0.074 A 
ATOM     52  C   UNL A   1      41.539  30.327  35.725  1.00  0.00     0.029 A 
ATOM     53  N   UNL A   1      41.357  29.680  33.605  1.00  0.00    -0.354 N 
ATOM     54  N   UNL A   1      42.081  28.138  31.230  1.00  0.00    -0.248 NA
ATOM     55  C   UNL A   1      43.586  26.754  30.103  1.00  0.00     0.031 C 
ATOM     56  C   UNL A   1      42.546  29.394  35.460  1.00  0.00     0.029 A 
ATOM     57  C   UNL A   1      42.427  28.985  34.142  1.00  0.00     0.049 A 
ATOM     58  H   UNL A   1      41.033  29.594  32.680  1.00  0.00     0.167 HD
ATOM     59  C   UNL A   1      43.068  27.718  32.115  1.00  0.00     0.074 A 
ATOM     60  C   UNL A   1      43.941  26.830  31.378  1.00  0.00     0.031 C 
ATOM     61  C   UNL A   1      43.247  28.050  33.418  1.00  0.00     0.034 A 
BRANCH  48  62
ATOM     62  C   UNL A   1      39.297  32.310  35.477  1.00  0.00     0.023 A 
ATOM     63  C   UNL A   1      38.444  31.820  36.485  1.00  0.00     0.012 A 
ATOM     64  C   UNL A   1      39.843  33.603  35.596  1.00  0.00     0.148 A 
ATOM     65  C   UNL A   1      38.126  32.609  37.589  1.00  0.00     0.002 A 
ATOM     66  C   UNL A   1      39.554  34.369  36.719  1.00  0.00     0.091 A 
ATOM     67  F   UNL A   1      40.637  34.054  34.614  1.00  0.00    -0.205 F 
ATOM     68  C   UNL A   1      38.691  33.878  37.712  1.00  0.00     0.022 A 
BRANCH  66  69
ATOM     69  S   UNL A   1      40.291  35.982  37.008  1.00  0.00     0.127 S 
ATOM     70  O   UNL A   1      41.718  35.671  36.940  1.00  0.00    -0.237 OA
ATOM     71  O   UNL A   1      39.782  36.758  35.877  1.00  0.00    -0.237 OA
ATOM     72  O   UNL A   1      39.811  36.417  38.311  1.00  0.00    -0.744 OA
ENDBRANCH  66  69
ENDBRANCH  48  62
BRANCH  49  73
ATOM     73  C   UNL A   1      42.055  26.827  27.608  1.00  0.00     0.023 A 
ATOM     74  C   UNL A   1      42.732  27.483  26.561  1.00  0.00     0.012 A 
ATOM     75  C   UNL A   1      41.821  25.443  27.508  1.00  0.00     0.148 A 
ATOM     76  C   UNL A   1      43.129  26.784  25.420  1.00  0.00     0.002 A 
ATOM     77  C   UNL A   1      42.270  24.741  26.395  1.00  0.00     0.091 A 
ATOM     78  F   UNL A   1      41.153  24.836  28.501  1.00  0.00    -0.205 F 
ATOM     79  C   UNL A   1      42.906  25.413  25.341  1.00  0.00     0.022 A 
BRANCH  77  80
ATOM     80  S   UNL A   1      42.136  22.953  26.284  1.00  0.00     0.127 S 
ATOM     81  O   UNL A   1      40.690  22.756  26.319  1.00  0.00    -0.237 OA
ATOM     82  O   UNL A   1      42.764  22.677  24.990  1.00  0.00    -0.237 OA
ATOM     83  O   UNL A   1      42.883  22.441  27.425  1.00  0.00    -0.744 OA
ENDBRANCH  77  80
ENDBRANCH  49  73
BRANCH  61  84
ATOM     84  C   UNL A   1      44.400  27.421  34.155  1.00  0.00     0.023 A 
ATOM     85  C   UNL A   1      45.643  28.082  34.205  1.00  0.00     0.012 A 
ATOM     86  C   UNL A   1      44.227  26.217  34.866  1.00  0.00     0.148 A 
ATOM     87  C   UNL A   1      46.705  27.539  34.927  1.00  0.00     0.002 A 
ATOM     88  C   UNL A   1      45.275  25.707  35.623  1.00  0.00     0.091 A 
ATOM     89  F   UNL A   1      43.043  25.593  34.791  1.00  0.00    -0.205 F 
ATOM     90  C   UNL A   1      46.519  26.360  35.646  1.00  0.00     0.022 A 
BRANCH  88  91
ATOM     91  S   UNL A   1      45.094  24.248  36.656  1.00  0.00     0.127 S 
ATOM     92  O   UNL A   1      44.291  24.764  37.763  1.00  0.00    -0.237 OA
ATOM     93  O   UNL A   1      44.387  23.323  35.769  1.00  0.00    -0.237 OA
ATOM     94  O   UNL A   1      46.447  23.834  37.001  1.00  0.00    -0.744 OA
ENDBRANCH  88  91
ENDBRANCH  61  84
ENDBRANCH  35  36
ENDBRANCH  28  30
ENDBRANCH  27  28
ENDBRANCH  26  27
ENDBRANCH  25  26
ENDBRANCH  24  25
ENDBRANCH   1  24
TORSDOF 21
ENDMDL
MODEL 2
REMARK VINA RESULT:     -10.5      5.026     10.102
REMARK SMILES Cc1cc(C(=O)N[C@@H](C)C(=O)OCCOCCOC(=O)c2ccc(-c3c4nc(c(-c5cccc(S(=O)(=O)[O-])c5F)c5ccc([nH]5)c(-c5cccc(S(=O)(=O)[O-])c5F)c5nc(c(-c6cccc(S(=O)(=O)[O-])c6F)c6ccc3[nH]6)C=C5)C=C4)cc2)cc(C)c1OC(F)F
REMARK SMILES IDX 14 1 13 2 12 3 10 4 11 5 8 6 9 7 7 8 5 9 6 10 4 12 1 13 2 14
REMARK SMILES IDX 3 15 87 16 85 17 84 18 86 19 88 20 89 21 90 22 91 23 15 24
REMARK SMILES IDX 16 25 17 26 18 27 19 28 20 29 21 30 22 31 83 32 23 33 82 34
REMARK SMILES IDX 24 35 25 36 26 37 76 38 27 39 81 40 75 41 77 42 28 43 80 44
REMARK SMILES IDX 74 45 73 46 29 48 61 49 41 50 60 51 42 52 45 53 59 54 78 55
REMARK SMILES IDX 43 56 44 57 58 59 79 60 46 61 30 62 31 63 39 64 32 65 34 66
REMARK SMILES IDX 40 67 33 68 35 69 36 70 37 71 38 72 62 73 63 74 71 75 64 76
REMARK SMILES IDX 66 77 72 78 65 79 67 80 68 81 69 82 70 83 47 84 48 85 56 86
REMARK SMILES IDX 49 87 51 88 57 89 50 90 52 91 53 92 54 93 55 94
REMARK H PARENT 7 11 77 47 45 58
REMARK Flexibility Score: inf
ROOT
ATOM      1  C   UNL A   1      35.764  22.398  24.115  1.00  0.00     0.202 C 
ENDROOT
BRANCH   1   2
ATOM      2  C   UNL A   1      34.232  22.394  24.118  1.00  0.00     0.261 C 
BRANCH   2   3
ATOM      3  O   UNL A   1      33.707  21.058  24.213  1.00  0.00    -0.462 OA
BRANCH   3   4
ATOM      4  C   UNL A   1      32.782  20.843  25.190  1.00  0.00     0.328 C 
ATOM      5  O   UNL A   1      31.942  19.949  25.179  1.00  0.00    -0.250 OA
BRANCH   4   6
ATOM      6  C   UNL A   1      32.828  21.925  26.284  1.00  0.00     0.189 C 
ATOM      7  C   UNL A   1      33.749  21.430  27.391  1.00  0.00     0.043 C 
BRANCH   6   8
ATOM      8  N   UNL A   1      31.511  22.273  26.831  1.00  0.00    -0.339 N 
ATOM      9  C   UNL A   1      30.771  23.429  26.792  1.00  0.00     0.251 C 
ATOM     10  O   UNL A   1      29.687  23.446  27.374  1.00  0.00    -0.269 OA
ATOM     11  H   UNL A   1      31.076  21.537  27.320  1.00  0.00     0.164 HD
BRANCH   9  12
ATOM     12  C   UNL A   1      31.211  24.666  26.086  1.00  0.00     0.040 A 
ATOM     13  C   UNL A   1      29.495  26.939  23.605  1.00  0.00     0.048 C 
ATOM     14  C   UNL A   1      30.622  26.469  24.485  1.00  0.00    -0.008 A 
ATOM     15  C   UNL A   1      30.307  25.291  25.219  1.00  0.00     0.021 A 
ATOM     16  C   UNL A   1      31.882  27.060  24.683  1.00  0.00     0.131 A 
ATOM     17  C   UNL A   1      32.818  26.394  25.519  1.00  0.00    -0.008 A 
ATOM     18  C   UNL A   1      32.489  25.191  26.171  1.00  0.00     0.021 A 
ATOM     19  C   UNL A   1      34.198  26.947  25.801  1.00  0.00     0.048 C 
BRANCH  16  20
ATOM     20  O   UNL A   1      32.383  28.236  24.217  1.00  0.00    -0.434 OA
BRANCH  20  21
ATOM     21  C   UNL A   1      32.809  28.478  22.896  1.00  0.00     0.542 C 
ATOM     22  F   UNL A   1      33.530  29.619  22.831  1.00  0.00    -0.167 F 
ATOM     23  F   UNL A   1      33.548  27.440  22.445  1.00  0.00    -0.167 F 
ENDBRANCH  20  21
ENDBRANCH  16  20
ENDBRANCH   9  12
ENDBRANCH   6   8
ENDBRANCH   4   6
ENDBRANCH   3   4
ENDBRANCH   2   3
ENDBRANCH   1   2
BRANCH   1  24
ATOM     24  O   UNL A   1      36.397  21.518  25.045  1.00  0.00    -0.374 OA
BRANCH  24  25
ATOM     25  C   UNL A   1      36.898  20.282  24.531  1.00  0.00     0.202 C 
BRANCH  25  26
ATOM     26  C   UNL A   1      38.284  19.834  25.009  1.00  0.00     0.261 C 
BRANCH  26  27
ATOM     27  O   UNL A   1      38.662  20.428  26.265  1.00  0.00    -0.460 OA
BRANCH  27  28
ATOM     28  C   UNL A   1      39.995  20.566  26.449  1.00  0.00     0.338 C 
ATOM     29  O   UNL A   1      40.875  19.794  26.082  1.00  0.00    -0.246 OA
BRANCH  28  30
ATOM     30  C   UNL A   1      40.306  21.892  27.013  1.00  0.00     0.060 A 
ATOM     31  C   UNL A   1      39.639  22.997  26.469  1.00  0.00     0.016 A 
ATOM     32  C   UNL A   1      41.295  22.068  27.983  1.00  0.00     0.016 A 
ATOM     33  C   UNL A   1      39.994  24.287  26.854  1.00  0.00     0.010 A 
ATOM     34  C   UNL A   1      41.655  23.367  28.363  1.00  0.00     0.010 A 
ATOM     35  C   UNL A   1      41.034  24.483  27.773  1.00  0.00    -0.014 A 
BRANCH  35  36
ATOM     36  C   UNL A   1      41.553  25.853  28.011  1.00  0.00     0.031 A 
ATOM     37  C   UNL A   1      42.953  26.194  27.571  1.00  0.00     0.074 A 
ATOM     38  C   UNL A   1      40.787  26.785  28.609  1.00  0.00     0.049 A 
ATOM     39  N   UNL A   1      43.603  27.323  27.686  1.00  0.00    -0.248 NA
ATOM     40  C   UNL A   1      43.722  25.122  26.916  1.00  0.00     0.031 C 
ATOM     41  C   UNL A   1      39.419  26.577  29.079  1.00  0.00     0.029 A 
ATOM     42  N   UNL A   1      41.064  28.087  28.941  1.00  0.00    -0.354 N 
ATOM     43  C   UNL A   1      44.865  27.091  27.155  1.00  0.00     0.074 A 
ATOM     44  C   UNL A   1      44.893  25.712  26.714  1.00  0.00     0.031 C 
ATOM     45  C   UNL A   1      38.985  27.705  29.670  1.00  0.00     0.029 A 
ATOM     46  C   UNL A   1      40.050  28.706  29.636  1.00  0.00     0.049 A 
ATOM     47  H   UNL A   1      41.908  28.536  28.707  1.00  0.00     0.167 HD
ATOM     48  C   UNL A   1      45.905  27.950  27.033  1.00  0.00     0.034 A 
ATOM     49  C   UNL A   1      39.997  29.931  30.195  1.00  0.00     0.034 A 
ATOM     50  C   UNL A   1      45.864  29.330  27.433  1.00  0.00     0.049 A 
ATOM     51  C   UNL A   1      41.174  30.862  30.047  1.00  0.00     0.074 A 
ATOM     52  C   UNL A   1      46.842  30.298  27.275  1.00  0.00     0.029 A 
ATOM     53  N   UNL A   1      44.802  29.935  28.083  1.00  0.00    -0.354 N 
ATOM     54  N   UNL A   1      42.300  30.675  29.402  1.00  0.00    -0.248 NA
ATOM     55  C   UNL A   1      41.060  32.188  30.676  1.00  0.00     0.031 C 
ATOM     56  C   UNL A   1      46.379  31.483  27.855  1.00  0.00     0.029 A 
ATOM     57  C   UNL A   1      45.105  31.259  28.350  1.00  0.00     0.049 A 
ATOM     58  H   UNL A   1      43.957  29.490  28.319  1.00  0.00     0.167 HD
ATOM     59  C   UNL A   1      43.006  31.868  29.511  1.00  0.00     0.074 A 
ATOM     60  C   UNL A   1      42.173  32.780  30.266  1.00  0.00     0.031 C 
ATOM     61  C   UNL A   1      44.240  32.178  29.042  1.00  0.00     0.034 A 
BRANCH  48  62
ATOM     62  C   UNL A   1      47.179  27.440  26.414  1.00  0.00     0.023 A 
ATOM     63  C   UNL A   1      47.464  27.731  25.066  1.00  0.00     0.012 A 
ATOM     64  C   UNL A   1      48.135  26.765  27.197  1.00  0.00     0.148 A 
ATOM     65  C   UNL A   1      48.678  27.345  24.500  1.00  0.00     0.002 A 
ATOM     66  C   UNL A   1      49.359  26.418  26.638  1.00  0.00     0.091 A 
ATOM     67  F   UNL A   1      47.832  26.482  28.472  1.00  0.00    -0.205 F 
ATOM     68  C   UNL A   1      49.630  26.700  25.288  1.00  0.00     0.022 A 
BRANCH  66  69
ATOM     69  S   UNL A   1      50.679  25.655  27.588  1.00  0.00     0.127 S 
ATOM     70  O   UNL A   1      50.203  24.277  27.701  1.00  0.00    -0.237 OA
ATOM     71  O   UNL A   1      51.833  25.831  26.706  1.00  0.00    -0.237 OA
ATOM     72  O   UNL A   1      50.752  26.392  28.841  1.00  0.00    -0.744 OA
ENDBRANCH  66  69
ENDBRANCH  48  62
BRANCH  49  73
ATOM     73  C   UNL A   1      38.775  30.374  30.925  1.00  0.00     0.023 A 
ATOM     74  C   UNL A   1      38.642  30.086  32.297  1.00  0.00     0.012 A 
ATOM     75  C   UNL A   1      37.738  31.065  30.268  1.00  0.00     0.148 A 
ATOM     76  C   UNL A   1      37.483  30.440  32.991  1.00  0.00     0.002 A 
ATOM     77  C   UNL A   1      36.612  31.464  30.978  1.00  0.00     0.091 A 
ATOM     78  F   UNL A   1      37.868  31.310  28.956  1.00  0.00    -0.205 F 
ATOM     79  C   UNL A   1      36.473  31.136  32.334  1.00  0.00     0.022 A 
BRANCH  77  80
ATOM     80  S   UNL A   1      35.331  32.480  30.231  1.00  0.00     0.127 S 
ATOM     81  O   UNL A   1      36.073  33.684  29.871  1.00  0.00    -0.237 OA
ATOM     82  O   UNL A   1      34.906  31.655  29.098  1.00  0.00    -0.237 OA
ATOM     83  O   UNL A   1      34.315  32.635  31.263  1.00  0.00    -0.744 OA
ENDBRANCH  77  80
ENDBRANCH  49  73
BRANCH  61  84
ATOM     84  C   UNL A   1      44.758  33.572  29.285  1.00  0.00     0.023 A 
ATOM     85  C   UNL A   1      45.403  33.876  30.499  1.00  0.00     0.012 A 
ATOM     86  C   UNL A   1      44.680  34.554  28.277  1.00  0.00     0.148 A 
ATOM     87  C   UNL A   1      45.935  35.146  30.719  1.00  0.00     0.002 A 
ATOM     88  C   UNL A   1      45.255  35.801  28.485  1.00  0.00     0.091 A 
ATOM     89  F   UNL A   1      44.046  34.250  27.136  1.00  0.00    -0.205 F 
ATOM     90  C   UNL A   1      45.873  36.104  29.709  1.00  0.00     0.022 A 
BRANCH  88  91
ATOM     91  S   UNL A   1      45.307  37.060  27.204  1.00  0.00     0.127 S 
ATOM     92  O   UNL A   1      43.886  37.265  26.929  1.00  0.00    -0.237 OA
ATOM     93  O   UNL A   1      45.963  38.175  27.887  1.00  0.00    -0.237 OA
ATOM     94  O   UNL A   1      46.081  36.485  26.111  1.00  0.00    -0.744 OA
ENDBRANCH  88  91
ENDBRANCH  61  84
ENDBRANCH  35  36
ENDBRANCH  28  30
ENDBRANCH  27  28
ENDBRANCH  26  27
ENDBRANCH  25  26
ENDBRANCH  24  25
ENDBRANCH   1  24
TORSDOF 21
ENDMDL
MODEL 3
REMARK VINA RESULT:     -10.3      5.030     10.350
REMARK SMILES Cc1cc(C(=O)N[C@@H](C)C(=O)OCCOCCOC(=O)c2ccc(-c3c4nc(c(-c5cccc(S(=O)(=O)[O-])c5F)c5ccc([nH]5)c(-c5cccc(S(=O)(=O)[O-])c5F)c5nc(c(-c6cccc(S(=O)(=O)[O-])c6F)c6ccc3[nH]6)C=C5)C=C4)cc2)cc(C)c1OC(F)F
REMARK SMILES IDX 14 1 13 2 12 3 10 4 11 5 8 6 9 7 7 8 5 9 6 10 4 12 1 13 2 14
REMARK SMILES IDX 3 15 87 16 85 17 84 18 86 19 88 20 89 21 90 22 91 23 15 24
REMARK SMILES IDX 16 25 17 26 18 27 19 28 20 29 21 30 22 31 83 32 23 33 82 34
REMARK SMILES IDX 24 35 25 36 26 37 76 38 27 39 81 40 75 41 77 42 28 43 80 44
REMARK SMILES IDX 74 45 73 46 29 48 61 49 41 50 60 51 42 52 45 53 59 54 78 55
REMARK SMILES IDX 43 56 44 57 58 59 79 60 46 61 30 62 31 63 39 64 32 65 34 66
REMARK SMILES IDX 40 67 33 68 35 69 36 70 37 71 38 72 62 73 63 74 71 75 64 76
REMARK SMILES IDX 66 77 72 78 65 79 67 80 68 81 69 82 70 83 47 84 48 85 56 86
REMARK SMILES IDX 49 87 51 88 57 89 50 90 52 91 53 92 54 93 55 94
REMARK H PARENT 7 11 77 47 45 58
REMARK Flexibility Score: inf
ROOT
ATOM      1  C   UNL A   1      35.420  20.203  24.942  1.00  0.00     0.202 C 
ENDROOT
BRANCH   1   2
ATOM      2  C   UNL A   1      34.166  19.361  24.690  1.00  0.00     0.261 C 
BRANCH   2   3
ATOM      3  O   UNL A   1      33.209  20.065  23.878  1.00  0.00    -0.462 OA
BRANCH   3   4
ATOM      4  C   UNL A   1      32.441  20.990  24.519  1.00  0.00     0.328 C 
ATOM      5  O   UNL A   1      31.566  20.732  25.339  1.00  0.00    -0.250 OA
BRANCH   4   6
ATOM      6  C   UNL A   1      32.715  22.420  24.020  1.00  0.00     0.189 C 
ATOM      7  C   UNL A   1      32.806  22.375  22.500  1.00  0.00     0.043 C 
BRANCH   6   8
ATOM      8  N   UNL A   1      33.927  23.026  24.586  1.00  0.00    -0.339 N 
ATOM      9  C   UNL A   1      34.268  24.329  24.857  1.00  0.00     0.251 C 
ATOM     10  O   UNL A   1      35.387  24.553  25.316  1.00  0.00    -0.269 OA
ATOM     11  H   UNL A   1      34.628  22.374  24.815  1.00  0.00     0.164 HD
BRANCH   9  12
ATOM     12  C   UNL A   1      33.358  25.485  24.621  1.00  0.00     0.040 A 
ATOM     13  C   UNL A   1      29.677  26.015  25.284  1.00  0.00     0.048 C 
ATOM     14  C   UNL A   1      31.056  26.394  24.815  1.00  0.00    -0.008 A 
ATOM     15  C   UNL A   1      32.016  25.360  25.002  1.00  0.00     0.021 A 
ATOM     16  C   UNL A   1      31.490  27.616  24.272  1.00  0.00     0.131 A 
ATOM     17  C   UNL A   1      32.838  27.722  23.835  1.00  0.00    -0.008 A 
ATOM     18  C   UNL A   1      33.737  26.648  23.973  1.00  0.00     0.021 A 
ATOM     19  C   UNL A   1      33.405  28.992  23.241  1.00  0.00     0.048 C 
BRANCH  16  20
ATOM     20  O   UNL A   1      30.824  28.791  24.110  1.00  0.00    -0.434 OA
BRANCH  20  21
ATOM     21  C   UNL A   1      29.952  29.097  23.046  1.00  0.00     0.542 C 
ATOM     22  F   UNL A   1      30.260  28.364  21.953  1.00  0.00    -0.167 F 
ATOM     23  F   UNL A   1      28.670  28.867  23.409  1.00  0.00    -0.167 F 
ENDBRANCH  20  21
ENDBRANCH  16  20
ENDBRANCH   9  12
ENDBRANCH   6   8
ENDBRANCH   4   6
ENDBRANCH   3   4
ENDBRANCH   2   3
ENDBRANCH   1   2
BRANCH   1  24
ATOM     24  O   UNL A   1      36.658  19.492  24.979  1.00  0.00    -0.374 OA
BRANCH  24  25
ATOM     25  C   UNL A   1      37.854  20.273  25.025  1.00  0.00     0.202 C 
BRANCH  25  26
ATOM     26  C   UNL A   1      39.154  19.545  25.387  1.00  0.00     0.261 C 
BRANCH  26  27
ATOM     27  O   UNL A   1      39.732  20.012  26.620  1.00  0.00    -0.460 OA
BRANCH  27  28
ATOM     28  C   UNL A   1      41.004  20.460  26.516  1.00  0.00     0.338 C 
ATOM     29  O   UNL A   1      41.940  19.903  25.951  1.00  0.00    -0.246 OA
BRANCH  28  30
ATOM     30  C   UNL A   1      41.113  21.838  27.029  1.00  0.00     0.060 A 
ATOM     31  C   UNL A   1      40.588  22.865  26.235  1.00  0.00     0.016 A 
ATOM     32  C   UNL A   1      41.794  22.134  28.212  1.00  0.00     0.016 A 
ATOM     33  C   UNL A   1      40.788  24.197  26.592  1.00  0.00     0.010 A 
ATOM     34  C   UNL A   1      42.000  23.473  28.564  1.00  0.00     0.010 A 
ATOM     35  C   UNL A   1      41.532  24.511  27.737  1.00  0.00    -0.014 A 
BRANCH  35  36
ATOM     36  C   UNL A   1      41.928  25.919  27.990  1.00  0.00     0.031 A 
ATOM     37  C   UNL A   1      43.306  26.377  27.589  1.00  0.00     0.074 A 
ATOM     38  C   UNL A   1      41.070  26.782  28.566  1.00  0.00     0.049 A 
ATOM     39  N   UNL A   1      43.856  27.556  27.723  1.00  0.00    -0.248 NA
ATOM     40  C   UNL A   1      44.181  25.375  26.956  1.00  0.00     0.031 C 
ATOM     41  C   UNL A   1      39.712  26.459  28.998  1.00  0.00     0.029 A 
ATOM     42  N   UNL A   1      41.228  28.102  28.907  1.00  0.00    -0.354 N 
ATOM     43  C   UNL A   1      45.148  27.431  27.228  1.00  0.00     0.074 A 
ATOM     44  C   UNL A   1      45.303  26.061  26.787  1.00  0.00     0.031 C 
ATOM     45  C   UNL A   1      39.169  27.545  29.577  1.00  0.00     0.029 A 
ATOM     46  C   UNL A   1      40.147  28.631  29.573  1.00  0.00     0.049 A 
ATOM     47  H   UNL A   1      42.038  28.620  28.696  1.00  0.00     0.167 HD
ATOM     48  C   UNL A   1      46.115  28.374  27.135  1.00  0.00     0.034 A 
ATOM     49  C   UNL A   1      39.975  29.847  30.130  1.00  0.00     0.034 A 
ATOM     50  C   UNL A   1      45.948  29.745  27.535  1.00  0.00     0.049 A 
ATOM     51  C   UNL A   1      41.074  30.873  30.016  1.00  0.00     0.074 A 
ATOM     52  C   UNL A   1      46.845  30.792  27.404  1.00  0.00     0.029 A 
ATOM     53  N   UNL A   1      44.821  30.258  28.154  1.00  0.00    -0.354 N 
ATOM     54  N   UNL A   1      42.230  30.782  29.403  1.00  0.00    -0.248 NA
ATOM     55  C   UNL A   1      40.833  32.183  30.642  1.00  0.00     0.031 C 
ATOM     56  C   UNL A   1      46.269  31.933  27.971  1.00  0.00     0.029 A 
ATOM     57  C   UNL A   1      45.005  31.602  28.431  1.00  0.00     0.049 A 
ATOM     58  H   UNL A   1      44.009  29.743  28.367  1.00  0.00     0.167 HD
ATOM     59  C   UNL A   1      42.830  32.030  29.532  1.00  0.00     0.074 A 
ATOM     60  C   UNL A   1      41.904  32.867  30.264  1.00  0.00     0.031 C 
ATOM     61  C   UNL A   1      44.047  32.443  29.098  1.00  0.00     0.034 A 
BRANCH  48  62
ATOM     62  C   UNL A   1      47.444  27.975  26.552  1.00  0.00     0.023 A 
ATOM     63  C   UNL A   1      48.502  27.615  27.410  1.00  0.00     0.012 A 
ATOM     64  C   UNL A   1      47.609  27.860  25.158  1.00  0.00     0.148 A 
ATOM     65  C   UNL A   1      49.711  27.158  26.888  1.00  0.00     0.002 A 
ATOM     66  C   UNL A   1      48.803  27.366  24.647  1.00  0.00     0.091 A 
ATOM     67  F   UNL A   1      46.594  28.227  24.363  1.00  0.00    -0.205 F 
ATOM     68  C   UNL A   1      49.857  27.021  25.509  1.00  0.00     0.022 A 
BRANCH  66  69
ATOM     69  S   UNL A   1      49.062  27.080  22.892  1.00  0.00     0.127 S 
ATOM     70  O   UNL A   1      48.285  25.861  22.673  1.00  0.00    -0.237 OA
ATOM     71  O   UNL A   1      48.485  28.287  22.297  1.00  0.00    -0.237 OA
ATOM     72  O   UNL A   1      50.500  26.941  22.714  1.00  0.00    -0.744 OA
ENDBRANCH  66  69
ENDBRANCH  48  62
BRANCH  49  73
ATOM     73  C   UNL A   1      38.701  30.184  30.826  1.00  0.00     0.023 A 
ATOM     74  C   UNL A   1      38.483  29.726  32.140  1.00  0.00     0.012 A 
ATOM     75  C   UNL A   1      37.698  30.941  30.191  1.00  0.00     0.148 A 
ATOM     76  C   UNL A   1      37.276  29.980  32.793  1.00  0.00     0.002 A 
ATOM     77  C   UNL A   1      36.520  31.239  30.868  1.00  0.00     0.091 A 
ATOM     78  F   UNL A   1      37.909  31.349  28.931  1.00  0.00    -0.205 F 
ATOM     79  C   UNL A   1      36.299  30.743  32.161  1.00  0.00     0.022 A 
BRANCH  77  80
ATOM     80  S   UNL A   1      35.273  32.327  30.168  1.00  0.00     0.127 S 
ATOM     81  O   UNL A   1      34.337  32.466  31.280  1.00  0.00    -0.237 OA
ATOM     82  O   UNL A   1      36.051  33.530  29.863  1.00  0.00    -0.237 OA
ATOM     83  O   UNL A   1      34.774  31.631  28.990  1.00  0.00    -0.744 OA
ENDBRANCH  77  80
ENDBRANCH  49  73
BRANCH  61  84
ATOM     84  C   UNL A   1      44.439  33.875  29.356  1.00  0.00     0.023 A 
ATOM     85  C   UNL A   1      45.176  34.201  30.512  1.00  0.00     0.012 A 
ATOM     86  C   UNL A   1      44.151  34.881  28.412  1.00  0.00     0.148 A 
ATOM     87  C   UNL A   1      45.593  35.512  30.739  1.00  0.00     0.002 A 
ATOM     88  C   UNL A   1      44.612  36.175  28.622  1.00  0.00     0.091 A 
ATOM     89  F   UNL A   1      43.434  34.554  27.328  1.00  0.00    -0.205 F 
ATOM     90  C   UNL A   1      45.323  36.495  29.790  1.00  0.00     0.022 A 
BRANCH  88  91
ATOM     91  S   UNL A   1      44.394  37.480  27.406  1.00  0.00     0.127 S 
ATOM     92  O   UNL A   1      45.512  37.232  26.498  1.00  0.00    -0.237 OA
ATOM     93  O   UNL A   1      43.075  37.173  26.850  1.00  0.00    -0.237 OA
ATOM     94  O   UNL A   1      44.455  38.731  28.151  1.00  0.00    -0.744 OA
ENDBRANCH  88  91
ENDBRANCH  61  84
ENDBRANCH  35  36
ENDBRANCH  28  30
ENDBRANCH  27  28
ENDBRANCH  26  27
ENDBRANCH  25  26
ENDBRANCH  24  25
ENDBRANCH   1  24
TORSDOF 21
ENDMDL
