MODEL 1
REMARK VINA RESULT:     -11.0      0.000      0.000
REMARK SMILES CC(=O)N1[C@@H](c2c(F)cccc2Cl)SC[C@H]1C(=O)OCCOCCOC(=O)c1ccc(-c2c3nc(c(-c4cccc(S(=O)(=O)[O-])c4F)c4ccc([nH]4)c(-c4cccc(S(=O)(=O)[O-])c4F)c4nc(c(-c5cccc(S(=O)(=O)[O-])c5F)c5ccc2[nH]5)C=C4)C=C3)cc1
REMARK SMILES IDX 23 1 22 2 21 3 20 4 19 5 17 6 18 7 16 8 4 9 5 10 14 11 15 12
REMARK SMILES IDX 2 13 1 14 3 15 6 16 7 17 12 18 8 19 9 20 11 21 13 22 10 23
REMARK SMILES IDX 24 24 25 25 26 26 27 27 28 28 29 29 90 30 30 31 89 32 31 33
REMARK SMILES IDX 32 34 33 35 83 36 34 37 88 38 82 39 84 40 35 41 87 42 81 43
REMARK SMILES IDX 80 44 36 46 68 47 48 48 67 49 49 50 52 51 66 52 85 53 50 54
REMARK SMILES IDX 51 55 65 57 86 58 53 59 37 60 38 61 46 62 39 63 41 64 47 65
REMARK SMILES IDX 40 66 42 67 43 68 44 69 45 70 69 71 70 72 78 73 71 74 73 75
REMARK SMILES IDX 79 76 72 77 74 78 75 79 76 80 77 81 54 82 55 83 63 84 56 85
REMARK SMILES IDX 58 86 64 87 57 88 59 89 60 90 61 91 62 92
REMARK H PARENT 84 45 52 56
REMARK Flexibility Score: inf
ROOT
ATOM      1  C   UNL A   1      31.299  29.909  25.303  1.00  0.00     0.202 C 
ENDROOT
BRANCH   1   2
ATOM      2  O   UNL A   1      32.044  28.740  25.636  1.00  0.00    -0.374 OA
BRANCH   2   3
ATOM      3  C   UNL A   1      31.442  27.826  26.556  1.00  0.00     0.202 C 
BRANCH   3   4
ATOM      4  C   UNL A   1      31.548  26.342  26.200  1.00  0.00     0.261 C 
BRANCH   4   5
ATOM      5  O   UNL A   1      32.924  25.944  26.054  1.00  0.00    -0.462 OA
BRANCH   5   6
ATOM      6  C   UNL A   1      33.143  24.602  26.054  1.00  0.00     0.329 C 
ATOM      7  O   UNL A   1      33.917  24.026  26.816  1.00  0.00    -0.250 OA
BRANCH   6   8
ATOM      8  C   UNL A   1      32.284  23.840  25.033  1.00  0.00     0.206 C 
ATOM      9  N   UNL A   1      32.857  23.403  23.747  1.00  0.00    -0.312 N 
ATOM     10  C   UNL A   1      33.328  22.018  23.745  1.00  0.00     0.179 C 
ATOM     11  S   UNL A   1      32.119  21.143  24.794  1.00  0.00    -0.129 SA
ATOM     12  C   UNL A   1      31.604  22.638  25.695  1.00  0.00     0.109 C 
BRANCH   9  13
ATOM     13  C   UNL A   1      32.593  24.178  22.632  1.00  0.00     0.221 C 
ATOM     14  C   UNL A   1      31.518  25.229  22.711  1.00  0.00     0.114 C 
ATOM     15  O   UNL A   1      33.276  24.100  21.607  1.00  0.00    -0.275 OA
ENDBRANCH   9  13
BRANCH  10  16
ATOM     16  C   UNL A   1      34.777  21.828  24.165  1.00  0.00     0.039 A 
ATOM     17  C   UNL A   1      35.707  22.885  24.142  1.00  0.00     0.130 A 
ATOM     18  C   UNL A   1      35.273  20.591  24.626  1.00  0.00     0.050 A 
ATOM     19  F   UNL A   1      35.340  24.114  23.756  1.00  0.00    -0.207 F 
ATOM     20  C   UNL A   1      37.043  22.734  24.515  1.00  0.00     0.040 A 
ATOM     21  C   UNL A   1      36.612  20.437  25.015  1.00  0.00     0.021 A 
ATOM     22  Cl  UNL A   1      34.292  19.181  24.809  1.00  0.00    -0.084 Cl
ATOM     23  C   UNL A   1      37.497  21.504  24.956  1.00  0.00     0.005 A 
ENDBRANCH  10  16
ENDBRANCH   6   8
ENDBRANCH   5   6
ENDBRANCH   4   5
ENDBRANCH   3   4
ENDBRANCH   2   3
ENDBRANCH   1   2
BRANCH   1  24
ATOM     24  C   UNL A   1      31.681  31.212  26.022  1.00  0.00     0.261 C 
BRANCH  24  25
ATOM     25  O   UNL A   1      32.472  31.029  27.207  1.00  0.00    -0.460 OA
BRANCH  25  26
ATOM     26  C   UNL A   1      33.347  32.035  27.456  1.00  0.00     0.338 C 
ATOM     27  O   UNL A   1      33.115  33.241  27.427  1.00  0.00    -0.246 OA
BRANCH  26  28
ATOM     28  C   UNL A   1      34.642  31.500  27.903  1.00  0.00     0.060 A 
ATOM     29  C   UNL A   1      34.738  30.125  28.152  1.00  0.00     0.016 A 
ATOM     30  C   UNL A   1      35.719  32.344  28.178  1.00  0.00     0.016 A 
ATOM     31  C   UNL A   1      35.899  29.592  28.714  1.00  0.00     0.010 A 
ATOM     32  C   UNL A   1      36.882  31.806  28.739  1.00  0.00     0.010 A 
ATOM     33  C   UNL A   1      36.971  30.433  29.040  1.00  0.00    -0.014 A 
BRANCH  33  34
ATOM     34  C   UNL A   1      38.135  29.914  29.806  1.00  0.00     0.031 A 
ATOM     35  C   UNL A   1      38.396  30.443  31.191  1.00  0.00     0.074 A 
ATOM     36  C   UNL A   1      38.975  29.009  29.268  1.00  0.00     0.049 A 
ATOM     37  N   UNL A   1      39.373  30.160  32.014  1.00  0.00    -0.248 NA
ATOM     38  C   UNL A   1      37.429  31.419  31.721  1.00  0.00     0.031 C 
ATOM     39  C   UNL A   1      38.831  28.399  27.948  1.00  0.00     0.029 A 
ATOM     40  N   UNL A   1      40.142  28.474  29.755  1.00  0.00    -0.354 N 
ATOM     41  C   UNL A   1      39.151  30.935  33.146  1.00  0.00     0.074 A 
ATOM     42  C   UNL A   1      37.967  31.728  32.891  1.00  0.00     0.031 C 
ATOM     43  C   UNL A   1      39.903  27.628  27.700  1.00  0.00     0.029 A 
ATOM     44  C   UNL A   1      40.801  27.676  28.850  1.00  0.00     0.049 A 
ATOM     45  H   UNL A   1      40.475  28.644  30.666  1.00  0.00     0.167 HD
ATOM     46  C   UNL A   1      39.844  30.960  34.309  1.00  0.00     0.034 A 
ATOM     47  C   UNL A   1      41.994  27.053  28.935  1.00  0.00     0.034 A 
ATOM     48  C   UNL A   1      40.996  30.144  34.579  1.00  0.00     0.049 A 
ATOM     49  C   UNL A   1      42.766  27.117  30.227  1.00  0.00     0.074 A 
ATOM     50  C   UNL A   1      41.717  30.034  35.755  1.00  0.00     0.029 A 
ATOM     51  N   UNL A   1      41.606  29.309  33.657  1.00  0.00    -0.354 N 
ATOM     52  N   UNL A   1      42.455  27.734  31.342  1.00  0.00    -0.248 NA
ATOM     53  C   UNL A   1      44.023  26.356  30.292  1.00  0.00     0.031 C 
ATOM     54  C   UNL A   1      42.779  29.152  35.535  1.00  0.00     0.029 A 
ATOM     55  C   UNL A   1      42.705  28.693  34.229  1.00  0.00     0.049 A 
ATOM     56  H   UNL A   1      41.302  29.174  32.730  1.00  0.00     0.167 HD
ATOM     57  C   UNL A   1      43.447  27.392  32.256  1.00  0.00     0.074 A 
ATOM     58  C   UNL A   1      44.366  26.511  31.564  1.00  0.00     0.031 C 
ATOM     59  C   UNL A   1      43.584  27.776  33.550  1.00  0.00     0.034 A 
BRANCH  46  60
ATOM     60  C   UNL A   1      39.342  31.873  35.397  1.00  0.00     0.023 A 
ATOM     61  C   UNL A   1      38.346  31.417  36.286  1.00  0.00     0.012 A 
ATOM     62  C   UNL A   1      39.880  33.164  35.565  1.00  0.00     0.148 A 
ATOM     63  C   UNL A   1      37.865  32.244  37.299  1.00  0.00     0.002 A 
ATOM     64  C   UNL A   1      39.426  33.967  36.606  1.00  0.00     0.091 A 
ATOM     65  F   UNL A   1      40.807  33.588  34.697  1.00  0.00    -0.205 F 
ATOM     66  C   UNL A   1      38.411  33.514  37.464  1.00  0.00     0.022 A 
BRANCH  64  67
ATOM     67  S   UNL A   1      40.119  35.589  36.944  1.00  0.00     0.127 S 
ATOM     68  O   UNL A   1      39.567  35.875  38.268  1.00  0.00    -0.237 OA
ATOM     69  O   UNL A   1      41.557  35.319  36.928  1.00  0.00    -0.237 OA
ATOM     70  O   UNL A   1      39.654  36.454  35.870  1.00  0.00    -0.744 OA
ENDBRANCH  64  67
ENDBRANCH  46  60
BRANCH  47  71
ATOM     71  C   UNL A   1      42.494  26.246  27.787  1.00  0.00     0.023 A 
ATOM     72  C   UNL A   1      43.435  26.809  26.904  1.00  0.00     0.012 A 
ATOM     73  C   UNL A   1      42.066  24.919  27.584  1.00  0.00     0.148 A 
ATOM     74  C   UNL A   1      43.921  26.076  25.821  1.00  0.00     0.002 A 
ATOM     75  C   UNL A   1      42.590  24.178  26.531  1.00  0.00     0.091 A 
ATOM     76  F   UNL A   1      41.164  24.407  28.432  1.00  0.00    -0.205 F 
ATOM     77  C   UNL A   1      43.507  24.759  25.639  1.00  0.00     0.022 A 
BRANCH  75  78
ATOM     78  S   UNL A   1      42.206  22.440  26.286  1.00  0.00     0.127 S 
ATOM     79  O   UNL A   1      42.694  21.849  27.528  1.00  0.00    -0.237 OA
ATOM     80  O   UNL A   1      40.750  22.473  26.146  1.00  0.00    -0.237 OA
ATOM     81  O   UNL A   1      42.918  22.048  25.077  1.00  0.00    -0.744 OA
ENDBRANCH  75  78
ENDBRANCH  47  71
BRANCH  59  82
ATOM     82  C   UNL A   1      44.748  27.220  34.328  1.00  0.00     0.023 A 
ATOM     83  C   UNL A   1      45.959  27.937  34.385  1.00  0.00     0.012 A 
ATOM     84  C   UNL A   1      44.613  26.028  35.068  1.00  0.00     0.148 A 
ATOM     85  C   UNL A   1      47.028  27.462  35.144  1.00  0.00     0.002 A 
ATOM     86  C   UNL A   1      45.666  25.586  35.861  1.00  0.00     0.091 A 
ATOM     87  F   UNL A   1      43.460  25.350  34.985  1.00  0.00    -0.205 F 
ATOM     88  C   UNL A   1      46.877  26.295  35.891  1.00  0.00     0.022 A 
BRANCH  86  89
ATOM     89  S   UNL A   1      45.527  24.150  36.931  1.00  0.00     0.127 S 
ATOM     90  O   UNL A   1      44.386  24.513  37.771  1.00  0.00    -0.237 OA
ATOM     91  O   UNL A   1      45.263  23.074  35.976  1.00  0.00    -0.237 OA
ATOM     92  O   UNL A   1      46.804  24.043  37.624  1.00  0.00    -0.744 OA
ENDBRANCH  86  89
ENDBRANCH  59  82
ENDBRANCH  33  34
ENDBRANCH  26  28
ENDBRANCH  25  26
ENDBRANCH  24  25
ENDBRANCH   1  24
TORSDOF 19
ENDMDL
MODEL 2
REMARK VINA RESULT:     -11.0      2.017      3.095
REMARK SMILES CC(=O)N1[C@@H](c2c(F)cccc2Cl)SC[C@H]1C(=O)OCCOCCOC(=O)c1ccc(-c2c3nc(c(-c4cccc(S(=O)(=O)[O-])c4F)c4ccc([nH]4)c(-c4cccc(S(=O)(=O)[O-])c4F)c4nc(c(-c5cccc(S(=O)(=O)[O-])c5F)c5ccc2[nH]5)C=C4)C=C3)cc1
REMARK SMILES IDX 23 1 22 2 21 3 20 4 19 5 17 6 18 7 16 8 4 9 5 10 14 11 15 12
REMARK SMILES IDX 2 13 1 14 3 15 6 16 7 17 12 18 8 19 9 20 11 21 13 22 10 23
REMARK SMILES IDX 24 24 25 25 26 26 27 27 28 28 29 29 90 30 30 31 89 32 31 33
REMARK SMILES IDX 32 34 33 35 83 36 34 37 88 38 82 39 84 40 35 41 87 42 81 43
REMARK SMILES IDX 80 44 36 46 68 47 48 48 67 49 49 50 52 51 66 52 85 53 50 54
REMARK SMILES IDX 51 55 65 57 86 58 53 59 37 60 38 61 46 62 39 63 41 64 47 65
REMARK SMILES IDX 40 66 42 67 43 68 44 69 45 70 69 71 70 72 78 73 71 74 73 75
REMARK SMILES IDX 79 76 72 77 74 78 75 79 76 80 77 81 54 82 55 83 63 84 56 85
REMARK SMILES IDX 58 86 64 87 57 88 59 89 60 90 61 91 62 92
REMARK H PARENT 84 45 52 56
REMARK Flexibility Score: inf
ROOT
ATOM      1  C   UNL A   1      31.848  31.204  26.434  1.00  0.00     0.202 C 
ENDROOT
BRANCH   1   2
ATOM      2  O   UNL A   1      32.324  30.277  27.407  1.00  0.00    -0.374 OA
BRANCH   2   3
ATOM      3  C   UNL A   1      31.572  29.072  27.579  1.00  0.00     0.202 C 
BRANCH   3   4
ATOM      4  C   UNL A   1      31.644  28.062  26.433  1.00  0.00     0.261 C 
BRANCH   4   5
ATOM      5  O   UNL A   1      32.731  27.138  26.627  1.00  0.00    -0.462 OA
BRANCH   5   6
ATOM      6  C   UNL A   1      33.357  26.730  25.491  1.00  0.00     0.329 C 
ATOM      7  O   UNL A   1      34.291  27.328  24.961  1.00  0.00    -0.250 OA
BRANCH   6   8
ATOM      8  C   UNL A   1      32.821  25.400  24.940  1.00  0.00     0.206 C 
ATOM      9  N   UNL A   1      31.373  25.197  24.747  1.00  0.00    -0.312 N 
ATOM     10  C   UNL A   1      30.912  25.457  23.383  1.00  0.00     0.179 C 
ATOM     11  S   UNL A   1      32.281  24.862  22.335  1.00  0.00    -0.129 SA
ATOM     12  C   UNL A   1      33.540  25.029  23.639  1.00  0.00     0.109 C 
BRANCH   9  13
ATOM     13  C   UNL A   1      30.692  24.486  25.718  1.00  0.00     0.221 C 
ATOM     14  C   UNL A   1      30.778  22.983  25.719  1.00  0.00     0.114 C 
ATOM     15  O   UNL A   1      30.095  25.050  26.640  1.00  0.00    -0.275 OA
ENDBRANCH   9  13
BRANCH  10  16
ATOM     16  C   UNL A   1      30.489  26.892  23.107  1.00  0.00     0.039 A 
ATOM     17  C   UNL A   1      31.363  27.830  22.523  1.00  0.00     0.130 A 
ATOM     18  C   UNL A   1      29.193  27.366  23.396  1.00  0.00     0.050 A 
ATOM     19  F   UNL A   1      32.608  27.483  22.174  1.00  0.00    -0.207 F 
ATOM     20  C   UNL A   1      31.002  29.153  22.267  1.00  0.00     0.040 A 
ATOM     21  C   UNL A   1      28.821  28.691  23.129  1.00  0.00     0.021 A 
ATOM     22  Cl  UNL A   1      27.938  26.370  24.043  1.00  0.00    -0.084 Cl
ATOM     23  C   UNL A   1      29.723  29.585  22.570  1.00  0.00     0.005 A 
ENDBRANCH  10  16
ENDBRANCH   6   8
ENDBRANCH   5   6
ENDBRANCH   4   5
ENDBRANCH   3   4
ENDBRANCH   2   3
ENDBRANCH   1   2
BRANCH   1  24
ATOM     24  C   UNL A   1      31.939  32.697  26.787  1.00  0.00     0.261 C 
BRANCH  24  25
ATOM     25  O   UNL A   1      32.615  32.978  28.022  1.00  0.00    -0.460 OA
BRANCH  25  26
ATOM     26  C   UNL A   1      33.749  33.709  27.884  1.00  0.00     0.338 C 
ATOM     27  O   UNL A   1      33.832  34.896  27.582  1.00  0.00    -0.246 OA
BRANCH  26  28
ATOM     28  C   UNL A   1      34.928  32.918  28.270  1.00  0.00     0.060 A 
ATOM     29  C   UNL A   1      34.718  31.656  28.841  1.00  0.00     0.016 A 
ATOM     30  C   UNL A   1      36.217  33.444  28.173  1.00  0.00     0.016 A 
ATOM     31  C   UNL A   1      35.795  30.930  29.354  1.00  0.00     0.010 A 
ATOM     32  C   UNL A   1      37.293  32.712  28.685  1.00  0.00     0.010 A 
ATOM     33  C   UNL A   1      37.088  31.465  29.308  1.00  0.00    -0.014 A 
BRANCH  33  34
ATOM     34  C   UNL A   1      38.212  30.793  30.012  1.00  0.00     0.031 A 
ATOM     35  C   UNL A   1      38.563  31.223  31.411  1.00  0.00     0.074 A 
ATOM     36  C   UNL A   1      38.939  29.834  29.406  1.00  0.00     0.049 A 
ATOM     37  N   UNL A   1      39.526  30.802  32.189  1.00  0.00    -0.248 NA
ATOM     38  C   UNL A   1      37.716  32.266  32.015  1.00  0.00     0.031 C 
ATOM     39  C   UNL A   1      38.698  29.308  28.065  1.00  0.00     0.029 A 
ATOM     40  N   UNL A   1      40.056  29.159  29.832  1.00  0.00    -0.354 N 
ATOM     41  C   UNL A   1      39.415  31.538  33.362  1.00  0.00     0.074 A 
ATOM     42  C   UNL A   1      38.315  32.460  33.181  1.00  0.00     0.031 C 
ATOM     43  C   UNL A   1      39.677  28.444  27.748  1.00  0.00     0.029 A 
ATOM     44  C   UNL A   1      40.605  28.343  28.870  1.00  0.00     0.049 A 
ATOM     45  H   UNL A   1      40.429  29.249  30.738  1.00  0.00     0.167 HD
ATOM     46  C   UNL A   1      40.138  31.434  34.503  1.00  0.00     0.034 A 
ATOM     47  C   UNL A   1      41.729  27.598  28.890  1.00  0.00     0.034 A 
ATOM     48  C   UNL A   1      41.205  30.493  34.699  1.00  0.00     0.049 A 
ATOM     49  C   UNL A   1      42.537  27.519  30.158  1.00  0.00     0.074 A 
ATOM     50  C   UNL A   1      41.941  30.251  35.846  1.00  0.00     0.029 A 
ATOM     51  N   UNL A   1      41.701  29.646  33.720  1.00  0.00    -0.354 N 
ATOM     52  N   UNL A   1      42.321  28.108  31.310  1.00  0.00    -0.248 NA
ATOM     53  C   UNL A   1      43.709  26.631  30.149  1.00  0.00     0.031 C 
ATOM     54  C   UNL A   1      42.901  29.277  35.552  1.00  0.00     0.029 A 
ATOM     55  C   UNL A   1      42.745  28.893  34.229  1.00  0.00     0.049 A 
ATOM     56  H   UNL A   1      41.360  29.588  32.799  1.00  0.00     0.167 HD
ATOM     57  C   UNL A   1      43.296  27.622  32.175  1.00  0.00     0.074 A 
ATOM     58  C   UNL A   1      44.100  26.687  31.415  1.00  0.00     0.031 C 
ATOM     59  C   UNL A   1      43.506  27.926  33.481  1.00  0.00     0.034 A 
BRANCH  46  60
ATOM     60  C   UNL A   1      39.762  32.339  35.647  1.00  0.00     0.023 A 
ATOM     61  C   UNL A   1      38.964  31.841  36.697  1.00  0.00     0.012 A 
ATOM     62  C   UNL A   1      40.228  33.668  35.704  1.00  0.00     0.148 A 
ATOM     63  C   UNL A   1      38.602  32.659  37.766  1.00  0.00     0.002 A 
ATOM     64  C   UNL A   1      39.899  34.465  36.795  1.00  0.00     0.091 A 
ATOM     65  F   UNL A   1      40.965  34.131  34.686  1.00  0.00    -0.205 F 
ATOM     66  C   UNL A   1      39.077  33.967  37.819  1.00  0.00     0.022 A 
BRANCH  64  67
ATOM     67  S   UNL A   1      40.524  36.137  36.990  1.00  0.00     0.127 S 
ATOM     68  O   UNL A   1      41.966  35.929  36.873  1.00  0.00    -0.237 OA
ATOM     69  O   UNL A   1      39.913  36.829  35.854  1.00  0.00    -0.237 OA
ATOM     70  O   UNL A   1      40.058  36.588  38.293  1.00  0.00    -0.744 OA
ENDBRANCH  64  67
ENDBRANCH  46  60
BRANCH  47  71
ATOM     71  C   UNL A   1      42.112  26.802  27.690  1.00  0.00     0.023 A 
ATOM     72  C   UNL A   1      42.838  27.419  26.653  1.00  0.00     0.012 A 
ATOM     73  C   UNL A   1      41.789  25.435  27.586  1.00  0.00     0.148 A 
ATOM     74  C   UNL A   1      43.211  26.697  25.519  1.00  0.00     0.002 A 
ATOM     75  C   UNL A   1      42.204  24.710  26.475  1.00  0.00     0.091 A 
ATOM     76  F   UNL A   1      41.091  24.870  28.581  1.00  0.00    -0.205 F 
ATOM     77  C   UNL A   1      42.903  25.342  25.433  1.00  0.00     0.022 A 
BRANCH  75  78
ATOM     78  S   UNL A   1      41.957  22.936  26.329  1.00  0.00     0.127 S 
ATOM     79  O   UNL A   1      42.654  22.439  27.512  1.00  0.00    -0.237 OA
ATOM     80  O   UNL A   1      40.499  22.832  26.382  1.00  0.00    -0.237 OA
ATOM     81  O   UNL A   1      42.541  22.562  25.048  1.00  0.00    -0.744 OA
ENDBRANCH  75  78
ENDBRANCH  47  71
BRANCH  59  82
ATOM     82  C   UNL A   1      44.625  27.216  34.195  1.00  0.00     0.023 A 
ATOM     83  C   UNL A   1      45.926  27.757  34.173  1.00  0.00     0.012 A 
ATOM     84  C   UNL A   1      44.371  26.057  34.956  1.00  0.00     0.148 A 
ATOM     85  C   UNL A   1      46.962  27.140  34.873  1.00  0.00     0.002 A 
ATOM     86  C   UNL A   1      45.398  25.475  35.691  1.00  0.00     0.091 A 
ATOM     87  F   UNL A   1      43.132  25.546  34.949  1.00  0.00    -0.205 F 
ATOM     88  C   UNL A   1      46.696  26.009  35.641  1.00  0.00     0.022 A 
BRANCH  86  89
ATOM     89  S   UNL A   1      45.125  24.077  36.785  1.00  0.00     0.127 S 
ATOM     90  O   UNL A   1      44.306  24.676  37.837  1.00  0.00    -0.237 OA
ATOM     91  O   UNL A   1      44.413  23.138  35.918  1.00  0.00    -0.237 OA
ATOM     92  O   UNL A   1      46.448  23.630  37.200  1.00  0.00    -0.744 OA
ENDBRANCH  86  89
ENDBRANCH  59  82
ENDBRANCH  33  34
ENDBRANCH  26  28
ENDBRANCH  25  26
ENDBRANCH  24  25
ENDBRANCH   1  24
TORSDOF 19
ENDMDL
MODEL 3
REMARK VINA RESULT:     -10.9      4.991      7.731
REMARK SMILES CC(=O)N1[C@@H](c2c(F)cccc2Cl)SC[C@H]1C(=O)OCCOCCOC(=O)c1ccc(-c2c3nc(c(-c4cccc(S(=O)(=O)[O-])c4F)c4ccc([nH]4)c(-c4cccc(S(=O)(=O)[O-])c4F)c4nc(c(-c5cccc(S(=O)(=O)[O-])c5F)c5ccc2[nH]5)C=C4)C=C3)cc1
REMARK SMILES IDX 23 1 22 2 21 3 20 4 19 5 17 6 18 7 16 8 4 9 5 10 14 11 15 12
REMARK SMILES IDX 2 13 1 14 3 15 6 16 7 17 12 18 8 19 9 20 11 21 13 22 10 23
REMARK SMILES IDX 24 24 25 25 26 26 27 27 28 28 29 29 90 30 30 31 89 32 31 33
REMARK SMILES IDX 32 34 33 35 83 36 34 37 88 38 82 39 84 40 35 41 87 42 81 43
REMARK SMILES IDX 80 44 36 46 68 47 48 48 67 49 49 50 52 51 66 52 85 53 50 54
REMARK SMILES IDX 51 55 65 57 86 58 53 59 37 60 38 61 46 62 39 63 41 64 47 65
REMARK SMILES IDX 40 66 42 67 43 68 44 69 45 70 69 71 70 72 78 73 71 74 73 75
REMARK SMILES IDX 79 76 72 77 74 78 75 79 76 80 77 81 54 82 55 83 63 84 56 85
REMARK SMILES IDX 58 86 64 87 57 88 59 89 60 90 61 91 62 92
REMARK H PARENT 84 45 52 56
REMARK Flexibility Score: inf
ROOT
ATOM      1  C   UNL A   1      35.321  20.226  25.103  1.00  0.00     0.202 C 
ENDROOT
BRANCH   1   2
ATOM      2  O   UNL A   1      34.446  20.291  23.979  1.00  0.00    -0.374 OA
BRANCH   2   3
ATOM      3  C   UNL A   1      33.062  20.530  24.247  1.00  0.00     0.202 C 
BRANCH   3   4
ATOM      4  C   UNL A   1      32.445  21.754  23.567  1.00  0.00     0.261 C 
BRANCH   4   5
ATOM      5  O   UNL A   1      33.406  22.819  23.450  1.00  0.00    -0.462 OA
BRANCH   5   6
ATOM      6  C   UNL A   1      33.229  23.647  22.386  1.00  0.00     0.329 C 
ATOM      7  O   UNL A   1      33.509  23.355  21.226  1.00  0.00    -0.250 OA
BRANCH   6   8
ATOM      8  C   UNL A   1      32.585  24.992  22.758  1.00  0.00     0.206 C 
ATOM      9  N   UNL A   1      31.672  25.093  23.911  1.00  0.00    -0.312 N 
ATOM     10  C   UNL A   1      32.318  25.547  25.143  1.00  0.00     0.179 C 
ATOM     11  S   UNL A   1      33.548  26.767  24.571  1.00  0.00    -0.129 SA
ATOM     12  C   UNL A   1      33.654  26.081  22.888  1.00  0.00     0.109 C 
BRANCH   9  13
ATOM     13  C   UNL A   1      30.313  25.090  23.655  1.00  0.00     0.221 C 
ATOM     14  C   UNL A   1      29.517  26.339  23.923  1.00  0.00     0.114 C 
ATOM     15  O   UNL A   1      29.752  24.128  23.124  1.00  0.00    -0.275 OA
ENDBRANCH   9  13
BRANCH  10  16
ATOM     16  C   UNL A   1      32.891  24.442  26.017  1.00  0.00     0.039 A 
ATOM     17  C   UNL A   1      34.277  24.216  26.124  1.00  0.00     0.130 A 
ATOM     18  C   UNL A   1      32.075  23.592  26.791  1.00  0.00     0.050 A 
ATOM     19  F   UNL A   1      35.151  24.985  25.463  1.00  0.00    -0.207 F 
ATOM     20  C   UNL A   1      34.827  23.205  26.913  1.00  0.00     0.040 A 
ATOM     21  C   UNL A   1      32.623  22.582  27.595  1.00  0.00     0.021 A 
ATOM     22  Cl  UNL A   1      30.355  23.738  26.871  1.00  0.00    -0.084 Cl
ATOM     23  C   UNL A   1      33.995  22.385  27.653  1.00  0.00     0.005 A 
ENDBRANCH  10  16
ENDBRANCH   6   8
ENDBRANCH   5   6
ENDBRANCH   4   5
ENDBRANCH   3   4
ENDBRANCH   2   3
ENDBRANCH   1   2
BRANCH   1  24
ATOM     24  C   UNL A   1      36.760  20.725  24.899  1.00  0.00     0.261 C 
BRANCH  24  25
ATOM     25  O   UNL A   1      37.432  21.120  26.106  1.00  0.00    -0.460 OA
BRANCH  25  26
ATOM     26  C   UNL A   1      38.784  21.133  26.014  1.00  0.00     0.338 C 
ATOM     27  O   UNL A   1      39.496  20.303  25.456  1.00  0.00    -0.246 OA
BRANCH  26  28
ATOM     28  C   UNL A   1      39.332  22.375  26.583  1.00  0.00     0.060 A 
ATOM     29  C   UNL A   1      38.778  23.592  26.165  1.00  0.00     0.016 A 
ATOM     30  C   UNL A   1      40.440  22.357  27.430  1.00  0.00     0.016 A 
ATOM     31  C   UNL A   1      39.355  24.800  26.564  1.00  0.00     0.010 A 
ATOM     32  C   UNL A   1      41.014  23.569  27.829  1.00  0.00     0.010 A 
ATOM     33  C   UNL A   1      40.497  24.797  27.375  1.00  0.00    -0.014 A 
BRANCH  33  34
ATOM     34  C   UNL A   1      41.231  26.061  27.654  1.00  0.00     0.031 A 
ATOM     35  C   UNL A   1      40.527  27.170  28.388  1.00  0.00     0.074 A 
ATOM     36  C   UNL A   1      42.497  26.238  27.231  1.00  0.00     0.049 A 
ATOM     37  N   UNL A   1      40.963  28.364  28.698  1.00  0.00    -0.248 NA
ATOM     38  C   UNL A   1      39.149  26.901  28.832  1.00  0.00     0.031 C 
ATOM     39  C   UNL A   1      43.303  25.242  26.529  1.00  0.00     0.029 A 
ATOM     40  N   UNL A   1      43.315  27.339  27.300  1.00  0.00    -0.354 N 
ATOM     41  C   UNL A   1      39.912  28.993  29.353  1.00  0.00     0.074 A 
ATOM     42  C   UNL A   1      38.803  28.064  29.364  1.00  0.00     0.031 C 
ATOM     43  C   UNL A   1      44.473  25.798  26.168  1.00  0.00     0.029 A 
ATOM     44  C   UNL A   1      44.505  27.183  26.629  1.00  0.00     0.049 A 
ATOM     45  H   UNL A   1      43.073  28.162  27.783  1.00  0.00     0.167 HD
ATOM     46  C   UNL A   1      39.880  30.219  29.929  1.00  0.00     0.034 A 
ATOM     47  C   UNL A   1      45.510  28.055  26.409  1.00  0.00     0.034 A 
ATOM     48  C   UNL A   1      40.993  31.127  29.954  1.00  0.00     0.049 A 
ATOM     49  C   UNL A   1      45.442  29.425  27.032  1.00  0.00     0.074 A 
ATOM     50  C   UNL A   1      41.088  32.356  30.584  1.00  0.00     0.029 A 
ATOM     51  N   UNL A   1      42.201  30.915  29.308  1.00  0.00    -0.354 N 
ATOM     52  N   UNL A   1      44.500  29.943  27.782  1.00  0.00    -0.248 NA
ATOM     53  C   UNL A   1      46.599  30.309  26.826  1.00  0.00     0.031 C 
ATOM     54  C   UNL A   1      42.345  32.898  30.297  1.00  0.00     0.029 A 
ATOM     55  C   UNL A   1      43.042  31.995  29.508  1.00  0.00     0.049 A 
ATOM     56  H   UNL A   1      42.427  30.112  28.785  1.00  0.00     0.167 HD
ATOM     57  C   UNL A   1      44.972  31.189  28.181  1.00  0.00     0.074 A 
ATOM     58  C   UNL A   1      46.286  31.346  27.592  1.00  0.00     0.031 C 
ATOM     59  C   UNL A   1      44.369  32.120  28.963  1.00  0.00     0.034 A 
BRANCH  46  60
ATOM     60  C   UNL A   1      38.606  30.628  30.620  1.00  0.00     0.023 A 
ATOM     61  C   UNL A   1      38.429  30.334  31.988  1.00  0.00     0.012 A 
ATOM     62  C   UNL A   1      37.601  31.335  29.930  1.00  0.00     0.148 A 
ATOM     63  C   UNL A   1      37.259  30.701  32.649  1.00  0.00     0.002 A 
ATOM     64  C   UNL A   1      36.455  31.736  30.608  1.00  0.00     0.091 A 
ATOM     65  F   UNL A   1      37.776  31.584  28.626  1.00  0.00    -0.205 F 
ATOM     66  C   UNL A   1      36.277  31.409  31.962  1.00  0.00     0.022 A 
BRANCH  64  67
ATOM     67  S   UNL A   1      35.168  32.716  29.828  1.00  0.00     0.127 S 
ATOM     68  O   UNL A   1      34.671  31.793  28.809  1.00  0.00    -0.237 OA
ATOM     69  O   UNL A   1      34.245  32.954  30.938  1.00  0.00    -0.237 OA
ATOM     70  O   UNL A   1      35.828  33.912  29.323  1.00  0.00    -0.744 OA
ENDBRANCH  64  67
ENDBRANCH  46  60
BRANCH  47  71
ATOM     71  C   UNL A   1      46.704  27.630  25.627  1.00  0.00     0.023 A 
ATOM     72  C   UNL A   1      46.724  27.829  24.232  1.00  0.00     0.012 A 
ATOM     73  C   UNL A   1      47.827  27.061  26.257  1.00  0.00     0.148 A 
ATOM     74  C   UNL A   1      47.830  27.442  23.475  1.00  0.00     0.002 A 
ATOM     75  C   UNL A   1      48.945  26.722  25.503  1.00  0.00     0.091 A 
ATOM     76  F   UNL A   1      47.783  26.875  27.584  1.00  0.00    -0.205 F 
ATOM     77  C   UNL A   1      48.943  26.897  24.110  1.00  0.00     0.022 A 
BRANCH  75  78
ATOM     78  S   UNL A   1      50.468  26.124  26.246  1.00  0.00     0.127 S 
ATOM     79  O   UNL A   1      50.029  24.877  26.865  1.00  0.00    -0.237 OA
ATOM     80  O   UNL A   1      51.328  25.962  25.073  1.00  0.00    -0.237 OA
ATOM     81  O   UNL A   1      50.894  27.171  27.164  1.00  0.00    -0.744 OA
ENDBRANCH  75  78
ENDBRANCH  47  71
BRANCH  59  82
ATOM     82  C   UNL A   1      45.132  33.382  29.268  1.00  0.00     0.023 A 
ATOM     83  C   UNL A   1      45.961  33.442  30.405  1.00  0.00     0.012 A 
ATOM     84  C   UNL A   1      45.090  34.478  28.383  1.00  0.00     0.148 A 
ATOM     85  C   UNL A   1      46.715  34.585  30.673  1.00  0.00     0.002 A 
ATOM     86  C   UNL A   1      45.881  35.594  28.630  1.00  0.00     0.091 A 
ATOM     87  F   UNL A   1      44.280  34.410  27.317  1.00  0.00    -0.205 F 
ATOM     88  C   UNL A   1      46.685  35.654  29.779  1.00  0.00     0.022 A 
BRANCH  86  89
ATOM     89  S   UNL A   1      45.981  36.975  27.484  1.00  0.00     0.127 S 
ATOM     90  O   UNL A   1      44.627  37.522  27.558  1.00  0.00    -0.237 OA
ATOM     91  O   UNL A   1      47.011  37.814  28.096  1.00  0.00    -0.237 OA
ATOM     92  O   UNL A   1      46.354  36.401  26.198  1.00  0.00    -0.744 OA
ENDBRANCH  86  89
ENDBRANCH  59  82
ENDBRANCH  33  34
ENDBRANCH  26  28
ENDBRANCH  25  26
ENDBRANCH  24  25
ENDBRANCH   1  24
TORSDOF 19
ENDMDL
