MODEL 1
REMARK VINA RESULT:     -11.9      0.000      0.000
REMARK SMILES O=C(OCCOCCOC(=O)[C@H]1CC[C@H]2CCCC[C@@H]2N1C(=O)c1ccn[nH]1)c1ccc(-c2c3nc(c(-c4cccc(S(=O)(=O)[O-])c4F)c4ccc([nH]4)c(-c4cccc(S(=O)(=O)[O-])c4F)c4nc(c(-c5cccc(S(=O)(=O)[O-])c5F)c5ccc2[nH]5)C=C4)C=C3)cc1
REMARK SMILES IDX 5 1 4 2 3 3 2 4 1 5 29 6 30 7 91 8 31 9 90 10 32 11 33 12
REMARK SMILES IDX 34 13 84 14 35 15 89 16 83 17 85 18 36 19 88 20 82 21 81 22
REMARK SMILES IDX 37 24 69 25 49 26 68 27 50 28 53 29 67 30 86 31 51 32 52 33
REMARK SMILES IDX 66 35 87 36 54 37 38 38 39 39 47 40 40 41 42 42 48 43 41 44
REMARK SMILES IDX 43 45 44 46 45 47 46 48 70 49 71 50 79 51 72 52 74 53 80 54
REMARK SMILES IDX 73 55 75 56 76 57 77 58 78 59 55 60 56 61 64 62 57 63 59 64
REMARK SMILES IDX 65 65 58 66 60 67 61 68 62 69 63 70 6 71 7 72 8 73 9 74
REMARK SMILES IDX 10 75 11 76 12 77 13 78 21 79 14 80 20 81 15 82 19 83 16 84
REMARK SMILES IDX 18 85 17 86 22 87 23 88 24 89 25 90 28 91 26 92 27 93
REMARK H PARENT 85 23 53 34 28 94
REMARK Flexibility Score: inf
ROOT
ATOM      1  C   UNL A   1      35.202  21.677  24.765  1.00  0.00     0.202 C 
ENDROOT
BRANCH   1   2
ATOM      2  C   UNL A   1      36.721  21.793  24.579  1.00  0.00     0.261 C 
BRANCH   2   3
ATOM      3  O   UNL A   1      37.419  21.617  25.821  1.00  0.00    -0.460 OA
BRANCH   3   4
ATOM      4  C   UNL A   1      38.754  21.699  26.045  1.00  0.00     0.338 C 
ATOM      5  O   UNL A   1      39.422  20.676  25.898  1.00  0.00    -0.246 OA
BRANCH   4   6
ATOM      6  C   UNL A   1      39.451  22.942  26.509  1.00  0.00     0.060 A 
ATOM      7  C   UNL A   1      39.155  24.239  26.085  1.00  0.00     0.016 A 
ATOM      8  C   UNL A   1      40.439  22.796  27.499  1.00  0.00     0.016 A 
ATOM      9  C   UNL A   1      39.738  25.352  26.642  1.00  0.00     0.010 A 
ATOM     10  C   UNL A   1      41.094  23.912  28.028  1.00  0.00     0.010 A 
ATOM     11  C   UNL A   1      40.732  25.185  27.587  1.00  0.00    -0.014 A 
BRANCH  11  12
ATOM     12  C   UNL A   1      41.500  26.390  27.881  1.00  0.00     0.031 A 
ATOM     13  C   UNL A   1      40.845  27.408  28.752  1.00  0.00     0.074 A 
ATOM     14  C   UNL A   1      42.798  26.430  27.554  1.00  0.00     0.049 A 
ATOM     15  N   UNL A   1      41.288  28.566  29.142  1.00  0.00    -0.248 NA
ATOM     16  C   UNL A   1      39.515  27.055  29.291  1.00  0.00     0.031 C 
ATOM     17  C   UNL A   1      43.530  25.352  26.882  1.00  0.00     0.029 A 
ATOM     18  N   UNL A   1      43.732  27.406  27.748  1.00  0.00    -0.354 N 
ATOM     19  C   UNL A   1      40.268  29.109  29.910  1.00  0.00     0.074 A 
ATOM     20  C   UNL A   1      39.210  28.133  29.992  1.00  0.00     0.031 C 
ATOM     21  C   UNL A   1      44.795  25.751  26.676  1.00  0.00     0.029 A 
ATOM     22  C   UNL A   1      44.930  27.128  27.139  1.00  0.00     0.049 A 
ATOM     23  H   UNL A   1      43.564  28.223  28.271  1.00  0.00     0.167 HD
ATOM     24  C   UNL A   1      40.222  30.341  30.457  1.00  0.00     0.034 A 
ATOM     25  C   UNL A   1      45.979  27.940  26.923  1.00  0.00     0.034 A 
ATOM     26  C   UNL A   1      41.298  31.277  30.315  1.00  0.00     0.049 A 
ATOM     27  C   UNL A   1      45.879  29.341  27.461  1.00  0.00     0.074 A 
ATOM     28  C   UNL A   1      41.369  32.589  30.734  1.00  0.00     0.029 A 
ATOM     29  N   UNL A   1      42.499  30.984  29.676  1.00  0.00    -0.354 N 
ATOM     30  N   UNL A   1      44.902  29.883  28.156  1.00  0.00    -0.248 NA
ATOM     31  C   UNL A   1      47.005  30.242  27.202  1.00  0.00     0.031 C 
ATOM     32  C   UNL A   1      42.605  33.098  30.318  1.00  0.00     0.029 A 
ATOM     33  C   UNL A   1      43.317  32.092  29.674  1.00  0.00     0.049 A 
ATOM     34  H   UNL A   1      42.729  30.112  29.282  1.00  0.00     0.167 HD
ATOM     35  C   UNL A   1      45.300  31.181  28.435  1.00  0.00     0.074 A 
ATOM     36  C   UNL A   1      46.619  31.338  27.844  1.00  0.00     0.031 C 
ATOM     37  C   UNL A   1      44.644  32.162  29.105  1.00  0.00     0.034 A 
BRANCH  24  38
ATOM     38  C   UNL A   1      38.939  30.731  31.134  1.00  0.00     0.023 A 
ATOM     39  C   UNL A   1      38.687  30.345  32.466  1.00  0.00     0.012 A 
ATOM     40  C   UNL A   1      37.938  31.404  30.408  1.00  0.00     0.148 A 
ATOM     41  C   UNL A   1      37.442  30.586  33.050  1.00  0.00     0.002 A 
ATOM     42  C   UNL A   1      36.713  31.674  31.009  1.00  0.00     0.091 A 
ATOM     43  F   UNL A   1      38.178  31.719  29.128  1.00  0.00    -0.205 F 
ATOM     44  C   UNL A   1      36.458  31.253  32.324  1.00  0.00     0.022 A 
BRANCH  42  45
ATOM     45  S   UNL A   1      35.405  32.564  30.160  1.00  0.00     0.127 S 
ATOM     46  O   UNL A   1      35.036  31.617  29.110  1.00  0.00    -0.237 OA
ATOM     47  O   UNL A   1      34.405  32.723  31.217  1.00  0.00    -0.237 OA
ATOM     48  O   UNL A   1      36.002  33.812  29.705  1.00  0.00    -0.744 OA
ENDBRANCH  42  45
ENDBRANCH  24  38
BRANCH  25  49
ATOM     49  C   UNL A   1      47.140  27.447  26.131  1.00  0.00     0.023 A 
ATOM     50  C   UNL A   1      48.030  26.513  26.688  1.00  0.00     0.012 A 
ATOM     51  C   UNL A   1      47.308  27.836  24.783  1.00  0.00     0.148 A 
ATOM     52  C   UNL A   1      49.069  25.978  25.920  1.00  0.00     0.002 A 
ATOM     53  C   UNL A   1      48.306  27.257  24.010  1.00  0.00     0.091 A 
ATOM     54  F   UNL A   1      46.461  28.742  24.274  1.00  0.00    -0.205 F 
ATOM     55  C   UNL A   1      49.196  26.337  24.580  1.00  0.00     0.022 A 
BRANCH  53  56
ATOM     56  S   UNL A   1      48.452  27.556  22.242  1.00  0.00     0.127 S 
ATOM     57  O   UNL A   1      48.655  26.204  21.727  1.00  0.00    -0.237 OA
ATOM     58  O   UNL A   1      47.151  28.147  21.927  1.00  0.00    -0.237 OA
ATOM     59  O   UNL A   1      49.578  28.467  22.088  1.00  0.00    -0.744 OA
ENDBRANCH  53  56
ENDBRANCH  25  49
BRANCH  37  60
ATOM     60  C   UNL A   1      45.351  33.473  29.269  1.00  0.00     0.023 A 
ATOM     61  C   UNL A   1      46.171  33.688  30.392  1.00  0.00     0.012 A 
ATOM     62  C   UNL A   1      45.322  34.417  28.227  1.00  0.00     0.148 A 
ATOM     63  C   UNL A   1      46.953  34.836  30.476  1.00  0.00     0.002 A 
ATOM     64  C   UNL A   1      46.142  35.533  28.294  1.00  0.00     0.091 A 
ATOM     65  F   UNL A   1      44.516  34.188  27.179  1.00  0.00    -0.205 F 
ATOM     66  C   UNL A   1      46.953  35.748  29.422  1.00  0.00     0.022 A 
BRANCH  64  67
ATOM     67  S   UNL A   1      46.295  36.691  26.933  1.00  0.00     0.127 S 
ATOM     68  O   UNL A   1      44.987  37.345  26.951  1.00  0.00    -0.237 OA
ATOM     69  O   UNL A   1      47.407  37.536  27.368  1.00  0.00    -0.237 OA
ATOM     70  O   UNL A   1      46.572  35.888  25.748  1.00  0.00    -0.744 OA
ENDBRANCH  64  67
ENDBRANCH  37  60
ENDBRANCH  11  12
ENDBRANCH   4   6
ENDBRANCH   3   4
ENDBRANCH   2   3
ENDBRANCH   1   2
BRANCH   1  71
ATOM     71  O   UNL A   1      34.544  22.747  25.435  1.00  0.00    -0.374 OA
BRANCH  71  72
ATOM     72  C   UNL A   1      34.880  24.067  25.000  1.00  0.00     0.202 C 
BRANCH  72  73
ATOM     73  C   UNL A   1      34.375  24.321  23.582  1.00  0.00     0.261 C 
BRANCH  73  74
ATOM     74  O   UNL A   1      33.232  25.192  23.622  1.00  0.00    -0.462 OA
BRANCH  74  75
ATOM     75  C   UNL A   1      32.993  25.931  22.501  1.00  0.00     0.328 C 
ATOM     76  O   UNL A   1      33.634  25.878  21.463  1.00  0.00    -0.250 OA
BRANCH  75  77
ATOM     77  C   UNL A   1      31.648  26.683  22.604  1.00  0.00     0.195 C 
ATOM     78  C   UNL A   1      30.655  25.644  23.187  1.00  0.00     0.037 C 
ATOM     79  N   UNL A   1      31.600  27.868  23.470  1.00  0.00    -0.320 N 
ATOM     80  C   UNL A   1      29.294  26.176  23.617  1.00  0.00     0.008 C 
ATOM     81  C   UNL A   1      30.274  28.490  23.650  1.00  0.00     0.089 C 
ATOM     82  C   UNL A   1      29.125  27.593  23.122  1.00  0.00     0.012 C 
ATOM     83  C   UNL A   1      30.153  29.843  22.927  1.00  0.00     0.025 C 
ATOM     84  C   UNL A   1      27.770  28.183  23.498  1.00  0.00     0.006 C 
ATOM     85  C   UNL A   1      28.787  30.483  23.179  1.00  0.00     0.002 C 
ATOM     86  C   UNL A   1      27.621  29.553  22.844  1.00  0.00     0.000 C 
BRANCH  79  87
ATOM     87  C   UNL A   1      32.759  28.633  23.594  1.00  0.00     0.272 C 
ATOM     88  O   UNL A   1      33.360  29.048  22.604  1.00  0.00    -0.267 OA
BRANCH  87  89
ATOM     89  C   UNL A   1      33.255  28.869  24.926  1.00  0.00     0.123 A 
ATOM     90  C   UNL A   1      34.028  28.131  25.801  1.00  0.00     0.055 A 
ATOM     91  N   UNL A   1      33.081  30.078  25.546  1.00  0.00    -0.273 N 
ATOM     92  C   UNL A   1      34.184  28.948  26.935  1.00  0.00     0.135 A 
ATOM     93  N   UNL A   1      33.578  30.127  26.796  1.00  0.00    -0.183 NA
ATOM     94  H   UNL A   1      32.635  30.843  25.117  1.00  0.00     0.190 HD
ENDBRANCH  87  89
ENDBRANCH  79  87
ENDBRANCH  75  77
ENDBRANCH  74  75
ENDBRANCH  73  74
ENDBRANCH  72  73
ENDBRANCH  71  72
ENDBRANCH   1  71
TORSDOF 19
ENDMDL
MODEL 2
REMARK VINA RESULT:     -11.8      1.485      1.730
REMARK SMILES O=C(OCCOCCOC(=O)[C@H]1CC[C@H]2CCCC[C@@H]2N1C(=O)c1ccn[nH]1)c1ccc(-c2c3nc(c(-c4cccc(S(=O)(=O)[O-])c4F)c4ccc([nH]4)c(-c4cccc(S(=O)(=O)[O-])c4F)c4nc(c(-c5cccc(S(=O)(=O)[O-])c5F)c5ccc2[nH]5)C=C4)C=C3)cc1
REMARK SMILES IDX 5 1 4 2 3 3 2 4 1 5 29 6 30 7 91 8 31 9 90 10 32 11 33 12
REMARK SMILES IDX 34 13 84 14 35 15 89 16 83 17 85 18 36 19 88 20 82 21 81 22
REMARK SMILES IDX 37 24 69 25 49 26 68 27 50 28 53 29 67 30 86 31 51 32 52 33
REMARK SMILES IDX 66 35 87 36 54 37 38 38 39 39 47 40 40 41 42 42 48 43 41 44
REMARK SMILES IDX 43 45 44 46 45 47 46 48 70 49 71 50 79 51 72 52 74 53 80 54
REMARK SMILES IDX 73 55 75 56 76 57 77 58 78 59 55 60 56 61 64 62 57 63 59 64
REMARK SMILES IDX 65 65 58 66 60 67 61 68 62 69 63 70 6 71 7 72 8 73 9 74
REMARK SMILES IDX 10 75 11 76 12 77 13 78 21 79 14 80 20 81 15 82 19 83 16 84
REMARK SMILES IDX 18 85 17 86 22 87 23 88 24 89 25 90 28 91 26 92 27 93
REMARK H PARENT 85 23 53 34 28 94
REMARK Flexibility Score: inf
ROOT
ATOM      1  C   UNL A   1      34.882  22.510  24.874  1.00  0.00     0.202 C 
ENDROOT
BRANCH   1   2
ATOM      2  C   UNL A   1      36.135  21.662  24.613  1.00  0.00     0.261 C 
BRANCH   2   3
ATOM      3  O   UNL A   1      36.922  21.504  25.801  1.00  0.00    -0.460 OA
BRANCH   3   4
ATOM      4  C   UNL A   1      38.271  21.570  25.923  1.00  0.00     0.338 C 
ATOM      5  O   UNL A   1      38.919  20.557  25.664  1.00  0.00    -0.246 OA
BRANCH   4   6
ATOM      6  C   UNL A   1      39.011  22.783  26.401  1.00  0.00     0.060 A 
ATOM      7  C   UNL A   1      38.669  24.104  26.108  1.00  0.00     0.016 A 
ATOM      8  C   UNL A   1      40.100  22.575  27.267  1.00  0.00     0.016 A 
ATOM      9  C   UNL A   1      39.305  25.179  26.681  1.00  0.00     0.010 A 
ATOM     10  C   UNL A   1      40.805  23.655  27.804  1.00  0.00     0.010 A 
ATOM     11  C   UNL A   1      40.396  24.954  27.500  1.00  0.00    -0.014 A 
BRANCH  11  12
ATOM     12  C   UNL A   1      41.188  26.141  27.800  1.00  0.00     0.031 A 
ATOM     13  C   UNL A   1      40.542  27.183  28.650  1.00  0.00     0.074 A 
ATOM     14  C   UNL A   1      42.493  26.146  27.496  1.00  0.00     0.049 A 
ATOM     15  N   UNL A   1      41.008  28.332  29.039  1.00  0.00    -0.248 NA
ATOM     16  C   UNL A   1      39.194  26.868  29.165  1.00  0.00     0.031 C 
ATOM     17  C   UNL A   1      43.209  25.044  26.847  1.00  0.00     0.029 A 
ATOM     18  N   UNL A   1      43.447  27.100  27.701  1.00  0.00    -0.354 N 
ATOM     19  C   UNL A   1      39.987  28.907  29.783  1.00  0.00     0.074 A 
ATOM     20  C   UNL A   1      38.903  27.959  29.852  1.00  0.00     0.031 C 
ATOM     21  C   UNL A   1      44.488  25.410  26.662  1.00  0.00     0.029 A 
ATOM     22  C   UNL A   1      44.649  26.786  27.117  1.00  0.00     0.049 A 
ATOM     23  H   UNL A   1      43.290  27.925  28.214  1.00  0.00     0.167 HD
ATOM     24  C   UNL A   1      39.962  30.144  30.320  1.00  0.00     0.034 A 
ATOM     25  C   UNL A   1      45.722  27.570  26.914  1.00  0.00     0.034 A 
ATOM     26  C   UNL A   1      41.064  31.051  30.191  1.00  0.00     0.049 A 
ATOM     27  C   UNL A   1      45.647  28.977  27.440  1.00  0.00     0.074 A 
ATOM     28  C   UNL A   1      41.161  32.365  30.601  1.00  0.00     0.029 A 
ATOM     29  N   UNL A   1      42.269  30.723  29.577  1.00  0.00    -0.354 N 
ATOM     30  N   UNL A   1      44.672  29.549  28.112  1.00  0.00    -0.248 NA
ATOM     31  C   UNL A   1      46.801  29.847  27.196  1.00  0.00     0.031 C 
ATOM     32  C   UNL A   1      42.416  32.839  30.205  1.00  0.00     0.029 A 
ATOM     33  C   UNL A   1      43.115  31.810  29.582  1.00  0.00     0.049 A 
ATOM     34  H   UNL A   1      42.485  29.842  29.195  1.00  0.00     0.167 HD
ATOM     35  C   UNL A   1      45.098  30.840  28.389  1.00  0.00     0.074 A 
ATOM     36  C   UNL A   1      46.430  30.958  27.821  1.00  0.00     0.031 C 
ATOM     37  C   UNL A   1      44.453  31.841  29.038  1.00  0.00     0.034 A 
BRANCH  24  38
ATOM     38  C   UNL A   1      38.677  30.572  30.969  1.00  0.00     0.023 A 
ATOM     39  C   UNL A   1      38.373  30.173  32.287  1.00  0.00     0.012 A 
ATOM     40  C   UNL A   1      37.723  31.296  30.229  1.00  0.00     0.148 A 
ATOM     41  C   UNL A   1      37.123  30.451  32.841  1.00  0.00     0.002 A 
ATOM     42  C   UNL A   1      36.494  31.603  30.802  1.00  0.00     0.091 A 
ATOM     43  F   UNL A   1      38.011  31.625  28.962  1.00  0.00    -0.205 F 
ATOM     44  C   UNL A   1      36.186  31.169  32.101  1.00  0.00     0.022 A 
BRANCH  42  45
ATOM     45  S   UNL A   1      35.245  32.558  29.935  1.00  0.00     0.127 S 
ATOM     46  O   UNL A   1      34.798  31.609  28.917  1.00  0.00    -0.237 OA
ATOM     47  O   UNL A   1      34.268  32.821  30.994  1.00  0.00    -0.237 OA
ATOM     48  O   UNL A   1      35.926  33.745  29.436  1.00  0.00    -0.744 OA
ENDBRANCH  42  45
ENDBRANCH  24  38
BRANCH  25  49
ATOM     49  C   UNL A   1      46.884  27.041  26.149  1.00  0.00     0.023 A 
ATOM     50  C   UNL A   1      46.961  27.230  24.758  1.00  0.00     0.012 A 
ATOM     51  C   UNL A   1      47.967  26.428  26.818  1.00  0.00     0.148 A 
ATOM     52  C   UNL A   1      48.091  26.815  24.047  1.00  0.00     0.002 A 
ATOM     53  C   UNL A   1      49.110  26.071  26.114  1.00  0.00     0.091 A 
ATOM     54  F   UNL A   1      47.869  26.238  28.142  1.00  0.00    -0.205 F 
ATOM     55  C   UNL A   1      49.169  26.252  24.726  1.00  0.00     0.022 A 
BRANCH  53  56
ATOM     56  S   UNL A   1      50.597  25.472  26.929  1.00  0.00     0.127 S 
ATOM     57  O   UNL A   1      51.488  25.243  25.795  1.00  0.00    -0.237 OA
ATOM     58  O   UNL A   1      50.957  26.609  27.775  1.00  0.00    -0.237 OA
ATOM     59  O   UNL A   1      50.191  24.281  27.665  1.00  0.00    -0.744 OA
ENDBRANCH  53  56
ENDBRANCH  25  49
BRANCH  37  60
ATOM     60  C   UNL A   1      45.191  33.136  29.205  1.00  0.00     0.023 A 
ATOM     61  C   UNL A   1      46.069  33.303  30.292  1.00  0.00     0.012 A 
ATOM     62  C   UNL A   1      45.126  34.112  28.195  1.00  0.00     0.148 A 
ATOM     63  C   UNL A   1      46.874  34.435  30.371  1.00  0.00     0.002 A 
ATOM     64  C   UNL A   1      45.967  35.212  28.254  1.00  0.00     0.091 A 
ATOM     65  F   UNL A   1      44.265  33.928  27.183  1.00  0.00    -0.205 F 
ATOM     66  C   UNL A   1      46.837  35.379  29.345  1.00  0.00     0.022 A 
BRANCH  64  67
ATOM     67  S   UNL A   1      46.072  36.409  26.922  1.00  0.00     0.127 S 
ATOM     68  O   UNL A   1      46.447  35.562  25.791  1.00  0.00    -0.237 OA
ATOM     69  O   UNL A   1      44.707  36.932  26.868  1.00  0.00    -0.237 OA
ATOM     70  O   UNL A   1      47.078  37.381  27.331  1.00  0.00    -0.744 OA
ENDBRANCH  64  67
ENDBRANCH  37  60
ENDBRANCH  11  12
ENDBRANCH   4   6
ENDBRANCH   3   4
ENDBRANCH   2   3
ENDBRANCH   1   2
BRANCH   1  71
ATOM     71  O   UNL A   1      33.699  21.822  25.267  1.00  0.00    -0.374 OA
BRANCH  71  72
ATOM     72  C   UNL A   1      32.542  22.631  25.490  1.00  0.00     0.202 C 
BRANCH  72  73
ATOM     73  C   UNL A   1      32.893  24.116  25.433  1.00  0.00     0.261 C 
BRANCH  73  74
ATOM     74  O   UNL A   1      31.791  24.856  24.883  1.00  0.00    -0.462 OA
BRANCH  74  75
ATOM     75  C   UNL A   1      31.881  25.187  23.563  1.00  0.00     0.328 C 
ATOM     76  O   UNL A   1      32.544  24.597  22.725  1.00  0.00    -0.250 OA
BRANCH  75  77
ATOM     77  C   UNL A   1      30.840  26.265  23.187  1.00  0.00     0.195 C 
ATOM     78  C   UNL A   1      29.571  25.895  23.997  1.00  0.00     0.037 C 
ATOM     79  N   UNL A   1      31.169  27.661  23.501  1.00  0.00    -0.320 N 
ATOM     80  C   UNL A   1      28.448  26.923  24.001  1.00  0.00     0.008 C 
ATOM     81  C   UNL A   1      30.106  28.653  23.247  1.00  0.00     0.089 C 
ATOM     82  C   UNL A   1      28.733  27.990  22.971  1.00  0.00     0.012 C 
ATOM     83  C   UNL A   1      30.417  29.557  22.041  1.00  0.00     0.025 C 
ATOM     84  C   UNL A   1      27.634  29.044  22.905  1.00  0.00     0.006 C 
ATOM     85  C   UNL A   1      29.322  30.605  21.841  1.00  0.00     0.002 C 
ATOM     86  C   UNL A   1      27.923  29.999  21.750  1.00  0.00     0.000 C 
BRANCH  79  87
ATOM     87  C   UNL A   1      32.510  28.040  23.463  1.00  0.00     0.272 C 
ATOM     88  O   UNL A   1      33.167  27.964  22.426  1.00  0.00    -0.267 OA
BRANCH  87  89
ATOM     89  C   UNL A   1      33.109  28.471  24.700  1.00  0.00     0.123 A 
ATOM     90  C   UNL A   1      33.978  27.880  25.597  1.00  0.00     0.055 A 
ATOM     91  N   UNL A   1      32.951  29.752  25.161  1.00  0.00    -0.273 N 
ATOM     92  C   UNL A   1      34.203  28.850  26.589  1.00  0.00     0.135 A 
ATOM     93  N   UNL A   1      33.549  29.986  26.342  1.00  0.00    -0.183 NA
ATOM     94  H   UNL A   1      32.445  30.440  24.671  1.00  0.00     0.190 HD
ENDBRANCH  87  89
ENDBRANCH  79  87
ENDBRANCH  75  77
ENDBRANCH  74  75
ENDBRANCH  73  74
ENDBRANCH  72  73
ENDBRANCH  71  72
ENDBRANCH   1  71
TORSDOF 19
ENDMDL
MODEL 3
REMARK VINA RESULT:     -11.6      1.489      7.619
REMARK SMILES O=C(OCCOCCOC(=O)[C@H]1CC[C@H]2CCCC[C@@H]2N1C(=O)c1ccn[nH]1)c1ccc(-c2c3nc(c(-c4cccc(S(=O)(=O)[O-])c4F)c4ccc([nH]4)c(-c4cccc(S(=O)(=O)[O-])c4F)c4nc(c(-c5cccc(S(=O)(=O)[O-])c5F)c5ccc2[nH]5)C=C4)C=C3)cc1
REMARK SMILES IDX 5 1 4 2 3 3 2 4 1 5 29 6 30 7 91 8 31 9 90 10 32 11 33 12
REMARK SMILES IDX 34 13 84 14 35 15 89 16 83 17 85 18 36 19 88 20 82 21 81 22
REMARK SMILES IDX 37 24 69 25 49 26 68 27 50 28 53 29 67 30 86 31 51 32 52 33
REMARK SMILES IDX 66 35 87 36 54 37 38 38 39 39 47 40 40 41 42 42 48 43 41 44
REMARK SMILES IDX 43 45 44 46 45 47 46 48 70 49 71 50 79 51 72 52 74 53 80 54
REMARK SMILES IDX 73 55 75 56 76 57 77 58 78 59 55 60 56 61 64 62 57 63 59 64
REMARK SMILES IDX 65 65 58 66 60 67 61 68 62 69 63 70 6 71 7 72 8 73 9 74
REMARK SMILES IDX 10 75 11 76 12 77 13 78 21 79 14 80 20 81 15 82 19 83 16 84
REMARK SMILES IDX 18 85 17 86 22 87 23 88 24 89 25 90 28 91 26 92 27 93
REMARK H PARENT 85 23 53 34 28 94
REMARK Flexibility Score: inf
ROOT
ATOM      1  C   UNL A   1      36.467  22.364  24.728  1.00  0.00     0.202 C 
ENDROOT
BRANCH   1   2
ATOM      2  C   UNL A   1      37.479  21.211  24.656  1.00  0.00     0.261 C 
BRANCH   2   3
ATOM      3  O   UNL A   1      38.137  21.007  25.914  1.00  0.00    -0.460 OA
BRANCH   3   4
ATOM      4  C   UNL A   1      39.421  21.298  26.240  1.00  0.00     0.338 C 
ATOM      5  O   UNL A   1      40.242  20.383  26.202  1.00  0.00    -0.246 OA
BRANCH   4   6
ATOM      6  C   UNL A   1      39.885  22.651  26.692  1.00  0.00     0.060 A 
ATOM      7  C   UNL A   1      39.358  23.869  26.262  1.00  0.00     0.016 A 
ATOM      8  C   UNL A   1      40.888  22.693  27.677  1.00  0.00     0.016 A 
ATOM      9  C   UNL A   1      39.733  25.073  26.808  1.00  0.00     0.010 A 
ATOM     10  C   UNL A   1      41.334  23.912  28.194  1.00  0.00     0.010 A 
ATOM     11  C   UNL A   1      40.747  25.096  27.747  1.00  0.00    -0.014 A 
BRANCH  11  12
ATOM     12  C   UNL A   1      41.286  26.421  28.029  1.00  0.00     0.031 A 
ATOM     13  C   UNL A   1      42.626  26.737  27.455  1.00  0.00     0.074 A 
ATOM     14  C   UNL A   1      40.488  27.344  28.582  1.00  0.00     0.049 A 
ATOM     15  N   UNL A   1      43.338  27.818  27.574  1.00  0.00    -0.248 NA
ATOM     16  C   UNL A   1      43.234  25.702  26.595  1.00  0.00     0.031 C 
ATOM     17  C   UNL A   1      39.090  27.126  28.965  1.00  0.00     0.029 A 
ATOM     18  N   UNL A   1      40.732  28.646  28.908  1.00  0.00    -0.354 N 
ATOM     19  C   UNL A   1      44.505  27.567  26.866  1.00  0.00     0.074 A 
ATOM     20  C   UNL A   1      44.383  26.263  26.262  1.00  0.00     0.031 C 
ATOM     21  C   UNL A   1      38.615  28.250  29.524  1.00  0.00     0.029 A 
ATOM     22  C   UNL A   1      39.694  29.228  29.593  1.00  0.00     0.049 A 
ATOM     23  H   UNL A   1      41.564  29.119  28.675  1.00  0.00     0.167 HD
ATOM     24  C   UNL A   1      45.593  28.359  26.774  1.00  0.00     0.034 A 
ATOM     25  C   UNL A   1      39.670  30.394  30.263  1.00  0.00     0.034 A 
ATOM     26  C   UNL A   1      45.663  29.634  27.422  1.00  0.00     0.049 A 
ATOM     27  C   UNL A   1      40.922  31.226  30.228  1.00  0.00     0.074 A 
ATOM     28  C   UNL A   1      46.722  30.514  27.499  1.00  0.00     0.029 A 
ATOM     29  N   UNL A   1      44.607  30.200  28.131  1.00  0.00    -0.354 N 
ATOM     30  N   UNL A   1      42.049  30.984  29.594  1.00  0.00    -0.248 NA
ATOM     31  C   UNL A   1      40.913  32.484  30.981  1.00  0.00     0.031 C 
ATOM     32  C   UNL A   1      46.314  31.599  28.283  1.00  0.00     0.029 A 
ATOM     33  C   UNL A   1      44.989  31.413  28.662  1.00  0.00     0.049 A 
ATOM     34  H   UNL A   1      43.717  29.793  28.237  1.00  0.00     0.167 HD
ATOM     35  C   UNL A   1      42.879  32.064  29.855  1.00  0.00     0.074 A 
ATOM     36  C   UNL A   1      42.115  32.971  30.695  1.00  0.00     0.031 C 
ATOM     37  C   UNL A   1      44.155  32.289  29.453  1.00  0.00     0.034 A 
BRANCH  24  38
ATOM     38  C   UNL A   1      46.780  27.791  26.050  1.00  0.00     0.023 A 
ATOM     39  C   UNL A   1      46.855  27.849  24.643  1.00  0.00     0.012 A 
ATOM     40  C   UNL A   1      47.784  27.112  26.767  1.00  0.00     0.148 A 
ATOM     41  C   UNL A   1      47.886  27.202  23.960  1.00  0.00     0.002 A 
ATOM     42  C   UNL A   1      48.828  26.502  26.082  1.00  0.00     0.091 A 
ATOM     43  F   UNL A   1      47.670  27.026  28.100  1.00  0.00    -0.205 F 
ATOM     44  C   UNL A   1      48.874  26.533  24.680  1.00  0.00     0.022 A 
BRANCH  42  45
ATOM     45  S   UNL A   1      50.164  25.654  26.931  1.00  0.00     0.127 S 
ATOM     46  O   UNL A   1      51.154  25.517  25.865  1.00  0.00    -0.237 OA
ATOM     47  O   UNL A   1      50.523  26.613  27.977  1.00  0.00    -0.237 OA
ATOM     48  O   UNL A   1      49.594  24.408  27.428  1.00  0.00    -0.744 OA
ENDBRANCH  42  45
ENDBRANCH  24  38
BRANCH  25  49
ATOM     49  C   UNL A   1      38.455  30.772  31.036  1.00  0.00     0.023 A 
ATOM     50  C   UNL A   1      38.385  30.513  32.415  1.00  0.00     0.012 A 
ATOM     51  C   UNL A   1      37.400  31.478  30.416  1.00  0.00     0.148 A 
ATOM     52  C   UNL A   1      37.285  30.946  33.163  1.00  0.00     0.002 A 
ATOM     53  C   UNL A   1      36.339  31.955  31.176  1.00  0.00     0.091 A 
ATOM     54  F   UNL A   1      37.473  31.699  29.095  1.00  0.00    -0.205 F 
ATOM     55  C   UNL A   1      36.273  31.678  32.548  1.00  0.00     0.022 A 
BRANCH  53  56
ATOM     56  S   UNL A   1      35.067  33.026  30.491  1.00  0.00     0.127 S 
ATOM     57  O   UNL A   1      35.857  34.154  30.005  1.00  0.00    -0.237 OA
ATOM     58  O   UNL A   1      34.491  32.180  29.445  1.00  0.00    -0.237 OA
ATOM     59  O   UNL A   1      34.160  33.317  31.593  1.00  0.00    -0.744 OA
ENDBRANCH  53  56
ENDBRANCH  25  49
BRANCH  37  60
ATOM     60  C   UNL A   1      44.792  33.578  29.881  1.00  0.00     0.023 A 
ATOM     61  C   UNL A   1      45.671  33.590  30.979  1.00  0.00     0.012 A 
ATOM     62  C   UNL A   1      44.635  34.730  29.089  1.00  0.00     0.148 A 
ATOM     63  C   UNL A   1      46.386  34.744  31.286  1.00  0.00     0.002 A 
ATOM     64  C   UNL A   1      45.388  35.858  29.371  1.00  0.00     0.091 A 
ATOM     65  F   UNL A   1      43.775  34.686  28.060  1.00  0.00    -0.205 F 
ATOM     66  C   UNL A   1      46.259  35.870  30.474  1.00  0.00     0.022 A 
BRANCH  64  67
ATOM     67  S   UNL A   1      45.378  37.305  28.310  1.00  0.00     0.127 S 
ATOM     68  O   UNL A   1      43.958  37.651  28.294  1.00  0.00    -0.237 OA
ATOM     69  O   UNL A   1      46.227  38.238  29.050  1.00  0.00    -0.237 OA
ATOM     70  O   UNL A   1      45.927  36.871  27.031  1.00  0.00    -0.744 OA
ENDBRANCH  64  67
ENDBRANCH  37  60
ENDBRANCH  11  12
ENDBRANCH   4   6
ENDBRANCH   3   4
ENDBRANCH   2   3
ENDBRANCH   1   2
BRANCH   1  71
ATOM     71  O   UNL A   1      35.222  22.181  24.062  1.00  0.00    -0.374 OA
BRANCH  71  72
ATOM     72  C   UNL A   1      34.184  23.105  24.399  1.00  0.00     0.202 C 
BRANCH  72  73
ATOM     73  C   UNL A   1      34.662  24.546  24.239  1.00  0.00     0.261 C 
BRANCH  73  74
ATOM     74  O   UNL A   1      33.530  25.430  24.176  1.00  0.00    -0.462 OA
BRANCH  74  75
ATOM     75  C   UNL A   1      33.246  25.966  22.954  1.00  0.00     0.328 C 
ATOM     76  O   UNL A   1      33.903  25.807  21.937  1.00  0.00    -0.250 OA
BRANCH  75  77
ATOM     77  C   UNL A   1      31.843  26.611  22.940  1.00  0.00     0.195 C 
ATOM     78  C   UNL A   1      30.925  25.585  23.654  1.00  0.00     0.037 C 
ATOM     79  N   UNL A   1      31.682  27.896  23.631  1.00  0.00    -0.320 N 
ATOM     80  C   UNL A   1      29.518  26.057  23.993  1.00  0.00     0.008 C 
ATOM     81  C   UNL A   1      30.308  28.426  23.711  1.00  0.00     0.089 C 
ATOM     82  C   UNL A   1      29.246  27.373  23.304  1.00  0.00     0.012 C 
ATOM     83  C   UNL A   1      30.093  29.652  22.806  1.00  0.00     0.025 C 
ATOM     84  C   UNL A   1      27.840  27.896  23.582  1.00  0.00     0.006 C 
ATOM     85  C   UNL A   1      28.675  30.205  22.954  1.00  0.00     0.002 C 
ATOM     86  C   UNL A   1      27.594  29.146  22.741  1.00  0.00     0.000 C 
BRANCH  79  87
ATOM     87  C   UNL A   1      32.773  28.764  23.657  1.00  0.00     0.272 C 
ATOM     88  O   UNL A   1      33.386  29.053  22.630  1.00  0.00    -0.267 OA
BRANCH  87  89
ATOM     89  C   UNL A   1      33.190  29.263  24.943  1.00  0.00     0.123 A 
ATOM     90  C   UNL A   1      32.650  30.167  25.837  1.00  0.00     0.055 A 
ATOM     91  N   UNL A   1      34.287  28.751  25.584  1.00  0.00    -0.273 N 
ATOM     92  C   UNL A   1      33.537  30.184  26.927  1.00  0.00     0.135 A 
ATOM     93  N   UNL A   1      34.558  29.343  26.761  1.00  0.00    -0.183 NA
ATOM     94  H   UNL A   1      34.828  28.015  25.218  1.00  0.00     0.190 HD
ENDBRANCH  87  89
ENDBRANCH  79  87
ENDBRANCH  75  77
ENDBRANCH  74  75
ENDBRANCH  73  74
ENDBRANCH  72  73
ENDBRANCH  71  72
ENDBRANCH   1  71
TORSDOF 19
ENDMDL
