MODEL 1
REMARK VINA RESULT:     -12.8      0.000      0.000
REMARK SMILES O=C(OCCOCCOC(=O)[C@H]1CCCC[C@H]1C(=O)Nc1ccc(Cl)cc1F)c1ccc(-c2c3nc(c(-c4cccc(S(=O)(=O)[O-])c4F)c4ccc([nH]4)c(-c4cccc(S(=O)(=O)[O-])c4F)c4nc(c(-c5cccc(S(=O)(=O)[O-])c5F)c5ccc2[nH]5)C=C4)C=C3)cc1
REMARK SMILES IDX 5 1 4 2 3 3 2 4 1 5 29 6 30 7 91 8 31 9 90 10 32 11 33 12
REMARK SMILES IDX 34 13 84 14 35 15 89 16 83 17 85 18 36 19 88 20 82 21 81 22
REMARK SMILES IDX 37 24 69 25 49 26 68 27 50 28 53 29 67 30 86 31 51 32 52 33
REMARK SMILES IDX 66 35 87 36 54 37 38 38 39 39 47 40 40 41 42 42 48 43 41 44
REMARK SMILES IDX 43 45 44 46 45 47 46 48 70 49 71 50 79 51 72 52 74 53 80 54
REMARK SMILES IDX 73 55 75 56 76 57 77 58 78 59 55 60 56 61 64 62 57 63 59 64
REMARK SMILES IDX 65 65 58 66 60 67 61 68 62 69 63 70 6 71 7 72 8 73 9 74
REMARK SMILES IDX 10 75 11 76 12 77 13 78 17 79 14 80 16 81 15 82 18 83 19 84
REMARK SMILES IDX 20 85 21 87 22 88 27 89 23 90 26 91 28 92 24 93 25 94
REMARK H PARENT 85 23 53 34 20 86
REMARK Flexibility Score: inf
ROOT
ATOM      1  C   UNL A   1      31.260  31.855  26.891  1.00  0.00     0.202 C 
ENDROOT
BRANCH   1   2
ATOM      2  C   UNL A   1      32.010  33.552  27.155  1.00  0.00     0.261 C 
BRANCH   2   3
ATOM      3  O   UNL A   1      32.747  34.121  28.435  1.00  0.00    -0.460 OA
BRANCH   3   4
ATOM      4  C   UNL A   1      33.949  34.145  29.155  1.00  0.00     0.338 C 
ATOM      5  O   UNL A   1      33.975  34.688  30.258  1.00  0.00    -0.246 OA
BRANCH   4   6
ATOM      6  C   UNL A   1      35.291  33.679  28.588  1.00  0.00     0.060 A 
ATOM      7  C   UNL A   1      35.375  32.554  27.742  1.00  0.00     0.016 A 
ATOM      8  C   UNL A   1      36.483  34.159  29.085  1.00  0.00     0.016 A 
ATOM      9  C   UNL A   1      36.458  31.643  27.921  1.00  0.00     0.010 A 
ATOM     10  C   UNL A   1      37.622  33.326  29.060  1.00  0.00     0.010 A 
ATOM     11  C   UNL A   1      37.532  31.947  28.769  1.00  0.00    -0.014 A 
BRANCH  11  12
ATOM     12  C   UNL A   1      38.471  30.946  29.508  1.00  0.00     0.031 A 
ATOM     13  C   UNL A   1      38.524  31.004  31.049  1.00  0.00     0.074 A 
ATOM     14  C   UNL A   1      39.137  29.851  29.041  1.00  0.00     0.049 A 
ATOM     15  N   UNL A   1      39.509  30.748  31.874  1.00  0.00    -0.248 NA
ATOM     16  C   UNL A   1      37.289  31.416  31.742  1.00  0.00     0.031 C 
ATOM     17  C   UNL A   1      39.051  29.235  27.720  1.00  0.00     0.029 A 
ATOM     18  N   UNL A   1      40.047  29.021  29.700  1.00  0.00    -0.354 N 
ATOM     19  C   UNL A   1      39.086  31.194  33.126  1.00  0.00     0.074 A 
ATOM     20  C   UNL A   1      37.734  31.679  32.962  1.00  0.00     0.031 C 
ATOM     21  C   UNL A   1      39.870  28.171  27.657  1.00  0.00     0.029 A 
ATOM     22  C   UNL A   1      40.635  28.067  28.893  1.00  0.00     0.049 A 
ATOM     23  H   UNL A   1      40.250  29.108  30.660  1.00  0.00     0.167 HD
ATOM     24  C   UNL A   1      39.752  31.206  34.307  1.00  0.00     0.034 A 
ATOM     25  C   UNL A   1      41.703  27.250  29.066  1.00  0.00     0.034 A 
ATOM     26  C   UNL A   1      40.967  30.482  34.561  1.00  0.00     0.049 A 
ATOM     27  C   UNL A   1      42.498  27.283  30.350  1.00  0.00     0.074 A 
ATOM     28  C   UNL A   1      41.723  30.439  35.722  1.00  0.00     0.029 A 
ATOM     29  N   UNL A   1      41.558  29.603  33.671  1.00  0.00    -0.354 N 
ATOM     30  N   UNL A   1      42.244  27.920  31.465  1.00  0.00    -0.248 NA
ATOM     31  C   UNL A   1      43.741  26.488  30.393  1.00  0.00     0.031 C 
ATOM     32  C   UNL A   1      42.778  29.540  35.528  1.00  0.00     0.029 A 
ATOM     33  C   UNL A   1      42.663  29.010  34.255  1.00  0.00     0.049 A 
ATOM     34  H   UNL A   1      41.239  29.427  32.757  1.00  0.00     0.167 HD
ATOM     35  C   UNL A   1      43.280  27.593  32.339  1.00  0.00     0.074 A 
ATOM     36  C   UNL A   1      44.149  26.674  31.641  1.00  0.00     0.031 C 
ATOM     37  C   UNL A   1      43.501  28.043  33.599  1.00  0.00     0.034 A 
BRANCH  24  38
ATOM     38  C   UNL A   1      39.210  32.073  35.417  1.00  0.00     0.023 A 
ATOM     39  C   UNL A   1      39.311  33.475  35.380  1.00  0.00     0.012 A 
ATOM     40  C   UNL A   1      38.540  31.456  36.498  1.00  0.00     0.148 A 
ATOM     41  C   UNL A   1      38.796  34.248  36.424  1.00  0.00     0.002 A 
ATOM     42  C   UNL A   1      37.984  32.235  37.504  1.00  0.00     0.091 A 
ATOM     43  F   UNL A   1      38.464  30.118  36.523  1.00  0.00    -0.205 F 
ATOM     44  C   UNL A   1      38.124  33.631  37.478  1.00  0.00     0.022 A 
BRANCH  42  45
ATOM     45  S   UNL A   1      37.024  31.529  38.849  1.00  0.00     0.127 S 
ATOM     46  O   UNL A   1      35.881  32.439  38.902  1.00  0.00    -0.237 OA
ATOM     47  O   UNL A   1      36.717  30.192  38.339  1.00  0.00    -0.237 OA
ATOM     48  O   UNL A   1      37.895  31.546  40.016  1.00  0.00    -0.744 OA
ENDBRANCH  42  45
ENDBRANCH  24  38
BRANCH  25  49
ATOM     49  C   UNL A   1      42.172  26.369  27.943  1.00  0.00     0.023 A 
ATOM     50  C   UNL A   1      43.136  26.832  27.023  1.00  0.00     0.012 A 
ATOM     51  C   UNL A   1      41.637  25.076  27.767  1.00  0.00     0.148 A 
ATOM     52  C   UNL A   1      43.544  26.033  25.951  1.00  0.00     0.002 A 
ATOM     53  C   UNL A   1      42.106  24.256  26.746  1.00  0.00     0.091 A 
ATOM     54  F   UNL A   1      40.675  24.668  28.605  1.00  0.00    -0.205 F 
ATOM     55  C   UNL A   1      43.044  24.739  25.824  1.00  0.00     0.022 A 
BRANCH  53  56
ATOM     56  S   UNL A   1      41.631  22.528  26.619  1.00  0.00     0.127 S 
ATOM     57  O   UNL A   1      42.058  22.002  27.912  1.00  0.00    -0.237 OA
ATOM     58  O   UNL A   1      40.182  22.626  26.440  1.00  0.00    -0.237 OA
ATOM     59  O   UNL A   1      42.342  22.013  25.457  1.00  0.00    -0.744 OA
ENDBRANCH  53  56
ENDBRANCH  25  49
BRANCH  37  60
ATOM     60  C   UNL A   1      44.707  27.530  34.344  1.00  0.00     0.023 A 
ATOM     61  C   UNL A   1      45.912  28.258  34.312  1.00  0.00     0.012 A 
ATOM     62  C   UNL A   1      44.622  26.372  35.143  1.00  0.00     0.148 A 
ATOM     63  C   UNL A   1      47.022  27.827  35.040  1.00  0.00     0.002 A 
ATOM     64  C   UNL A   1      45.718  25.972  35.901  1.00  0.00     0.091 A 
ATOM     65  F   UNL A   1      43.472  25.682  35.150  1.00  0.00    -0.205 F 
ATOM     66  C   UNL A   1      46.922  26.692  35.842  1.00  0.00     0.022 A 
BRANCH  64  67
ATOM     67  S   UNL A   1      45.655  24.576  37.031  1.00  0.00     0.127 S 
ATOM     68  O   UNL A   1      45.206  23.499  36.151  1.00  0.00    -0.237 OA
ATOM     69  O   UNL A   1      47.047  24.466  37.468  1.00  0.00    -0.237 OA
ATOM     70  O   UNL A   1      44.720  24.954  38.083  1.00  0.00    -0.744 OA
ENDBRANCH  64  67
ENDBRANCH  37  60
ENDBRANCH  11  12
ENDBRANCH   4   6
ENDBRANCH   3   4
ENDBRANCH   2   3
ENDBRANCH   1   2
BRANCH   1  71
ATOM     71  O   UNL A   1      32.189  30.154  26.402  1.00  0.00    -0.374 OA
BRANCH  71  72
ATOM     72  C   UNL A   1      32.247  28.556  26.739  1.00  0.00     0.202 C 
BRANCH  72  73
ATOM     73  C   UNL A   1      31.697  27.595  25.631  1.00  0.00     0.261 C 
BRANCH  73  74
ATOM     74  O   UNL A   1      31.787  26.187  26.052  1.00  0.00    -0.463 OA
BRANCH  74  75
ATOM     75  C   UNL A   1      32.841  25.463  25.561  1.00  0.00     0.309 C 
ATOM     76  O   UNL A   1      34.009  25.687  25.876  1.00  0.00    -0.252 OA
BRANCH  75  77
ATOM     77  C   UNL A   1      32.402  24.190  24.679  1.00  0.00     0.111 C 
ATOM     78  C   UNL A   1      31.302  24.702  23.645  1.00  0.00     0.016 C 
ATOM     79  C   UNL A   1      33.479  23.250  23.853  1.00  0.00     0.093 C 
ATOM     80  C   UNL A   1      31.838  25.443  22.409  1.00  0.00     0.001 C 
ATOM     81  C   UNL A   1      33.475  23.396  22.265  1.00  0.00     0.014 C 
ATOM     82  C   UNL A   1      32.778  24.586  21.562  1.00  0.00     0.001 C 
BRANCH  79  83
ATOM     83  C   UNL A   1      34.971  22.836  24.324  1.00  0.00     0.228 C 
ATOM     84  O   UNL A   1      35.808  23.761  24.336  1.00  0.00    -0.274 OA
ATOM     85  N   UNL A   1      35.439  21.643  24.862  1.00  0.00    -0.323 N 
ATOM     86  H   UNL A   1      36.372  21.665  25.175  1.00  0.00     0.170 HD
BRANCH  85  87
ATOM     87  C   UNL A   1      34.781  20.397  25.031  1.00  0.00     0.077 A 
ATOM     88  C   UNL A   1      33.026  20.020  25.438  1.00  0.00     0.031 A 
ATOM     89  C   UNL A   1      35.761  18.961  24.717  1.00  0.00     0.148 A 
ATOM     90  C   UNL A   1      32.409  18.316  25.393  1.00  0.00     0.023 A 
ATOM     91  C   UNL A   1      35.183  17.329  24.713  1.00  0.00     0.062 A 
ATOM     92  F   UNL A   1      37.034  19.047  24.700  1.00  0.00    -0.205 F 
ATOM     93  C   UNL A   1      33.536  17.011  25.050  1.00  0.00     0.044 A 
ATOM     94  Cl  UNL A   1      33.059  15.368  25.117  1.00  0.00    -0.084 Cl
ENDBRANCH  85  87
ENDBRANCH  79  83
ENDBRANCH  75  77
ENDBRANCH  74  75
ENDBRANCH  73  74
ENDBRANCH  72  73
ENDBRANCH  71  72
ENDBRANCH   1  71
TORSDOF 19
ENDMDL
MODEL 2
REMARK VINA RESULT:     -12.6      6.099     13.325
REMARK SMILES O=C(OCCOCCOC(=O)[C@H]1CCCC[C@H]1C(=O)Nc1ccc(Cl)cc1F)c1ccc(-c2c3nc(c(-c4cccc(S(=O)(=O)[O-])c4F)c4ccc([nH]4)c(-c4cccc(S(=O)(=O)[O-])c4F)c4nc(c(-c5cccc(S(=O)(=O)[O-])c5F)c5ccc2[nH]5)C=C4)C=C3)cc1
REMARK SMILES IDX 5 1 4 2 3 3 2 4 1 5 29 6 30 7 91 8 31 9 90 10 32 11 33 12
REMARK SMILES IDX 34 13 84 14 35 15 89 16 83 17 85 18 36 19 88 20 82 21 81 22
REMARK SMILES IDX 37 24 69 25 49 26 68 27 50 28 53 29 67 30 86 31 51 32 52 33
REMARK SMILES IDX 66 35 87 36 54 37 38 38 39 39 47 40 40 41 42 42 48 43 41 44
REMARK SMILES IDX 43 45 44 46 45 47 46 48 70 49 71 50 79 51 72 52 74 53 80 54
REMARK SMILES IDX 73 55 75 56 76 57 77 58 78 59 55 60 56 61 64 62 57 63 59 64
REMARK SMILES IDX 65 65 58 66 60 67 61 68 62 69 63 70 6 71 7 72 8 73 9 74
REMARK SMILES IDX 10 75 11 76 12 77 13 78 17 79 14 80 16 81 15 82 18 83 19 84
REMARK SMILES IDX 20 85 21 87 22 88 27 89 23 90 26 91 28 92 24 93 25 94
REMARK H PARENT 85 23 53 34 20 86
REMARK Flexibility Score: inf
ROOT
ATOM      1  C   UNL A   1      45.938  22.480  25.484  1.00  0.00     0.202 C 
ENDROOT
BRANCH   1   2
ATOM      2  C   UNL A   1      44.962  21.229  24.486  1.00  0.00     0.261 C 
BRANCH   2   3
ATOM      3  O   UNL A   1      43.511  20.660  24.759  1.00  0.00    -0.460 OA
BRANCH   3   4
ATOM      4  C   UNL A   1      42.626  20.185  25.737  1.00  0.00     0.338 C 
ATOM      5  O   UNL A   1      42.331  18.992  25.748  1.00  0.00    -0.246 OA
BRANCH   4   6
ATOM      6  C   UNL A   1      41.863  21.089  26.706  1.00  0.00     0.060 A 
ATOM      7  C   UNL A   1      40.640  21.688  26.338  1.00  0.00     0.016 A 
ATOM      8  C   UNL A   1      42.455  21.569  27.853  1.00  0.00     0.016 A 
ATOM      9  C   UNL A   1      40.400  23.041  26.717  1.00  0.00     0.010 A 
ATOM     10  C   UNL A   1      42.055  22.825  28.358  1.00  0.00     0.010 A 
ATOM     11  C   UNL A   1      41.250  23.710  27.608  1.00  0.00    -0.014 A 
BRANCH  11  12
ATOM     12  C   UNL A   1      41.495  25.246  27.716  1.00  0.00     0.031 A 
ATOM     13  C   UNL A   1      42.704  25.842  26.965  1.00  0.00     0.074 A 
ATOM     14  C   UNL A   1      40.698  26.234  28.212  1.00  0.00     0.049 A 
ATOM     15  N   UNL A   1      43.466  26.866  27.262  1.00  0.00    -0.248 NA
ATOM     16  C   UNL A   1      43.102  25.177  25.710  1.00  0.00     0.031 C 
ATOM     17  C   UNL A   1      39.315  26.135  28.673  1.00  0.00     0.029 A 
ATOM     18  N   UNL A   1      40.974  27.592  28.384  1.00  0.00    -0.354 N 
ATOM     19  C   UNL A   1      44.545  26.809  26.380  1.00  0.00     0.074 A 
ATOM     20  C   UNL A   1      44.307  25.688  25.500  1.00  0.00     0.031 C 
ATOM     21  C   UNL A   1      38.884  27.339  29.090  1.00  0.00     0.029 A 
ATOM     22  C   UNL A   1      39.979  28.298  29.033  1.00  0.00     0.049 A 
ATOM     23  H   UNL A   1      41.808  28.011  28.068  1.00  0.00     0.167 HD
ATOM     24  C   UNL A   1      45.638  27.608  26.302  1.00  0.00     0.034 A 
ATOM     25  C   UNL A   1      39.946  29.533  29.591  1.00  0.00     0.034 A 
ATOM     26  C   UNL A   1      45.762  28.878  26.962  1.00  0.00     0.049 A 
ATOM     27  C   UNL A   1      41.167  30.423  29.570  1.00  0.00     0.074 A 
ATOM     28  C   UNL A   1      46.834  29.757  26.953  1.00  0.00     0.029 A 
ATOM     29  N   UNL A   1      44.751  29.495  27.676  1.00  0.00    -0.354 N 
ATOM     30  N   UNL A   1      42.305  30.251  28.946  1.00  0.00    -0.248 NA
ATOM     31  C   UNL A   1      41.099  31.678  30.343  1.00  0.00     0.031 C 
ATOM     32  C   UNL A   1      46.473  30.901  27.672  1.00  0.00     0.029 A 
ATOM     33  C   UNL A   1      45.169  30.741  28.108  1.00  0.00     0.049 A 
ATOM     34  H   UNL A   1      43.865  29.104  27.852  1.00  0.00     0.167 HD
ATOM     35  C   UNL A   1      43.077  31.374  29.240  1.00  0.00     0.074 A 
ATOM     36  C   UNL A   1      42.268  32.239  30.068  1.00  0.00     0.031 C 
ATOM     37  C   UNL A   1      44.354  31.644  28.876  1.00  0.00     0.034 A 
BRANCH  24  38
ATOM     38  C   UNL A   1      46.822  27.113  25.510  1.00  0.00     0.023 A 
ATOM     39  C   UNL A   1      47.681  26.114  26.004  1.00  0.00     0.012 A 
ATOM     40  C   UNL A   1      47.041  27.634  24.215  1.00  0.00     0.148 A 
ATOM     41  C   UNL A   1      48.767  25.677  25.241  1.00  0.00     0.002 A 
ATOM     42  C   UNL A   1      48.092  27.156  23.442  1.00  0.00     0.091 A 
ATOM     43  F   UNL A   1      46.221  28.594  23.765  1.00  0.00    -0.205 F 
ATOM     44  C   UNL A   1      48.966  26.188  23.960  1.00  0.00     0.022 A 
BRANCH  42  45
ATOM     45  S   UNL A   1      48.365  27.691  21.749  1.00  0.00     0.127 S 
ATOM     46  O   UNL A   1      49.448  28.659  21.920  1.00  0.00    -0.237 OA
ATOM     47  O   UNL A   1      48.758  26.445  21.091  1.00  0.00    -0.237 OA
ATOM     48  O   UNL A   1      47.097  28.242  21.293  1.00  0.00    -0.744 OA
ENDBRANCH  42  45
ENDBRANCH  24  38
BRANCH  25  49
ATOM     49  C   UNL A   1      38.721  29.997  30.328  1.00  0.00     0.023 A 
ATOM     50  C   UNL A   1      38.572  29.736  31.706  1.00  0.00     0.012 A 
ATOM     51  C   UNL A   1      37.684  30.674  29.653  1.00  0.00     0.148 A 
ATOM     52  C   UNL A   1      37.416  30.127  32.388  1.00  0.00     0.002 A 
ATOM     53  C   UNL A   1      36.573  31.130  30.354  1.00  0.00     0.091 A 
ATOM     54  F   UNL A   1      37.803  30.860  28.332  1.00  0.00    -0.205 F 
ATOM     55  C   UNL A   1      36.426  30.840  31.717  1.00  0.00     0.022 A 
BRANCH  53  56
ATOM     56  S   UNL A   1      35.340  32.194  29.595  1.00  0.00     0.127 S 
ATOM     57  O   UNL A   1      34.779  31.320  28.568  1.00  0.00    -0.237 OA
ATOM     58  O   UNL A   1      34.449  32.474  30.721  1.00  0.00    -0.237 OA
ATOM     59  O   UNL A   1      36.073  33.355  29.110  1.00  0.00    -0.744 OA
ENDBRANCH  53  56
ENDBRANCH  25  49
BRANCH  37  60
ATOM     60  C   UNL A   1      44.970  32.945  29.325  1.00  0.00     0.023 A 
ATOM     61  C   UNL A   1      45.688  32.998  30.537  1.00  0.00     0.012 A 
ATOM     62  C   UNL A   1      44.910  34.092  28.509  1.00  0.00     0.148 A 
ATOM     63  C   UNL A   1      46.311  34.179  30.942  1.00  0.00     0.002 A 
ATOM     64  C   UNL A   1      45.570  35.254  28.898  1.00  0.00     0.091 A 
ATOM     65  F   UNL A   1      44.209  34.028  27.367  1.00  0.00    -0.205 F 
ATOM     66  C   UNL A   1      46.262  35.302  30.118  1.00  0.00     0.022 A 
BRANCH  64  67
ATOM     67  S   UNL A   1      45.637  36.720  27.861  1.00  0.00     0.127 S 
ATOM     68  O   UNL A   1      46.239  36.193  26.637  1.00  0.00    -0.237 OA
ATOM     69  O   UNL A   1      44.224  37.080  27.740  1.00  0.00    -0.237 OA
ATOM     70  O   UNL A   1      46.447  37.688  28.588  1.00  0.00    -0.744 OA
ENDBRANCH  64  67
ENDBRANCH  37  60
ENDBRANCH  11  12
ENDBRANCH   4   6
ENDBRANCH   3   4
ENDBRANCH   2   3
ENDBRANCH   1   2
BRANCH   1  71
ATOM     71  O   UNL A   1      45.701  22.988  27.403  1.00  0.00    -0.374 OA
BRANCH  71  72
ATOM     72  C   UNL A   1      45.954  24.196  28.474  1.00  0.00     0.202 C 
BRANCH  72  73
ATOM     73  C   UNL A   1      44.769  24.520  29.444  1.00  0.00     0.261 C 
BRANCH  73  74
ATOM     74  O   UNL A   1      45.237  24.655  30.833  1.00  0.00    -0.463 OA
BRANCH  74  75
ATOM     75  C   UNL A   1      44.434  24.128  31.809  1.00  0.00     0.309 C 
ATOM     76  O   UNL A   1      43.987  22.982  31.759  1.00  0.00    -0.252 OA
BRANCH  75  77
ATOM     77  C   UNL A   1      44.274  25.073  33.102  1.00  0.00     0.111 C 
ATOM     78  C   UNL A   1      45.263  24.505  34.215  1.00  0.00     0.016 C 
ATOM     79  C   UNL A   1      44.455  26.713  33.049  1.00  0.00     0.093 C 
ATOM     80  C   UNL A   1      46.745  24.886  34.052  1.00  0.00     0.001 C 
ATOM     81  C   UNL A   1      45.775  27.303  33.723  1.00  0.00     0.014 C 
ATOM     82  C   UNL A   1      46.977  26.396  34.080  1.00  0.00     0.001 C 
BRANCH  79  83
ATOM     83  C   UNL A   1      44.008  27.704  31.849  1.00  0.00     0.228 C 
ATOM     84  O   UNL A   1      42.790  27.967  31.795  1.00  0.00    -0.274 OA
ATOM     85  N   UNL A   1      44.784  28.431  30.955  1.00  0.00    -0.323 N 
ATOM     86  H   UNL A   1      44.284  29.055  30.380  1.00  0.00     0.170 HD
BRANCH  85  87
ATOM     87  C   UNL A   1      46.187  28.417  30.740  1.00  0.00     0.077 A 
ATOM     88  C   UNL A   1      47.230  27.266  29.752  1.00  0.00     0.031 A 
ATOM     89  C   UNL A   1      47.088  29.760  31.449  1.00  0.00     0.148 A 
ATOM     90  C   UNL A   1      48.990  27.607  29.486  1.00  0.00     0.023 A 
ATOM     91  C   UNL A   1      48.778  30.066  31.230  1.00  0.00     0.062 A 
ATOM     92  F   UNL A   1      46.562  30.466  32.373  1.00  0.00    -0.205 F 
ATOM     93  C   UNL A   1      49.715  29.005  30.269  1.00  0.00     0.044 A 
ATOM     94  Cl  UNL A   1      51.395  29.321  30.173  1.00  0.00    -0.084 Cl
ENDBRANCH  85  87
ENDBRANCH  79  83
ENDBRANCH  75  77
ENDBRANCH  74  75
ENDBRANCH  73  74
ENDBRANCH  72  73
ENDBRANCH  71  72
ENDBRANCH   1  71
TORSDOF 19
ENDMDL
MODEL 3
REMARK VINA RESULT:     -12.5      5.632      7.084
REMARK SMILES O=C(OCCOCCOC(=O)[C@H]1CCCC[C@H]1C(=O)Nc1ccc(Cl)cc1F)c1ccc(-c2c3nc(c(-c4cccc(S(=O)(=O)[O-])c4F)c4ccc([nH]4)c(-c4cccc(S(=O)(=O)[O-])c4F)c4nc(c(-c5cccc(S(=O)(=O)[O-])c5F)c5ccc2[nH]5)C=C4)C=C3)cc1
REMARK SMILES IDX 5 1 4 2 3 3 2 4 1 5 29 6 30 7 91 8 31 9 90 10 32 11 33 12
REMARK SMILES IDX 34 13 84 14 35 15 89 16 83 17 85 18 36 19 88 20 82 21 81 22
REMARK SMILES IDX 37 24 69 25 49 26 68 27 50 28 53 29 67 30 86 31 51 32 52 33
REMARK SMILES IDX 66 35 87 36 54 37 38 38 39 39 47 40 40 41 42 42 48 43 41 44
REMARK SMILES IDX 43 45 44 46 45 47 46 48 70 49 71 50 79 51 72 52 74 53 80 54
REMARK SMILES IDX 73 55 75 56 76 57 77 58 78 59 55 60 56 61 64 62 57 63 59 64
REMARK SMILES IDX 65 65 58 66 60 67 61 68 62 69 63 70 6 71 7 72 8 73 9 74
REMARK SMILES IDX 10 75 11 76 12 77 13 78 17 79 14 80 16 81 15 82 18 83 19 84
REMARK SMILES IDX 20 85 21 87 22 88 27 89 23 90 26 91 28 92 24 93 25 94
REMARK H PARENT 85 23 53 34 20 86
REMARK Flexibility Score: inf
ROOT
ATOM      1  C   UNL A   1      34.092  31.854  27.929  1.00  0.00     0.202 C 
ENDROOT
BRANCH   1   2
ATOM      2  C   UNL A   1      33.308  33.537  27.669  1.00  0.00     0.261 C 
BRANCH   2   3
ATOM      3  O   UNL A   1      32.749  34.547  28.751  1.00  0.00    -0.460 OA
BRANCH   3   4
ATOM      4  C   UNL A   1      33.068  35.323  29.874  1.00  0.00     0.338 C 
ATOM      5  O   UNL A   1      32.880  36.537  29.835  1.00  0.00    -0.246 OA
BRANCH   4   6
ATOM      6  C   UNL A   1      33.795  34.781  31.106  1.00  0.00     0.060 A 
ATOM      7  C   UNL A   1      34.030  35.596  32.233  1.00  0.00     0.016 A 
ATOM      8  C   UNL A   1      34.480  33.587  31.064  1.00  0.00     0.016 A 
ATOM      9  C   UNL A   1      35.292  35.508  32.890  1.00  0.00     0.010 A 
ATOM     10  C   UNL A   1      35.614  33.417  31.888  1.00  0.00     0.010 A 
ATOM     11  C   UNL A   1      36.211  34.500  32.569  1.00  0.00    -0.014 A 
BRANCH  11  12
ATOM     12  C   UNL A   1      37.761  34.540  32.732  1.00  0.00     0.031 A 
ATOM     13  C   UNL A   1      38.344  34.434  34.157  1.00  0.00     0.074 A 
ATOM     14  C   UNL A   1      38.749  34.454  31.796  1.00  0.00     0.049 A 
ATOM     15  N   UNL A   1      39.433  34.953  34.668  1.00  0.00    -0.248 NA
ATOM     16  C   UNL A   1      37.580  33.632  35.130  1.00  0.00     0.031 C 
ATOM     17  C   UNL A   1      38.621  34.168  30.369  1.00  0.00     0.029 A 
ATOM     18  N   UNL A   1      40.131  34.585  31.953  1.00  0.00    -0.354 N 
ATOM     19  C   UNL A   1      39.347  34.744  36.045  1.00  0.00     0.074 A 
ATOM     20  C   UNL A   1      38.132  33.997  36.279  1.00  0.00     0.031 C 
ATOM     21  C   UNL A   1      39.835  34.172  29.791  1.00  0.00     0.029 A 
ATOM     22  C   UNL A   1      40.842  34.563  30.769  1.00  0.00     0.049 A 
ATOM     23  H   UNL A   1      40.561  34.683  32.834  1.00  0.00     0.167 HD
ATOM     24  C   UNL A   1      40.193  35.133  37.030  1.00  0.00     0.034 A 
ATOM     25  C   UNL A   1      42.123  34.884  30.463  1.00  0.00     0.034 A 
ATOM     26  C   UNL A   1      41.527  35.617  36.810  1.00  0.00     0.049 A 
ATOM     27  C   UNL A   1      43.072  35.376  31.531  1.00  0.00     0.074 A 
ATOM     28  C   UNL A   1      42.458  36.045  37.743  1.00  0.00     0.029 A 
ATOM     29  N   UNL A   1      42.156  35.653  35.579  1.00  0.00    -0.354 N 
ATOM     30  N   UNL A   1      42.901  35.431  32.828  1.00  0.00    -0.248 NA
ATOM     31  C   UNL A   1      44.392  35.862  31.087  1.00  0.00     0.031 C 
ATOM     32  C   UNL A   1      43.647  36.351  37.072  1.00  0.00     0.029 A 
ATOM     33  C   UNL A   1      43.461  36.090  35.726  1.00  0.00     0.049 A 
ATOM     34  H   UNL A   1      41.737  35.404  34.723  1.00  0.00     0.167 HD
ATOM     35  C   UNL A   1      44.089  35.941  33.350  1.00  0.00     0.074 A 
ATOM     36  C   UNL A   1      44.987  36.148  32.238  1.00  0.00     0.031 C 
ATOM     37  C   UNL A   1      44.390  36.238  34.638  1.00  0.00     0.034 A 
BRANCH  24  38
ATOM     38  C   UNL A   1      39.686  35.103  38.451  1.00  0.00     0.023 A 
ATOM     39  C   UNL A   1      39.223  36.262  39.099  1.00  0.00     0.012 A 
ATOM     40  C   UNL A   1      39.630  33.864  39.128  1.00  0.00     0.148 A 
ATOM     41  C   UNL A   1      38.758  36.197  40.415  1.00  0.00     0.002 A 
ATOM     42  C   UNL A   1      39.117  33.800  40.417  1.00  0.00     0.091 A 
ATOM     43  F   UNL A   1      40.087  32.771  38.500  1.00  0.00    -0.205 F 
ATOM     44  C   UNL A   1      38.694  34.968  41.069  1.00  0.00     0.022 A 
BRANCH  42  45
ATOM     45  S   UNL A   1      38.914  32.246  41.297  1.00  0.00     0.127 S 
ATOM     46  O   UNL A   1      40.302  31.816  41.454  1.00  0.00    -0.237 OA
ATOM     47  O   UNL A   1      38.264  32.677  42.536  1.00  0.00    -0.237 OA
ATOM     48  O   UNL A   1      38.088  31.405  40.442  1.00  0.00    -0.744 OA
ENDBRANCH  42  45
ENDBRANCH  24  38
BRANCH  25  49
ATOM     49  C   UNL A   1      42.591  34.850  29.035  1.00  0.00     0.023 A 
ATOM     50  C   UNL A   1      42.256  35.892  28.146  1.00  0.00     0.012 A 
ATOM     51  C   UNL A   1      43.347  33.764  28.548  1.00  0.00     0.148 A 
ATOM     52  C   UNL A   1      42.651  35.844  26.806  1.00  0.00     0.002 A 
ATOM     53  C   UNL A   1      43.805  33.761  27.235  1.00  0.00     0.091 A 
ATOM     54  F   UNL A   1      43.606  32.747  29.380  1.00  0.00    -0.205 F 
ATOM     55  C   UNL A   1      43.441  34.790  26.355  1.00  0.00     0.022 A 
BRANCH  53  56
ATOM     56  S   UNL A   1      44.960  32.524  26.631  1.00  0.00     0.127 S 
ATOM     57  O   UNL A   1      45.682  32.167  27.849  1.00  0.00    -0.237 OA
ATOM     58  O   UNL A   1      44.056  31.491  26.124  1.00  0.00    -0.237 OA
ATOM     59  O   UNL A   1      45.742  33.192  25.600  1.00  0.00    -0.744 OA
ENDBRANCH  53  56
ENDBRANCH  25  49
BRANCH  37  60
ATOM     60  C   UNL A   1      45.761  36.784  34.948  1.00  0.00     0.023 A 
ATOM     61  C   UNL A   1      46.809  35.901  35.275  1.00  0.00     0.012 A 
ATOM     62  C   UNL A   1      46.032  38.162  34.833  1.00  0.00     0.148 A 
ATOM     63  C   UNL A   1      48.097  36.383  35.511  1.00  0.00     0.002 A 
ATOM     64  C   UNL A   1      47.327  38.632  35.026  1.00  0.00     0.091 A 
ATOM     65  F   UNL A   1      45.019  38.990  34.535  1.00  0.00    -0.205 F 
ATOM     66  C   UNL A   1      48.358  37.746  35.376  1.00  0.00     0.022 A 
BRANCH  64  67
ATOM     67  S   UNL A   1      47.776  40.355  34.785  1.00  0.00     0.127 S 
ATOM     68  O   UNL A   1      46.807  41.038  35.640  1.00  0.00    -0.237 OA
ATOM     69  O   UNL A   1      49.154  40.389  35.277  1.00  0.00    -0.237 OA
ATOM     70  O   UNL A   1      47.638  40.610  33.357  1.00  0.00    -0.744 OA
ENDBRANCH  64  67
ENDBRANCH  37  60
ENDBRANCH  11  12
ENDBRANCH   4   6
ENDBRANCH   3   4
ENDBRANCH   2   3
ENDBRANCH   1   2
BRANCH   1  71
ATOM     71  O   UNL A   1      33.850  30.195  26.840  1.00  0.00    -0.374 OA
BRANCH  71  72
ATOM     72  C   UNL A   1      32.722  29.276  26.096  1.00  0.00     0.202 C 
BRANCH  72  73
ATOM     73  C   UNL A   1      32.500  27.843  26.685  1.00  0.00     0.261 C 
BRANCH  73  74
ATOM     74  O   UNL A   1      32.631  26.811  25.643  1.00  0.00    -0.463 OA
BRANCH  74  75
ATOM     75  C   UNL A   1      31.764  25.753  25.709  1.00  0.00     0.309 C 
ATOM     76  O   UNL A   1      31.456  25.209  26.769  1.00  0.00    -0.252 OA
BRANCH  75  77
ATOM     77  C   UNL A   1      31.053  25.404  24.308  1.00  0.00     0.111 C 
ATOM     78  C   UNL A   1      29.699  26.243  24.254  1.00  0.00     0.016 C 
ATOM     79  C   UNL A   1      31.809  25.563  22.849  1.00  0.00     0.093 C 
ATOM     80  C   UNL A   1      29.845  27.726  23.874  1.00  0.00     0.001 C 
ATOM     81  C   UNL A   1      31.322  26.770  21.926  1.00  0.00     0.014 C 
ATOM     82  C   UNL A   1      30.465  27.927  22.492  1.00  0.00     0.001 C 
BRANCH  79  83
ATOM     83  C   UNL A   1      33.366  25.266  22.521  1.00  0.00     0.228 C 
ATOM     84  O   UNL A   1      34.023  26.240  22.102  1.00  0.00    -0.274 OA
ATOM     85  N   UNL A   1      34.131  24.133  22.771  1.00  0.00    -0.323 N 
ATOM     86  H   UNL A   1      35.092  24.228  22.579  1.00  0.00     0.170 HD
BRANCH  85  87
ATOM     87  C   UNL A   1      33.744  22.859  23.263  1.00  0.00     0.077 A 
ATOM     88  C   UNL A   1      32.340  21.770  22.780  1.00  0.00     0.031 A 
ATOM     89  C   UNL A   1      34.817  22.140  24.467  1.00  0.00     0.148 A 
ATOM     90  C   UNL A   1      32.202  20.088  23.440  1.00  0.00     0.023 A 
ATOM     91  C   UNL A   1      34.664  20.548  25.131  1.00  0.00     0.062 A 
ATOM     92  F   UNL A   1      35.655  22.871  25.095  1.00  0.00    -0.205 F 
ATOM     93  C   UNL A   1      33.375  19.541  24.629  1.00  0.00     0.044 A 
ATOM     94  Cl  UNL A   1      33.237  18.016  25.396  1.00  0.00    -0.084 Cl
ENDBRANCH  85  87
ENDBRANCH  79  83
ENDBRANCH  75  77
ENDBRANCH  74  75
ENDBRANCH  73  74
ENDBRANCH  72  73
ENDBRANCH  71  72
ENDBRANCH   1  71
TORSDOF 19
ENDMDL
