MODEL 1
REMARK VINA RESULT:     -12.1      0.000      0.000
REMARK SMILES Cc1cc(Cl)c(C)c2c1O[C@H](C(F)(F)F)C(C(=O)OCCOCCOC(=O)c1ccc(-c3c4nc(c(-c5cccc(S(=O)(=O)[O-])c5F)c5ccc([nH]5)c(-c5cccc(S(=O)(=O)[O-])c5F)c5nc(c(-c6cccc(S(=O)(=O)[O-])c6F)c6ccc3[nH]6)C=C5)C=C4)cc1)=C2
REMARK SMILES IDX 23 1 22 2 21 3 20 4 19 5 17 6 18 7 16 8 1 9 2 10 3 11 9 12
REMARK SMILES IDX 4 13 8 14 10 15 5 16 6 17 91 18 11 19 7 20 12 21 13 22 14 23
REMARK SMILES IDX 15 24 24 25 25 26 26 27 27 28 28 29 29 30 90 31 30 32 89 33
REMARK SMILES IDX 31 34 32 35 33 36 83 37 34 38 88 39 82 40 84 41 35 42 87 43
REMARK SMILES IDX 81 44 80 45 36 47 68 48 48 49 67 50 49 51 52 52 66 53 85 54
REMARK SMILES IDX 50 55 51 56 65 58 86 59 53 60 37 61 38 62 46 63 39 64 41 65
REMARK SMILES IDX 47 66 40 67 42 68 43 69 44 70 45 71 69 72 70 73 78 74 71 75
REMARK SMILES IDX 73 76 79 77 72 78 74 79 75 80 76 81 77 82 54 83 55 84 63 85
REMARK SMILES IDX 56 86 58 87 64 88 57 89 59 90 60 91 61 92 62 93
REMARK H PARENT 84 46 52 57
REMARK Flexibility Score: inf
ROOT
ATOM      1  C   UNL A   1      35.383  20.522  25.141  1.00  0.00     0.202 C 
ENDROOT
BRANCH   1   2
ATOM      2  O   UNL A   1      34.859  21.652  25.842  1.00  0.00    -0.374 OA
BRANCH   2   3
ATOM      3  C   UNL A   1      34.411  21.452  27.182  1.00  0.00     0.202 C 
BRANCH   3   4
ATOM      4  C   UNL A   1      33.142  22.196  27.607  1.00  0.00     0.261 C 
BRANCH   4   5
ATOM      5  O   UNL A   1      32.186  22.272  26.537  1.00  0.00    -0.460 OA
BRANCH   5   6
ATOM      6  C   UNL A   1      31.340  23.324  26.613  1.00  0.00     0.338 C 
ATOM      7  O   UNL A   1      30.305  23.390  27.260  1.00  0.00    -0.246 OA
BRANCH   6   8
ATOM      8  C   UNL A   1      31.914  24.481  25.900  1.00  0.00     0.087 C 
ATOM      9  C   UNL A   1      33.567  27.750  22.369  1.00  0.00     0.048 C 
ATOM     10  C   UNL A   1      33.007  27.879  23.759  1.00  0.00    -0.007 A 
ATOM     11  C   UNL A   1      32.742  29.145  24.289  1.00  0.00     0.028 A 
ATOM     12  C   UNL A   1      32.735  26.747  24.538  1.00  0.00     0.131 A 
ATOM     13  C   UNL A   1      32.225  29.289  25.580  1.00  0.00     0.045 A 
ATOM     14  C   UNL A   1      32.167  26.879  25.816  1.00  0.00     0.022 A 
ATOM     15  O   UNL A   1      33.074  25.541  23.984  1.00  0.00    -0.475 OA
ATOM     16  Cl  UNL A   1      31.943  30.907  26.126  1.00  0.00    -0.084 Cl
ATOM     17  C   UNL A   1      31.937  28.163  26.371  1.00  0.00    -0.021 A 
ATOM     18  C   UNL A   1      31.762  25.662  26.512  1.00  0.00     0.027 C 
ATOM     19  C   UNL A   1      32.583  24.308  24.571  1.00  0.00     0.316 C 
ATOM     20  C   UNL A   1      31.398  28.297  27.775  1.00  0.00     0.047 C 
BRANCH  19  21
ATOM     21  C   UNL A   1      31.690  23.604  23.540  1.00  0.00     0.430 C 
ATOM     22  F   UNL A   1      31.838  24.155  22.312  1.00  0.00    -0.167 F 
ATOM     23  F   UNL A   1      31.993  22.292  23.427  1.00  0.00    -0.167 F 
ATOM     24  F   UNL A   1      30.381  23.694  23.872  1.00  0.00    -0.167 F 
ENDBRANCH  19  21
ENDBRANCH   6   8
ENDBRANCH   5   6
ENDBRANCH   4   5
ENDBRANCH   3   4
ENDBRANCH   2   3
ENDBRANCH   1   2
BRANCH   1  25
ATOM     25  C   UNL A   1      36.907  20.427  24.987  1.00  0.00     0.261 C 
BRANCH  25  26
ATOM     26  O   UNL A   1      37.579  21.607  25.465  1.00  0.00    -0.460 OA
BRANCH  26  27
ATOM     27  C   UNL A   1      38.811  21.388  25.982  1.00  0.00     0.338 C 
ATOM     28  O   UNL A   1      39.515  20.400  25.818  1.00  0.00    -0.246 OA
BRANCH  27  29
ATOM     29  C   UNL A   1      39.306  22.610  26.640  1.00  0.00     0.060 A 
ATOM     30  C   UNL A   1      38.617  23.805  26.393  1.00  0.00     0.016 A 
ATOM     31  C   UNL A   1      40.468  22.604  27.412  1.00  0.00     0.016 A 
ATOM     32  C   UNL A   1      39.115  25.009  26.882  1.00  0.00     0.010 A 
ATOM     33  C   UNL A   1      40.975  23.817  27.891  1.00  0.00     0.010 A 
ATOM     34  C   UNL A   1      40.319  25.027  27.599  1.00  0.00    -0.014 A 
BRANCH  34  35
ATOM     35  C   UNL A   1      40.961  26.327  27.907  1.00  0.00     0.031 A 
ATOM     36  C   UNL A   1      42.373  26.570  27.448  1.00  0.00     0.074 A 
ATOM     37  C   UNL A   1      40.282  27.290  28.556  1.00  0.00     0.049 A 
ATOM     38  N   UNL A   1      43.118  27.633  27.598  1.00  0.00    -0.248 NA
ATOM     39  C   UNL A   1      43.031  25.472  26.718  1.00  0.00     0.031 C 
ATOM     40  C   UNL A   1      38.903  27.178  29.027  1.00  0.00     0.029 A 
ATOM     41  N   UNL A   1      40.666  28.552  28.936  1.00  0.00    -0.354 N 
ATOM     42  C   UNL A   1      44.332  27.333  26.991  1.00  0.00     0.074 A 
ATOM     43  C   UNL A   1      44.235  25.979  26.492  1.00  0.00     0.031 C 
ATOM     44  C   UNL A   1      38.558  28.322  29.643  1.00  0.00     0.029 A 
ATOM     45  C   UNL A   1      39.698  29.238  29.630  1.00  0.00     0.049 A 
ATOM     46  H   UNL A   1      41.552  28.930  28.731  1.00  0.00     0.167 HD
ATOM     47  C   UNL A   1      45.420  28.124  26.839  1.00  0.00     0.034 A 
ATOM     48  C   UNL A   1      39.732  30.462  30.195  1.00  0.00     0.034 A 
ATOM     49  C   UNL A   1      45.507  29.476  27.321  1.00  0.00     0.049 A 
ATOM     50  C   UNL A   1      40.979  31.299  30.062  1.00  0.00     0.074 A 
ATOM     51  C   UNL A   1      46.562  30.362  27.199  1.00  0.00     0.029 A 
ATOM     52  N   UNL A   1      44.507  30.135  28.017  1.00  0.00    -0.354 N 
ATOM     53  N   UNL A   1      42.082  31.037  29.402  1.00  0.00    -0.248 NA
ATOM     54  C   UNL A   1      40.978  32.610  30.729  1.00  0.00     0.031 C 
ATOM     55  C   UNL A   1      46.208  31.551  27.841  1.00  0.00     0.029 A 
ATOM     56  C   UNL A   1      44.923  31.415  28.341  1.00  0.00     0.049 A 
ATOM     57  H   UNL A   1      43.630  29.750  28.247  1.00  0.00     0.167 HD
ATOM     58  C   UNL A   1      42.890  32.161  29.547  1.00  0.00     0.074 A 
ATOM     59  C   UNL A   1      42.142  33.114  30.339  1.00  0.00     0.031 C 
ATOM     60  C   UNL A   1      44.146  32.375  29.082  1.00  0.00     0.034 A 
BRANCH  47  61
ATOM     61  C   UNL A   1      46.593  27.571  26.074  1.00  0.00     0.023 A 
ATOM     62  C   UNL A   1      46.687  27.814  24.690  1.00  0.00     0.012 A 
ATOM     63  C   UNL A   1      47.644  26.905  26.734  1.00  0.00     0.148 A 
ATOM     64  C   UNL A   1      47.801  27.388  23.969  1.00  0.00     0.002 A 
ATOM     65  C   UNL A   1      48.771  26.520  26.016  1.00  0.00     0.091 A 
ATOM     66  F   UNL A   1      47.525  26.669  28.049  1.00  0.00    -0.205 F 
ATOM     67  C   UNL A   1      48.847  26.753  24.633  1.00  0.00     0.022 A 
BRANCH  65  68
ATOM     68  S   UNL A   1      50.206  25.766  26.789  1.00  0.00     0.127 S 
ATOM     69  O   UNL A   1      51.160  25.741  25.679  1.00  0.00    -0.237 OA
ATOM     70  O   UNL A   1      50.526  26.727  27.845  1.00  0.00    -0.237 OA
ATOM     71  O   UNL A   1      49.772  24.460  27.261  1.00  0.00    -0.744 OA
ENDBRANCH  65  68
ENDBRANCH  47  61
BRANCH  48  72
ATOM     72  C   UNL A   1      38.526  30.995  30.893  1.00  0.00     0.023 A 
ATOM     73  C   UNL A   1      38.463  30.943  32.299  1.00  0.00     0.012 A 
ATOM     74  C   UNL A   1      37.456  31.571  30.180  1.00  0.00     0.148 A 
ATOM     75  C   UNL A   1      37.349  31.435  32.981  1.00  0.00     0.002 A 
ATOM     76  C   UNL A   1      36.375  32.109  30.867  1.00  0.00     0.091 A 
ATOM     77  F   UNL A   1      37.523  31.591  28.841  1.00  0.00    -0.205 F 
ATOM     78  C   UNL A   1      36.311  32.028  32.267  1.00  0.00     0.022 A 
BRANCH  76  79
ATOM     79  S   UNL A   1      35.056  33.008  30.041  1.00  0.00     0.127 S 
ATOM     80  O   UNL A   1      34.499  31.982  29.164  1.00  0.00    -0.237 OA
ATOM     81  O   UNL A   1      34.202  33.391  31.166  1.00  0.00    -0.237 OA
ATOM     82  O   UNL A   1      35.705  34.127  29.372  1.00  0.00    -0.744 OA
ENDBRANCH  76  79
ENDBRANCH  48  72
BRANCH  60  83
ATOM     83  C   UNL A   1      44.805  33.694  29.394  1.00  0.00     0.023 A 
ATOM     84  C   UNL A   1      45.585  33.820  30.561  1.00  0.00     0.012 A 
ATOM     85  C   UNL A   1      44.757  34.762  28.474  1.00  0.00     0.148 A 
ATOM     86  C   UNL A   1      46.292  34.995  30.817  1.00  0.00     0.002 A 
ATOM     87  C   UNL A   1      45.505  35.909  28.712  1.00  0.00     0.091 A 
ATOM     88  F   UNL A   1      44.000  34.627  27.376  1.00  0.00    -0.205 F 
ATOM     89  C   UNL A   1      46.264  36.032  29.887  1.00  0.00     0.022 A 
BRANCH  87  90
ATOM     90  S   UNL A   1      45.618  37.254  27.525  1.00  0.00     0.127 S 
ATOM     91  O   UNL A   1      46.574  38.148  28.177  1.00  0.00    -0.237 OA
ATOM     92  O   UNL A   1      46.133  36.574  26.335  1.00  0.00    -0.237 OA
ATOM     93  O   UNL A   1      44.268  37.781  27.384  1.00  0.00    -0.744 OA
ENDBRANCH  87  90
ENDBRANCH  60  83
ENDBRANCH  34  35
ENDBRANCH  27  29
ENDBRANCH  26  27
ENDBRANCH  25  26
ENDBRANCH   1  25
TORSDOF 18
ENDMDL
MODEL 2
REMARK VINA RESULT:     -12.0      1.264      1.572
REMARK SMILES Cc1cc(Cl)c(C)c2c1O[C@H](C(F)(F)F)C(C(=O)OCCOCCOC(=O)c1ccc(-c3c4nc(c(-c5cccc(S(=O)(=O)[O-])c5F)c5ccc([nH]5)c(-c5cccc(S(=O)(=O)[O-])c5F)c5nc(c(-c6cccc(S(=O)(=O)[O-])c6F)c6ccc3[nH]6)C=C5)C=C4)cc1)=C2
REMARK SMILES IDX 23 1 22 2 21 3 20 4 19 5 17 6 18 7 16 8 1 9 2 10 3 11 9 12
REMARK SMILES IDX 4 13 8 14 10 15 5 16 6 17 91 18 11 19 7 20 12 21 13 22 14 23
REMARK SMILES IDX 15 24 24 25 25 26 26 27 27 28 28 29 29 30 90 31 30 32 89 33
REMARK SMILES IDX 31 34 32 35 33 36 83 37 34 38 88 39 82 40 84 41 35 42 87 43
REMARK SMILES IDX 81 44 80 45 36 47 68 48 48 49 67 50 49 51 52 52 66 53 85 54
REMARK SMILES IDX 50 55 51 56 65 58 86 59 53 60 37 61 38 62 46 63 39 64 41 65
REMARK SMILES IDX 47 66 40 67 42 68 43 69 44 70 45 71 69 72 70 73 78 74 71 75
REMARK SMILES IDX 73 76 79 77 72 78 74 79 75 80 76 81 77 82 54 83 55 84 63 85
REMARK SMILES IDX 56 86 58 87 64 88 57 89 59 90 60 91 61 92 62 93
REMARK H PARENT 84 46 52 57
REMARK Flexibility Score: inf
ROOT
ATOM      1  C   UNL A   1      36.288  19.908  25.001  1.00  0.00     0.202 C 
ENDROOT
BRANCH   1   2
ATOM      2  O   UNL A   1      35.484  21.083  24.873  1.00  0.00    -0.374 OA
BRANCH   2   3
ATOM      3  C   UNL A   1      35.134  21.780  26.067  1.00  0.00     0.202 C 
BRANCH   3   4
ATOM      4  C   UNL A   1      33.726  21.542  26.622  1.00  0.00     0.261 C 
BRANCH   4   5
ATOM      5  O   UNL A   1      33.109  22.765  27.053  1.00  0.00    -0.460 OA
BRANCH   5   6
ATOM      6  C   UNL A   1      32.160  23.241  26.216  1.00  0.00     0.338 C 
ATOM      7  O   UNL A   1      31.035  22.792  26.050  1.00  0.00    -0.246 OA
BRANCH   6   8
ATOM      8  C   UNL A   1      32.616  24.504  25.606  1.00  0.00     0.087 C 
ATOM      9  C   UNL A   1      34.041  28.163  22.371  1.00  0.00     0.048 C 
ATOM     10  C   UNL A   1      33.377  28.135  23.719  1.00  0.00    -0.007 A 
ATOM     11  C   UNL A   1      32.905  29.323  24.289  1.00  0.00     0.028 A 
ATOM     12  C   UNL A   1      33.209  26.934  24.420  1.00  0.00     0.131 A 
ATOM     13  C   UNL A   1      32.288  29.321  25.544  1.00  0.00     0.045 A 
ATOM     14  C   UNL A   1      32.544  26.914  25.658  1.00  0.00     0.022 A 
ATOM     15  O   UNL A   1      33.747  25.818  23.835  1.00  0.00    -0.475 OA
ATOM     16  Cl  UNL A   1      31.751  30.853  26.145  1.00  0.00    -0.084 Cl
ATOM     17  C   UNL A   1      32.104  28.122  26.255  1.00  0.00    -0.021 A 
ATOM     18  C   UNL A   1      32.263  25.617  26.261  1.00  0.00     0.027 C 
ATOM     19  C   UNL A   1      33.391  24.499  24.323  1.00  0.00     0.316 C 
ATOM     20  C   UNL A   1      31.458  28.102  27.620  1.00  0.00     0.047 C 
BRANCH  19  21
ATOM     21  C   UNL A   1      32.674  23.744  23.195  1.00  0.00     0.430 C 
ATOM     22  F   UNL A   1      33.166  24.096  21.984  1.00  0.00    -0.167 F 
ATOM     23  F   UNL A   1      32.825  22.406  23.313  1.00  0.00    -0.167 F 
ATOM     24  F   UNL A   1      31.346  24.006  23.188  1.00  0.00    -0.167 F 
ENDBRANCH  19  21
ENDBRANCH   6   8
ENDBRANCH   5   6
ENDBRANCH   4   5
ENDBRANCH   3   4
ENDBRANCH   2   3
ENDBRANCH   1   2
BRANCH   1  25
ATOM     25  C   UNL A   1      37.798  20.056  24.774  1.00  0.00     0.261 C 
BRANCH  25  26
ATOM     26  O   UNL A   1      38.327  21.252  25.374  1.00  0.00    -0.460 OA
BRANCH  26  27
ATOM     27  C   UNL A   1      39.435  21.066  26.131  1.00  0.00     0.338 C 
ATOM     28  O   UNL A   1      40.144  20.069  26.167  1.00  0.00    -0.246 OA
BRANCH  27  29
ATOM     29  C   UNL A   1      39.811  22.327  26.794  1.00  0.00     0.060 A 
ATOM     30  C   UNL A   1      39.134  23.491  26.405  1.00  0.00     0.016 A 
ATOM     31  C   UNL A   1      40.860  22.384  27.712  1.00  0.00     0.016 A 
ATOM     32  C   UNL A   1      39.537  24.727  26.902  1.00  0.00     0.010 A 
ATOM     33  C   UNL A   1      41.271  23.630  28.200  1.00  0.00     0.010 A 
ATOM     34  C   UNL A   1      40.634  24.808  27.770  1.00  0.00    -0.014 A 
BRANCH  34  35
ATOM     35  C   UNL A   1      41.200  26.137  28.103  1.00  0.00     0.031 A 
ATOM     36  C   UNL A   1      42.626  26.436  27.729  1.00  0.00     0.074 A 
ATOM     37  C   UNL A   1      40.442  27.076  28.698  1.00  0.00     0.049 A 
ATOM     38  N   UNL A   1      43.315  27.532  27.912  1.00  0.00    -0.248 NA
ATOM     39  C   UNL A   1      43.373  25.362  27.052  1.00  0.00     0.031 C 
ATOM     40  C   UNL A   1      39.042  26.908  29.085  1.00  0.00     0.029 A 
ATOM     41  N   UNL A   1      40.749  28.356  29.087  1.00  0.00    -0.354 N 
ATOM     42  C   UNL A   1      44.576  27.279  27.384  1.00  0.00     0.074 A 
ATOM     43  C   UNL A   1      44.567  25.918  26.895  1.00  0.00     0.031 C 
ATOM     44  C   UNL A   1      38.613  28.042  29.667  1.00  0.00     0.029 A 
ATOM     45  C   UNL A   1      39.712  29.005  29.713  1.00  0.00     0.049 A 
ATOM     46  H   UNL A   1      41.628  28.769  28.933  1.00  0.00     0.167 HD
ATOM     47  C   UNL A   1      45.637  28.114  27.291  1.00  0.00     0.034 A 
ATOM     48  C   UNL A   1      39.659  30.234  30.266  1.00  0.00     0.034 A 
ATOM     49  C   UNL A   1      45.637  29.472  27.762  1.00  0.00     0.049 A 
ATOM     50  C   UNL A   1      40.875  31.123  30.200  1.00  0.00     0.074 A 
ATOM     51  C   UNL A   1      46.659  30.402  27.695  1.00  0.00     0.029 A 
ATOM     52  N   UNL A   1      44.569  30.094  28.388  1.00  0.00    -0.354 N 
ATOM     53  N   UNL A   1      42.027  30.903  29.612  1.00  0.00    -0.248 NA
ATOM     54  C   UNL A   1      40.778  32.438  30.851  1.00  0.00     0.031 C 
ATOM     55  C   UNL A   1      46.216  31.580  28.301  1.00  0.00     0.029 A 
ATOM     56  C   UNL A   1      44.909  31.393  28.723  1.00  0.00     0.049 A 
ATOM     57  H   UNL A   1      43.696  29.674  28.568  1.00  0.00     0.167 HD
ATOM     58  C   UNL A   1      42.776  32.061  29.794  1.00  0.00     0.074 A 
ATOM     59  C   UNL A   1      41.941  32.988  30.528  1.00  0.00     0.031 C 
ATOM     60  C   UNL A   1      44.048  32.326  29.404  1.00  0.00     0.034 A 
BRANCH  47  61
ATOM     61  C   UNL A   1      46.877  27.606  26.605  1.00  0.00     0.023 A 
ATOM     62  C   UNL A   1      47.765  26.776  27.317  1.00  0.00     0.012 A 
ATOM     63  C   UNL A   1      47.112  27.864  25.241  1.00  0.00     0.148 A 
ATOM     64  C   UNL A   1      48.878  26.222  26.686  1.00  0.00     0.002 A 
ATOM     65  C   UNL A   1      48.200  27.274  24.608  1.00  0.00     0.091 A 
ATOM     66  F   UNL A   1      46.263  28.671  24.588  1.00  0.00    -0.205 F 
ATOM     67  C   UNL A   1      49.088  26.460  25.331  1.00  0.00     0.022 A 
BRANCH  65  68
ATOM     68  S   UNL A   1      48.518  27.453  22.849  1.00  0.00     0.127 S 
ATOM     69  O   UNL A   1      49.797  28.165  22.852  1.00  0.00    -0.237 OA
ATOM     70  O   UNL A   1      48.597  26.060  22.409  1.00  0.00    -0.237 OA
ATOM     71  O   UNL A   1      47.394  28.203  22.309  1.00  0.00    -0.744 OA
ENDBRANCH  65  68
ENDBRANCH  47  61
BRANCH  48  72
ATOM     72  C   UNL A   1      38.390  30.721  30.883  1.00  0.00     0.023 A 
ATOM     73  C   UNL A   1      38.190  30.558  32.267  1.00  0.00     0.012 A 
ATOM     74  C   UNL A   1      37.397  31.362  30.117  1.00  0.00     0.148 A 
ATOM     75  C   UNL A   1      37.014  31.004  32.874  1.00  0.00     0.002 A 
ATOM     76  C   UNL A   1      36.254  31.853  30.736  1.00  0.00     0.091 A 
ATOM     77  F   UNL A   1      37.595  31.488  28.797  1.00  0.00    -0.205 F 
ATOM     78  C   UNL A   1      36.053  31.662  32.112  1.00  0.00     0.022 A 
BRANCH  76  79
ATOM     79  S   UNL A   1      35.024  32.826  29.859  1.00  0.00     0.127 S 
ATOM     80  O   UNL A   1      34.091  33.165  30.930  1.00  0.00    -0.237 OA
ATOM     81  O   UNL A   1      35.824  33.945  29.360  1.00  0.00    -0.237 OA
ATOM     82  O   UNL A   1      34.501  31.951  28.819  1.00  0.00    -0.744 OA
ENDBRANCH  76  79
ENDBRANCH  48  72
BRANCH  60  83
ATOM     83  C   UNL A   1      44.630  33.674  29.742  1.00  0.00     0.023 A 
ATOM     84  C   UNL A   1      45.536  33.789  30.815  1.00  0.00     0.012 A 
ATOM     85  C   UNL A   1      44.382  34.795  28.922  1.00  0.00     0.148 A 
ATOM     86  C   UNL A   1      46.170  35.002  31.080  1.00  0.00     0.002 A 
ATOM     87  C   UNL A   1      45.057  35.986  29.163  1.00  0.00     0.091 A 
ATOM     88  F   UNL A   1      43.508  34.668  27.913  1.00  0.00    -0.205 F 
ATOM     89  C   UNL A   1      45.943  36.095  30.247  1.00  0.00     0.022 A 
BRANCH  87  90
ATOM     90  S   UNL A   1      44.911  37.415  28.082  1.00  0.00     0.127 S 
ATOM     91  O   UNL A   1      43.647  37.998  28.528  1.00  0.00    -0.237 OA
ATOM     92  O   UNL A   1      46.100  38.193  28.436  1.00  0.00    -0.237 OA
ATOM     93  O   UNL A   1      44.912  36.893  26.722  1.00  0.00    -0.744 OA
ENDBRANCH  87  90
ENDBRANCH  60  83
ENDBRANCH  34  35
ENDBRANCH  27  29
ENDBRANCH  26  27
ENDBRANCH  25  26
ENDBRANCH   1  25
TORSDOF 18
ENDMDL
MODEL 3
REMARK VINA RESULT:     -12.0      4.765     10.037
REMARK SMILES Cc1cc(Cl)c(C)c2c1O[C@H](C(F)(F)F)C(C(=O)OCCOCCOC(=O)c1ccc(-c3c4nc(c(-c5cccc(S(=O)(=O)[O-])c5F)c5ccc([nH]5)c(-c5cccc(S(=O)(=O)[O-])c5F)c5nc(c(-c6cccc(S(=O)(=O)[O-])c6F)c6ccc3[nH]6)C=C5)C=C4)cc1)=C2
REMARK SMILES IDX 23 1 22 2 21 3 20 4 19 5 17 6 18 7 16 8 1 9 2 10 3 11 9 12
REMARK SMILES IDX 4 13 8 14 10 15 5 16 6 17 91 18 11 19 7 20 12 21 13 22 14 23
REMARK SMILES IDX 15 24 24 25 25 26 26 27 27 28 28 29 29 30 90 31 30 32 89 33
REMARK SMILES IDX 31 34 32 35 33 36 83 37 34 38 88 39 82 40 84 41 35 42 87 43
REMARK SMILES IDX 81 44 80 45 36 47 68 48 48 49 67 50 49 51 52 52 66 53 85 54
REMARK SMILES IDX 50 55 51 56 65 58 86 59 53 60 37 61 38 62 46 63 39 64 41 65
REMARK SMILES IDX 47 66 40 67 42 68 43 69 44 70 45 71 69 72 70 73 78 74 71 75
REMARK SMILES IDX 73 76 79 77 72 78 74 79 75 80 76 81 77 82 54 83 55 84 63 85
REMARK SMILES IDX 56 86 58 87 64 88 57 89 59 90 60 91 61 92 62 93
REMARK H PARENT 84 46 52 57
REMARK Flexibility Score: inf
ROOT
ATOM      1  C   UNL A   1      31.454  30.495  25.380  1.00  0.00     0.202 C 
ENDROOT
BRANCH   1   2
ATOM      2  O   UNL A   1      32.677  29.764  25.263  1.00  0.00    -0.374 OA
BRANCH   2   3
ATOM      3  C   UNL A   1      32.978  29.171  24.001  1.00  0.00     0.202 C 
BRANCH   3   4
ATOM      4  C   UNL A   1      32.597  27.698  23.819  1.00  0.00     0.261 C 
BRANCH   4   5
ATOM      5  O   UNL A   1      33.513  26.824  24.496  1.00  0.00    -0.460 OA
BRANCH   5   6
ATOM      6  C   UNL A   1      33.022  26.257  25.621  1.00  0.00     0.338 C 
ATOM      7  O   UNL A   1      32.388  26.812  26.507  1.00  0.00    -0.246 OA
BRANCH   6   8
ATOM      8  C   UNL A   1      33.232  24.798  25.580  1.00  0.00     0.087 C 
ATOM      9  C   UNL A   1      32.873  19.807  24.661  1.00  0.00     0.048 C 
ATOM     10  C   UNL A   1      34.003  20.757  24.945  1.00  0.00    -0.007 A 
ATOM     11  C   UNL A   1      35.326  20.307  24.879  1.00  0.00     0.028 A 
ATOM     12  C   UNL A   1      33.758  22.098  25.269  1.00  0.00     0.131 A 
ATOM     13  C   UNL A   1      36.392  21.173  25.143  1.00  0.00     0.045 A 
ATOM     14  C   UNL A   1      34.823  22.987  25.485  1.00  0.00     0.022 A 
ATOM     15  O   UNL A   1      32.441  22.458  25.377  1.00  0.00    -0.475 OA
ATOM     16  Cl  UNL A   1      37.982  20.498  25.033  1.00  0.00    -0.084 Cl
ATOM     17  C   UNL A   1      36.163  22.523  25.459  1.00  0.00    -0.021 A 
ATOM     18  C   UNL A   1      34.508  24.401  25.663  1.00  0.00     0.027 C 
ATOM     19  C   UNL A   1      32.073  23.861  25.425  1.00  0.00     0.316 C 
ATOM     20  C   UNL A   1      37.299  23.468  25.768  1.00  0.00     0.047 C 
BRANCH  19  21
ATOM     21  C   UNL A   1      31.210  24.177  24.195  1.00  0.00     0.430 C 
ATOM     22  F   UNL A   1      31.980  24.540  23.142  1.00  0.00    -0.167 F 
ATOM     23  F   UNL A   1      30.482  23.107  23.806  1.00  0.00    -0.167 F 
ATOM     24  F   UNL A   1      30.348  25.191  24.440  1.00  0.00    -0.167 F 
ENDBRANCH  19  21
ENDBRANCH   6   8
ENDBRANCH   5   6
ENDBRANCH   4   5
ENDBRANCH   3   4
ENDBRANCH   2   3
ENDBRANCH   1   2
BRANCH   1  25
ATOM     25  C   UNL A   1      31.426  31.677  26.357  1.00  0.00     0.261 C 
BRANCH  25  26
ATOM     26  O   UNL A   1      32.358  31.512  27.442  1.00  0.00    -0.460 OA
BRANCH  26  27
ATOM     27  C   UNL A   1      33.240  32.529  27.592  1.00  0.00     0.338 C 
ATOM     28  O   UNL A   1      32.990  33.727  27.597  1.00  0.00    -0.246 OA
BRANCH  27  29
ATOM     29  C   UNL A   1      34.565  31.997  27.953  1.00  0.00     0.060 A 
ATOM     30  C   UNL A   1      34.662  30.627  28.230  1.00  0.00     0.016 A 
ATOM     31  C   UNL A   1      35.672  32.833  28.100  1.00  0.00     0.016 A 
ATOM     32  C   UNL A   1      35.859  30.095  28.702  1.00  0.00     0.010 A 
ATOM     33  C   UNL A   1      36.871  32.299  28.587  1.00  0.00     0.010 A 
ATOM     34  C   UNL A   1      36.958  30.935  28.922  1.00  0.00    -0.014 A 
BRANCH  34  35
ATOM     35  C   UNL A   1      38.142  30.409  29.643  1.00  0.00     0.031 A 
ATOM     36  C   UNL A   1      38.394  30.859  31.055  1.00  0.00     0.074 A 
ATOM     37  C   UNL A   1      38.959  29.515  29.058  1.00  0.00     0.049 A 
ATOM     38  N   UNL A   1      39.357  30.517  31.871  1.00  0.00    -0.248 NA
ATOM     39  C   UNL A   1      37.432  31.816  31.629  1.00  0.00     0.031 C 
ATOM     40  C   UNL A   1      38.800  28.989  27.703  1.00  0.00     0.029 A 
ATOM     41  N   UNL A   1      40.091  28.898  29.529  1.00  0.00    -0.354 N 
ATOM     42  C   UNL A   1      39.123  31.220  33.048  1.00  0.00     0.074 A 
ATOM     43  C   UNL A   1      37.943  32.027  32.834  1.00  0.00     0.031 C 
ATOM     44  C   UNL A   1      39.806  28.133  27.448  1.00  0.00     0.029 A 
ATOM     45  C   UNL A   1      40.690  28.069  28.611  1.00  0.00     0.049 A 
ATOM     46  H   UNL A   1      40.440  29.037  30.438  1.00  0.00     0.167 HD
ATOM     47  C   UNL A   1      39.815  31.175  34.210  1.00  0.00     0.034 A 
ATOM     48  C   UNL A   1      41.826  27.347  28.698  1.00  0.00     0.034 A 
ATOM     49  C   UNL A   1      40.978  30.358  34.425  1.00  0.00     0.049 A 
ATOM     50  C   UNL A   1      42.609  27.362  29.986  1.00  0.00     0.074 A 
ATOM     51  C   UNL A   1      41.735  30.232  35.576  1.00  0.00     0.029 A 
ATOM     52  N   UNL A   1      41.553  29.532  33.474  1.00  0.00    -0.354 N 
ATOM     53  N   UNL A   1      42.322  27.956  31.120  1.00  0.00    -0.248 NA
ATOM     54  C   UNL A   1      43.860  26.589  30.017  1.00  0.00     0.031 C 
ATOM     55  C   UNL A   1      42.783  29.346  35.313  1.00  0.00     0.029 A 
ATOM     56  C   UNL A   1      42.664  28.900  34.006  1.00  0.00     0.049 A 
ATOM     57  H   UNL A   1      41.221  29.412  32.554  1.00  0.00     0.167 HD
ATOM     58  C   UNL A   1      43.335  27.602  32.005  1.00  0.00     0.074 A 
ATOM     59  C   UNL A   1      44.233  26.725  31.283  1.00  0.00     0.031 C 
ATOM     60  C   UNL A   1      43.517  27.984  33.293  1.00  0.00     0.034 A 
BRANCH  47  61
ATOM     61  C   UNL A   1      39.305  31.994  35.366  1.00  0.00     0.023 A 
ATOM     62  C   UNL A   1      38.424  31.402  36.292  1.00  0.00     0.012 A 
ATOM     63  C   UNL A   1      39.772  33.303  35.593  1.00  0.00     0.148 A 
ATOM     64  C   UNL A   1      37.999  32.106  37.418  1.00  0.00     0.002 A 
ATOM     65  C   UNL A   1      39.377  33.984  36.739  1.00  0.00     0.091 A 
ATOM     66  F   UNL A   1      40.596  33.853  34.689  1.00  0.00    -0.205 F 
ATOM     67  C   UNL A   1      38.485  33.390  37.648  1.00  0.00     0.022 A 
BRANCH  65  68
ATOM     68  S   UNL A   1      40.005  35.611  37.170  1.00  0.00     0.127 S 
ATOM     69  O   UNL A   1      39.574  36.407  36.021  1.00  0.00    -0.237 OA
ATOM     70  O   UNL A   1      39.288  35.896  38.413  1.00  0.00    -0.237 OA
ATOM     71  O   UNL A   1      41.446  35.463  37.315  1.00  0.00    -0.744 OA
ENDBRANCH  65  68
ENDBRANCH  47  61
BRANCH  48  72
ATOM     72  C   UNL A   1      42.263  26.502  27.549  1.00  0.00     0.023 A 
ATOM     73  C   UNL A   1      43.052  27.075  26.532  1.00  0.00     0.012 A 
ATOM     74  C   UNL A   1      41.925  25.137  27.466  1.00  0.00     0.148 A 
ATOM     75  C   UNL A   1      43.478  26.311  25.445  1.00  0.00     0.002 A 
ATOM     76  C   UNL A   1      42.398  24.368  26.410  1.00  0.00     0.091 A 
ATOM     77  F   UNL A   1      41.153  24.615  28.431  1.00  0.00    -0.205 F 
ATOM     78  C   UNL A   1      43.162  24.956  25.390  1.00  0.00     0.022 A 
BRANCH  76  79
ATOM     79  S   UNL A   1      42.151  22.591  26.323  1.00  0.00     0.127 S 
ATOM     80  O   UNL A   1      40.694  22.493  26.273  1.00  0.00    -0.237 OA
ATOM     81  O   UNL A   1      42.836  22.251  25.076  1.00  0.00    -0.237 OA
ATOM     82  O   UNL A   1      42.780  22.049  27.520  1.00  0.00    -0.744 OA
ENDBRANCH  76  79
ENDBRANCH  48  72
BRANCH  60  83
ATOM     83  C   UNL A   1      44.720  27.454  34.030  1.00  0.00     0.023 A 
ATOM     84  C   UNL A   1      45.905  28.215  34.060  1.00  0.00     0.012 A 
ATOM     85  C   UNL A   1      44.636  26.272  34.796  1.00  0.00     0.148 A 
ATOM     86  C   UNL A   1      46.996  27.799  34.823  1.00  0.00     0.002 A 
ATOM     87  C   UNL A   1      45.709  25.892  35.594  1.00  0.00     0.091 A 
ATOM     88  F   UNL A   1      43.504  25.556  34.745  1.00  0.00    -0.205 F 
ATOM     89  C   UNL A   1      46.893  26.648  35.601  1.00  0.00     0.022 A 
BRANCH  87  90
ATOM     90  S   UNL A   1      45.633  24.485  36.710  1.00  0.00     0.127 S 
ATOM     91  O   UNL A   1      46.979  24.486  37.282  1.00  0.00    -0.237 OA
ATOM     92  O   UNL A   1      44.575  24.885  37.639  1.00  0.00    -0.237 OA
ATOM     93  O   UNL A   1      45.309  23.331  35.882  1.00  0.00    -0.744 OA
ENDBRANCH  87  90
ENDBRANCH  60  83
ENDBRANCH  34  35
ENDBRANCH  27  29
ENDBRANCH  26  27
ENDBRANCH  25  26
ENDBRANCH   1  25
TORSDOF 18
ENDMDL
