MODEL 1
REMARK VINA RESULT:     -10.6      0.000      0.000
REMARK SMILES CCOc1cccc(OCC)c1-c1ccc([C@@H](C)C(=O)OCCOCCOC(=O)c2ccc(-c3c4nc(c(-c5cccc(S(=O)(=O)[O-])c5F)c5ccc([nH]5)c(-c5cccc(S(=O)(=O)[O-])c5F)c5nc(c(-c6cccc(S(=O)(=O)[O-])c6F)c6ccc3[nH]6)C=C5)C=C4)cc2)cc1F
REMARK SMILES IDX 23 1 22 2 21 3 19 4 20 5 17 6 18 7 16 8 13 9 14 10 94 11
REMARK SMILES IDX 15 12 93 13 95 14 12 15 4 16 5 17 6 18 8 19 7 20 3 21 2 22
REMARK SMILES IDX 1 23 9 24 10 25 11 26 24 27 25 28 26 29 27 30 28 31 29 32
REMARK SMILES IDX 30 33 31 34 92 35 32 36 91 37 33 38 34 39 35 40 85 41 36 42
REMARK SMILES IDX 90 43 84 44 86 45 37 46 89 47 83 48 82 49 38 51 70 52 50 53
REMARK SMILES IDX 69 54 51 55 54 56 68 57 87 58 52 59 53 60 67 62 88 63 55 64
REMARK SMILES IDX 39 65 40 66 48 67 41 68 43 69 49 70 42 71 44 72 45 73 46 74
REMARK SMILES IDX 47 75 71 76 72 77 80 78 73 79 75 80 81 81 74 82 76 83 77 84
REMARK SMILES IDX 78 85 79 86 56 87 57 88 65 89 58 90 60 91 66 92 59 93 61 94
REMARK SMILES IDX 62 95 63 96 64 97
REMARK H PARENT 86 50 54 61
REMARK Flexibility Score: inf
ROOT
ATOM      1  C   UNL A   1      30.727  29.272  23.724  1.00  0.00     0.202 C 
ENDROOT
BRANCH   1   2
ATOM      2  C   UNL A   1      30.279  27.920  23.162  1.00  0.00     0.261 C 
BRANCH   2   3
ATOM      3  O   UNL A   1      30.980  26.807  23.755  1.00  0.00    -0.463 OA
BRANCH   3   4
ATOM      4  C   UNL A   1      30.264  26.036  24.613  1.00  0.00     0.313 C 
ATOM      5  O   UNL A   1      29.044  25.895  24.550  1.00  0.00    -0.252 OA
BRANCH   4   6
ATOM      6  C   UNL A   1      31.065  25.374  25.722  1.00  0.00     0.126 C 
ATOM      7  C   UNL A   1      32.041  26.403  26.291  1.00  0.00     0.025 C 
BRANCH   6   8
ATOM      8  C   UNL A   1      31.775  24.040  25.509  1.00  0.00    -0.031 A 
ATOM      9  C   UNL A   1      33.518  21.779  25.294  1.00  0.00     0.025 A 
ATOM     10  C   UNL A   1      33.002  22.425  24.157  1.00  0.00     0.012 A 
ATOM     11  C   UNL A   1      33.069  22.229  26.537  1.00  0.00     0.131 A 
ATOM     12  C   UNL A   1      32.176  23.556  24.261  1.00  0.00     0.005 A 
ATOM     13  C   UNL A   1      32.211  23.330  26.646  1.00  0.00     0.044 A 
ATOM     14  F   UNL A   1      33.499  21.649  27.668  1.00  0.00    -0.206 F 
BRANCH   9  15
ATOM     15  C   UNL A   1      34.498  20.682  25.155  1.00  0.00     0.069 A 
ATOM     16  C   UNL A   1      34.017  19.400  24.771  1.00  0.00     0.130 A 
ATOM     17  C   UNL A   1      34.868  18.320  24.510  1.00  0.00     0.047 A 
ATOM     18  C   UNL A   1      36.238  18.490  24.614  1.00  0.00     0.008 A 
ATOM     19  C   UNL A   1      35.895  20.816  25.323  1.00  0.00     0.130 A 
ATOM     20  C   UNL A   1      36.736  19.720  25.033  1.00  0.00     0.047 A 
BRANCH  16  21
ATOM     21  O   UNL A   1      32.660  19.182  24.755  1.00  0.00    -0.493 OA
BRANCH  21  22
ATOM     22  C   UNL A   1      32.234  18.322  23.696  1.00  0.00     0.226 C 
ATOM     23  C   UNL A   1      32.213  19.160  22.437  1.00  0.00     0.049 C 
ENDBRANCH  21  22
ENDBRANCH  16  21
BRANCH  19  24
ATOM     24  O   UNL A   1      36.658  21.856  25.777  1.00  0.00    -0.493 OA
BRANCH  24  25
ATOM     25  C   UNL A   1      36.785  23.112  25.135  1.00  0.00     0.226 C 
ATOM     26  C   UNL A   1      37.550  24.068  26.031  1.00  0.00     0.049 C 
ENDBRANCH  24  25
ENDBRANCH  19  24
ENDBRANCH   9  15
ENDBRANCH   6   8
ENDBRANCH   4   6
ENDBRANCH   3   4
ENDBRANCH   2   3
ENDBRANCH   1   2
BRANCH   1  27
ATOM     27  O   UNL A   1      32.129  29.436  23.952  1.00  0.00    -0.374 OA
BRANCH  27  28
ATOM     28  C   UNL A   1      32.551  29.657  25.292  1.00  0.00     0.202 C 
BRANCH  28  29
ATOM     29  C   UNL A   1      31.911  30.838  26.025  1.00  0.00     0.261 C 
BRANCH  29  30
ATOM     30  O   UNL A   1      32.408  31.018  27.363  1.00  0.00    -0.460 OA
BRANCH  30  31
ATOM     31  C   UNL A   1      33.270  32.051  27.514  1.00  0.00     0.338 C 
ATOM     32  O   UNL A   1      33.013  33.245  27.455  1.00  0.00    -0.246 OA
BRANCH  31  33
ATOM     33  C   UNL A   1      34.607  31.555  27.884  1.00  0.00     0.060 A 
ATOM     34  C   UNL A   1      34.752  30.199  28.196  1.00  0.00     0.016 A 
ATOM     35  C   UNL A   1      35.670  32.442  28.065  1.00  0.00     0.016 A 
ATOM     36  C   UNL A   1      35.958  29.731  28.724  1.00  0.00     0.010 A 
ATOM     37  C   UNL A   1      36.881  31.966  28.588  1.00  0.00     0.010 A 
ATOM     38  C   UNL A   1      37.022  30.616  28.954  1.00  0.00    -0.014 A 
BRANCH  38  39
ATOM     39  C   UNL A   1      38.232  30.147  29.679  1.00  0.00     0.031 A 
ATOM     40  C   UNL A   1      38.496  30.624  31.084  1.00  0.00     0.074 A 
ATOM     41  C   UNL A   1      39.090  29.286  29.099  1.00  0.00     0.049 A 
ATOM     42  N   UNL A   1      39.467  30.300  31.899  1.00  0.00    -0.248 NA
ATOM     43  C   UNL A   1      37.539  31.591  31.644  1.00  0.00     0.031 C 
ATOM     44  C   UNL A   1      38.958  28.748  27.747  1.00  0.00     0.029 A 
ATOM     45  N   UNL A   1      40.248  28.722  29.575  1.00  0.00    -0.354 N 
ATOM     46  C   UNL A   1      39.249  31.029  33.061  1.00  0.00     0.074 A 
ATOM     47  C   UNL A   1      38.065  31.832  32.838  1.00  0.00     0.031 C 
ATOM     48  C   UNL A   1      40.001  27.939  27.497  1.00  0.00     0.029 A 
ATOM     49  C   UNL A   1      40.882  27.911  28.664  1.00  0.00     0.049 A 
ATOM     50  H   UNL A   1      40.592  28.883  30.483  1.00  0.00     0.167 HD
ATOM     51  C   UNL A   1      39.951  31.017  34.220  1.00  0.00     0.034 A 
ATOM     52  C   UNL A   1      42.040  27.226  28.758  1.00  0.00     0.034 A 
ATOM     53  C   UNL A   1      41.117  30.209  34.460  1.00  0.00     0.049 A 
ATOM     54  C   UNL A   1      42.822  27.258  30.045  1.00  0.00     0.074 A 
ATOM     55  C   UNL A   1      41.861  30.094  35.622  1.00  0.00     0.029 A 
ATOM     56  N   UNL A   1      41.716  29.387  33.520  1.00  0.00    -0.354 N 
ATOM     57  N   UNL A   1      42.523  27.842  31.179  1.00  0.00    -0.248 NA
ATOM     58  C   UNL A   1      44.087  26.507  30.074  1.00  0.00     0.031 C 
ATOM     59  C   UNL A   1      42.923  29.214  35.377  1.00  0.00     0.029 A 
ATOM     60  C   UNL A   1      42.830  28.771  34.068  1.00  0.00     0.049 A 
ATOM     61  H   UNL A   1      41.398  29.258  32.597  1.00  0.00     0.167 HD
ATOM     62  C   UNL A   1      43.540  27.500  32.067  1.00  0.00     0.074 A 
ATOM     63  C   UNL A   1      44.455  26.643  31.341  1.00  0.00     0.031 C 
ATOM     64  C   UNL A   1      43.706  27.874  33.359  1.00  0.00     0.034 A 
BRANCH  51  65
ATOM     65  C   UNL A   1      39.441  31.876  35.348  1.00  0.00     0.023 A 
ATOM     66  C   UNL A   1      38.512  31.336  36.259  1.00  0.00     0.012 A 
ATOM     67  C   UNL A   1      39.910  33.191  35.535  1.00  0.00     0.148 A 
ATOM     68  C   UNL A   1      38.032  32.100  37.323  1.00  0.00     0.002 A 
ATOM     69  C   UNL A   1      39.455  33.935  36.618  1.00  0.00     0.091 A 
ATOM     70  F   UNL A   1      40.773  33.697  34.643  1.00  0.00    -0.205 F 
ATOM     71  C   UNL A   1      38.511  33.395  37.507  1.00  0.00     0.022 A 
BRANCH  69  72
ATOM     72  S   UNL A   1      40.069  35.586  36.969  1.00  0.00     0.127 S 
ATOM     73  O   UNL A   1      39.566  36.338  35.821  1.00  0.00    -0.237 OA
ATOM     74  O   UNL A   1      39.412  35.903  38.238  1.00  0.00    -0.237 OA
ATOM     75  O   UNL A   1      41.517  35.456  37.058  1.00  0.00    -0.744 OA
ENDBRANCH  69  72
ENDBRANCH  51  65
BRANCH  52  76
ATOM     76  C   UNL A   1      42.503  26.392  27.613  1.00  0.00     0.023 A 
ATOM     77  C   UNL A   1      43.404  26.941  26.680  1.00  0.00     0.012 A 
ATOM     78  C   UNL A   1      42.077  25.059  27.453  1.00  0.00     0.148 A 
ATOM     79  C   UNL A   1      43.854  26.187  25.596  1.00  0.00     0.002 A 
ATOM     80  C   UNL A   1      42.569  24.296  26.401  1.00  0.00     0.091 A 
ATOM     81  F   UNL A   1      41.201  24.563  28.339  1.00  0.00    -0.205 F 
ATOM     82  C   UNL A   1      43.445  24.862  25.462  1.00  0.00     0.022 A 
BRANCH  80  83
ATOM     83  S   UNL A   1      42.195  22.549  26.227  1.00  0.00     0.127 S 
ATOM     84  O   UNL A   1      42.815  22.236  24.942  1.00  0.00    -0.237 OA
ATOM     85  O   UNL A   1      42.870  21.976  27.394  1.00  0.00    -0.237 OA
ATOM     86  O   UNL A   1      40.742  22.454  26.271  1.00  0.00    -0.744 OA
ENDBRANCH  80  83
ENDBRANCH  52  76
BRANCH  64  87
ATOM     87  C   UNL A   1      44.909  27.342  34.095  1.00  0.00     0.023 A 
ATOM     88  C   UNL A   1      46.114  28.072  34.080  1.00  0.00     0.012 A 
ATOM     89  C   UNL A   1      44.828  26.163  34.863  1.00  0.00     0.148 A 
ATOM     90  C   UNL A   1      47.225  27.624  34.793  1.00  0.00     0.002 A 
ATOM     91  C   UNL A   1      45.926  25.746  35.607  1.00  0.00     0.091 A 
ATOM     92  F   UNL A   1      43.680  25.469  34.851  1.00  0.00    -0.205 F 
ATOM     93  C   UNL A   1      47.129  26.470  35.565  1.00  0.00     0.022 A 
BRANCH  91  94
ATOM     94  S   UNL A   1      45.861  24.319  36.698  1.00  0.00     0.127 S 
ATOM     95  O   UNL A   1      44.776  24.686  37.606  1.00  0.00    -0.237 OA
ATOM     96  O   UNL A   1      45.539  23.230  35.774  1.00  0.00    -0.237 OA
ATOM     97  O   UNL A   1      47.183  24.222  37.302  1.00  0.00    -0.744 OA
ENDBRANCH  91  94
ENDBRANCH  64  87
ENDBRANCH  38  39
ENDBRANCH  31  33
ENDBRANCH  30  31
ENDBRANCH  29  30
ENDBRANCH  28  29
ENDBRANCH  27  28
ENDBRANCH   1  27
TORSDOF 23
ENDMDL
MODEL 2
REMARK VINA RESULT:     -10.0      1.767      2.384
REMARK SMILES CCOc1cccc(OCC)c1-c1ccc([C@@H](C)C(=O)OCCOCCOC(=O)c2ccc(-c3c4nc(c(-c5cccc(S(=O)(=O)[O-])c5F)c5ccc([nH]5)c(-c5cccc(S(=O)(=O)[O-])c5F)c5nc(c(-c6cccc(S(=O)(=O)[O-])c6F)c6ccc3[nH]6)C=C5)C=C4)cc2)cc1F
REMARK SMILES IDX 23 1 22 2 21 3 19 4 20 5 17 6 18 7 16 8 13 9 14 10 94 11
REMARK SMILES IDX 15 12 93 13 95 14 12 15 4 16 5 17 6 18 8 19 7 20 3 21 2 22
REMARK SMILES IDX 1 23 9 24 10 25 11 26 24 27 25 28 26 29 27 30 28 31 29 32
REMARK SMILES IDX 30 33 31 34 92 35 32 36 91 37 33 38 34 39 35 40 85 41 36 42
REMARK SMILES IDX 90 43 84 44 86 45 37 46 89 47 83 48 82 49 38 51 70 52 50 53
REMARK SMILES IDX 69 54 51 55 54 56 68 57 87 58 52 59 53 60 67 62 88 63 55 64
REMARK SMILES IDX 39 65 40 66 48 67 41 68 43 69 49 70 42 71 44 72 45 73 46 74
REMARK SMILES IDX 47 75 71 76 72 77 80 78 73 79 75 80 81 81 74 82 76 83 77 84
REMARK SMILES IDX 78 85 79 86 56 87 57 88 65 89 58 90 60 91 66 92 59 93 61 94
REMARK SMILES IDX 62 95 63 96 64 97
REMARK H PARENT 86 50 54 61
REMARK Flexibility Score: inf
ROOT
ATOM      1  C   UNL A   1      30.462  29.787  24.049  1.00  0.00     0.202 C 
ENDROOT
BRANCH   1   2
ATOM      2  C   UNL A   1      29.990  28.401  23.599  1.00  0.00     0.261 C 
BRANCH   2   3
ATOM      3  O   UNL A   1      30.743  27.330  24.206  1.00  0.00    -0.463 OA
BRANCH   3   4
ATOM      4  C   UNL A   1      30.064  26.179  24.443  1.00  0.00     0.313 C 
ATOM      5  O   UNL A   1      29.088  25.813  23.790  1.00  0.00    -0.252 OA
BRANCH   4   6
ATOM      6  C   UNL A   1      30.554  25.362  25.627  1.00  0.00     0.126 C 
ATOM      7  C   UNL A   1      31.264  26.303  26.601  1.00  0.00     0.025 C 
BRANCH   6   8
ATOM      8  C   UNL A   1      31.375  24.089  25.436  1.00  0.00    -0.031 A 
ATOM      9  C   UNL A   1      33.302  21.979  25.259  1.00  0.00     0.025 A 
ATOM     10  C   UNL A   1      32.737  22.563  24.112  1.00  0.00     0.012 A 
ATOM     11  C   UNL A   1      32.811  22.408  26.495  1.00  0.00     0.131 A 
ATOM     12  C   UNL A   1      31.819  23.622  24.196  1.00  0.00     0.005 A 
ATOM     13  C   UNL A   1      31.864  23.435  26.585  1.00  0.00     0.044 A 
ATOM     14  F   UNL A   1      33.284  21.884  27.636  1.00  0.00    -0.206 F 
BRANCH   9  15
ATOM     15  C   UNL A   1      34.370  20.967  25.139  1.00  0.00     0.069 A 
ATOM     16  C   UNL A   1      33.994  19.629  24.834  1.00  0.00     0.130 A 
ATOM     17  C   UNL A   1      34.930  18.616  24.597  1.00  0.00     0.047 A 
ATOM     18  C   UNL A   1      36.281  18.910  24.645  1.00  0.00     0.008 A 
ATOM     19  C   UNL A   1      35.754  21.231  25.253  1.00  0.00     0.130 A 
ATOM     20  C   UNL A   1      36.680  20.198  24.987  1.00  0.00     0.047 A 
BRANCH  16  21
ATOM     21  O   UNL A   1      32.661  19.293  24.876  1.00  0.00    -0.493 OA
BRANCH  21  22
ATOM     22  C   UNL A   1      32.390  17.983  24.376  1.00  0.00     0.226 C 
ATOM     23  C   UNL A   1      32.285  17.072  25.578  1.00  0.00     0.049 C 
ENDBRANCH  21  22
ENDBRANCH  16  21
BRANCH  19  24
ATOM     24  O   UNL A   1      36.435  22.354  25.630  1.00  0.00    -0.493 OA
BRANCH  24  25
ATOM     25  C   UNL A   1      37.809  22.594  25.381  1.00  0.00     0.226 C 
ATOM     26  C   UNL A   1      38.397  23.415  26.514  1.00  0.00     0.049 C 
ENDBRANCH  24  25
ENDBRANCH  19  24
ENDBRANCH   9  15
ENDBRANCH   6   8
ENDBRANCH   4   6
ENDBRANCH   3   4
ENDBRANCH   2   3
ENDBRANCH   1   2
BRANCH   1  27
ATOM     27  O   UNL A   1      31.786  29.869  24.580  1.00  0.00    -0.374 OA
BRANCH  27  28
ATOM     28  C   UNL A   1      31.915  30.064  25.984  1.00  0.00     0.202 C 
BRANCH  28  29
ATOM     29  C   UNL A   1      33.284  29.757  26.595  1.00  0.00     0.261 C 
BRANCH  29  30
ATOM     30  O   UNL A   1      33.565  30.520  27.781  1.00  0.00    -0.460 OA
BRANCH  30  31
ATOM     31  C   UNL A   1      34.698  31.261  27.724  1.00  0.00     0.338 C 
ATOM     32  O   UNL A   1      34.786  32.464  27.525  1.00  0.00    -0.246 OA
BRANCH  31  33
ATOM     33  C   UNL A   1      35.870  30.432  28.050  1.00  0.00     0.060 A 
ATOM     34  C   UNL A   1      35.877  29.733  29.262  1.00  0.00     0.016 A 
ATOM     35  C   UNL A   1      37.010  30.461  27.243  1.00  0.00     0.016 A 
ATOM     36  C   UNL A   1      37.040  29.086  29.688  1.00  0.00     0.010 A 
ATOM     37  C   UNL A   1      38.172  29.805  27.670  1.00  0.00     0.010 A 
ATOM     38  C   UNL A   1      38.206  29.143  28.911  1.00  0.00    -0.014 A 
BRANCH  38  39
ATOM     39  C   UNL A   1      39.484  28.607  29.452  1.00  0.00     0.031 A 
ATOM     40  C   UNL A   1      40.089  29.222  30.687  1.00  0.00     0.074 A 
ATOM     41  C   UNL A   1      40.098  27.567  28.859  1.00  0.00     0.049 A 
ATOM     42  N   UNL A   1      41.169  28.874  31.340  1.00  0.00    -0.248 NA
ATOM     43  C   UNL A   1      39.386  30.378  31.264  1.00  0.00     0.031 C 
ATOM     44  C   UNL A   1      39.625  26.882  27.659  1.00  0.00     0.029 A 
ATOM     45  N   UNL A   1      41.262  26.913  29.184  1.00  0.00    -0.354 N 
ATOM     46  C   UNL A   1      41.284  29.772  32.394  1.00  0.00     0.074 A 
ATOM     47  C   UNL A   1      40.175  30.696  32.281  1.00  0.00     0.031 C 
ATOM     48  C   UNL A   1      40.496  25.909  27.341  1.00  0.00     0.029 A 
ATOM     49  C   UNL A   1      41.596  25.910  28.306  1.00  0.00     0.049 A 
ATOM     50  H   UNL A   1      41.806  27.142  29.973  1.00  0.00     0.167 HD
ATOM     51  C   UNL A   1      42.209  29.812  33.383  1.00  0.00     0.034 A 
ATOM     52  C   UNL A   1      42.664  25.088  28.280  1.00  0.00     0.034 A 
ATOM     53  C   UNL A   1      43.303  28.887  33.516  1.00  0.00     0.049 A 
ATOM     54  C   UNL A   1      43.699  25.177  29.371  1.00  0.00     0.074 A 
ATOM     55  C   UNL A   1      44.258  28.821  34.516  1.00  0.00     0.029 A 
ATOM     56  N   UNL A   1      43.595  27.874  32.618  1.00  0.00    -0.354 N 
ATOM     57  N   UNL A   1      43.713  25.940  30.436  1.00  0.00    -0.248 NA
ATOM     58  C   UNL A   1      44.851  24.267  29.272  1.00  0.00     0.031 C 
ATOM     59  C   UNL A   1      45.141  27.777  34.211  1.00  0.00     0.029 A 
ATOM     60  C   UNL A   1      44.725  27.186  33.030  1.00  0.00     0.049 A 
ATOM     61  H   UNL A   1      43.077  27.672  31.805  1.00  0.00     0.167 HD
ATOM     62  C   UNL A   1      44.851  25.577  31.153  1.00  0.00     0.074 A 
ATOM     63  C   UNL A   1      45.492  24.514  30.407  1.00  0.00     0.031 C 
ATOM     64  C   UNL A   1      45.326  26.089  32.314  1.00  0.00     0.034 A 
BRANCH  51  65
ATOM     65  C   UNL A   1      42.047  30.874  34.440  1.00  0.00     0.023 A 
ATOM     66  C   UNL A   1      41.299  30.584  35.598  1.00  0.00     0.012 A 
ATOM     67  C   UNL A   1      42.667  32.132  34.313  1.00  0.00     0.148 A 
ATOM     68  C   UNL A   1      41.144  31.539  36.602  1.00  0.00     0.002 A 
ATOM     69  C   UNL A   1      42.538  33.067  35.334  1.00  0.00     0.091 A 
ATOM     70  F   UNL A   1      43.352  32.399  33.193  1.00  0.00    -0.205 F 
ATOM     71  C   UNL A   1      41.770  32.777  36.473  1.00  0.00     0.022 A 
BRANCH  69  72
ATOM     72  S   UNL A   1      43.366  34.660  35.282  1.00  0.00     0.127 S 
ATOM     73  O   UNL A   1      42.474  35.484  36.096  1.00  0.00    -0.237 OA
ATOM     74  O   UNL A   1      44.658  34.364  35.905  1.00  0.00    -0.237 OA
ATOM     75  O   UNL A   1      43.447  35.015  33.871  1.00  0.00    -0.744 OA
ENDBRANCH  69  72
ENDBRANCH  51  65
BRANCH  52  76
ATOM     76  C   UNL A   1      42.780  24.055  27.212  1.00  0.00     0.023 A 
ATOM     77  C   UNL A   1      43.523  24.345  26.050  1.00  0.00     0.012 A 
ATOM     78  C   UNL A   1      42.180  22.788  27.345  1.00  0.00     0.148 A 
ATOM     79  C   UNL A   1      43.647  23.400  25.031  1.00  0.00     0.002 A 
ATOM     80  C   UNL A   1      42.351  21.833  26.350  1.00  0.00     0.091 A 
ATOM     81  F   UNL A   1      41.458  22.541  28.447  1.00  0.00    -0.205 F 
ATOM     82  C   UNL A   1      43.071  22.141  25.185  1.00  0.00     0.022 A 
BRANCH  80  83
ATOM     83  S   UNL A   1      41.752  20.149  26.523  1.00  0.00     0.127 S 
ATOM     84  O   UNL A   1      40.304  20.344  26.522  1.00  0.00    -0.237 OA
ATOM     85  O   UNL A   1      42.290  19.510  25.320  1.00  0.00    -0.237 OA
ATOM     86  O   UNL A   1      42.326  19.657  27.768  1.00  0.00    -0.744 OA
ENDBRANCH  80  83
ENDBRANCH  52  76
BRANCH  64  87
ATOM     87  C   UNL A   1      46.592  25.495  32.878  1.00  0.00     0.023 A 
ATOM     88  C   UNL A   1      47.833  26.099  32.592  1.00  0.00     0.012 A 
ATOM     89  C   UNL A   1      46.549  24.388  33.749  1.00  0.00     0.148 A 
ATOM     90  C   UNL A   1      49.011  25.595  33.141  1.00  0.00     0.002 A 
ATOM     91  C   UNL A   1      47.723  23.918  34.328  1.00  0.00     0.091 A 
ATOM     92  F   UNL A   1      45.363  23.813  33.994  1.00  0.00    -0.205 F 
ATOM     93  C   UNL A   1      48.956  24.515  34.017  1.00  0.00     0.022 A 
BRANCH  91  94
ATOM     94  S   UNL A   1      47.732  22.588  35.535  1.00  0.00     0.127 S 
ATOM     95  O   UNL A   1      47.331  21.442  34.720  1.00  0.00    -0.237 OA
ATOM     96  O   UNL A   1      49.129  22.566  35.971  1.00  0.00    -0.237 OA
ATOM     97  O   UNL A   1      46.787  22.985  36.570  1.00  0.00    -0.744 OA
ENDBRANCH  91  94
ENDBRANCH  64  87
ENDBRANCH  38  39
ENDBRANCH  31  33
ENDBRANCH  30  31
ENDBRANCH  29  30
ENDBRANCH  28  29
ENDBRANCH  27  28
ENDBRANCH   1  27
TORSDOF 23
ENDMDL
MODEL 3
REMARK VINA RESULT:      -9.9      1.083      2.317
REMARK SMILES CCOc1cccc(OCC)c1-c1ccc([C@@H](C)C(=O)OCCOCCOC(=O)c2ccc(-c3c4nc(c(-c5cccc(S(=O)(=O)[O-])c5F)c5ccc([nH]5)c(-c5cccc(S(=O)(=O)[O-])c5F)c5nc(c(-c6cccc(S(=O)(=O)[O-])c6F)c6ccc3[nH]6)C=C5)C=C4)cc2)cc1F
REMARK SMILES IDX 23 1 22 2 21 3 19 4 20 5 17 6 18 7 16 8 13 9 14 10 94 11
REMARK SMILES IDX 15 12 93 13 95 14 12 15 4 16 5 17 6 18 8 19 7 20 3 21 2 22
REMARK SMILES IDX 1 23 9 24 10 25 11 26 24 27 25 28 26 29 27 30 28 31 29 32
REMARK SMILES IDX 30 33 31 34 92 35 32 36 91 37 33 38 34 39 35 40 85 41 36 42
REMARK SMILES IDX 90 43 84 44 86 45 37 46 89 47 83 48 82 49 38 51 70 52 50 53
REMARK SMILES IDX 69 54 51 55 54 56 68 57 87 58 52 59 53 60 67 62 88 63 55 64
REMARK SMILES IDX 39 65 40 66 48 67 41 68 43 69 49 70 42 71 44 72 45 73 46 74
REMARK SMILES IDX 47 75 71 76 72 77 80 78 73 79 75 80 81 81 74 82 76 83 77 84
REMARK SMILES IDX 78 85 79 86 56 87 57 88 65 89 58 90 60 91 66 92 59 93 61 94
REMARK SMILES IDX 62 95 63 96 64 97
REMARK H PARENT 86 50 54 61
REMARK Flexibility Score: inf
ROOT
ATOM      1  C   UNL A   1      32.864  29.182  26.523  1.00  0.00     0.202 C 
ENDROOT
BRANCH   1   2
ATOM      2  C   UNL A   1      32.089  28.173  25.670  1.00  0.00     0.261 C 
BRANCH   2   3
ATOM      3  O   UNL A   1      32.574  26.823  25.823  1.00  0.00    -0.463 OA
BRANCH   3   4
ATOM      4  C   UNL A   1      31.652  25.835  25.692  1.00  0.00     0.313 C 
ATOM      5  O   UNL A   1      30.755  25.624  26.506  1.00  0.00    -0.252 OA
BRANCH   4   6
ATOM      6  C   UNL A   1      31.820  24.942  24.474  1.00  0.00     0.126 C 
ATOM      7  C   UNL A   1      30.432  24.528  23.984  1.00  0.00     0.025 C 
BRANCH   6   8
ATOM      8  C   UNL A   1      32.751  23.732  24.491  1.00  0.00    -0.031 A 
ATOM      9  C   UNL A   1      34.834  21.782  24.731  1.00  0.00     0.025 A 
ATOM     10  C   UNL A   1      34.390  22.239  23.478  1.00  0.00     0.012 A 
ATOM     11  C   UNL A   1      34.149  22.250  25.855  1.00  0.00     0.131 A 
ATOM     12  C   UNL A   1      33.394  23.222  23.360  1.00  0.00     0.005 A 
ATOM     13  C   UNL A   1      33.126  23.198  25.741  1.00  0.00     0.044 A 
ATOM     14  F   UNL A   1      34.499  21.844  27.085  1.00  0.00    -0.206 F 
BRANCH   9  15
ATOM     15  C   UNL A   1      35.981  20.857  24.830  1.00  0.00     0.069 A 
ATOM     16  C   UNL A   1      37.258  21.404  25.131  1.00  0.00     0.130 A 
ATOM     17  C   UNL A   1      38.389  20.609  25.350  1.00  0.00     0.047 A 
ATOM     18  C   UNL A   1      38.277  19.231  25.286  1.00  0.00     0.008 A 
ATOM     19  C   UNL A   1      35.902  19.451  24.701  1.00  0.00     0.130 A 
ATOM     20  C   UNL A   1      37.051  18.668  24.948  1.00  0.00     0.047 A 
BRANCH  16  21
ATOM     21  O   UNL A   1      37.414  22.770  25.105  1.00  0.00    -0.493 OA
BRANCH  21  22
ATOM     22  C   UNL A   1      37.529  23.354  26.404  1.00  0.00     0.226 C 
ATOM     23  C   UNL A   1      38.283  24.653  26.231  1.00  0.00     0.049 C 
ENDBRANCH  21  22
ENDBRANCH  16  21
BRANCH  19  24
ATOM     24  O   UNL A   1      34.876  18.631  24.323  1.00  0.00    -0.493 OA
BRANCH  24  25
ATOM     25  C   UNL A   1      33.582  18.630  24.900  1.00  0.00     0.226 C 
ATOM     26  C   UNL A   1      32.551  18.970  23.839  1.00  0.00     0.049 C 
ENDBRANCH  24  25
ENDBRANCH  19  24
ENDBRANCH   9  15
ENDBRANCH   6   8
ENDBRANCH   4   6
ENDBRANCH   3   4
ENDBRANCH   2   3
ENDBRANCH   1   2
BRANCH   1  27
ATOM     27  O   UNL A   1      32.751  30.556  26.147  1.00  0.00    -0.374 OA
BRANCH  27  28
ATOM     28  C   UNL A   1      31.495  31.190  26.361  1.00  0.00     0.202 C 
BRANCH  28  29
ATOM     29  C   UNL A   1      31.535  32.649  26.820  1.00  0.00     0.261 C 
BRANCH  29  30
ATOM     30  O   UNL A   1      32.837  33.249  26.706  1.00  0.00    -0.460 OA
BRANCH  30  31
ATOM     31  C   UNL A   1      33.360  33.698  27.872  1.00  0.00     0.338 C 
ATOM     32  O   UNL A   1      32.874  34.524  28.632  1.00  0.00    -0.246 OA
BRANCH  31  33
ATOM     33  C   UNL A   1      34.594  32.965  28.197  1.00  0.00     0.060 A 
ATOM     34  C   UNL A   1      34.484  31.667  28.710  1.00  0.00     0.016 A 
ATOM     35  C   UNL A   1      35.836  33.600  28.140  1.00  0.00     0.016 A 
ATOM     36  C   UNL A   1      35.618  31.012  29.198  1.00  0.00     0.010 A 
ATOM     37  C   UNL A   1      36.972  32.937  28.624  1.00  0.00     0.010 A 
ATOM     38  C   UNL A   1      36.866  31.653  29.189  1.00  0.00    -0.014 A 
BRANCH  38  39
ATOM     39  C   UNL A   1      38.027  31.023  29.870  1.00  0.00     0.031 A 
ATOM     40  C   UNL A   1      38.354  31.398  31.292  1.00  0.00     0.074 A 
ATOM     41  C   UNL A   1      38.783  30.108  29.235  1.00  0.00     0.049 A 
ATOM     42  N   UNL A   1      39.294  30.932  32.075  1.00  0.00    -0.248 NA
ATOM     43  C   UNL A   1      37.511  32.430  31.915  1.00  0.00     0.031 C 
ATOM     44  C   UNL A   1      38.581  29.656  27.860  1.00  0.00     0.029 A 
ATOM     45  N   UNL A   1      39.880  29.402  29.664  1.00  0.00    -0.354 N 
ATOM     46  C   UNL A   1      39.167  31.621  33.275  1.00  0.00     0.074 A 
ATOM     47  C   UNL A   1      38.072  32.554  33.111  1.00  0.00     0.031 C 
ATOM     48  C   UNL A   1      39.530  28.756  27.554  1.00  0.00     0.029 A 
ATOM     49  C   UNL A   1      40.415  28.576  28.705  1.00  0.00     0.049 A 
ATOM     50  H   UNL A   1      40.248  29.480  30.574  1.00  0.00     0.167 HD
ATOM     51  C   UNL A   1      39.876  31.476  34.421  1.00  0.00     0.034 A 
ATOM     52  C   UNL A   1      41.496  27.769  28.746  1.00  0.00     0.034 A 
ATOM     53  C   UNL A   1      40.952  30.538  34.602  1.00  0.00     0.049 A 
ATOM     54  C   UNL A   1      42.289  27.653  30.021  1.00  0.00     0.074 A 
ATOM     55  C   UNL A   1      41.692  30.287  35.745  1.00  0.00     0.029 A 
ATOM     56  N   UNL A   1      41.451  29.707  33.613  1.00  0.00    -0.354 N 
ATOM     57  N   UNL A   1      42.066  28.207  31.187  1.00  0.00    -0.248 NA
ATOM     58  C   UNL A   1      43.469  26.773  29.993  1.00  0.00     0.031 C 
ATOM     59  C   UNL A   1      42.652  29.314  35.441  1.00  0.00     0.029 A 
ATOM     60  C   UNL A   1      42.499  28.951  34.113  1.00  0.00     0.049 A 
ATOM     61  H   UNL A   1      41.112  29.660  32.690  1.00  0.00     0.167 HD
ATOM     62  C   UNL A   1      43.050  27.715  32.040  1.00  0.00     0.074 A 
ATOM     63  C   UNL A   1      43.862  26.805  31.259  1.00  0.00     0.031 C 
ATOM     64  C   UNL A   1      43.268  28.003  33.347  1.00  0.00     0.034 A 
BRANCH  51  65
ATOM     65  C   UNL A   1      39.471  32.325  35.598  1.00  0.00     0.023 A 
ATOM     66  C   UNL A   1      38.697  31.753  36.627  1.00  0.00     0.012 A 
ATOM     67  C   UNL A   1      39.890  33.665  35.711  1.00  0.00     0.148 A 
ATOM     68  C   UNL A   1      38.319  32.508  37.737  1.00  0.00     0.002 A 
ATOM     69  C   UNL A   1      39.541  34.402  36.837  1.00  0.00     0.091 A 
ATOM     70  F   UNL A   1      40.603  34.200  34.710  1.00  0.00    -0.205 F 
ATOM     71  C   UNL A   1      38.749  33.828  37.846  1.00  0.00     0.022 A 
BRANCH  69  72
ATOM     72  S   UNL A   1      40.107  36.087  37.091  1.00  0.00     0.127 S 
ATOM     73  O   UNL A   1      39.298  36.501  38.236  1.00  0.00    -0.237 OA
ATOM     74  O   UNL A   1      41.529  35.901  37.387  1.00  0.00    -0.237 OA
ATOM     75  O   UNL A   1      39.840  36.784  35.840  1.00  0.00    -0.744 OA
ENDBRANCH  69  72
ENDBRANCH  51  65
BRANCH  52  76
ATOM     76  C   UNL A   1      41.856  26.951  27.554  1.00  0.00     0.023 A 
ATOM     77  C   UNL A   1      42.348  27.592  26.401  1.00  0.00     0.012 A 
ATOM     78  C   UNL A   1      41.735  25.547  27.561  1.00  0.00     0.148 A 
ATOM     79  C   UNL A   1      42.692  26.853  25.268  1.00  0.00     0.002 A 
ATOM     80  C   UNL A   1      42.128  24.813  26.448  1.00  0.00     0.091 A 
ATOM     81  F   UNL A   1      41.242  24.958  28.660  1.00  0.00    -0.205 F 
ATOM     82  C   UNL A   1      42.592  25.464  25.295  1.00  0.00     0.022 A 
BRANCH  80  83
ATOM     83  S   UNL A   1      42.152  23.018  26.443  1.00  0.00     0.127 S 
ATOM     84  O   UNL A   1      40.739  22.698  26.635  1.00  0.00    -0.237 OA
ATOM     85  O   UNL A   1      42.676  22.725  25.108  1.00  0.00    -0.237 OA
ATOM     86  O   UNL A   1      43.043  22.636  27.531  1.00  0.00    -0.744 OA
ENDBRANCH  80  83
ENDBRANCH  52  76
BRANCH  64  87
ATOM     87  C   UNL A   1      44.416  27.312  34.037  1.00  0.00     0.023 A 
ATOM     88  C   UNL A   1      45.701  27.888  33.998  1.00  0.00     0.012 A 
ATOM     89  C   UNL A   1      44.210  26.135  34.785  1.00  0.00     0.148 A 
ATOM     90  C   UNL A   1      46.767  27.291  34.670  1.00  0.00     0.002 A 
ATOM     91  C   UNL A   1      45.269  25.569  35.488  1.00  0.00     0.091 A 
ATOM     92  F   UNL A   1      42.986  25.588  34.794  1.00  0.00    -0.205 F 
ATOM     93  C   UNL A   1      46.550  26.141  35.423  1.00  0.00     0.022 A 
BRANCH  91  94
ATOM     94  S   UNL A   1      45.057  24.138  36.553  1.00  0.00     0.127 S 
ATOM     95  O   UNL A   1      46.437  23.849  36.944  1.00  0.00    -0.237 OA
ATOM     96  O   UNL A   1      44.218  24.667  37.629  1.00  0.00    -0.237 OA
ATOM     97  O   UNL A   1      44.410  23.124  35.731  1.00  0.00    -0.744 OA
ENDBRANCH  91  94
ENDBRANCH  64  87
ENDBRANCH  38  39
ENDBRANCH  31  33
ENDBRANCH  30  31
ENDBRANCH  29  30
ENDBRANCH  28  29
ENDBRANCH  27  28
ENDBRANCH   1  27
TORSDOF 23
ENDMDL
