MODEL 1
REMARK VINA RESULT:      -9.8      0.000      0.000
REMARK SMILES CC(C)[C@H](NC(=O)OCc1ccccc1)C(=O)NCC(=O)OCCOCCOC(=O)c1ccc(-c2c3nc(c(-c4cccc(S(=O)(=O)[O-])c4F)c4ccc([nH]4)c(-c4cccc(S(=O)(=O)[O-])c4F)c4nc(c(-c5cccc(S(=O)(=O)[O-])c5F)c5ccc2[nH]5)C=C4)C=C3)cc1
REMARK SMILES IDX 23 1 22 2 20 3 21 4 19 5 18 6 16 7 17 8 4 10 2 11 1 12 3 13
REMARK SMILES IDX 5 14 6 15 7 17 8 18 9 19 10 20 11 21 15 22 12 23 14 24 13 25
REMARK SMILES IDX 24 26 25 27 26 28 27 29 28 30 29 31 30 32 31 33 32 34 93 35
REMARK SMILES IDX 33 36 92 37 34 38 35 39 36 40 86 41 37 42 91 43 85 44 87 45
REMARK SMILES IDX 38 46 90 47 84 48 83 49 39 51 71 52 51 53 70 54 52 55 55 56
REMARK SMILES IDX 69 57 88 58 53 59 54 60 68 62 89 63 56 64 40 65 41 66 49 67
REMARK SMILES IDX 42 68 44 69 50 70 43 71 45 72 46 73 47 74 48 75 72 76 73 77
REMARK SMILES IDX 81 78 74 79 76 80 82 81 75 82 77 83 78 84 79 85 80 86 57 87
REMARK SMILES IDX 58 88 66 89 59 90 61 91 67 92 60 93 62 94 63 95 64 96 65 97
REMARK H PARENT 18 9 5 16 87 50 55 61
REMARK Flexibility Score: inf
ROOT
ATOM      1  C   UNL A   1      31.896  29.346  23.672  1.00  0.00     0.261 C 
ENDROOT
BRANCH   1   2
ATOM      2  O   UNL A   1      30.492  29.067  23.819  1.00  0.00    -0.462 OA
BRANCH   2   3
ATOM      3  C   UNL A   1      29.920  28.294  22.865  1.00  0.00     0.325 C 
ATOM      4  O   UNL A   1      29.243  28.708  21.931  1.00  0.00    -0.250 OA
BRANCH   3   5
ATOM      5  C   UNL A   1      30.089  26.807  23.155  1.00  0.00     0.238 C 
BRANCH   5   6
ATOM      6  N   UNL A   1      29.684  26.300  24.449  1.00  0.00    -0.343 N 
ATOM      7  C   UNL A   1      30.439  25.682  25.397  1.00  0.00     0.243 C 
ATOM      8  O   UNL A   1      30.000  25.719  26.553  1.00  0.00    -0.273 OA
ATOM      9  H   UNL A   1      28.732  26.419  24.673  1.00  0.00     0.164 HD
BRANCH   7  10
ATOM     10  C   UNL A   1      31.812  25.023  25.094  1.00  0.00     0.177 C 
BRANCH  10  11
ATOM     11  C   UNL A   1      32.979  25.965  24.688  1.00  0.00     0.015 C 
ATOM     12  C   UNL A   1      33.996  26.358  25.767  1.00  0.00     0.010 C 
ATOM     13  C   UNL A   1      33.723  25.460  23.449  1.00  0.00     0.010 C 
ENDBRANCH  10  11
BRANCH  10  14
ATOM     14  N   UNL A   1      31.686  23.868  24.217  1.00  0.00    -0.309 N 
ATOM     15  C   UNL A   1      32.084  22.594  24.501  1.00  0.00     0.408 C 
ATOM     16  H   UNL A   1      31.274  24.021  23.336  1.00  0.00     0.167 HD
ATOM     17  O   UNL A   1      31.956  21.713  23.661  1.00  0.00    -0.225 OA
BRANCH  15  18
ATOM     18  O   UNL A   1      32.523  22.432  25.773  1.00  0.00    -0.445 OA
BRANCH  18  19
ATOM     19  C   UNL A   1      33.379  21.286  25.966  1.00  0.00     0.270 C 
BRANCH  19  20
ATOM     20  C   UNL A   1      34.809  21.751  25.843  1.00  0.00    -0.011 A 
ATOM     21  C   UNL A   1      35.698  21.013  25.059  1.00  0.00     0.007 A 
ATOM     22  C   UNL A   1      35.200  23.004  26.328  1.00  0.00     0.007 A 
ATOM     23  C   UNL A   1      36.914  21.569  24.688  1.00  0.00     0.000 A 
ATOM     24  C   UNL A   1      36.429  23.547  25.955  1.00  0.00     0.000 A 
ATOM     25  C   UNL A   1      37.288  22.832  25.133  1.00  0.00     0.000 A 
ENDBRANCH  19  20
ENDBRANCH  18  19
ENDBRANCH  15  18
ENDBRANCH  10  14
ENDBRANCH   7  10
ENDBRANCH   5   6
ENDBRANCH   3   5
ENDBRANCH   2   3
ENDBRANCH   1   2
BRANCH   1  26
ATOM     26  C   UNL A   1      32.493  29.775  25.016  1.00  0.00     0.202 C 
BRANCH  26  27
ATOM     27  O   UNL A   1      31.516  30.335  25.896  1.00  0.00    -0.374 OA
BRANCH  27  28
ATOM     28  C   UNL A   1      32.033  31.030  27.033  1.00  0.00     0.202 C 
BRANCH  28  29
ATOM     29  C   UNL A   1      33.464  30.632  27.413  1.00  0.00     0.261 C 
BRANCH  29  30
ATOM     30  O   UNL A   1      34.281  31.783  27.715  1.00  0.00    -0.460 OA
BRANCH  30  31
ATOM     31  C   UNL A   1      34.777  31.864  28.976  1.00  0.00     0.338 C 
ATOM     32  O   UNL A   1      34.230  32.410  29.922  1.00  0.00    -0.246 OA
BRANCH  31  33
ATOM     33  C   UNL A   1      36.047  31.096  29.109  1.00  0.00     0.060 A 
ATOM     34  C   UNL A   1      36.082  30.049  30.042  1.00  0.00     0.016 A 
ATOM     35  C   UNL A   1      37.190  31.370  28.349  1.00  0.00     0.016 A 
ATOM     36  C   UNL A   1      37.252  29.306  30.238  1.00  0.00     0.010 A 
ATOM     37  C   UNL A   1      38.351  30.599  28.519  1.00  0.00     0.010 A 
ATOM     38  C   UNL A   1      38.406  29.592  29.497  1.00  0.00    -0.014 A 
BRANCH  38  39
ATOM     39  C   UNL A   1      39.707  28.984  29.895  1.00  0.00     0.031 A 
ATOM     40  C   UNL A   1      40.431  29.567  31.076  1.00  0.00     0.074 A 
ATOM     41  C   UNL A   1      40.249  27.930  29.254  1.00  0.00     0.049 A 
ATOM     42  N   UNL A   1      41.466  29.099  31.720  1.00  0.00    -0.248 NA
ATOM     43  C   UNL A   1      39.914  30.840  31.606  1.00  0.00     0.031 C 
ATOM     44  C   UNL A   1      39.686  27.282  28.079  1.00  0.00     0.029 A 
ATOM     45  N   UNL A   1      41.411  27.234  29.486  1.00  0.00    -0.354 N 
ATOM     46  C   UNL A   1      41.708  30.002  32.746  1.00  0.00     0.074 A 
ATOM     47  C   UNL A   1      40.757  31.081  32.597  1.00  0.00     0.031 C 
ATOM     48  C   UNL A   1      40.526  26.325  27.647  1.00  0.00     0.029 A 
ATOM     49  C   UNL A   1      41.667  26.253  28.554  1.00  0.00     0.049 A 
ATOM     50  H   UNL A   1      42.006  27.419  30.249  1.00  0.00     0.167 HD
ATOM     51  C   UNL A   1      42.605  29.920  33.756  1.00  0.00     0.034 A 
ATOM     52  C   UNL A   1      42.687  25.374  28.463  1.00  0.00     0.034 A 
ATOM     53  C   UNL A   1      43.566  28.864  33.895  1.00  0.00     0.049 A 
ATOM     54  C   UNL A   1      43.688  25.300  29.587  1.00  0.00     0.074 A 
ATOM     55  C   UNL A   1      44.487  28.661  34.904  1.00  0.00     0.029 A 
ATOM     56  N   UNL A   1      43.746  27.843  32.974  1.00  0.00    -0.354 N 
ATOM     57  N   UNL A   1      43.762  26.028  30.675  1.00  0.00    -0.248 NA
ATOM     58  C   UNL A   1      44.695  24.230  29.516  1.00  0.00     0.031 C 
ATOM     59  C   UNL A   1      45.244  27.528  34.582  1.00  0.00     0.029 A 
ATOM     60  C   UNL A   1      44.774  27.012  33.383  1.00  0.00     0.049 A 
ATOM     61  H   UNL A   1      43.221  27.726  32.150  1.00  0.00     0.167 HD
ATOM     62  C   UNL A   1      44.774  25.467  31.445  1.00  0.00     0.074 A 
ATOM     63  C   UNL A   1      45.288  24.338  30.698  1.00  0.00     0.031 C 
ATOM     64  C   UNL A   1      45.234  25.853  32.661  1.00  0.00     0.034 A 
BRANCH  51  65
ATOM     65  C   UNL A   1      42.533  30.997  34.802  1.00  0.00     0.023 A 
ATOM     66  C   UNL A   1      41.676  30.820  35.910  1.00  0.00     0.012 A 
ATOM     67  C   UNL A   1      43.270  32.187  34.679  1.00  0.00     0.148 A 
ATOM     68  C   UNL A   1      41.515  31.834  36.852  1.00  0.00     0.002 A 
ATOM     69  C   UNL A   1      43.133  33.178  35.643  1.00  0.00     0.091 A 
ATOM     70  F   UNL A   1      44.055  32.347  33.604  1.00  0.00    -0.205 F 
ATOM     71  C   UNL A   1      42.247  33.009  36.721  1.00  0.00     0.022 A 
BRANCH  69  72
ATOM     72  S   UNL A   1      44.073  34.707  35.590  1.00  0.00     0.127 S 
ATOM     73  O   UNL A   1      43.440  35.403  34.472  1.00  0.00    -0.237 OA
ATOM     74  O   UNL A   1      43.795  35.287  36.906  1.00  0.00    -0.237 OA
ATOM     75  O   UNL A   1      45.461  34.315  35.384  1.00  0.00    -0.744 OA
ENDBRANCH  69  72
ENDBRANCH  51  65
BRANCH  52  76
ATOM     76  C   UNL A   1      42.736  24.400  27.334  1.00  0.00     0.023 A 
ATOM     77  C   UNL A   1      43.406  24.749  26.145  1.00  0.00     0.012 A 
ATOM     78  C   UNL A   1      42.131  23.131  27.433  1.00  0.00     0.148 A 
ATOM     79  C   UNL A   1      43.448  23.866  25.064  1.00  0.00     0.002 A 
ATOM     80  C   UNL A   1      42.209  22.241  26.365  1.00  0.00     0.091 A 
ATOM     81  F   UNL A   1      41.492  22.820  28.570  1.00  0.00    -0.205 F 
ATOM     82  C   UNL A   1      42.855  22.612  25.176  1.00  0.00     0.022 A 
BRANCH  80  83
ATOM     83  S   UNL A   1      41.554  20.569  26.440  1.00  0.00     0.127 S 
ATOM     84  O   UNL A   1      42.277  19.916  25.352  1.00  0.00    -0.237 OA
ATOM     85  O   UNL A   1      41.955  20.151  27.783  1.00  0.00    -0.237 OA
ATOM     86  O   UNL A   1      40.116  20.700  26.250  1.00  0.00    -0.744 OA
ENDBRANCH  80  83
ENDBRANCH  52  76
BRANCH  64  87
ATOM     87  C   UNL A   1      46.316  25.024  33.303  1.00  0.00     0.023 A 
ATOM     88  C   UNL A   1      47.659  25.444  33.236  1.00  0.00     0.012 A 
ATOM     89  C   UNL A   1      45.987  23.876  34.052  1.00  0.00     0.148 A 
ATOM     90  C   UNL A   1      48.660  24.719  33.881  1.00  0.00     0.002 A 
ATOM     91  C   UNL A   1      46.983  23.187  34.734  1.00  0.00     0.091 A 
ATOM     92  F   UNL A   1      44.707  23.476  34.084  1.00  0.00    -0.205 F 
ATOM     93  C   UNL A   1      48.322  23.601  34.641  1.00  0.00     0.022 A 
BRANCH  91  94
ATOM     94  S   UNL A   1      46.612  21.803  35.816  1.00  0.00     0.127 S 
ATOM     95  O   UNL A   1      46.374  20.726  34.855  1.00  0.00    -0.237 OA
ATOM     96  O   UNL A   1      47.847  21.666  36.590  1.00  0.00    -0.237 OA
ATOM     97  O   UNL A   1      45.456  22.215  36.602  1.00  0.00    -0.744 OA
ENDBRANCH  91  94
ENDBRANCH  64  87
ENDBRANCH  38  39
ENDBRANCH  31  33
ENDBRANCH  30  31
ENDBRANCH  29  30
ENDBRANCH  28  29
ENDBRANCH  27  28
ENDBRANCH  26  27
ENDBRANCH   1  26
TORSDOF 24
ENDMDL
MODEL 2
REMARK VINA RESULT:      -9.5      5.225      9.141
REMARK SMILES CC(C)[C@H](NC(=O)OCc1ccccc1)C(=O)NCC(=O)OCCOCCOC(=O)c1ccc(-c2c3nc(c(-c4cccc(S(=O)(=O)[O-])c4F)c4ccc([nH]4)c(-c4cccc(S(=O)(=O)[O-])c4F)c4nc(c(-c5cccc(S(=O)(=O)[O-])c5F)c5ccc2[nH]5)C=C4)C=C3)cc1
REMARK SMILES IDX 23 1 22 2 20 3 21 4 19 5 18 6 16 7 17 8 4 10 2 11 1 12 3 13
REMARK SMILES IDX 5 14 6 15 7 17 8 18 9 19 10 20 11 21 15 22 12 23 14 24 13 25
REMARK SMILES IDX 24 26 25 27 26 28 27 29 28 30 29 31 30 32 31 33 32 34 93 35
REMARK SMILES IDX 33 36 92 37 34 38 35 39 36 40 86 41 37 42 91 43 85 44 87 45
REMARK SMILES IDX 38 46 90 47 84 48 83 49 39 51 71 52 51 53 70 54 52 55 55 56
REMARK SMILES IDX 69 57 88 58 53 59 54 60 68 62 89 63 56 64 40 65 41 66 49 67
REMARK SMILES IDX 42 68 44 69 50 70 43 71 45 72 46 73 47 74 48 75 72 76 73 77
REMARK SMILES IDX 81 78 74 79 76 80 82 81 75 82 77 83 78 84 79 85 80 86 57 87
REMARK SMILES IDX 58 88 66 89 59 90 61 91 67 92 60 93 62 94 63 95 64 96 65 97
REMARK H PARENT 18 9 5 16 87 50 55 61
REMARK Flexibility Score: inf
ROOT
ATOM      1  C   UNL A   1      37.038  23.568  25.177  1.00  0.00     0.261 C 
ENDROOT
BRANCH   1   2
ATOM      2  O   UNL A   1      35.701  24.065  24.985  1.00  0.00    -0.462 OA
BRANCH   2   3
ATOM      3  C   UNL A   1      35.179  23.951  23.741  1.00  0.00     0.325 C 
ATOM      4  O   UNL A   1      35.737  23.422  22.785  1.00  0.00    -0.250 OA
BRANCH   3   5
ATOM      5  C   UNL A   1      33.853  24.690  23.605  1.00  0.00     0.238 C 
BRANCH   5   6
ATOM      6  N   UNL A   1      32.692  23.957  23.145  1.00  0.00    -0.343 N 
ATOM      7  C   UNL A   1      31.821  23.200  23.866  1.00  0.00     0.243 C 
ATOM      8  O   UNL A   1      30.703  23.027  23.364  1.00  0.00    -0.273 OA
ATOM      9  H   UNL A   1      32.507  24.014  22.180  1.00  0.00     0.164 HD
BRANCH   7  10
ATOM     10  C   UNL A   1      32.151  22.633  25.275  1.00  0.00     0.177 C 
BRANCH  10  11
ATOM     11  C   UNL A   1      33.138  21.436  25.347  1.00  0.00     0.015 C 
ATOM     12  C   UNL A   1      33.697  21.045  26.721  1.00  0.00     0.010 C 
ATOM     13  C   UNL A   1      32.586  20.190  24.650  1.00  0.00     0.010 C 
ENDBRANCH  10  11
BRANCH  10  14
ATOM     14  N   UNL A   1      30.955  22.430  26.079  1.00  0.00    -0.309 N 
ATOM     15  C   UNL A   1      30.366  23.353  26.894  1.00  0.00     0.408 C 
ATOM     16  H   UNL A   1      30.531  21.543  26.030  1.00  0.00     0.167 HD
ATOM     17  O   UNL A   1      29.380  23.046  27.550  1.00  0.00    -0.225 OA
BRANCH  15  18
ATOM     18  O   UNL A   1      30.925  24.585  26.814  1.00  0.00    -0.445 OA
BRANCH  18  19
ATOM     19  C   UNL A   1      30.154  25.540  26.054  1.00  0.00     0.270 C 
BRANCH  19  20
ATOM     20  C   UNL A   1      30.969  26.806  25.940  1.00  0.00    -0.011 A 
ATOM     21  C   UNL A   1      31.129  27.399  24.686  1.00  0.00     0.007 A 
ATOM     22  C   UNL A   1      31.386  27.496  27.084  1.00  0.00     0.007 A 
ATOM     23  C   UNL A   1      31.606  28.698  24.595  1.00  0.00     0.000 A 
ATOM     24  C   UNL A   1      31.872  28.798  26.977  1.00  0.00     0.000 A 
ATOM     25  C   UNL A   1      31.981  29.403  25.733  1.00  0.00     0.000 A 
ENDBRANCH  19  20
ENDBRANCH  18  19
ENDBRANCH  15  18
ENDBRANCH  10  14
ENDBRANCH   7  10
ENDBRANCH   5   6
ENDBRANCH   3   5
ENDBRANCH   2   3
ENDBRANCH   1   2
BRANCH   1  26
ATOM     26  C   UNL A   1      37.015  22.048  25.363  1.00  0.00     0.202 C 
BRANCH  26  27
ATOM     27  O   UNL A   1      38.327  21.482  25.410  1.00  0.00    -0.374 OA
BRANCH  27  28
ATOM     28  C   UNL A   1      38.423  20.109  25.025  1.00  0.00     0.202 C 
BRANCH  28  29
ATOM     29  C   UNL A   1      39.454  19.305  25.825  1.00  0.00     0.261 C 
BRANCH  29  30
ATOM     30  O   UNL A   1      40.787  19.457  25.291  1.00  0.00    -0.460 OA
BRANCH  30  31
ATOM     31  C   UNL A   1      41.814  19.333  26.170  1.00  0.00     0.338 C 
ATOM     32  O   UNL A   1      42.195  18.290  26.677  1.00  0.00    -0.246 OA
BRANCH  31  33
ATOM     33  C   UNL A   1      42.515  20.634  26.371  1.00  0.00     0.060 A 
ATOM     34  C   UNL A   1      42.128  21.422  27.464  1.00  0.00     0.016 A 
ATOM     35  C   UNL A   1      43.533  21.091  25.526  1.00  0.00     0.016 A 
ATOM     36  C   UNL A   1      42.726  22.667  27.693  1.00  0.00     0.010 A 
ATOM     37  C   UNL A   1      44.158  22.322  25.778  1.00  0.00     0.010 A 
ATOM     38  C   UNL A   1      43.728  23.141  26.837  1.00  0.00    -0.014 A 
BRANCH  38  39
ATOM     39  C   UNL A   1      44.164  24.563  26.929  1.00  0.00     0.031 A 
ATOM     40  C   UNL A   1      43.159  25.587  27.374  1.00  0.00     0.074 A 
ATOM     41  C   UNL A   1      45.419  24.963  26.645  1.00  0.00     0.049 A 
ATOM     42  N   UNL A   1      43.347  26.835  27.709  1.00  0.00    -0.248 NA
ATOM     43  C   UNL A   1      41.757  25.142  27.463  1.00  0.00     0.031 C 
ATOM     44  C   UNL A   1      46.489  24.098  26.172  1.00  0.00     0.029 A 
ATOM     45  N   UNL A   1      46.001  26.207  26.691  1.00  0.00    -0.354 N 
ATOM     46  C   UNL A   1      42.098  27.317  28.074  1.00  0.00     0.074 A 
ATOM     47  C   UNL A   1      41.148  26.250  27.853  1.00  0.00     0.031 C 
ATOM     48  C   UNL A   1      47.580  24.836  25.906  1.00  0.00     0.029 A 
ATOM     49  C   UNL A   1      47.304  26.229  26.247  1.00  0.00     0.049 A 
ATOM     50  H   UNL A   1      45.529  27.009  27.012  1.00  0.00     0.167 HD
ATOM     51  C   UNL A   1      41.772  28.522  28.597  1.00  0.00     0.034 A 
ATOM     52  C   UNL A   1      48.185  27.247  26.160  1.00  0.00     0.034 A 
ATOM     53  C   UNL A   1      42.707  29.592  28.797  1.00  0.00     0.049 A 
ATOM     54  C   UNL A   1      47.807  28.588  26.734  1.00  0.00     0.074 A 
ATOM     55  C   UNL A   1      42.491  30.834  29.362  1.00  0.00     0.029 A 
ATOM     56  N   UNL A   1      44.037  29.552  28.408  1.00  0.00    -0.354 N 
ATOM     57  N   UNL A   1      46.678  28.960  27.288  1.00  0.00    -0.248 NA
ATOM     58  C   UNL A   1      48.850  29.626  26.749  1.00  0.00     0.031 C 
ATOM     59  C   UNL A   1      43.688  31.557  29.292  1.00  0.00     0.029 A 
ATOM     60  C   UNL A   1      44.654  30.753  28.707  1.00  0.00     0.049 A 
ATOM     61  H   UNL A   1      44.478  28.783  27.981  1.00  0.00     0.167 HD
ATOM     62  C   UNL A   1      46.894  30.244  27.775  1.00  0.00     0.074 A 
ATOM     63  C   UNL A   1      48.262  30.589  27.447  1.00  0.00     0.031 C 
ATOM     64  C   UNL A   1      46.036  31.061  28.434  1.00  0.00     0.034 A 
BRANCH  51  65
ATOM     65  C   UNL A   1      40.342  28.699  29.024  1.00  0.00     0.023 A 
ATOM     66  C   UNL A   1      39.362  28.970  28.045  1.00  0.00     0.012 A 
ATOM     67  C   UNL A   1      39.970  28.639  30.378  1.00  0.00     0.148 A 
ATOM     68  C   UNL A   1      38.043  29.229  28.412  1.00  0.00     0.002 A 
ATOM     69  C   UNL A   1      38.645  28.861  30.733  1.00  0.00     0.091 A 
ATOM     70  F   UNL A   1      40.921  28.410  31.295  1.00  0.00    -0.205 F 
ATOM     71  C   UNL A   1      37.685  29.169  29.755  1.00  0.00     0.022 A 
BRANCH  69  72
ATOM     72  S   UNL A   1      38.075  28.754  32.432  1.00  0.00     0.127 S 
ATOM     73  O   UNL A   1      36.688  29.197  32.305  1.00  0.00    -0.237 OA
ATOM     74  O   UNL A   1      38.235  27.328  32.723  1.00  0.00    -0.237 OA
ATOM     75  O   UNL A   1      38.948  29.629  33.202  1.00  0.00    -0.744 OA
ENDBRANCH  69  72
ENDBRANCH  51  65
BRANCH  52  76
ATOM     76  C   UNL A   1      49.559  27.004  25.630  1.00  0.00     0.023 A 
ATOM     77  C   UNL A   1      50.563  26.533  26.497  1.00  0.00     0.012 A 
ATOM     78  C   UNL A   1      49.872  27.229  24.274  1.00  0.00     0.148 A 
ATOM     79  C   UNL A   1      51.863  26.320  26.033  1.00  0.00     0.002 A 
ATOM     80  C   UNL A   1      51.160  26.979  23.811  1.00  0.00     0.091 A 
ATOM     81  F   UNL A   1      48.904  27.685  23.467  1.00  0.00    -0.205 F 
ATOM     82  C   UNL A   1      52.160  26.538  24.691  1.00  0.00     0.022 A 
BRANCH  80  83
ATOM     83  S   UNL A   1      51.623  27.144  22.082  1.00  0.00     0.127 S 
ATOM     84  O   UNL A   1      51.875  28.579  21.975  1.00  0.00    -0.237 OA
ATOM     85  O   UNL A   1      52.818  26.302  22.011  1.00  0.00    -0.237 OA
ATOM     86  O   UNL A   1      50.485  26.646  21.320  1.00  0.00    -0.744 OA
ENDBRANCH  80  83
ENDBRANCH  52  76
BRANCH  64  87
ATOM     87  C   UNL A   1      46.551  32.397  28.902  1.00  0.00     0.023 A 
ATOM     88  C   UNL A   1      47.198  32.507  30.149  1.00  0.00     0.012 A 
ATOM     89  C   UNL A   1      46.477  33.525  28.061  1.00  0.00     0.148 A 
ATOM     90  C   UNL A   1      47.736  33.724  30.563  1.00  0.00     0.002 A 
ATOM     91  C   UNL A   1      47.060  34.723  28.458  1.00  0.00     0.091 A 
ATOM     92  F   UNL A   1      45.837  33.411  26.888  1.00  0.00    -0.205 F 
ATOM     93  C   UNL A   1      47.681  34.828  29.714  1.00  0.00     0.022 A 
BRANCH  91  94
ATOM     94  S   UNL A   1      47.122  36.156  27.376  1.00  0.00     0.127 S 
ATOM     95  O   UNL A   1      45.704  36.395  27.114  1.00  0.00    -0.237 OA
ATOM     96  O   UNL A   1      47.763  37.163  28.223  1.00  0.00    -0.237 OA
ATOM     97  O   UNL A   1      47.918  35.748  26.226  1.00  0.00    -0.744 OA
ENDBRANCH  91  94
ENDBRANCH  64  87
ENDBRANCH  38  39
ENDBRANCH  31  33
ENDBRANCH  30  31
ENDBRANCH  29  30
ENDBRANCH  28  29
ENDBRANCH  27  28
ENDBRANCH  26  27
ENDBRANCH   1  26
TORSDOF 24
ENDMDL
MODEL 3
REMARK VINA RESULT:      -9.5      3.232      8.126
REMARK SMILES CC(C)[C@H](NC(=O)OCc1ccccc1)C(=O)NCC(=O)OCCOCCOC(=O)c1ccc(-c2c3nc(c(-c4cccc(S(=O)(=O)[O-])c4F)c4ccc([nH]4)c(-c4cccc(S(=O)(=O)[O-])c4F)c4nc(c(-c5cccc(S(=O)(=O)[O-])c5F)c5ccc2[nH]5)C=C4)C=C3)cc1
REMARK SMILES IDX 23 1 22 2 20 3 21 4 19 5 18 6 16 7 17 8 4 10 2 11 1 12 3 13
REMARK SMILES IDX 5 14 6 15 7 17 8 18 9 19 10 20 11 21 15 22 12 23 14 24 13 25
REMARK SMILES IDX 24 26 25 27 26 28 27 29 28 30 29 31 30 32 31 33 32 34 93 35
REMARK SMILES IDX 33 36 92 37 34 38 35 39 36 40 86 41 37 42 91 43 85 44 87 45
REMARK SMILES IDX 38 46 90 47 84 48 83 49 39 51 71 52 51 53 70 54 52 55 55 56
REMARK SMILES IDX 69 57 88 58 53 59 54 60 68 62 89 63 56 64 40 65 41 66 49 67
REMARK SMILES IDX 42 68 44 69 50 70 43 71 45 72 46 73 47 74 48 75 72 76 73 77
REMARK SMILES IDX 81 78 74 79 76 80 82 81 75 82 77 83 78 84 79 85 80 86 57 87
REMARK SMILES IDX 58 88 66 89 59 90 61 91 67 92 60 93 62 94 63 95 64 96 65 97
REMARK H PARENT 18 9 5 16 87 50 55 61
REMARK Flexibility Score: inf
ROOT
ATOM      1  C   UNL A   1      32.696  29.228  24.612  1.00  0.00     0.261 C 
ENDROOT
BRANCH   1   2
ATOM      2  O   UNL A   1      31.585  28.316  24.686  1.00  0.00    -0.462 OA
BRANCH   2   3
ATOM      3  C   UNL A   1      30.788  28.236  23.594  1.00  0.00     0.325 C 
ATOM      4  O   UNL A   1      30.548  29.158  22.823  1.00  0.00    -0.250 OA
BRANCH   3   5
ATOM      5  C   UNL A   1      30.088  26.886  23.494  1.00  0.00     0.238 C 
BRANCH   5   6
ATOM      6  N   UNL A   1      29.364  26.390  24.646  1.00  0.00    -0.343 N 
ATOM      7  C   UNL A   1      29.799  25.562  25.634  1.00  0.00     0.243 C 
ATOM      8  O   UNL A   1      29.176  25.613  26.702  1.00  0.00    -0.273 OA
ATOM      9  H   UNL A   1      28.430  26.694  24.724  1.00  0.00     0.164 HD
BRANCH   7  10
ATOM     10  C   UNL A   1      31.046  24.647  25.490  1.00  0.00     0.177 C 
BRANCH  10  11
ATOM     11  C   UNL A   1      31.224  23.516  26.540  1.00  0.00     0.015 C 
ATOM     12  C   UNL A   1      30.695  22.119  26.190  1.00  0.00     0.010 C 
ATOM     13  C   UNL A   1      32.671  23.403  27.026  1.00  0.00     0.010 C 
ENDBRANCH  10  11
BRANCH  10  14
ATOM     14  N   UNL A   1      32.264  25.412  25.269  1.00  0.00    -0.309 N 
ATOM     15  C   UNL A   1      33.104  25.297  24.199  1.00  0.00     0.408 C 
ATOM     16  H   UNL A   1      32.507  26.074  25.956  1.00  0.00     0.167 HD
ATOM     17  O   UNL A   1      34.122  25.973  24.147  1.00  0.00    -0.225 OA
BRANCH  15  18
ATOM     18  O   UNL A   1      32.645  24.463  23.234  1.00  0.00    -0.445 OA
BRANCH  18  19
ATOM     19  C   UNL A   1      33.625  23.522  22.745  1.00  0.00     0.270 C 
BRANCH  19  20
ATOM     20  C   UNL A   1      33.446  22.231  23.505  1.00  0.00    -0.011 A 
ATOM     21  C   UNL A   1      32.386  21.386  23.169  1.00  0.00     0.007 A 
ATOM     22  C   UNL A   1      34.432  21.775  24.388  1.00  0.00     0.007 A 
ATOM     23  C   UNL A   1      32.373  20.079  23.632  1.00  0.00     0.000 A 
ATOM     24  C   UNL A   1      34.402  20.462  24.854  1.00  0.00     0.000 A 
ATOM     25  C   UNL A   1      33.374  19.610  24.476  1.00  0.00     0.000 A 
ENDBRANCH  19  20
ENDBRANCH  18  19
ENDBRANCH  15  18
ENDBRANCH  10  14
ENDBRANCH   7  10
ENDBRANCH   5   6
ENDBRANCH   3   5
ENDBRANCH   2   3
ENDBRANCH   1   2
BRANCH   1  26
ATOM     26  C   UNL A   1      32.776  30.068  25.891  1.00  0.00     0.202 C 
BRANCH  26  27
ATOM     27  O   UNL A   1      31.495  30.536  26.319  1.00  0.00    -0.374 OA
BRANCH  27  28
ATOM     28  C   UNL A   1      31.407  31.937  26.589  1.00  0.00     0.202 C 
BRANCH  28  29
ATOM     29  C   UNL A   1      32.565  32.487  27.429  1.00  0.00     0.261 C 
BRANCH  29  30
ATOM     30  O   UNL A   1      32.595  33.931  27.426  1.00  0.00    -0.460 OA
BRANCH  30  31
ATOM     31  C   UNL A   1      33.082  34.532  28.541  1.00  0.00     0.338 C 
ATOM     32  O   UNL A   1      32.561  35.466  29.131  1.00  0.00    -0.246 OA
BRANCH  31  33
ATOM     33  C   UNL A   1      34.300  33.836  29.045  1.00  0.00     0.060 A 
ATOM     34  C   UNL A   1      34.117  32.695  29.839  1.00  0.00     0.016 A 
ATOM     35  C   UNL A   1      35.601  34.267  28.758  1.00  0.00     0.016 A 
ATOM     36  C   UNL A   1      35.218  32.010  30.368  1.00  0.00     0.010 A 
ATOM     37  C   UNL A   1      36.704  33.558  29.257  1.00  0.00     0.010 A 
ATOM     38  C   UNL A   1      36.521  32.451  30.104  1.00  0.00    -0.014 A 
BRANCH  38  39
ATOM     39  C   UNL A   1      37.662  31.887  30.879  1.00  0.00     0.031 A 
ATOM     40  C   UNL A   1      38.597  30.940  30.180  1.00  0.00     0.074 A 
ATOM     41  C   UNL A   1      37.896  32.200  32.169  1.00  0.00     0.049 A 
ATOM     42  N   UNL A   1      39.750  30.476  30.581  1.00  0.00    -0.248 NA
ATOM     43  C   UNL A   1      38.181  30.463  28.851  1.00  0.00     0.031 C 
ATOM     44  C   UNL A   1      37.065  33.071  32.986  1.00  0.00     0.029 A 
ATOM     45  N   UNL A   1      38.893  31.801  33.027  1.00  0.00    -0.354 N 
ATOM     46  C   UNL A   1      40.210  29.676  29.545  1.00  0.00     0.074 A 
ATOM     47  C   UNL A   1      39.182  29.660  28.528  1.00  0.00     0.031 C 
ATOM     48  C   UNL A   1      37.539  33.095  34.243  1.00  0.00     0.029 A 
ATOM     49  C   UNL A   1      38.750  32.283  34.309  1.00  0.00     0.049 A 
ATOM     50  H   UNL A   1      39.641  31.224  32.750  1.00  0.00     0.167 HD
ATOM     51  C   UNL A   1      41.403  29.049  29.422  1.00  0.00     0.034 A 
ATOM     52  C   UNL A   1      39.524  32.117  35.401  1.00  0.00     0.034 A 
ATOM     53  C   UNL A   1      42.417  29.042  30.437  1.00  0.00     0.049 A 
ATOM     54  C   UNL A   1      40.846  31.406  35.255  1.00  0.00     0.074 A 
ATOM     55  C   UNL A   1      43.678  28.478  30.395  1.00  0.00     0.029 A 
ATOM     56  N   UNL A   1      42.269  29.606  31.695  1.00  0.00    -0.354 N 
ATOM     57  N   UNL A   1      41.368  30.846  34.191  1.00  0.00    -0.248 NA
ATOM     58  C   UNL A   1      41.722  31.377  36.436  1.00  0.00     0.031 C 
ATOM     59  C   UNL A   1      44.286  28.681  31.640  1.00  0.00     0.029 A 
ATOM     60  C   UNL A   1      43.411  29.394  32.446  1.00  0.00     0.049 A 
ATOM     61  H   UNL A   1      41.470  30.087  32.008  1.00  0.00     0.167 HD
ATOM     62  C   UNL A   1      42.654  30.459  34.552  1.00  0.00     0.074 A 
ATOM     63  C   UNL A   1      42.831  30.846  35.937  1.00  0.00     0.031 C 
ATOM     64  C   UNL A   1      43.600  29.841  33.803  1.00  0.00     0.034 A 
BRANCH  51  65
ATOM     65  C   UNL A   1      41.666  28.365  28.109  1.00  0.00     0.023 A 
ATOM     66  C   UNL A   1      41.903  29.151  26.961  1.00  0.00     0.012 A 
ATOM     67  C   UNL A   1      41.642  26.964  27.997  1.00  0.00     0.148 A 
ATOM     68  C   UNL A   1      42.061  28.555  25.712  1.00  0.00     0.002 A 
ATOM     69  C   UNL A   1      41.839  26.375  26.754  1.00  0.00     0.091 A 
ATOM     70  F   UNL A   1      41.386  26.237  29.094  1.00  0.00    -0.205 F 
ATOM     71  C   UNL A   1      42.034  27.168  25.610  1.00  0.00     0.022 A 
BRANCH  69  72
ATOM     72  S   UNL A   1      41.874  24.594  26.529  1.00  0.00     0.127 S 
ATOM     73  O   UNL A   1      42.500  24.476  25.213  1.00  0.00    -0.237 OA
ATOM     74  O   UNL A   1      42.716  24.158  27.645  1.00  0.00    -0.237 OA
ATOM     75  O   UNL A   1      40.488  24.155  26.610  1.00  0.00    -0.744 OA
ENDBRANCH  69  72
ENDBRANCH  51  65
BRANCH  52  76
ATOM     76  C   UNL A   1      39.139  32.751  36.695  1.00  0.00     0.023 A 
ATOM     77  C   UNL A   1      39.651  34.021  37.025  1.00  0.00     0.012 A 
ATOM     78  C   UNL A   1      38.264  32.109  37.594  1.00  0.00     0.148 A 
ATOM     79  C   UNL A   1      39.326  34.627  38.240  1.00  0.00     0.002 A 
ATOM     80  C   UNL A   1      37.914  32.736  38.787  1.00  0.00     0.091 A 
ATOM     81  F   UNL A   1      37.793  30.898  37.265  1.00  0.00    -0.205 F 
ATOM     82  C   UNL A   1      38.454  33.988  39.117  1.00  0.00     0.022 A 
BRANCH  80  83
ATOM     83  S   UNL A   1      36.731  32.037  39.945  1.00  0.00     0.127 S 
ATOM     84  O   UNL A   1      35.624  31.677  39.061  1.00  0.00    -0.237 OA
ATOM     85  O   UNL A   1      37.478  30.903  40.488  1.00  0.00    -0.237 OA
ATOM     86  O   UNL A   1      36.449  33.094  40.907  1.00  0.00    -0.744 OA
ENDBRANCH  80  83
ENDBRANCH  52  76
BRANCH  64  87
ATOM     87  C   UNL A   1      44.944  29.583  34.435  1.00  0.00     0.023 A 
ATOM     88  C   UNL A   1      45.964  30.550  34.344  1.00  0.00     0.012 A 
ATOM     89  C   UNL A   1      45.161  28.420  35.200  1.00  0.00     0.148 A 
ATOM     90  C   UNL A   1      47.188  30.349  34.980  1.00  0.00     0.002 A 
ATOM     91  C   UNL A   1      46.365  28.250  35.873  1.00  0.00     0.091 A 
ATOM     92  F   UNL A   1      44.188  27.497  35.257  1.00  0.00    -0.205 F 
ATOM     93  C   UNL A   1      47.384  29.209  35.756  1.00  0.00     0.022 A 
BRANCH  91  94
ATOM     94  S   UNL A   1      46.651  26.860  36.974  1.00  0.00     0.127 S 
ATOM     95  O   UNL A   1      48.053  27.052  37.342  1.00  0.00    -0.237 OA
ATOM     96  O   UNL A   1      45.698  27.112  38.056  1.00  0.00    -0.237 OA
ATOM     97  O   UNL A   1      46.362  25.667  36.188  1.00  0.00    -0.744 OA
ENDBRANCH  91  94
ENDBRANCH  64  87
ENDBRANCH  38  39
ENDBRANCH  31  33
ENDBRANCH  30  31
ENDBRANCH  29  30
ENDBRANCH  28  29
ENDBRANCH  27  28
ENDBRANCH  26  27
ENDBRANCH   1  26
TORSDOF 24
ENDMDL
