MODEL 1
REMARK VINA RESULT:     -10.1      0.000      0.000
REMARK SMILES COc1ccc(NCc2cc(C(=O)OCCOCCOC(=O)c3ccc(-c4c5nc(c(-c6cccc(S(=O)(=O)[O-])c6F)c6ccc([nH]6)c(-c6cccc(S(=O)(=O)[O-])c6F)c6nc(c(-c7cccc(S(=O)(=O)[O-])c7F)c7ccc4[nH]7)C=C6)C=C5)cc3)cs2)cc1Br
REMARK SMILES IDX 16 1 15 2 14 3 12 4 13 5 11 6 9 7 10 8 87 9 86 10 8 11 7 12
REMARK SMILES IDX 6 14 3 15 4 16 89 17 5 18 88 19 90 20 2 21 1 22 17 23 18 24
REMARK SMILES IDX 19 25 20 26 21 27 22 28 23 29 24 30 85 31 25 32 84 33 26 34
REMARK SMILES IDX 27 35 28 36 78 37 29 38 83 39 77 40 79 41 30 42 82 43 76 44
REMARK SMILES IDX 75 45 31 47 63 48 43 49 62 50 44 51 47 52 61 53 80 54 45 55
REMARK SMILES IDX 46 56 60 58 81 59 48 60 32 61 33 62 41 63 34 64 36 65 42 66
REMARK SMILES IDX 35 67 37 68 38 69 39 70 40 71 64 72 65 73 73 74 66 75 68 76
REMARK SMILES IDX 74 77 67 78 69 79 70 80 71 81 72 82 49 83 50 84 58 85 51 86
REMARK SMILES IDX 53 87 59 88 52 89 54 90 55 91 56 92 57 93
REMARK H PARENT 7 13 79 46 47 57
REMARK Flexibility Score: inf
ROOT
ATOM      1  C   UNL A   1      33.698  29.602  26.972  1.00  0.00     0.202 C 
ENDROOT
BRANCH   1   2
ATOM      2  C   UNL A   1      33.301  28.511  25.972  1.00  0.00     0.261 C 
BRANCH   2   3
ATOM      3  O   UNL A   1      31.869  28.373  25.933  1.00  0.00    -0.460 OA
BRANCH   3   4
ATOM      4  C   UNL A   1      31.292  28.595  24.720  1.00  0.00     0.339 C 
ATOM      5  O   UNL A   1      30.927  29.689  24.305  1.00  0.00    -0.246 OA
BRANCH   4   6
ATOM      6  C   UNL A   1      31.279  27.395  23.885  1.00  0.00     0.071 A 
ATOM      7  C   UNL A   1      31.021  25.162  23.196  1.00  0.00     0.025 A 
ATOM      8  C   UNL A   1      30.875  26.060  24.239  1.00  0.00     0.033 A 
ATOM      9  S   UNL A   1      31.730  25.910  21.824  1.00  0.00    -0.146 S 
ATOM     10  C   UNL A   1      31.738  27.433  22.581  1.00  0.00     0.080 A 
BRANCH   7  11
ATOM     11  C   UNL A   1      30.651  23.701  23.126  1.00  0.00     0.159 C 
BRANCH  11  12
ATOM     12  N   UNL A   1      31.776  22.867  22.732  1.00  0.00    -0.380 N 
ATOM     13  H   UNL A   1      31.657  22.339  21.909  1.00  0.00     0.160 HD
BRANCH  12  14
ATOM     14  C   UNL A   1      32.988  22.726  23.370  1.00  0.00     0.036 A 
ATOM     15  C   UNL A   1      35.401  22.423  24.829  1.00  0.00     0.133 A 
ATOM     16  C   UNL A   1      35.420  22.867  23.508  1.00  0.00     0.050 A 
ATOM     17  C   UNL A   1      34.177  22.145  25.436  1.00  0.00     0.062 A 
ATOM     18  C   UNL A   1      34.225  23.009  22.787  1.00  0.00     0.029 A 
ATOM     19  C   UNL A   1      32.990  22.287  24.705  1.00  0.00     0.045 A 
ATOM     20  Br  UNL A   1      34.030  21.634  27.258  1.00  0.00    -0.047 Br
BRANCH  15  21
ATOM     21  O   UNL A   1      36.602  22.397  25.485  1.00  0.00    -0.496 OA
ATOM     22  C   UNL A   1      37.070  23.703  25.814  1.00  0.00     0.278 C 
ENDBRANCH  15  21
ENDBRANCH  12  14
ENDBRANCH  11  12
ENDBRANCH   7  11
ENDBRANCH   4   6
ENDBRANCH   3   4
ENDBRANCH   2   3
ENDBRANCH   1   2
BRANCH   1  23
ATOM     23  O   UNL A   1      33.302  30.917  26.570  1.00  0.00    -0.374 OA
BRANCH  23  24
ATOM     24  C   UNL A   1      32.133  31.434  27.212  1.00  0.00     0.202 C 
BRANCH  24  25
ATOM     25  C   UNL A   1      32.007  32.959  27.158  1.00  0.00     0.261 C 
BRANCH  25  26
ATOM     26  O   UNL A   1      33.306  33.572  27.242  1.00  0.00    -0.460 OA
BRANCH  26  27
ATOM     27  C   UNL A   1      33.728  33.859  28.495  1.00  0.00     0.338 C 
ATOM     28  O   UNL A   1      33.161  34.560  29.318  1.00  0.00    -0.246 OA
BRANCH  27  29
ATOM     29  C   UNL A   1      34.921  33.048  28.817  1.00  0.00     0.060 A 
ATOM     30  C   UNL A   1      34.737  31.945  29.662  1.00  0.00     0.016 A 
ATOM     31  C   UNL A   1      36.195  33.365  28.336  1.00  0.00     0.016 A 
ATOM     32  C   UNL A   1      35.833  31.189  30.071  1.00  0.00     0.010 A 
ATOM     33  C   UNL A   1      37.294  32.606  28.751  1.00  0.00     0.010 A 
ATOM     34  C   UNL A   1      37.122  31.538  29.649  1.00  0.00    -0.014 A 
BRANCH  34  35
ATOM     35  C   UNL A   1      38.296  30.869  30.259  1.00  0.00     0.031 A 
ATOM     36  C   UNL A   1      38.702  31.241  31.658  1.00  0.00     0.074 A 
ATOM     37  C   UNL A   1      38.987  29.936  29.580  1.00  0.00     0.049 A 
ATOM     38  N   UNL A   1      39.680  30.773  32.387  1.00  0.00    -0.248 NA
ATOM     39  C   UNL A   1      37.899  32.280  32.325  1.00  0.00     0.031 C 
ATOM     40  C   UNL A   1      38.696  29.498  28.216  1.00  0.00     0.029 A 
ATOM     41  N   UNL A   1      40.090  29.205  29.943  1.00  0.00    -0.354 N 
ATOM     42  C   UNL A   1      39.625  31.469  33.588  1.00  0.00     0.074 A 
ATOM     43  C   UNL A   1      38.527  32.406  33.485  1.00  0.00     0.031 C 
ATOM     44  C   UNL A   1      39.616  28.588  27.847  1.00  0.00     0.029 A 
ATOM     45  C   UNL A   1      40.565  28.390  28.942  1.00  0.00     0.049 A 
ATOM     46  H   UNL A   1      40.501  29.257  30.836  1.00  0.00     0.167 HD
ATOM     47  C   UNL A   1      40.404  31.329  34.686  1.00  0.00     0.034 A 
ATOM     48  C   UNL A   1      41.646  27.588  28.911  1.00  0.00     0.034 A 
ATOM     49  C   UNL A   1      41.478  30.381  34.800  1.00  0.00     0.049 A 
ATOM     50  C   UNL A   1      42.503  27.456  30.144  1.00  0.00     0.074 A 
ATOM     51  C   UNL A   1      42.290  30.128  35.891  1.00  0.00     0.029 A 
ATOM     52  N   UNL A   1      41.898  29.537  33.783  1.00  0.00    -0.354 N 
ATOM     53  N   UNL A   1      42.352  28.020  31.318  1.00  0.00    -0.248 NA
ATOM     54  C   UNL A   1      43.658  26.549  30.060  1.00  0.00     0.031 C 
ATOM     55  C   UNL A   1      43.211  29.139  35.529  1.00  0.00     0.029 A 
ATOM     56  C   UNL A   1      42.963  28.768  34.217  1.00  0.00     0.049 A 
ATOM     57  H   UNL A   1      41.497  29.492  32.886  1.00  0.00     0.167 HD
ATOM     58  C   UNL A   1      43.368  27.510  32.121  1.00  0.00     0.074 A 
ATOM     59  C   UNL A   1      44.118  26.579  31.304  1.00  0.00     0.031 C 
ATOM     60  C   UNL A   1      43.661  27.799  33.412  1.00  0.00     0.034 A 
BRANCH  47  61
ATOM     61  C   UNL A   1      40.091  32.194  35.877  1.00  0.00     0.023 A 
ATOM     62  C   UNL A   1      40.844  33.366  36.095  1.00  0.00     0.012 A 
ATOM     63  C   UNL A   1      39.027  31.882  36.743  1.00  0.00     0.148 A 
ATOM     64  C   UNL A   1      40.558  34.202  37.173  1.00  0.00     0.002 A 
ATOM     65  C   UNL A   1      38.724  32.740  37.794  1.00  0.00     0.091 A 
ATOM     66  F   UNL A   1      38.343  30.749  36.534  1.00  0.00    -0.205 F 
ATOM     67  C   UNL A   1      39.492  33.895  38.016  1.00  0.00     0.022 A 
BRANCH  65  68
ATOM     68  S   UNL A   1      37.329  32.461  38.891  1.00  0.00     0.127 S 
ATOM     69  O   UNL A   1      36.206  32.875  38.052  1.00  0.00    -0.237 OA
ATOM     70  O   UNL A   1      37.408  31.021  39.136  1.00  0.00    -0.237 OA
ATOM     71  O   UNL A   1      37.575  33.288  40.064  1.00  0.00    -0.744 OA
ENDBRANCH  65  68
ENDBRANCH  47  61
BRANCH  48  72
ATOM     72  C   UNL A   1      41.952  26.802  27.682  1.00  0.00     0.023 A 
ATOM     73  C   UNL A   1      42.530  27.447  26.572  1.00  0.00     0.012 A 
ATOM     74  C   UNL A   1      41.699  25.418  27.618  1.00  0.00     0.148 A 
ATOM     75  C   UNL A   1      42.828  26.732  25.410  1.00  0.00     0.002 A 
ATOM     76  C   UNL A   1      42.047  24.703  26.479  1.00  0.00     0.091 A 
ATOM     77  F   UNL A   1      41.127  24.827  28.676  1.00  0.00    -0.205 F 
ATOM     78  C   UNL A   1      42.597  25.360  25.367  1.00  0.00     0.022 A 
BRANCH  76  79
ATOM     79  S   UNL A   1      41.906  22.914  26.394  1.00  0.00     0.127 S 
ATOM     80  O   UNL A   1      42.681  22.496  27.559  1.00  0.00    -0.237 OA
ATOM     81  O   UNL A   1      40.460  22.715  26.512  1.00  0.00    -0.237 OA
ATOM     82  O   UNL A   1      42.453  22.543  25.096  1.00  0.00    -0.744 OA
ENDBRANCH  76  79
ENDBRANCH  48  72
BRANCH  60  83
ATOM     83  C   UNL A   1      44.825  27.084  34.046  1.00  0.00     0.023 A 
ATOM     84  C   UNL A   1      46.039  27.769  34.245  1.00  0.00     0.012 A 
ATOM     85  C   UNL A   1      44.688  25.766  34.527  1.00  0.00     0.148 A 
ATOM     86  C   UNL A   1      47.106  27.148  34.892  1.00  0.00     0.002 A 
ATOM     87  C   UNL A   1      45.741  25.168  35.209  1.00  0.00     0.091 A 
ATOM     88  F   UNL A   1      43.531  25.123  34.311  1.00  0.00    -0.205 F 
ATOM     89  C   UNL A   1      46.954  25.853  35.384  1.00  0.00     0.022 A 
BRANCH  87  90
ATOM     90  S   UNL A   1      45.597  23.540  35.956  1.00  0.00     0.127 S 
ATOM     91  O   UNL A   1      44.365  23.676  36.732  1.00  0.00    -0.237 OA
ATOM     92  O   UNL A   1      45.488  22.666  34.787  1.00  0.00    -0.237 OA
ATOM     93  O   UNL A   1      46.813  23.351  36.735  1.00  0.00    -0.744 OA
ENDBRANCH  87  90
ENDBRANCH  60  83
ENDBRANCH  34  35
ENDBRANCH  27  29
ENDBRANCH  26  27
ENDBRANCH  25  26
ENDBRANCH  24  25
ENDBRANCH  23  24
ENDBRANCH   1  23
TORSDOF 21
ENDMDL
MODEL 2
REMARK VINA RESULT:      -9.6      1.605      1.986
REMARK SMILES COc1ccc(NCc2cc(C(=O)OCCOCCOC(=O)c3ccc(-c4c5nc(c(-c6cccc(S(=O)(=O)[O-])c6F)c6ccc([nH]6)c(-c6cccc(S(=O)(=O)[O-])c6F)c6nc(c(-c7cccc(S(=O)(=O)[O-])c7F)c7ccc4[nH]7)C=C6)C=C5)cc3)cs2)cc1Br
REMARK SMILES IDX 16 1 15 2 14 3 12 4 13 5 11 6 9 7 10 8 87 9 86 10 8 11 7 12
REMARK SMILES IDX 6 14 3 15 4 16 89 17 5 18 88 19 90 20 2 21 1 22 17 23 18 24
REMARK SMILES IDX 19 25 20 26 21 27 22 28 23 29 24 30 85 31 25 32 84 33 26 34
REMARK SMILES IDX 27 35 28 36 78 37 29 38 83 39 77 40 79 41 30 42 82 43 76 44
REMARK SMILES IDX 75 45 31 47 63 48 43 49 62 50 44 51 47 52 61 53 80 54 45 55
REMARK SMILES IDX 46 56 60 58 81 59 48 60 32 61 33 62 41 63 34 64 36 65 42 66
REMARK SMILES IDX 35 67 37 68 38 69 39 70 40 71 64 72 65 73 73 74 66 75 68 76
REMARK SMILES IDX 74 77 67 78 69 79 70 80 71 81 72 82 49 83 50 84 58 85 51 86
REMARK SMILES IDX 53 87 59 88 52 89 54 90 55 91 56 92 57 93
REMARK H PARENT 7 13 79 46 47 57
REMARK Flexibility Score: inf
ROOT
ATOM      1  C   UNL A   1      31.735  29.020  27.123  1.00  0.00     0.202 C 
ENDROOT
BRANCH   1   2
ATOM      2  C   UNL A   1      31.422  27.885  26.143  1.00  0.00     0.261 C 
BRANCH   2   3
ATOM      3  O   UNL A   1      31.689  28.308  24.794  1.00  0.00    -0.460 OA
BRANCH   3   4
ATOM      4  C   UNL A   1      31.807  27.307  23.879  1.00  0.00     0.339 C 
ATOM      5  O   UNL A   1      31.415  27.367  22.718  1.00  0.00    -0.246 OA
BRANCH   4   6
ATOM      6  C   UNL A   1      32.590  26.182  24.385  1.00  0.00     0.071 A 
ATOM      7  C   UNL A   1      33.287  24.368  25.710  1.00  0.00     0.025 A 
ATOM      8  C   UNL A   1      32.303  25.320  25.502  1.00  0.00     0.033 A 
ATOM      9  S   UNL A   1      34.594  24.574  24.617  1.00  0.00    -0.146 S 
ATOM     10  C   UNL A   1      33.803  25.846  23.813  1.00  0.00     0.080 A 
BRANCH   7  11
ATOM     11  C   UNL A   1      33.339  23.244  26.714  1.00  0.00     0.159 C 
BRANCH  11  12
ATOM     12  N   UNL A   1      32.611  22.069  26.263  1.00  0.00    -0.380 N 
ATOM     13  H   UNL A   1      31.634  22.089  26.391  1.00  0.00     0.160 HD
BRANCH  12  14
ATOM     14  C   UNL A   1      33.121  20.931  25.678  1.00  0.00     0.036 A 
ATOM     15  C   UNL A   1      34.319  18.665  24.466  1.00  0.00     0.133 A 
ATOM     16  C   UNL A   1      32.932  18.777  24.550  1.00  0.00     0.050 A 
ATOM     17  C   UNL A   1      35.116  19.691  24.971  1.00  0.00     0.062 A 
ATOM     18  C   UNL A   1      32.343  19.896  25.156  1.00  0.00     0.029 A 
ATOM     19  C   UNL A   1      34.516  20.802  25.578  1.00  0.00     0.045 A 
ATOM     20  Br  UNL A   1      37.008  19.689  24.819  1.00  0.00    -0.047 Br
BRANCH  15  21
ATOM     21  O   UNL A   1      34.808  17.584  23.783  1.00  0.00    -0.496 OA
ATOM     22  C   UNL A   1      34.187  16.363  24.182  1.00  0.00     0.278 C 
ENDBRANCH  15  21
ENDBRANCH  12  14
ENDBRANCH  11  12
ENDBRANCH   7  11
ENDBRANCH   4   6
ENDBRANCH   3   4
ENDBRANCH   2   3
ENDBRANCH   1   2
BRANCH   1  23
ATOM     23  O   UNL A   1      32.270  30.188  26.493  1.00  0.00    -0.374 OA
BRANCH  23  24
ATOM     24  C   UNL A   1      31.320  31.208  26.173  1.00  0.00     0.202 C 
BRANCH  24  25
ATOM     25  C   UNL A   1      31.549  32.534  26.903  1.00  0.00     0.261 C 
BRANCH  25  26
ATOM     26  O   UNL A   1      32.917  32.955  26.759  1.00  0.00    -0.460 OA
BRANCH  26  27
ATOM     27  C   UNL A   1      33.451  33.561  27.845  1.00  0.00     0.338 C 
ATOM     28  O   UNL A   1      32.941  34.440  28.519  1.00  0.00    -0.246 OA
BRANCH  27  29
ATOM     29  C   UNL A   1      34.705  32.879  28.230  1.00  0.00     0.060 A 
ATOM     30  C   UNL A   1      34.616  31.527  28.585  1.00  0.00     0.016 A 
ATOM     31  C   UNL A   1      35.935  33.542  28.274  1.00  0.00     0.016 A 
ATOM     32  C   UNL A   1      35.745  30.848  29.037  1.00  0.00     0.010 A 
ATOM     33  C   UNL A   1      37.067  32.859  28.732  1.00  0.00     0.010 A 
ATOM     34  C   UNL A   1      36.969  31.520  29.150  1.00  0.00    -0.014 A 
BRANCH  34  35
ATOM     35  C   UNL A   1      38.106  30.858  29.834  1.00  0.00     0.031 A 
ATOM     36  C   UNL A   1      38.387  31.195  31.272  1.00  0.00     0.074 A 
ATOM     37  C   UNL A   1      38.872  29.964  29.186  1.00  0.00     0.049 A 
ATOM     38  N   UNL A   1      39.315  30.726  32.064  1.00  0.00    -0.248 NA
ATOM     39  C   UNL A   1      37.508  32.194  31.901  1.00  0.00     0.031 C 
ATOM     40  C   UNL A   1      38.704  29.562  27.790  1.00  0.00     0.029 A 
ATOM     41  N   UNL A   1      39.959  29.246  29.616  1.00  0.00    -0.354 N 
ATOM     42  C   UNL A   1      39.146  31.382  33.276  1.00  0.00     0.074 A 
ATOM     43  C   UNL A   1      38.037  32.297  33.112  1.00  0.00     0.031 C 
ATOM     44  C   UNL A   1      39.673  28.685  27.470  1.00  0.00     0.029 A 
ATOM     45  C   UNL A   1      40.534  28.474  28.633  1.00  0.00     0.049 A 
ATOM     46  H   UNL A   1      40.295  29.278  30.540  1.00  0.00     0.167 HD
ATOM     47  C   UNL A   1      39.836  31.224  34.430  1.00  0.00     0.034 A 
ATOM     48  C   UNL A   1      41.634  27.697  28.666  1.00  0.00     0.034 A 
ATOM     49  C   UNL A   1      40.921  30.298  34.602  1.00  0.00     0.049 A 
ATOM     50  C   UNL A   1      42.391  27.545  29.961  1.00  0.00     0.074 A 
ATOM     51  C   UNL A   1      41.647  30.028  35.748  1.00  0.00     0.029 A 
ATOM     52  N   UNL A   1      41.442  29.495  33.599  1.00  0.00    -0.354 N 
ATOM     53  N   UNL A   1      42.131  28.068  31.135  1.00  0.00    -0.248 NA
ATOM     54  C   UNL A   1      43.571  26.666  29.945  1.00  0.00     0.031 C 
ATOM     55  C   UNL A   1      42.618  29.071  35.434  1.00  0.00     0.029 A 
ATOM     56  C   UNL A   1      42.487  28.737  34.096  1.00  0.00     0.049 A 
ATOM     57  H   UNL A   1      41.116  29.470  32.671  1.00  0.00     0.167 HD
ATOM     58  C   UNL A   1      43.091  27.555  32.002  1.00  0.00     0.074 A 
ATOM     59  C   UNL A   1      43.928  26.667  31.222  1.00  0.00     0.031 C 
ATOM     60  C   UNL A   1      43.271  27.809  33.322  1.00  0.00     0.034 A 
BRANCH  47  61
ATOM     61  C   UNL A   1      39.406  32.044  35.616  1.00  0.00     0.023 A 
ATOM     62  C   UNL A   1      39.805  33.394  35.703  1.00  0.00     0.012 A 
ATOM     63  C   UNL A   1      38.571  31.502  36.611  1.00  0.00     0.148 A 
ATOM     64  C   UNL A   1      39.397  34.186  36.776  1.00  0.00     0.002 A 
ATOM     65  C   UNL A   1      38.139  32.308  37.658  1.00  0.00     0.091 A 
ATOM     66  F   UNL A   1      38.228  30.210  36.524  1.00  0.00    -0.205 F 
ATOM     67  C   UNL A   1      38.557  33.646  37.746  1.00  0.00     0.022 A 
BRANCH  65  68
ATOM     68  S   UNL A   1      37.003  31.720  38.919  1.00  0.00     0.127 S 
ATOM     69  O   UNL A   1      36.703  30.371  38.440  1.00  0.00    -0.237 OA
ATOM     70  O   UNL A   1      37.826  31.769  40.127  1.00  0.00    -0.237 OA
ATOM     71  O   UNL A   1      35.884  32.653  38.911  1.00  0.00    -0.744 OA
ENDBRANCH  65  68
ENDBRANCH  47  61
BRANCH  48  72
ATOM     72  C   UNL A   1      42.057  26.957  27.444  1.00  0.00     0.023 A 
ATOM     73  C   UNL A   1      42.665  27.658  26.385  1.00  0.00     0.012 A 
ATOM     74  C   UNL A   1      41.886  25.564  27.337  1.00  0.00     0.148 A 
ATOM     75  C   UNL A   1      43.073  26.988  25.230  1.00  0.00     0.002 A 
ATOM     76  C   UNL A   1      42.342  24.895  26.207  1.00  0.00     0.091 A 
ATOM     77  F   UNL A   1      41.284  24.918  28.345  1.00  0.00    -0.205 F 
ATOM     78  C   UNL A   1      42.922  25.607  25.146  1.00  0.00     0.022 A 
BRANCH  76  79
ATOM     79  S   UNL A   1      42.306  23.104  26.079  1.00  0.00     0.127 S 
ATOM     80  O   UNL A   1      40.878  22.823  26.191  1.00  0.00    -0.237 OA
ATOM     81  O   UNL A   1      42.876  22.881  24.749  1.00  0.00    -0.237 OA
ATOM     82  O   UNL A   1      43.140  22.620  27.172  1.00  0.00    -0.744 OA
ENDBRANCH  76  79
ENDBRANCH  48  72
BRANCH  60  83
ATOM     83  C   UNL A   1      44.398  27.100  34.027  1.00  0.00     0.023 A 
ATOM     84  C   UNL A   1      45.619  27.770  34.237  1.00  0.00     0.012 A 
ATOM     85  C   UNL A   1      44.215  25.808  34.561  1.00  0.00     0.148 A 
ATOM     86  C   UNL A   1      46.649  27.157  34.948  1.00  0.00     0.002 A 
ATOM     87  C   UNL A   1      45.232  25.221  35.305  1.00  0.00     0.091 A 
ATOM     88  F   UNL A   1      43.053  25.179  34.334  1.00  0.00    -0.205 F 
ATOM     89  C   UNL A   1      46.452  25.889  35.492  1.00  0.00     0.022 A 
BRANCH  87  90
ATOM     90  S   UNL A   1      45.027  23.632  36.118  1.00  0.00     0.127 S 
ATOM     91  O   UNL A   1      43.726  23.201  35.608  1.00  0.00    -0.237 OA
ATOM     92  O   UNL A   1      46.166  22.867  35.606  1.00  0.00    -0.237 OA
ATOM     93  O   UNL A   1      45.083  23.907  37.548  1.00  0.00    -0.744 OA
ENDBRANCH  87  90
ENDBRANCH  60  83
ENDBRANCH  34  35
ENDBRANCH  27  29
ENDBRANCH  26  27
ENDBRANCH  25  26
ENDBRANCH  24  25
ENDBRANCH  23  24
ENDBRANCH   1  23
TORSDOF 21
ENDMDL
MODEL 3
REMARK VINA RESULT:      -9.6      2.666      3.622
REMARK SMILES COc1ccc(NCc2cc(C(=O)OCCOCCOC(=O)c3ccc(-c4c5nc(c(-c6cccc(S(=O)(=O)[O-])c6F)c6ccc([nH]6)c(-c6cccc(S(=O)(=O)[O-])c6F)c6nc(c(-c7cccc(S(=O)(=O)[O-])c7F)c7ccc4[nH]7)C=C6)C=C5)cc3)cs2)cc1Br
REMARK SMILES IDX 16 1 15 2 14 3 12 4 13 5 11 6 9 7 10 8 87 9 86 10 8 11 7 12
REMARK SMILES IDX 6 14 3 15 4 16 89 17 5 18 88 19 90 20 2 21 1 22 17 23 18 24
REMARK SMILES IDX 19 25 20 26 21 27 22 28 23 29 24 30 85 31 25 32 84 33 26 34
REMARK SMILES IDX 27 35 28 36 78 37 29 38 83 39 77 40 79 41 30 42 82 43 76 44
REMARK SMILES IDX 75 45 31 47 63 48 43 49 62 50 44 51 47 52 61 53 80 54 45 55
REMARK SMILES IDX 46 56 60 58 81 59 48 60 32 61 33 62 41 63 34 64 36 65 42 66
REMARK SMILES IDX 35 67 37 68 38 69 39 70 40 71 64 72 65 73 73 74 66 75 68 76
REMARK SMILES IDX 74 77 67 78 69 79 70 80 71 81 72 82 49 83 50 84 58 85 51 86
REMARK SMILES IDX 53 87 59 88 52 89 54 90 55 91 56 92 57 93
REMARK H PARENT 7 13 79 46 47 57
REMARK Flexibility Score: inf
ROOT
ATOM      1  C   UNL A   1      35.276  33.524  28.037  1.00  0.00     0.202 C 
ENDROOT
BRANCH   1   2
ATOM      2  C   UNL A   1      34.577  32.412  28.825  1.00  0.00     0.261 C 
BRANCH   2   3
ATOM      3  O   UNL A   1      33.843  31.558  27.930  1.00  0.00    -0.460 OA
BRANCH   3   4
ATOM      4  C   UNL A   1      34.443  30.374  27.625  1.00  0.00     0.339 C 
ATOM      5  O   UNL A   1      35.487  29.967  28.123  1.00  0.00    -0.246 OA
BRANCH   4   6
ATOM      6  C   UNL A   1      33.629  29.554  26.730  1.00  0.00     0.071 A 
ATOM      7  C   UNL A   1      33.006  27.973  25.104  1.00  0.00     0.025 A 
ATOM      8  C   UNL A   1      34.056  28.527  25.817  1.00  0.00     0.033 A 
ATOM      9  S   UNL A   1      31.524  28.757  25.470  1.00  0.00    -0.146 S 
ATOM     10  C   UNL A   1      32.262  29.744  26.641  1.00  0.00     0.080 A 
BRANCH   7  11
ATOM     11  C   UNL A   1      33.011  26.836  24.113  1.00  0.00     0.159 C 
BRANCH  11  12
ATOM     12  N   UNL A   1      32.408  25.630  24.657  1.00  0.00    -0.380 N 
ATOM     13  H   UNL A   1      31.509  25.731  25.045  1.00  0.00     0.160 HD
BRANCH  12  14
ATOM     14  C   UNL A   1      32.944  24.361  24.697  1.00  0.00     0.036 A 
ATOM     15  C   UNL A   1      34.173  21.805  24.682  1.00  0.00     0.133 A 
ATOM     16  C   UNL A   1      32.857  21.960  25.115  1.00  0.00     0.050 A 
ATOM     17  C   UNL A   1      34.877  22.922  24.237  1.00  0.00     0.062 A 
ATOM     18  C   UNL A   1      32.255  23.226  25.128  1.00  0.00     0.029 A 
ATOM     19  C   UNL A   1      34.267  24.184  24.258  1.00  0.00     0.045 A 
ATOM     20  Br  UNL A   1      36.636  22.810  23.532  1.00  0.00    -0.047 Br
BRANCH  15  21
ATOM     21  O   UNL A   1      34.652  20.525  24.620  1.00  0.00    -0.496 OA
ATOM     22  C   UNL A   1      33.609  19.552  24.646  1.00  0.00     0.278 C 
ENDBRANCH  15  21
ENDBRANCH  12  14
ENDBRANCH  11  12
ENDBRANCH   7  11
ENDBRANCH   4   6
ENDBRANCH   3   4
ENDBRANCH   2   3
ENDBRANCH   1   2
BRANCH   1  23
ATOM     23  O   UNL A   1      34.676  34.812  28.210  1.00  0.00    -0.374 OA
BRANCH  23  24
ATOM     24  C   UNL A   1      33.292  34.806  28.570  1.00  0.00     0.202 C 
BRANCH  24  25
ATOM     25  C   UNL A   1      32.932  35.768  29.705  1.00  0.00     0.261 C 
BRANCH  25  26
ATOM     26  O   UNL A   1      32.634  35.036  30.907  1.00  0.00    -0.460 OA
BRANCH  26  27
ATOM     27  C   UNL A   1      33.390  35.361  31.981  1.00  0.00     0.338 C 
ATOM     28  O   UNL A   1      33.093  36.127  32.883  1.00  0.00    -0.246 OA
BRANCH  27  29
ATOM     29  C   UNL A   1      34.597  34.508  32.017  1.00  0.00     0.060 A 
ATOM     30  C   UNL A   1      34.469  33.240  32.600  1.00  0.00     0.016 A 
ATOM     31  C   UNL A   1      35.833  34.937  31.523  1.00  0.00     0.016 A 
ATOM     32  C   UNL A   1      35.586  32.420  32.741  1.00  0.00     0.010 A 
ATOM     33  C   UNL A   1      36.954  34.113  31.668  1.00  0.00     0.010 A 
ATOM     34  C   UNL A   1      36.842  32.867  32.311  1.00  0.00    -0.014 A 
BRANCH  34  35
ATOM     35  C   UNL A   1      38.054  32.087  32.660  1.00  0.00     0.031 A 
ATOM     36  C   UNL A   1      38.775  32.396  33.942  1.00  0.00     0.074 A 
ATOM     37  C   UNL A   1      38.501  31.111  31.850  1.00  0.00     0.049 A 
ATOM     38  N   UNL A   1      39.839  31.830  34.449  1.00  0.00    -0.248 NA
ATOM     39  C   UNL A   1      38.226  33.488  34.764  1.00  0.00     0.031 C 
ATOM     40  C   UNL A   1      37.894  30.726  30.577  1.00  0.00     0.029 A 
ATOM     41  N   UNL A   1      39.586  30.280  31.972  1.00  0.00    -0.354 N 
ATOM     42  C   UNL A   1      40.099  32.506  35.634  1.00  0.00     0.074 A 
ATOM     43  C   UNL A   1      39.092  33.536  35.765  1.00  0.00     0.031 C 
ATOM     44  C   UNL A   1      38.631  29.747  30.022  1.00  0.00     0.029 A 
ATOM     45  C   UNL A   1      39.766  29.447  30.893  1.00  0.00     0.049 A 
ATOM     46  H   UNL A   1      40.178  30.279  32.758  1.00  0.00     0.167 HD
ATOM     47  C   UNL A   1      41.075  32.277  36.544  1.00  0.00     0.034 A 
ATOM     48  C   UNL A   1      40.742  28.554  30.634  1.00  0.00     0.034 A 
ATOM     49  C   UNL A   1      42.061  31.238  36.428  1.00  0.00     0.049 A 
ATOM     50  C   UNL A   1      41.823  28.324  31.660  1.00  0.00     0.074 A 
ATOM     51  C   UNL A   1      43.057  30.894  37.324  1.00  0.00     0.029 A 
ATOM     52  N   UNL A   1      42.181  30.380  35.346  1.00  0.00    -0.354 N 
ATOM     53  N   UNL A   1      41.972  28.877  32.840  1.00  0.00    -0.248 NA
ATOM     54  C   UNL A   1      42.849  27.322  31.334  1.00  0.00     0.031 C 
ATOM     55  C   UNL A   1      43.790  29.836  36.776  1.00  0.00     0.029 A 
ATOM     56  C   UNL A   1      43.241  29.513  35.546  1.00  0.00     0.049 A 
ATOM     57  H   UNL A   1      41.598  30.388  34.553  1.00  0.00     0.167 HD
ATOM     58  C   UNL A   1      43.084  28.265  33.410  1.00  0.00     0.074 A 
ATOM     59  C   UNL A   1      43.561  27.288  32.453  1.00  0.00     0.031 C 
ATOM     60  C   UNL A   1      43.666  28.503  34.612  1.00  0.00     0.034 A 
BRANCH  47  61
ATOM     61  C   UNL A   1      41.097  33.143  37.774  1.00  0.00     0.023 A 
ATOM     62  C   UNL A   1      40.332  32.767  38.897  1.00  0.00     0.012 A 
ATOM     63  C   UNL A   1      41.907  34.292  37.841  1.00  0.00     0.148 A 
ATOM     64  C   UNL A   1      40.355  33.534  40.061  1.00  0.00     0.002 A 
ATOM     65  C   UNL A   1      41.953  35.031  39.017  1.00  0.00     0.091 A 
ATOM     66  F   UNL A   1      42.603  34.648  36.752  1.00  0.00    -0.205 F 
ATOM     67  C   UNL A   1      41.173  34.660  40.124  1.00  0.00     0.022 A 
BRANCH  65  68
ATOM     68  S   UNL A   1      43.027  36.458  39.214  1.00  0.00     0.127 S 
ATOM     69  O   UNL A   1      42.301  37.480  38.463  1.00  0.00    -0.237 OA
ATOM     70  O   UNL A   1      43.025  36.651  40.665  1.00  0.00    -0.237 OA
ATOM     71  O   UNL A   1      44.315  36.065  38.659  1.00  0.00    -0.744 OA
ENDBRANCH  65  68
ENDBRANCH  47  61
BRANCH  48  72
ATOM     72  C   UNL A   1      40.712  27.768  29.369  1.00  0.00     0.023 A 
ATOM     73  C   UNL A   1      39.770  26.733  29.217  1.00  0.00     0.012 A 
ATOM     74  C   UNL A   1      41.590  28.059  28.307  1.00  0.00     0.148 A 
ATOM     75  C   UNL A   1      39.720  25.984  28.040  1.00  0.00     0.002 A 
ATOM     76  C   UNL A   1      41.499  27.346  27.118  1.00  0.00     0.091 A 
ATOM     77  F   UNL A   1      42.495  29.033  28.479  1.00  0.00    -0.205 F 
ATOM     78  C   UNL A   1      40.575  26.297  26.987  1.00  0.00     0.022 A 
BRANCH  76  79
ATOM     79  S   UNL A   1      42.473  27.774  25.671  1.00  0.00     0.127 S 
ATOM     80  O   UNL A   1      41.895  29.060  25.289  1.00  0.00    -0.237 OA
ATOM     81  O   UNL A   1      43.827  27.846  26.223  1.00  0.00    -0.237 OA
ATOM     82  O   UNL A   1      42.272  26.679  24.731  1.00  0.00    -0.744 OA
ENDBRANCH  76  79
ENDBRANCH  48  72
BRANCH  60  83
ATOM     83  C   UNL A   1      44.868  27.677  34.986  1.00  0.00     0.023 A 
ATOM     84  C   UNL A   1      46.161  28.177  34.738  1.00  0.00     0.012 A 
ATOM     85  C   UNL A   1      44.719  26.451  35.665  1.00  0.00     0.148 A 
ATOM     86  C   UNL A   1      47.288  27.461  35.139  1.00  0.00     0.002 A 
ATOM     87  C   UNL A   1      45.846  25.762  36.099  1.00  0.00     0.091 A 
ATOM     88  F   UNL A   1      43.481  25.981  35.875  1.00  0.00    -0.205 F 
ATOM     89  C   UNL A   1      47.130  26.261  35.829  1.00  0.00     0.022 A 
BRANCH  87  90
ATOM     90  S   UNL A   1      45.732  24.259  37.077  1.00  0.00     0.127 S 
ATOM     91  O   UNL A   1      47.135  23.856  37.170  1.00  0.00    -0.237 OA
ATOM     92  O   UNL A   1      45.152  24.742  38.331  1.00  0.00    -0.237 OA
ATOM     93  O   UNL A   1      44.868  23.360  36.324  1.00  0.00    -0.744 OA
ENDBRANCH  87  90
ENDBRANCH  60  83
ENDBRANCH  34  35
ENDBRANCH  27  29
ENDBRANCH  26  27
ENDBRANCH  25  26
ENDBRANCH  24  25
ENDBRANCH  23  24
ENDBRANCH   1  23
TORSDOF 21
ENDMDL
