MODEL 1
REMARK VINA RESULT:      -9.6      0.000      0.000
REMARK SMILES CC1(C)Cc2c(-c3ccccc3)c(-c3ccc(Cl)cc3)c(CC(=O)OCCOCCOC(=O)c3ccc(-c4c5nc(c(-c6cccc(S(=O)(=O)[O-])c6F)c6ccc([nH]6)c(-c6cccc(S(=O)(=O)[O-])c6F)c6nc(c(-c7cccc(S(=O)(=O)[O-])c7F)c7ccc4[nH]7)C=C6)C=C5)cc3)n2C1
REMARK SMILES IDX 29 1 28 2 27 3 26 4 25 5 23 6 24 7 22 8 21 9 1 10 2 11 3 12
REMARK SMILES IDX 4 13 98 14 5 15 97 16 6 17 13 18 7 19 8 20 12 21 9 22 11 23
REMARK SMILES IDX 10 24 14 25 15 26 20 27 16 28 19 29 17 30 18 31 30 32 31 33
REMARK SMILES IDX 32 34 33 35 34 36 35 37 96 38 36 39 95 40 37 41 38 42 39 43
REMARK SMILES IDX 89 44 40 45 94 46 88 47 90 48 41 49 93 50 87 51 86 52 42 54
REMARK SMILES IDX 74 55 54 56 73 57 55 58 58 59 72 60 91 61 56 62 57 63 71 65
REMARK SMILES IDX 92 66 59 67 43 68 44 69 52 70 45 71 47 72 53 73 46 74 48 75
REMARK SMILES IDX 49 76 50 77 51 78 75 79 76 80 84 81 77 82 79 83 85 84 78 85
REMARK SMILES IDX 80 86 81 87 82 88 83 89 60 90 61 91 69 92 62 93 64 94 70 95
REMARK SMILES IDX 63 96 65 97 66 98 67 99 68 100
REMARK H PARENT 90 53 58 64
REMARK Flexibility Score: inf
ROOT
ATOM      1  C   UNL A   1      35.042  32.179  31.711  1.00  0.00     0.202 C 
ENDROOT
BRANCH   1   2
ATOM      2  O   UNL A   1      36.404  32.182  32.131  1.00  0.00    -0.374 OA
BRANCH   2   3
ATOM      3  C   UNL A   1      36.879  31.057  32.848  1.00  0.00     0.202 C 
BRANCH   3   4
ATOM      4  C   UNL A   1      38.218  31.268  33.568  1.00  0.00     0.261 C 
BRANCH   4   5
ATOM      5  O   UNL A   1      38.089  31.883  34.874  1.00  0.00    -0.463 OA
BRANCH   5   6
ATOM      6  C   UNL A   1      37.493  33.097  34.930  1.00  0.00     0.311 C 
ATOM      7  O   UNL A   1      36.417  33.289  35.497  1.00  0.00    -0.252 OA
BRANCH   6   8
ATOM      8  C   UNL A   1      38.232  34.258  34.274  1.00  0.00     0.177 C 
BRANCH   8   9
ATOM      9  C   UNL A   1      39.740  34.317  34.250  1.00  0.00     0.037 A 
ATOM     10  C   UNL A   1      41.490  35.160  29.703  1.00  0.00     0.013 C 
ATOM     11  C   UNL A   1      41.521  34.266  30.948  1.00  0.00    -0.012 C 
ATOM     12  C   UNL A   1      41.974  32.854  30.541  1.00  0.00     0.013 C 
ATOM     13  C   UNL A   1      42.505  34.839  32.012  1.00  0.00     0.063 C 
ATOM     14  C   UNL A   1      40.130  34.221  31.660  1.00  0.00     0.129 C 
ATOM     15  C   UNL A   1      41.762  34.649  33.280  1.00  0.00     0.027 A 
ATOM     16  N   UNL A   1      40.460  34.302  33.080  1.00  0.00    -0.346 N 
ATOM     17  C   UNL A   1      41.980  34.771  34.623  1.00  0.00     0.011 A 
ATOM     18  C   UNL A   1      40.685  34.628  35.252  1.00  0.00     0.011 A 
BRANCH  17  19
ATOM     19  C   UNL A   1      43.254  35.117  35.230  1.00  0.00    -0.016 A 
ATOM     20  C   UNL A   1      43.642  36.445  35.433  1.00  0.00     0.009 A 
ATOM     21  C   UNL A   1      44.092  34.086  35.672  1.00  0.00     0.009 A 
ATOM     22  C   UNL A   1      44.853  36.731  36.064  1.00  0.00     0.001 A 
ATOM     23  C   UNL A   1      45.278  34.375  36.341  1.00  0.00     0.001 A 
ATOM     24  C   UNL A   1      45.666  35.698  36.524  1.00  0.00     0.000 A 
ENDBRANCH  17  19
BRANCH  18  25
ATOM     25  C   UNL A   1      40.452  34.967  36.664  1.00  0.00    -0.016 A 
ATOM     26  C   UNL A   1      40.089  33.952  37.563  1.00  0.00     0.010 A 
ATOM     27  C   UNL A   1      40.244  36.288  37.069  1.00  0.00     0.010 A 
ATOM     28  C   UNL A   1      39.529  34.262  38.813  1.00  0.00     0.021 A 
ATOM     29  C   UNL A   1      39.700  36.609  38.317  1.00  0.00     0.021 A 
ATOM     30  C   UNL A   1      39.333  35.591  39.181  1.00  0.00     0.041 A 
ATOM     31  Cl  UNL A   1      38.588  35.981  40.681  1.00  0.00    -0.084 Cl
ENDBRANCH  18  25
ENDBRANCH   8   9
ENDBRANCH   6   8
ENDBRANCH   5   6
ENDBRANCH   4   5
ENDBRANCH   3   4
ENDBRANCH   2   3
ENDBRANCH   1   2
BRANCH   1  32
ATOM     32  C   UNL A   1      34.611  32.933  30.450  1.00  0.00     0.261 C 
BRANCH  32  33
ATOM     33  O   UNL A   1      35.702  33.335  29.628  1.00  0.00    -0.460 OA
BRANCH  33  34
ATOM     34  C   UNL A   1      35.826  32.545  28.553  1.00  0.00     0.338 C 
ATOM     35  O   UNL A   1      35.088  32.596  27.574  1.00  0.00    -0.246 OA
BRANCH  34  36
ATOM     36  C   UNL A   1      36.992  31.657  28.692  1.00  0.00     0.060 A 
ATOM     37  C   UNL A   1      38.097  32.176  29.363  1.00  0.00     0.016 A 
ATOM     38  C   UNL A   1      37.024  30.364  28.133  1.00  0.00     0.016 A 
ATOM     39  C   UNL A   1      39.237  31.406  29.469  1.00  0.00     0.010 A 
ATOM     40  C   UNL A   1      38.181  29.615  28.191  1.00  0.00     0.010 A 
ATOM     41  C   UNL A   1      39.271  30.141  28.873  1.00  0.00    -0.014 A 
BRANCH  41  42
ATOM     42  C   UNL A   1      40.408  29.297  29.155  1.00  0.00     0.031 A 
ATOM     43  C   UNL A   1      40.566  28.920  30.572  1.00  0.00     0.074 A 
ATOM     44  C   UNL A   1      41.234  28.809  28.219  1.00  0.00     0.049 A 
ATOM     45  N   UNL A   1      41.474  29.362  31.376  1.00  0.00    -0.248 NA
ATOM     46  C   UNL A   1      39.560  28.056  31.199  1.00  0.00     0.031 C 
ATOM     47  C   UNL A   1      41.063  28.850  26.776  1.00  0.00     0.029 A 
ATOM     48  N   UNL A   1      42.346  28.048  28.390  1.00  0.00    -0.354 N 
ATOM     49  C   UNL A   1      41.289  28.665  32.559  1.00  0.00     0.074 A 
ATOM     50  C   UNL A   1      40.008  28.009  32.456  1.00  0.00     0.031 C 
ATOM     51  C   UNL A   1      41.879  27.932  26.211  1.00  0.00     0.029 A 
ATOM     52  C   UNL A   1      42.725  27.367  27.246  1.00  0.00     0.049 A 
ATOM     53  H   UNL A   1      42.836  27.987  29.243  1.00  0.00     0.167 HD
ATOM     54  C   UNL A   1      42.306  28.496  33.443  1.00  0.00     0.034 A 
ATOM     55  C   UNL A   1      43.622  26.359  27.185  1.00  0.00     0.034 A 
ATOM     56  C   UNL A   1      43.436  29.338  33.148  1.00  0.00     0.049 A 
ATOM     57  C   UNL A   1      44.530  26.508  28.349  1.00  0.00     0.074 A 
ATOM     58  C   UNL A   1      43.635  30.697  33.011  1.00  0.00     0.029 A 
ATOM     59  N   UNL A   1      44.531  28.735  32.580  1.00  0.00    -0.354 N 
ATOM     60  N   UNL A   1      45.364  27.503  28.489  1.00  0.00    -0.248 NA
ATOM     61  C   UNL A   1      44.252  25.757  29.561  1.00  0.00     0.031 C 
ATOM     62  C   UNL A   1      44.612  30.830  31.981  1.00  0.00     0.029 A 
ATOM     63  C   UNL A   1      44.967  29.545  31.563  1.00  0.00     0.049 A 
ATOM     64  H   UNL A   1      44.932  27.878  32.852  1.00  0.00     0.167 HD
ATOM     65  C   UNL A   1      45.349  27.781  29.850  1.00  0.00     0.074 A 
ATOM     66  C   UNL A   1      44.774  26.590  30.467  1.00  0.00     0.031 C 
ATOM     67  C   UNL A   1      45.522  29.056  30.316  1.00  0.00     0.034 A 
BRANCH  54  68
ATOM     68  C   UNL A   1      42.415  27.339  34.394  1.00  0.00     0.023 A 
ATOM     69  C   UNL A   1      41.959  27.529  35.714  1.00  0.00     0.012 A 
ATOM     70  C   UNL A   1      43.152  26.166  34.124  1.00  0.00     0.148 A 
ATOM     71  C   UNL A   1      42.235  26.600  36.721  1.00  0.00     0.002 A 
ATOM     72  C   UNL A   1      43.340  25.201  35.105  1.00  0.00     0.091 A 
ATOM     73  F   UNL A   1      43.795  26.031  32.958  1.00  0.00    -0.205 F 
ATOM     74  C   UNL A   1      42.908  25.424  36.413  1.00  0.00     0.022 A 
BRANCH  72  75
ATOM     75  S   UNL A   1      44.118  23.634  34.705  1.00  0.00     0.127 S 
ATOM     76  O   UNL A   1      45.376  24.070  34.110  1.00  0.00    -0.237 OA
ATOM     77  O   UNL A   1      44.239  23.003  36.021  1.00  0.00    -0.237 OA
ATOM     78  O   UNL A   1      43.172  22.969  33.817  1.00  0.00    -0.744 OA
ENDBRANCH  72  75
ENDBRANCH  54  68
BRANCH  55  79
ATOM     79  C   UNL A   1      43.616  25.169  26.309  1.00  0.00     0.023 A 
ATOM     80  C   UNL A   1      44.603  25.039  25.315  1.00  0.00     0.012 A 
ATOM     81  C   UNL A   1      42.813  24.042  26.607  1.00  0.00     0.148 A 
ATOM     82  C   UNL A   1      44.808  23.819  24.661  1.00  0.00     0.002 A 
ATOM     83  C   UNL A   1      43.015  22.834  25.946  1.00  0.00     0.091 A 
ATOM     84  F   UNL A   1      41.919  24.121  27.602  1.00  0.00    -0.205 F 
ATOM     85  C   UNL A   1      44.020  22.717  24.980  1.00  0.00     0.022 A 
BRANCH  83  86
ATOM     86  S   UNL A   1      42.038  21.372  26.322  1.00  0.00     0.127 S 
ATOM     87  O   UNL A   1      42.641  20.359  25.455  1.00  0.00    -0.237 OA
ATOM     88  O   UNL A   1      42.293  21.189  27.747  1.00  0.00    -0.237 OA
ATOM     89  O   UNL A   1      40.669  21.715  25.959  1.00  0.00    -0.744 OA
ENDBRANCH  83  86
ENDBRANCH  55  79
BRANCH  67  90
ATOM     90  C   UNL A   1      46.027  30.107  29.354  1.00  0.00     0.023 A 
ATOM     91  C   UNL A   1      47.405  30.282  29.103  1.00  0.00     0.012 A 
ATOM     92  C   UNL A   1      45.104  30.811  28.560  1.00  0.00     0.148 A 
ATOM     93  C   UNL A   1      47.851  31.161  28.113  1.00  0.00     0.002 A 
ATOM     94  C   UNL A   1      45.552  31.650  27.543  1.00  0.00     0.091 A 
ATOM     95  F   UNL A   1      43.794  30.634  28.793  1.00  0.00    -0.205 F 
ATOM     96  C   UNL A   1      46.925  31.837  27.325  1.00  0.00     0.022 A 
BRANCH  94  97
ATOM     97  S   UNL A   1      44.401  32.437  26.411  1.00  0.00     0.127 S 
ATOM     98  O   UNL A   1      45.294  32.999  25.401  1.00  0.00    -0.237 OA
ATOM     99  O   UNL A   1      43.586  31.313  25.946  1.00  0.00    -0.237 OA
ATOM    100  O   UNL A   1      43.664  33.405  27.217  1.00  0.00    -0.744 OA
ENDBRANCH  94  97
ENDBRANCH  67  90
ENDBRANCH  41  42
ENDBRANCH  34  36
ENDBRANCH  33  34
ENDBRANCH  32  33
ENDBRANCH   1  32
TORSDOF 20
ENDMDL
MODEL 2
REMARK VINA RESULT:      -9.6      5.228      9.697
REMARK SMILES CC1(C)Cc2c(-c3ccccc3)c(-c3ccc(Cl)cc3)c(CC(=O)OCCOCCOC(=O)c3ccc(-c4c5nc(c(-c6cccc(S(=O)(=O)[O-])c6F)c6ccc([nH]6)c(-c6cccc(S(=O)(=O)[O-])c6F)c6nc(c(-c7cccc(S(=O)(=O)[O-])c7F)c7ccc4[nH]7)C=C6)C=C5)cc3)n2C1
REMARK SMILES IDX 29 1 28 2 27 3 26 4 25 5 23 6 24 7 22 8 21 9 1 10 2 11 3 12
REMARK SMILES IDX 4 13 98 14 5 15 97 16 6 17 13 18 7 19 8 20 12 21 9 22 11 23
REMARK SMILES IDX 10 24 14 25 15 26 20 27 16 28 19 29 17 30 18 31 30 32 31 33
REMARK SMILES IDX 32 34 33 35 34 36 35 37 96 38 36 39 95 40 37 41 38 42 39 43
REMARK SMILES IDX 89 44 40 45 94 46 88 47 90 48 41 49 93 50 87 51 86 52 42 54
REMARK SMILES IDX 74 55 54 56 73 57 55 58 58 59 72 60 91 61 56 62 57 63 71 65
REMARK SMILES IDX 92 66 59 67 43 68 44 69 52 70 45 71 47 72 53 73 46 74 48 75
REMARK SMILES IDX 49 76 50 77 51 78 75 79 76 80 84 81 77 82 79 83 85 84 78 85
REMARK SMILES IDX 80 86 81 87 82 88 83 89 60 90 61 91 69 92 62 93 64 94 70 95
REMARK SMILES IDX 63 96 65 97 66 98 67 99 68 100
REMARK H PARENT 90 53 58 64
REMARK Flexibility Score: inf
ROOT
ATOM      1  C   UNL A   1      33.836  32.989  27.852  1.00  0.00     0.202 C 
ENDROOT
BRANCH   1   2
ATOM      2  O   UNL A   1      33.752  31.589  28.104  1.00  0.00    -0.374 OA
BRANCH   2   3
ATOM      3  C   UNL A   1      34.837  30.776  27.694  1.00  0.00     0.202 C 
BRANCH   3   4
ATOM      4  C   UNL A   1      34.448  29.366  27.228  1.00  0.00     0.261 C 
BRANCH   4   5
ATOM      5  O   UNL A   1      33.844  29.330  25.912  1.00  0.00    -0.463 OA
BRANCH   5   6
ATOM      6  C   UNL A   1      34.005  28.198  25.187  1.00  0.00     0.311 C 
ATOM      7  O   UNL A   1      34.140  28.200  23.963  1.00  0.00    -0.252 OA
BRANCH   6   8
ATOM      8  C   UNL A   1      34.044  26.885  25.961  1.00  0.00     0.177 C 
BRANCH   8   9
ATOM      9  C   UNL A   1      33.246  25.684  25.513  1.00  0.00     0.037 A 
ATOM     10  C   UNL A   1      29.005  26.985  23.330  1.00  0.00     0.013 C 
ATOM     11  C   UNL A   1      29.688  26.154  24.423  1.00  0.00    -0.012 C 
ATOM     12  C   UNL A   1      28.681  25.892  25.555  1.00  0.00     0.013 C 
ATOM     13  C   UNL A   1      30.187  24.794  23.849  1.00  0.00     0.063 C 
ATOM     14  C   UNL A   1      30.970  26.863  24.969  1.00  0.00     0.129 C 
ATOM     15  C   UNL A   1      31.519  24.642  24.481  1.00  0.00     0.027 A 
ATOM     16  N   UNL A   1      31.940  25.779  25.101  1.00  0.00    -0.346 N 
ATOM     17  C   UNL A   1      32.500  23.698  24.586  1.00  0.00     0.011 A 
ATOM     18  C   UNL A   1      33.635  24.367  25.184  1.00  0.00     0.011 A 
BRANCH  17  19
ATOM     19  C   UNL A   1      32.414  22.347  24.058  1.00  0.00    -0.016 A 
ATOM     20  C   UNL A   1      32.436  21.224  24.890  1.00  0.00     0.009 A 
ATOM     21  C   UNL A   1      32.252  22.171  22.679  1.00  0.00     0.009 A 
ATOM     22  C   UNL A   1      32.302  19.946  24.344  1.00  0.00     0.001 A 
ATOM     23  C   UNL A   1      32.075  20.898  22.143  1.00  0.00     0.001 A 
ATOM     24  C   UNL A   1      32.115  19.784  22.974  1.00  0.00     0.000 A 
ENDBRANCH  17  19
BRANCH  18  25
ATOM     25  C   UNL A   1      34.978  23.768  25.215  1.00  0.00    -0.016 A 
ATOM     26  C   UNL A   1      35.692  23.618  24.017  1.00  0.00     0.010 A 
ATOM     27  C   UNL A   1      35.423  23.041  26.323  1.00  0.00     0.010 A 
ATOM     28  C   UNL A   1      36.800  22.759  23.940  1.00  0.00     0.021 A 
ATOM     29  C   UNL A   1      36.534  22.195  26.263  1.00  0.00     0.021 A 
ATOM     30  C   UNL A   1      37.213  22.047  25.064  1.00  0.00     0.041 A 
ATOM     31  Cl  UNL A   1      38.528  20.944  24.965  1.00  0.00    -0.084 Cl
ENDBRANCH  18  25
ENDBRANCH   8   9
ENDBRANCH   6   8
ENDBRANCH   5   6
ENDBRANCH   4   5
ENDBRANCH   3   4
ENDBRANCH   2   3
ENDBRANCH   1   2
BRANCH   1  32
ATOM     32  C   UNL A   1      33.892  33.991  29.009  1.00  0.00     0.261 C 
BRANCH  32  33
ATOM     33  O   UNL A   1      35.126  33.970  29.717  1.00  0.00    -0.460 OA
BRANCH  33  34
ATOM     34  C   UNL A   1      35.102  33.084  30.723  1.00  0.00     0.338 C 
ATOM     35  O   UNL A   1      34.141  32.916  31.468  1.00  0.00    -0.246 OA
BRANCH  34  36
ATOM     36  C   UNL A   1      36.358  32.317  30.771  1.00  0.00     0.060 A 
ATOM     37  C   UNL A   1      36.263  30.989  31.183  1.00  0.00     0.016 A 
ATOM     38  C   UNL A   1      37.607  32.896  30.473  1.00  0.00     0.016 A 
ATOM     39  C   UNL A   1      37.418  30.243  31.302  1.00  0.00     0.010 A 
ATOM     40  C   UNL A   1      38.765  32.168  30.644  1.00  0.00     0.010 A 
ATOM     41  C   UNL A   1      38.655  30.842  31.044  1.00  0.00    -0.014 A 
BRANCH  41  42
ATOM     42  C   UNL A   1      39.819  29.989  31.006  1.00  0.00     0.031 A 
ATOM     43  C   UNL A   1      40.558  29.891  32.279  1.00  0.00     0.074 A 
ATOM     44  C   UNL A   1      40.189  29.266  29.940  1.00  0.00     0.049 A 
ATOM     45  N   UNL A   1      41.711  30.415  32.527  1.00  0.00    -0.248 NA
ATOM     46  C   UNL A   1      39.918  29.245  33.430  1.00  0.00     0.031 C 
ATOM     47  C   UNL A   1      39.432  29.032  28.721  1.00  0.00     0.029 A 
ATOM     48  N   UNL A   1      41.284  28.475  29.797  1.00  0.00    -0.354 N 
ATOM     49  C   UNL A   1      42.046  29.982  33.800  1.00  0.00     0.074 A 
ATOM     50  C   UNL A   1      40.849  29.415  34.371  1.00  0.00     0.031 C 
ATOM     51  C   UNL A   1      39.955  27.963  28.079  1.00  0.00     0.029 A 
ATOM     52  C   UNL A   1      41.163  27.554  28.770  1.00  0.00     0.049 A 
ATOM     53  H   UNL A   1      42.084  28.548  30.367  1.00  0.00     0.167 HD
ATOM     54  C   UNL A   1      43.342  29.917  34.204  1.00  0.00     0.034 A 
ATOM     55  C   UNL A   1      41.970  26.491  28.561  1.00  0.00     0.034 A 
ATOM     56  C   UNL A   1      44.232  30.599  33.301  1.00  0.00     0.049 A 
ATOM     57  C   UNL A   1      43.277  26.801  29.192  1.00  0.00     0.074 A 
ATOM     58  C   UNL A   1      44.335  31.886  32.812  1.00  0.00     0.029 A 
ATOM     59  N   UNL A   1      45.002  29.817  32.476  1.00  0.00    -0.354 N 
ATOM     60  N   UNL A   1      44.078  27.740  28.764  1.00  0.00    -0.248 NA
ATOM     61  C   UNL A   1      43.540  26.327  30.540  1.00  0.00     0.031 C 
ATOM     62  C   UNL A   1      44.793  31.739  31.470  1.00  0.00     0.029 A 
ATOM     63  C   UNL A   1      44.962  30.374  31.224  1.00  0.00     0.049 A 
ATOM     64  H   UNL A   1      45.493  29.003  32.735  1.00  0.00     0.167 HD
ATOM     65  C   UNL A   1      44.625  28.282  29.920  1.00  0.00     0.074 A 
ATOM     66  C   UNL A   1      44.378  27.283  30.955  1.00  0.00     0.031 C 
ATOM     67  C   UNL A   1      44.956  29.608  29.993  1.00  0.00     0.034 A 
BRANCH  54  68
ATOM     68  C   UNL A   1      43.854  28.968  35.247  1.00  0.00     0.023 A 
ATOM     69  C   UNL A   1      44.669  29.494  36.270  1.00  0.00     0.012 A 
ATOM     70  C   UNL A   1      43.772  27.563  35.141  1.00  0.00     0.148 A 
ATOM     71  C   UNL A   1      45.379  28.660  37.138  1.00  0.00     0.002 A 
ATOM     72  C   UNL A   1      44.402  26.739  36.065  1.00  0.00     0.091 A 
ATOM     73  F   UNL A   1      43.199  27.004  34.068  1.00  0.00    -0.205 F 
ATOM     74  C   UNL A   1      45.230  27.280  37.050  1.00  0.00     0.022 A 
BRANCH  72  75
ATOM     75  S   UNL A   1      44.144  24.964  36.029  1.00  0.00     0.127 S 
ATOM     76  O   UNL A   1      44.737  24.603  34.747  1.00  0.00    -0.237 OA
ATOM     77  O   UNL A   1      44.890  24.519  37.207  1.00  0.00    -0.237 OA
ATOM     78  O   UNL A   1      42.700  24.799  36.149  1.00  0.00    -0.744 OA
ENDBRANCH  72  75
ENDBRANCH  54  68
BRANCH  55  79
ATOM     79  C   UNL A   1      41.619  25.155  28.038  1.00  0.00     0.023 A 
ATOM     80  C   UNL A   1      40.273  24.745  28.039  1.00  0.00     0.012 A 
ATOM     81  C   UNL A   1      42.552  24.385  27.302  1.00  0.00     0.148 A 
ATOM     82  C   UNL A   1      39.862  23.626  27.307  1.00  0.00     0.002 A 
ATOM     83  C   UNL A   1      42.138  23.268  26.583  1.00  0.00     0.091 A 
ATOM     84  F   UNL A   1      43.824  24.800  27.225  1.00  0.00    -0.205 F 
ATOM     85  C   UNL A   1      40.791  22.892  26.575  1.00  0.00     0.022 A 
BRANCH  83  86
ATOM     86  S   UNL A   1      43.289  22.287  25.609  1.00  0.00     0.127 S 
ATOM     87  O   UNL A   1      43.401  23.067  24.376  1.00  0.00    -0.237 OA
ATOM     88  O   UNL A   1      44.484  22.292  26.448  1.00  0.00    -0.237 OA
ATOM     89  O   UNL A   1      42.643  20.993  25.429  1.00  0.00    -0.744 OA
ENDBRANCH  83  86
ENDBRANCH  55  79
BRANCH  67  90
ATOM     90  C   UNL A   1      44.999  30.408  28.711  1.00  0.00     0.023 A 
ATOM     91  C   UNL A   1      43.827  30.701  27.982  1.00  0.00     0.012 A 
ATOM     92  C   UNL A   1      46.203  31.022  28.324  1.00  0.00     0.148 A 
ATOM     93  C   UNL A   1      43.861  31.554  26.875  1.00  0.00     0.002 A 
ATOM     94  C   UNL A   1      46.224  31.908  27.250  1.00  0.00     0.091 A 
ATOM     95  F   UNL A   1      47.314  30.749  29.027  1.00  0.00    -0.205 F 
ATOM     96  C   UNL A   1      45.057  32.167  26.516  1.00  0.00     0.022 A 
BRANCH  94  97
ATOM     97  S   UNL A   1      47.708  32.828  26.832  1.00  0.00     0.127 S 
ATOM     98  O   UNL A   1      48.010  33.515  28.086  1.00  0.00    -0.237 OA
ATOM     99  O   UNL A   1      48.655  31.770  26.474  1.00  0.00    -0.237 OA
ATOM    100  O   UNL A   1      47.331  33.685  25.713  1.00  0.00    -0.744 OA
ENDBRANCH  94  97
ENDBRANCH  67  90
ENDBRANCH  41  42
ENDBRANCH  34  36
ENDBRANCH  33  34
ENDBRANCH  32  33
ENDBRANCH   1  32
TORSDOF 20
ENDMDL
MODEL 3
REMARK VINA RESULT:      -9.5      1.902      3.299
REMARK SMILES CC1(C)Cc2c(-c3ccccc3)c(-c3ccc(Cl)cc3)c(CC(=O)OCCOCCOC(=O)c3ccc(-c4c5nc(c(-c6cccc(S(=O)(=O)[O-])c6F)c6ccc([nH]6)c(-c6cccc(S(=O)(=O)[O-])c6F)c6nc(c(-c7cccc(S(=O)(=O)[O-])c7F)c7ccc4[nH]7)C=C6)C=C5)cc3)n2C1
REMARK SMILES IDX 29 1 28 2 27 3 26 4 25 5 23 6 24 7 22 8 21 9 1 10 2 11 3 12
REMARK SMILES IDX 4 13 98 14 5 15 97 16 6 17 13 18 7 19 8 20 12 21 9 22 11 23
REMARK SMILES IDX 10 24 14 25 15 26 20 27 16 28 19 29 17 30 18 31 30 32 31 33
REMARK SMILES IDX 32 34 33 35 34 36 35 37 96 38 36 39 95 40 37 41 38 42 39 43
REMARK SMILES IDX 89 44 40 45 94 46 88 47 90 48 41 49 93 50 87 51 86 52 42 54
REMARK SMILES IDX 74 55 54 56 73 57 55 58 58 59 72 60 91 61 56 62 57 63 71 65
REMARK SMILES IDX 92 66 59 67 43 68 44 69 52 70 45 71 47 72 53 73 46 74 48 75
REMARK SMILES IDX 49 76 50 77 51 78 75 79 76 80 84 81 77 82 79 83 85 84 78 85
REMARK SMILES IDX 80 86 81 87 82 88 83 89 60 90 61 91 69 92 62 93 64 94 70 95
REMARK SMILES IDX 63 96 65 97 66 98 67 99 68 100
REMARK H PARENT 90 53 58 64
REMARK Flexibility Score: inf
ROOT
ATOM      1  C   UNL A   1      34.716  33.144  31.573  1.00  0.00     0.202 C 
ENDROOT
BRANCH   1   2
ATOM      2  O   UNL A   1      36.034  32.813  32.001  1.00  0.00    -0.374 OA
BRANCH   2   3
ATOM      3  C   UNL A   1      36.223  31.581  32.673  1.00  0.00     0.202 C 
BRANCH   3   4
ATOM      4  C   UNL A   1      37.364  31.574  33.701  1.00  0.00     0.261 C 
BRANCH   4   5
ATOM      5  O   UNL A   1      37.005  32.156  34.978  1.00  0.00    -0.463 OA
BRANCH   5   6
ATOM      6  C   UNL A   1      36.644  33.461  34.985  1.00  0.00     0.311 C 
ATOM      7  O   UNL A   1      35.518  33.843  35.305  1.00  0.00    -0.252 OA
BRANCH   6   8
ATOM      8  C   UNL A   1      37.716  34.473  34.597  1.00  0.00     0.177 C 
BRANCH   8   9
ATOM      9  C   UNL A   1      39.073  34.475  35.259  1.00  0.00     0.037 A 
ATOM     10  C   UNL A   1      38.876  32.765  39.894  1.00  0.00     0.013 C 
ATOM     11  C   UNL A   1      39.304  33.903  38.959  1.00  0.00    -0.012 C 
ATOM     12  C   UNL A   1      39.362  35.215  39.759  1.00  0.00     0.013 C 
ATOM     13  C   UNL A   1      40.705  33.611  38.343  1.00  0.00     0.063 C 
ATOM     14  C   UNL A   1      38.339  34.038  37.736  1.00  0.00     0.129 C 
ATOM     15  C   UNL A   1      40.536  34.032  36.932  1.00  0.00     0.027 A 
ATOM     16  N   UNL A   1      39.235  34.273  36.607  1.00  0.00    -0.346 N 
ATOM     17  C   UNL A   1      41.304  34.206  35.817  1.00  0.00     0.011 A 
ATOM     18  C   UNL A   1      40.379  34.424  34.725  1.00  0.00     0.011 A 
BRANCH  17  19
ATOM     19  C   UNL A   1      42.748  34.051  35.769  1.00  0.00    -0.016 A 
ATOM     20  C   UNL A   1      43.352  32.831  35.453  1.00  0.00     0.009 A 
ATOM     21  C   UNL A   1      43.554  35.174  35.994  1.00  0.00     0.009 A 
ATOM     22  C   UNL A   1      44.742  32.739  35.371  1.00  0.00     0.001 A 
ATOM     23  C   UNL A   1      44.938  35.089  35.867  1.00  0.00     0.001 A 
ATOM     24  C   UNL A   1      45.533  33.868  35.570  1.00  0.00     0.000 A 
ENDBRANCH  17  19
BRANCH  18  25
ATOM     25  C   UNL A   1      40.797  34.382  33.316  1.00  0.00    -0.016 A 
ATOM     26  C   UNL A   1      40.322  33.353  32.488  1.00  0.00     0.010 A 
ATOM     27  C   UNL A   1      41.899  35.113  32.863  1.00  0.00     0.010 A 
ATOM     28  C   UNL A   1      40.945  33.068  31.262  1.00  0.00     0.021 A 
ATOM     29  C   UNL A   1      42.517  34.848  31.637  1.00  0.00     0.021 A 
ATOM     30  C   UNL A   1      42.044  33.816  30.845  1.00  0.00     0.041 A 
ATOM     31  Cl  UNL A   1      42.853  33.434  29.376  1.00  0.00    -0.084 Cl
ENDBRANCH  18  25
ENDBRANCH   8   9
ENDBRANCH   6   8
ENDBRANCH   5   6
ENDBRANCH   4   5
ENDBRANCH   3   4
ENDBRANCH   2   3
ENDBRANCH   1   2
BRANCH   1  32
ATOM     32  C   UNL A   1      34.469  33.725  30.178  1.00  0.00     0.261 C 
BRANCH  32  33
ATOM     33  O   UNL A   1      35.461  33.356  29.226  1.00  0.00    -0.460 OA
BRANCH  33  34
ATOM     34  C   UNL A   1      35.209  32.151  28.696  1.00  0.00     0.338 C 
ATOM     35  O   UNL A   1      34.150  31.845  28.157  1.00  0.00    -0.246 OA
BRANCH  34  36
ATOM     36  C   UNL A   1      36.389  31.278  28.804  1.00  0.00     0.060 A 
ATOM     37  C   UNL A   1      37.600  31.898  29.109  1.00  0.00     0.016 A 
ATOM     38  C   UNL A   1      36.326  29.891  28.561  1.00  0.00     0.016 A 
ATOM     39  C   UNL A   1      38.747  31.132  29.164  1.00  0.00     0.010 A 
ATOM     40  C   UNL A   1      37.479  29.136  28.562  1.00  0.00     0.010 A 
ATOM     41  C   UNL A   1      38.677  29.765  28.879  1.00  0.00    -0.014 A 
BRANCH  41  42
ATOM     42  C   UNL A   1      39.857  28.968  29.119  1.00  0.00     0.031 A 
ATOM     43  C   UNL A   1      40.187  28.760  30.542  1.00  0.00     0.074 A 
ATOM     44  C   UNL A   1      40.578  28.381  28.154  1.00  0.00     0.049 A 
ATOM     45  N   UNL A   1      41.173  29.300  31.176  1.00  0.00    -0.248 NA
ATOM     46  C   UNL A   1      39.280  27.968  31.379  1.00  0.00     0.031 C 
ATOM     47  C   UNL A   1      40.238  28.252  26.746  1.00  0.00     0.029 A 
ATOM     48  N   UNL A   1      41.719  27.653  28.278  1.00  0.00    -0.354 N 
ATOM     49  C   UNL A   1      41.142  28.744  32.444  1.00  0.00     0.074 A 
ATOM     50  C   UNL A   1      39.873  28.071  32.570  1.00  0.00     0.031 C 
ATOM     51  C   UNL A   1      41.002  27.281  26.198  1.00  0.00     0.029 A 
ATOM     52  C   UNL A   1      41.976  26.847  27.183  1.00  0.00     0.049 A 
ATOM     53  H   UNL A   1      42.305  27.696  29.069  1.00  0.00     0.167 HD
ATOM     54  C   UNL A   1      42.260  28.687  33.216  1.00  0.00     0.034 A 
ATOM     55  C   UNL A   1      42.881  25.845  27.133  1.00  0.00     0.034 A 
ATOM     56  C   UNL A   1      43.329  29.498  32.693  1.00  0.00     0.049 A 
ATOM     57  C   UNL A   1      43.914  26.136  28.156  1.00  0.00     0.074 A 
ATOM     58  C   UNL A   1      43.482  30.833  32.379  1.00  0.00     0.029 A 
ATOM     59  N   UNL A   1      44.363  28.841  32.073  1.00  0.00    -0.354 N 
ATOM     60  N   UNL A   1      44.738  27.147  28.081  1.00  0.00    -0.248 NA
ATOM     61  C   UNL A   1      43.796  25.529  29.471  1.00  0.00     0.031 C 
ATOM     62  C   UNL A   1      44.328  30.852  31.232  1.00  0.00     0.029 A 
ATOM     63  C   UNL A   1      44.659  29.530  30.926  1.00  0.00     0.049 A 
ATOM     64  H   UNL A   1      44.811  28.024  32.393  1.00  0.00     0.167 HD
ATOM     65  C   UNL A   1      44.876  27.581  29.393  1.00  0.00     0.074 A 
ATOM     66  C   UNL A   1      44.402  26.466  30.207  1.00  0.00     0.031 C 
ATOM     67  C   UNL A   1      45.075  28.903  29.686  1.00  0.00     0.034 A 
BRANCH  54  68
ATOM     68  C   UNL A   1      42.503  27.650  34.273  1.00  0.00     0.023 A 
ATOM     69  C   UNL A   1      42.294  28.021  35.617  1.00  0.00     0.012 A 
ATOM     70  C   UNL A   1      43.147  26.417  34.033  1.00  0.00     0.148 A 
ATOM     71  C   UNL A   1      42.719  27.208  36.672  1.00  0.00     0.002 A 
ATOM     72  C   UNL A   1      43.480  25.570  35.081  1.00  0.00     0.091 A 
ATOM     73  F   UNL A   1      43.569  26.111  32.800  1.00  0.00    -0.205 F 
ATOM     74  C   UNL A   1      43.294  25.971  36.405  1.00  0.00     0.022 A 
BRANCH  72  75
ATOM     75  S   UNL A   1      44.131  23.929  34.757  1.00  0.00     0.127 S 
ATOM     76  O   UNL A   1      44.550  23.507  36.089  1.00  0.00    -0.237 OA
ATOM     77  O   UNL A   1      42.960  23.231  34.224  1.00  0.00    -0.237 OA
ATOM     78  O   UNL A   1      45.189  24.140  33.777  1.00  0.00    -0.744 OA
ENDBRANCH  72  75
ENDBRANCH  54  68
BRANCH  55  79
ATOM     79  C   UNL A   1      42.797  24.561  26.407  1.00  0.00     0.023 A 
ATOM     80  C   UNL A   1      43.857  24.174  25.567  1.00  0.00     0.012 A 
ATOM     81  C   UNL A   1      41.812  23.597  26.729  1.00  0.00     0.148 A 
ATOM     82  C   UNL A   1      43.953  22.862  25.089  1.00  0.00     0.002 A 
ATOM     83  C   UNL A   1      41.908  22.296  26.243  1.00  0.00     0.091 A 
ATOM     84  F   UNL A   1      40.836  23.923  27.587  1.00  0.00    -0.205 F 
ATOM     85  C   UNL A   1      42.985  21.923  25.431  1.00  0.00     0.022 A 
BRANCH  83  86
ATOM     86  S   UNL A   1      40.694  21.037  26.659  1.00  0.00     0.127 S 
ATOM     87  O   UNL A   1      41.268  19.835  26.052  1.00  0.00    -0.237 OA
ATOM     88  O   UNL A   1      40.717  21.056  28.118  1.00  0.00    -0.237 OA
ATOM     89  O   UNL A   1      39.451  21.472  26.035  1.00  0.00    -0.744 OA
ENDBRANCH  83  86
ENDBRANCH  55  79
BRANCH  67  90
ATOM     90  C   UNL A   1      45.442  29.839  28.556  1.00  0.00     0.023 A 
ATOM     91  C   UNL A   1      44.459  30.547  27.833  1.00  0.00     0.012 A 
ATOM     92  C   UNL A   1      46.795  30.147  28.332  1.00  0.00     0.148 A 
ATOM     93  C   UNL A   1      44.816  31.510  26.885  1.00  0.00     0.002 A 
ATOM     94  C   UNL A   1      47.145  31.141  27.422  1.00  0.00     0.091 A 
ATOM     95  F   UNL A   1      47.727  29.480  29.031  1.00  0.00    -0.205 F 
ATOM     96  C   UNL A   1      46.159  31.816  26.688  1.00  0.00     0.022 A 
BRANCH  94  97
ATOM     97  S   UNL A   1      48.851  31.668  27.230  1.00  0.00     0.127 S 
ATOM     98  O   UNL A   1      49.214  32.045  28.594  1.00  0.00    -0.237 OA
ATOM     99  O   UNL A   1      49.511  30.457  26.736  1.00  0.00    -0.237 OA
ATOM    100  O   UNL A   1      48.815  32.756  26.259  1.00  0.00    -0.744 OA
ENDBRANCH  94  97
ENDBRANCH  67  90
ENDBRANCH  41  42
ENDBRANCH  34  36
ENDBRANCH  33  34
ENDBRANCH  32  33
ENDBRANCH   1  32
TORSDOF 20
ENDMDL
