MODEL 1
REMARK VINA RESULT:     -10.7      0.000      0.000
REMARK SMILES CCOc1cncc(N(CC(=O)OCCOCCOC(=O)c2ccc(-c3c4nc(c(-c5cccc(S(=O)(=O)[O-])c5F)c5ccc([nH]5)c(-c5cccc(S(=O)(=O)[O-])c5F)c5nc(c(-c6cccc(S(=O)(=O)[O-])c6F)c6ccc3[nH]6)C=C5)C=C4)cc2)C(C)(C)C)n1
REMARK SMILES IDX 15 1 14 2 13 3 11 4 12 5 10 6 9 7 8 8 4 9 5 10 89 11 6 12
REMARK SMILES IDX 7 13 3 14 2 15 1 16 85 17 86 18 87 19 88 20 16 21 17 22
REMARK SMILES IDX 18 23 19 24 20 25 21 26 22 27 23 28 84 29 24 30 83 31 25 32
REMARK SMILES IDX 26 33 27 34 77 35 28 36 82 37 76 38 78 39 29 40 81 41 75 42
REMARK SMILES IDX 74 43 30 45 62 46 42 47 61 48 43 49 46 50 60 51 79 52 44 53
REMARK SMILES IDX 45 54 59 56 80 57 47 58 31 59 32 60 40 61 33 62 35 63 41 64
REMARK SMILES IDX 34 65 36 66 37 67 38 68 39 69 63 70 64 71 72 72 65 73 67 74
REMARK SMILES IDX 73 75 66 76 68 77 69 78 70 79 71 80 48 81 49 82 57 83 50 84
REMARK SMILES IDX 52 85 58 86 51 87 53 88 54 89 55 90 56 91
REMARK H PARENT 78 44 46 55
REMARK Flexibility Score: inf
ROOT
ATOM      1  C   UNL A   1      33.386  22.612  24.330  1.00  0.00     0.202 C 
ENDROOT
BRANCH   1   2
ATOM      2  C   UNL A   1      33.772  24.087  24.146  1.00  0.00     0.261 C 
BRANCH   2   3
ATOM      3  O   UNL A   1      32.860  24.816  23.287  1.00  0.00    -0.462 OA
BRANCH   3   4
ATOM      4  C   UNL A   1      33.386  25.914  22.682  1.00  0.00     0.325 C 
ATOM      5  O   UNL A   1      33.602  25.995  21.473  1.00  0.00    -0.250 OA
BRANCH   4   6
ATOM      6  C   UNL A   1      33.647  27.121  23.592  1.00  0.00     0.241 C 
BRANCH   6   7
ATOM      7  N   UNL A   1      32.542  27.605  24.448  1.00  0.00    -0.339 N 
BRANCH   7   8
ATOM      8  C   UNL A   1      31.280  27.796  23.861  1.00  0.00     0.152 A 
ATOM      9  C   UNL A   1      29.862  29.011  22.476  1.00  0.00     0.234 A 
ATOM     10  C   UNL A   1      28.805  28.167  22.742  1.00  0.00     0.179 A 
ATOM     11  N   UNL A   1      31.089  28.842  23.022  1.00  0.00    -0.193 NA
ATOM     12  N   UNL A   1      28.925  27.135  23.597  1.00  0.00    -0.255 NA
ATOM     13  C   UNL A   1      30.172  26.965  24.113  1.00  0.00     0.158 A 
BRANCH   9  14
ATOM     14  O   UNL A   1      29.733  30.002  21.536  1.00  0.00    -0.477 OA
BRANCH  14  15
ATOM     15  C   UNL A   1      28.471  30.661  21.638  1.00  0.00     0.228 C 
ATOM     16  C   UNL A   1      28.158  30.978  23.093  1.00  0.00     0.049 C 
ENDBRANCH  14  15
ENDBRANCH   9  14
ENDBRANCH   7   8
BRANCH   7  17
ATOM     17  C   UNL A   1      32.694  27.699  25.940  1.00  0.00     0.034 C 
ATOM     18  C   UNL A   1      32.217  26.392  26.608  1.00  0.00     0.034 C 
ATOM     19  C   UNL A   1      34.148  28.032  26.339  1.00  0.00     0.034 C 
ATOM     20  C   UNL A   1      31.854  28.845  26.555  1.00  0.00     0.034 C 
ENDBRANCH   7  17
ENDBRANCH   6   7
ENDBRANCH   4   6
ENDBRANCH   3   4
ENDBRANCH   2   3
ENDBRANCH   1   2
BRANCH   1  21
ATOM     21  O   UNL A   1      34.151  21.869  25.287  1.00  0.00    -0.374 OA
BRANCH  21  22
ATOM     22  C   UNL A   1      35.392  21.344  24.826  1.00  0.00     0.202 C 
BRANCH  22  23
ATOM     23  C   UNL A   1      36.590  21.516  25.767  1.00  0.00     0.261 C 
BRANCH  23  24
ATOM     24  O   UNL A   1      37.839  21.526  25.059  1.00  0.00    -0.460 OA
BRANCH  24  25
ATOM     25  C   UNL A   1      38.918  21.225  25.816  1.00  0.00     0.338 C 
ATOM     26  O   UNL A   1      39.555  20.177  25.804  1.00  0.00    -0.246 OA
BRANCH  25  27
ATOM     27  C   UNL A   1      39.374  22.411  26.561  1.00  0.00     0.060 A 
ATOM     28  C   UNL A   1      38.782  23.635  26.224  1.00  0.00     0.016 A 
ATOM     29  C   UNL A   1      40.405  22.357  27.503  1.00  0.00     0.016 A 
ATOM     30  C   UNL A   1      39.269  24.818  26.771  1.00  0.00     0.010 A 
ATOM     31  C   UNL A   1      40.895  23.550  28.049  1.00  0.00     0.010 A 
ATOM     32  C   UNL A   1      40.361  24.789  27.649  1.00  0.00    -0.014 A 
BRANCH  32  33
ATOM     33  C   UNL A   1      41.017  26.071  28.010  1.00  0.00     0.031 A 
ATOM     34  C   UNL A   1      42.420  26.334  27.532  1.00  0.00     0.074 A 
ATOM     35  C   UNL A   1      40.353  27.013  28.702  1.00  0.00     0.049 A 
ATOM     36  N   UNL A   1      43.140  27.420  27.639  1.00  0.00    -0.248 NA
ATOM     37  C   UNL A   1      43.102  25.228  26.840  1.00  0.00     0.031 C 
ATOM     38  C   UNL A   1      38.997  26.873  29.231  1.00  0.00     0.029 A 
ATOM     39  N   UNL A   1      40.737  28.274  29.087  1.00  0.00    -0.354 N 
ATOM     40  C   UNL A   1      44.360  27.128  27.042  1.00  0.00     0.074 A 
ATOM     41  C   UNL A   1      44.293  25.754  26.591  1.00  0.00     0.031 C 
ATOM     42  C   UNL A   1      38.668  27.998  29.888  1.00  0.00     0.029 A 
ATOM     43  C   UNL A   1      39.788  28.936  29.829  1.00  0.00     0.049 A 
ATOM     44  H   UNL A   1      41.609  28.666  28.852  1.00  0.00     0.167 HD
ATOM     45  C   UNL A   1      45.433  27.935  26.863  1.00  0.00     0.034 A 
ATOM     46  C   UNL A   1      39.822  30.159  30.398  1.00  0.00     0.034 A 
ATOM     47  C   UNL A   1      45.492  29.306  27.290  1.00  0.00     0.049 A 
ATOM     48  C   UNL A   1      41.027  31.038  30.183  1.00  0.00     0.074 A 
ATOM     49  C   UNL A   1      46.512  30.223  27.103  1.00  0.00     0.029 A 
ATOM     50  N   UNL A   1      44.496  29.955  28.002  1.00  0.00    -0.354 N 
ATOM     51  N   UNL A   1      42.109  30.799  29.481  1.00  0.00    -0.248 NA
ATOM     52  C   UNL A   1      41.000  32.371  30.804  1.00  0.00     0.031 C 
ATOM     53  C   UNL A   1      46.140  31.421  27.720  1.00  0.00     0.029 A 
ATOM     54  C   UNL A   1      44.882  31.256  28.277  1.00  0.00     0.049 A 
ATOM     55  H   UNL A   1      43.641  29.551  28.274  1.00  0.00     0.167 HD
ATOM     56  C   UNL A   1      42.875  31.958  29.551  1.00  0.00     0.074 A 
ATOM     57  C   UNL A   1      42.122  32.908  30.344  1.00  0.00     0.031 C 
ATOM     58  C   UNL A   1      44.098  32.209  29.021  1.00  0.00     0.034 A 
BRANCH  45  59
ATOM     59  C   UNL A   1      46.622  27.366  26.134  1.00  0.00     0.023 A 
ATOM     60  C   UNL A   1      46.689  27.473  24.731  1.00  0.00     0.012 A 
ATOM     61  C   UNL A   1      47.693  26.781  26.836  1.00  0.00     0.148 A 
ATOM     62  C   UNL A   1      47.792  26.982  24.033  1.00  0.00     0.002 A 
ATOM     63  C   UNL A   1      48.806  26.328  26.138  1.00  0.00     0.091 A 
ATOM     64  F   UNL A   1      47.599  26.667  28.169  1.00  0.00    -0.205 F 
ATOM     65  C   UNL A   1      48.854  26.420  24.737  1.00  0.00     0.022 A 
BRANCH  63  66
ATOM     66  S   UNL A   1      50.253  25.650  26.960  1.00  0.00     0.127 S 
ATOM     67  O   UNL A   1      49.738  24.377  27.462  1.00  0.00    -0.237 OA
ATOM     68  O   UNL A   1      51.207  25.528  25.857  1.00  0.00    -0.237 OA
ATOM     69  O   UNL A   1      50.626  26.621  27.979  1.00  0.00    -0.744 OA
ENDBRANCH  63  66
ENDBRANCH  45  59
BRANCH  46  70
ATOM     70  C   UNL A   1      38.650  30.644  31.180  1.00  0.00     0.023 A 
ATOM     71  C   UNL A   1      38.638  30.498  32.581  1.00  0.00     0.012 A 
ATOM     72  C   UNL A   1      37.561  31.272  30.546  1.00  0.00     0.148 A 
ATOM     73  C   UNL A   1      37.551  30.946  33.334  1.00  0.00     0.002 A 
ATOM     74  C   UNL A   1      36.506  31.764  31.306  1.00  0.00     0.091 A 
ATOM     75  F   UNL A   1      37.579  31.380  29.210  1.00  0.00    -0.205 F 
ATOM     76  C   UNL A   1      36.492  31.589  32.698  1.00  0.00     0.022 A 
BRANCH  74  77
ATOM     77  S   UNL A   1      35.167  32.717  30.581  1.00  0.00     0.127 S 
ATOM     78  O   UNL A   1      34.283  32.913  31.727  1.00  0.00    -0.237 OA
ATOM     79  O   UNL A   1      35.861  33.922  30.124  1.00  0.00    -0.237 OA
ATOM     80  O   UNL A   1      34.640  31.888  29.504  1.00  0.00    -0.744 OA
ENDBRANCH  74  77
ENDBRANCH  46  70
BRANCH  58  81
ATOM     81  C   UNL A   1      44.701  33.568  29.260  1.00  0.00     0.023 A 
ATOM     82  C   UNL A   1      45.610  33.749  30.321  1.00  0.00     0.012 A 
ATOM     83  C   UNL A   1      44.438  34.640  28.384  1.00  0.00     0.148 A 
ATOM     84  C   UNL A   1      46.226  34.983  30.525  1.00  0.00     0.002 A 
ATOM     85  C   UNL A   1      45.090  35.855  28.567  1.00  0.00     0.091 A 
ATOM     86  F   UNL A   1      43.556  34.455  27.390  1.00  0.00    -0.205 F 
ATOM     87  C   UNL A   1      45.975  36.031  29.642  1.00  0.00     0.022 A 
BRANCH  85  88
ATOM     88  S   UNL A   1      44.897  37.227  27.423  1.00  0.00     0.127 S 
ATOM     89  O   UNL A   1      45.196  38.374  28.279  1.00  0.00    -0.237 OA
ATOM     90  O   UNL A   1      45.918  36.940  26.414  1.00  0.00    -0.237 OA
ATOM     91  O   UNL A   1      43.528  37.148  26.932  1.00  0.00    -0.744 OA
ENDBRANCH  85  88
ENDBRANCH  58  81
ENDBRANCH  32  33
ENDBRANCH  25  27
ENDBRANCH  24  25
ENDBRANCH  23  24
ENDBRANCH  22  23
ENDBRANCH  21  22
ENDBRANCH   1  21
TORSDOF 22
ENDMDL
MODEL 2
REMARK VINA RESULT:     -10.1      0.922      7.827
REMARK SMILES CCOc1cncc(N(CC(=O)OCCOCCOC(=O)c2ccc(-c3c4nc(c(-c5cccc(S(=O)(=O)[O-])c5F)c5ccc([nH]5)c(-c5cccc(S(=O)(=O)[O-])c5F)c5nc(c(-c6cccc(S(=O)(=O)[O-])c6F)c6ccc3[nH]6)C=C5)C=C4)cc2)C(C)(C)C)n1
REMARK SMILES IDX 15 1 14 2 13 3 11 4 12 5 10 6 9 7 8 8 4 9 5 10 89 11 6 12
REMARK SMILES IDX 7 13 3 14 2 15 1 16 85 17 86 18 87 19 88 20 16 21 17 22
REMARK SMILES IDX 18 23 19 24 20 25 21 26 22 27 23 28 84 29 24 30 83 31 25 32
REMARK SMILES IDX 26 33 27 34 77 35 28 36 82 37 76 38 78 39 29 40 81 41 75 42
REMARK SMILES IDX 74 43 30 45 62 46 42 47 61 48 43 49 46 50 60 51 79 52 44 53
REMARK SMILES IDX 45 54 59 56 80 57 47 58 31 59 32 60 40 61 33 62 35 63 41 64
REMARK SMILES IDX 34 65 36 66 37 67 38 68 39 69 63 70 64 71 72 72 65 73 67 74
REMARK SMILES IDX 73 75 66 76 68 77 69 78 70 79 71 80 48 81 49 82 57 83 50 84
REMARK SMILES IDX 52 85 58 86 51 87 53 88 54 89 55 90 56 91
REMARK H PARENT 78 44 46 55
REMARK Flexibility Score: inf
ROOT
ATOM      1  C   UNL A   1      33.753  21.805  23.979  1.00  0.00     0.202 C 
ENDROOT
BRANCH   1   2
ATOM      2  C   UNL A   1      33.905  23.333  23.992  1.00  0.00     0.261 C 
BRANCH   2   3
ATOM      3  O   UNL A   1      32.865  24.008  24.742  1.00  0.00    -0.462 OA
BRANCH   3   4
ATOM      4  C   UNL A   1      31.915  24.626  23.990  1.00  0.00     0.325 C 
ATOM      5  O   UNL A   1      30.772  24.196  23.840  1.00  0.00    -0.250 OA
BRANCH   4   6
ATOM      6  C   UNL A   1      32.320  25.966  23.366  1.00  0.00     0.241 C 
BRANCH   6   7
ATOM      7  N   UNL A   1      31.805  27.210  23.981  1.00  0.00    -0.339 N 
BRANCH   7   8
ATOM      8  C   UNL A   1      30.574  27.714  23.529  1.00  0.00     0.152 A 
ATOM      9  C   UNL A   1      29.360  29.285  22.319  1.00  0.00     0.234 A 
ATOM     10  C   UNL A   1      28.163  28.701  22.675  1.00  0.00     0.179 A 
ATOM     11  N   UNL A   1      30.558  28.811  22.734  1.00  0.00    -0.193 NA
ATOM     12  N   UNL A   1      28.116  27.635  23.494  1.00  0.00    -0.255 NA
ATOM     13  C   UNL A   1      29.330  27.156  23.876  1.00  0.00     0.158 A 
BRANCH   9  14
ATOM     14  O   UNL A   1      29.381  30.318  21.416  1.00  0.00    -0.477 OA
BRANCH  14  15
ATOM     15  C   UNL A   1      28.077  30.597  20.908  1.00  0.00     0.228 C 
ATOM     16  C   UNL A   1      28.004  32.031  20.404  1.00  0.00     0.049 C 
ENDBRANCH  14  15
ENDBRANCH   9  14
ENDBRANCH   7   8
BRANCH   7  17
ATOM     17  C   UNL A   1      32.461  27.813  25.191  1.00  0.00     0.034 C 
ATOM     18  C   UNL A   1      32.769  29.305  24.942  1.00  0.00     0.034 C 
ATOM     19  C   UNL A   1      31.594  27.626  26.455  1.00  0.00     0.034 C 
ATOM     20  C   UNL A   1      33.806  27.133  25.543  1.00  0.00     0.034 C 
ENDBRANCH   7  17
ENDBRANCH   6   7
ENDBRANCH   4   6
ENDBRANCH   3   4
ENDBRANCH   2   3
ENDBRANCH   1   2
BRANCH   1  21
ATOM     21  O   UNL A   1      34.465  21.086  24.993  1.00  0.00    -0.374 OA
BRANCH  21  22
ATOM     22  C   UNL A   1      35.805  20.720  24.679  1.00  0.00     0.202 C 
BRANCH  22  23
ATOM     23  C   UNL A   1      36.869  21.090  25.719  1.00  0.00     0.261 C 
BRANCH  23  24
ATOM     24  O   UNL A   1      38.179  21.193  25.141  1.00  0.00    -0.460 OA
BRANCH  24  25
ATOM     25  C   UNL A   1      39.194  20.935  25.997  1.00  0.00     0.338 C 
ATOM     26  O   UNL A   1      39.774  19.865  26.146  1.00  0.00    -0.246 OA
BRANCH  25  27
ATOM     27  C   UNL A   1      39.666  22.179  26.628  1.00  0.00     0.060 A 
ATOM     28  C   UNL A   1      39.128  23.377  26.143  1.00  0.00     0.016 A 
ATOM     29  C   UNL A   1      40.663  22.193  27.607  1.00  0.00     0.016 A 
ATOM     30  C   UNL A   1      39.638  24.596  26.579  1.00  0.00     0.010 A 
ATOM     31  C   UNL A   1      41.177  23.422  28.042  1.00  0.00     0.010 A 
ATOM     32  C   UNL A   1      40.699  24.627  27.494  1.00  0.00    -0.014 A 
BRANCH  32  33
ATOM     33  C   UNL A   1      41.388  25.919  27.741  1.00  0.00     0.031 A 
ATOM     34  C   UNL A   1      40.657  27.007  28.481  1.00  0.00     0.074 A 
ATOM     35  C   UNL A   1      42.666  26.100  27.367  1.00  0.00     0.049 A 
ATOM     36  N   UNL A   1      41.099  28.166  28.896  1.00  0.00    -0.248 NA
ATOM     37  C   UNL A   1      39.241  26.757  28.797  1.00  0.00     0.031 C 
ATOM     38  C   UNL A   1      43.477  25.128  26.633  1.00  0.00     0.029 A 
ATOM     39  N   UNL A   1      43.505  27.172  27.545  1.00  0.00    -0.354 N 
ATOM     40  C   UNL A   1      40.018  28.788  29.510  1.00  0.00     0.074 A 
ATOM     41  C   UNL A   1      38.891  27.888  29.395  1.00  0.00     0.031 C 
ATOM     42  C   UNL A   1      44.692  25.656  26.409  1.00  0.00     0.029 A 
ATOM     43  C   UNL A   1      44.746  27.002  26.978  1.00  0.00     0.049 A 
ATOM     44  H   UNL A   1      43.243  27.986  28.034  1.00  0.00     0.167 HD
ATOM     45  C   UNL A   1      39.971  29.989  30.132  1.00  0.00     0.034 A 
ATOM     46  C   UNL A   1      45.803  27.839  26.924  1.00  0.00     0.034 A 
ATOM     47  C   UNL A   1      41.097  30.873  30.267  1.00  0.00     0.049 A 
ATOM     48  C   UNL A   1      45.725  29.170  27.626  1.00  0.00     0.074 A 
ATOM     49  C   UNL A   1      41.164  32.086  30.931  1.00  0.00     0.029 A 
ATOM     50  N   UNL A   1      42.348  30.648  29.716  1.00  0.00    -0.354 N 
ATOM     51  N   UNL A   1      44.744  29.674  28.335  1.00  0.00    -0.248 NA
ATOM     52  C   UNL A   1      46.916  30.031  27.556  1.00  0.00     0.031 C 
ATOM     53  C   UNL A   1      42.452  32.604  30.764  1.00  0.00     0.029 A 
ATOM     54  C   UNL A   1      43.191  31.706  30.011  1.00  0.00     0.049 A 
ATOM     55  H   UNL A   1      42.600  29.855  29.191  1.00  0.00     0.167 HD
ATOM     56  C   UNL A   1      45.207  30.893  28.818  1.00  0.00     0.074 A 
ATOM     57  C   UNL A   1      46.567  31.041  28.342  1.00  0.00     0.031 C 
ATOM     58  C   UNL A   1      44.561  31.815  29.575  1.00  0.00     0.034 A 
BRANCH  45  59
ATOM     59  C   UNL A   1      38.665  30.401  30.758  1.00  0.00     0.023 A 
ATOM     60  C   UNL A   1      38.410  30.079  32.106  1.00  0.00     0.012 A 
ATOM     61  C   UNL A   1      37.719  31.153  30.034  1.00  0.00     0.148 A 
ATOM     62  C   UNL A   1      37.222  30.475  32.718  1.00  0.00     0.002 A 
ATOM     63  C   UNL A   1      36.554  31.577  30.662  1.00  0.00     0.091 A 
ATOM     64  F   UNL A   1      37.969  31.428  28.746  1.00  0.00    -0.205 F 
ATOM     65  C   UNL A   1      36.300  31.232  32.000  1.00  0.00     0.022 A 
BRANCH  63  66
ATOM     66  S   UNL A   1      35.335  32.613  29.842  1.00  0.00     0.127 S 
ATOM     67  O   UNL A   1      36.156  33.738  29.396  1.00  0.00    -0.237 OA
ATOM     68  O   UNL A   1      34.862  31.741  28.767  1.00  0.00    -0.237 OA
ATOM     69  O   UNL A   1      34.334  32.927  30.851  1.00  0.00    -0.744 OA
ENDBRANCH  63  66
ENDBRANCH  45  59
BRANCH  46  70
ATOM     70  C   UNL A   1      47.046  27.415  26.221  1.00  0.00     0.023 A 
ATOM     71  C   UNL A   1      47.218  27.726  24.858  1.00  0.00     0.012 A 
ATOM     72  C   UNL A   1      48.070  26.728  26.902  1.00  0.00     0.148 A 
ATOM     73  C   UNL A   1      48.376  27.341  24.180  1.00  0.00     0.002 A 
ATOM     74  C   UNL A   1      49.243  26.393  26.236  1.00  0.00     0.091 A 
ATOM     75  F   UNL A   1      47.878  26.419  28.192  1.00  0.00    -0.205 F 
ATOM     76  C   UNL A   1      49.392  26.685  24.871  1.00  0.00     0.022 A 
BRANCH  74  77
ATOM     77  S   UNL A   1      50.650  25.664  27.082  1.00  0.00     0.127 S 
ATOM     78  O   UNL A   1      50.091  24.403  27.561  1.00  0.00    -0.237 OA
ATOM     79  O   UNL A   1      51.625  25.535  25.998  1.00  0.00    -0.237 OA
ATOM     80  O   UNL A   1      51.025  26.626  28.110  1.00  0.00    -0.744 OA
ENDBRANCH  74  77
ENDBRANCH  46  70
BRANCH  58  81
ATOM     81  C   UNL A   1      45.313  33.062  29.956  1.00  0.00     0.023 A 
ATOM     82  C   UNL A   1      46.111  33.066  31.117  1.00  0.00     0.012 A 
ATOM     83  C   UNL A   1      45.302  34.198  29.123  1.00  0.00     0.148 A 
ATOM     84  C   UNL A   1      46.864  34.189  31.458  1.00  0.00     0.002 A 
ATOM     85  C   UNL A   1      46.088  35.298  29.445  1.00  0.00     0.091 A 
ATOM     86  F   UNL A   1      44.521  34.184  28.031  1.00  0.00    -0.205 F 
ATOM     87  C   UNL A   1      46.861  35.299  30.617  1.00  0.00     0.022 A 
BRANCH  85  88
ATOM     88  S   UNL A   1      46.218  36.732  28.369  1.00  0.00     0.127 S 
ATOM     89  O   UNL A   1      44.893  37.334  28.514  1.00  0.00    -0.237 OA
ATOM     90  O   UNL A   1      47.303  37.493  28.989  1.00  0.00    -0.237 OA
ATOM     91  O   UNL A   1      46.530  36.210  27.046  1.00  0.00    -0.744 OA
ENDBRANCH  85  88
ENDBRANCH  58  81
ENDBRANCH  32  33
ENDBRANCH  25  27
ENDBRANCH  24  25
ENDBRANCH  23  24
ENDBRANCH  22  23
ENDBRANCH  21  22
ENDBRANCH   1  21
TORSDOF 22
ENDMDL
MODEL 3
REMARK VINA RESULT:     -10.0      2.549      3.744
REMARK SMILES CCOc1cncc(N(CC(=O)OCCOCCOC(=O)c2ccc(-c3c4nc(c(-c5cccc(S(=O)(=O)[O-])c5F)c5ccc([nH]5)c(-c5cccc(S(=O)(=O)[O-])c5F)c5nc(c(-c6cccc(S(=O)(=O)[O-])c6F)c6ccc3[nH]6)C=C5)C=C4)cc2)C(C)(C)C)n1
REMARK SMILES IDX 15 1 14 2 13 3 11 4 12 5 10 6 9 7 8 8 4 9 5 10 89 11 6 12
REMARK SMILES IDX 7 13 3 14 2 15 1 16 85 17 86 18 87 19 88 20 16 21 17 22
REMARK SMILES IDX 18 23 19 24 20 25 21 26 22 27 23 28 84 29 24 30 83 31 25 32
REMARK SMILES IDX 26 33 27 34 77 35 28 36 82 37 76 38 78 39 29 40 81 41 75 42
REMARK SMILES IDX 74 43 30 45 62 46 42 47 61 48 43 49 46 50 60 51 79 52 44 53
REMARK SMILES IDX 45 54 59 56 80 57 47 58 31 59 32 60 40 61 33 62 35 63 41 64
REMARK SMILES IDX 34 65 36 66 37 67 38 68 39 69 63 70 64 71 72 72 65 73 67 74
REMARK SMILES IDX 73 75 66 76 68 77 69 78 70 79 71 80 48 81 49 82 57 83 50 84
REMARK SMILES IDX 52 85 58 86 51 87 53 88 54 89 55 90 56 91
REMARK H PARENT 78 44 46 55
REMARK Flexibility Score: inf
ROOT
ATOM      1  C   UNL A   1      37.187  21.246  24.931  1.00  0.00     0.202 C 
ENDROOT
BRANCH   1   2
ATOM      2  C   UNL A   1      35.738  20.982  25.367  1.00  0.00     0.261 C 
BRANCH   2   3
ATOM      3  O   UNL A   1      34.773  21.831  24.697  1.00  0.00    -0.462 OA
BRANCH   3   4
ATOM      4  C   UNL A   1      34.336  22.896  25.420  1.00  0.00     0.325 C 
ATOM      5  O   UNL A   1      34.040  22.840  26.613  1.00  0.00    -0.250 OA
BRANCH   4   6
ATOM      6  C   UNL A   1      34.288  24.237  24.678  1.00  0.00     0.241 C 
BRANCH   6   7
ATOM      7  N   UNL A   1      32.963  24.821  24.373  1.00  0.00    -0.339 N 
BRANCH   7   8
ATOM      8  C   UNL A   1      32.518  25.904  25.150  1.00  0.00     0.152 A 
ATOM      9  C   UNL A   1      32.698  28.129  25.800  1.00  0.00     0.234 A 
ATOM     10  C   UNL A   1      31.653  28.000  26.692  1.00  0.00     0.179 A 
ATOM     11  N   UNL A   1      33.137  27.103  25.034  1.00  0.00    -0.193 NA
ATOM     12  N   UNL A   1      31.028  26.823  26.878  1.00  0.00    -0.255 NA
ATOM     13  C   UNL A   1      31.465  25.813  26.079  1.00  0.00     0.158 A 
BRANCH   9  14
ATOM     14  O   UNL A   1      33.259  29.359  25.570  1.00  0.00    -0.477 OA
BRANCH  14  15
ATOM     15  C   UNL A   1      33.175  30.198  26.722  1.00  0.00     0.228 C 
ATOM     16  C   UNL A   1      34.507  30.221  27.456  1.00  0.00     0.049 C 
ENDBRANCH  14  15
ENDBRANCH   9  14
ENDBRANCH   7   8
BRANCH   7  17
ATOM     17  C   UNL A   1      32.195  24.417  23.146  1.00  0.00     0.034 C 
ATOM     18  C   UNL A   1      33.149  23.806  22.097  1.00  0.00     0.034 C 
ATOM     19  C   UNL A   1      31.049  23.441  23.493  1.00  0.00     0.034 C 
ATOM     20  C   UNL A   1      31.489  25.612  22.461  1.00  0.00     0.034 C 
ENDBRANCH   7  17
ENDBRANCH   6   7
ENDBRANCH   4   6
ENDBRANCH   3   4
ENDBRANCH   2   3
ENDBRANCH   1   2
BRANCH   1  21
ATOM     21  O   UNL A   1      37.914  22.215  25.695  1.00  0.00    -0.374 OA
BRANCH  21  22
ATOM     22  C   UNL A   1      39.215  21.826  26.126  1.00  0.00     0.202 C 
BRANCH  22  23
ATOM     23  C   UNL A   1      39.604  20.366  25.869  1.00  0.00     0.261 C 
BRANCH  23  24
ATOM     24  O   UNL A   1      40.676  19.932  26.721  1.00  0.00    -0.460 OA
BRANCH  24  25
ATOM     25  C   UNL A   1      41.892  19.912  26.130  1.00  0.00     0.338 C 
ATOM     26  O   UNL A   1      42.311  19.072  25.342  1.00  0.00    -0.246 OA
BRANCH  25  27
ATOM     27  C   UNL A   1      42.623  21.160  26.409  1.00  0.00     0.060 A 
ATOM     28  C   UNL A   1      42.807  21.496  27.756  1.00  0.00     0.016 A 
ATOM     29  C   UNL A   1      43.048  22.025  25.397  1.00  0.00     0.016 A 
ATOM     30  C   UNL A   1      43.348  22.732  28.098  1.00  0.00     0.010 A 
ATOM     31  C   UNL A   1      43.589  23.269  25.745  1.00  0.00     0.010 A 
ATOM     32  C   UNL A   1      43.697  23.647  27.095  1.00  0.00    -0.014 A 
BRANCH  32  33
ATOM     33  C   UNL A   1      44.025  25.041  27.488  1.00  0.00     0.031 A 
ATOM     34  C   UNL A   1      45.454  25.508  27.400  1.00  0.00     0.074 A 
ATOM     35  C   UNL A   1      43.058  25.897  27.860  1.00  0.00     0.049 A 
ATOM     36  N   UNL A   1      45.945  26.705  27.589  1.00  0.00    -0.248 NA
ATOM     37  C   UNL A   1      46.462  24.494  27.051  1.00  0.00     0.031 C 
ATOM     38  C   UNL A   1      41.641  25.562  27.996  1.00  0.00     0.029 A 
ATOM     39  N   UNL A   1      43.124  27.226  28.200  1.00  0.00    -0.354 N 
ATOM     40  C   UNL A   1      47.316  26.588  27.395  1.00  0.00     0.074 A 
ATOM     41  C   UNL A   1      47.584  25.198  27.094  1.00  0.00     0.031 C 
ATOM     42  C   UNL A   1      40.973  26.653  28.409  1.00  0.00     0.029 A 
ATOM     43  C   UNL A   1      41.913  27.761  28.568  1.00  0.00     0.049 A 
ATOM     44  H   UNL A   1      43.960  27.745  28.180  1.00  0.00     0.167 HD
ATOM     45  C   UNL A   1      48.265  27.552  27.441  1.00  0.00     0.034 A 
ATOM     46  C   UNL A   1      41.600  29.004  28.989  1.00  0.00     0.034 A 
ATOM     47  C   UNL A   1      47.997  28.937  27.718  1.00  0.00     0.049 A 
ATOM     48  C   UNL A   1      42.675  30.060  29.031  1.00  0.00     0.074 A 
ATOM     49  C   UNL A   1      48.883  30.000  27.729  1.00  0.00     0.029 A 
ATOM     50  N   UNL A   1      46.752  29.450  28.046  1.00  0.00    -0.354 N 
ATOM     51  N   UNL A   1      43.939  29.966  28.692  1.00  0.00    -0.248 NA
ATOM     52  C   UNL A   1      42.273  31.404  29.472  1.00  0.00     0.031 C 
ATOM     53  C   UNL A   1      48.177  31.154  28.084  1.00  0.00     0.029 A 
ATOM     54  C   UNL A   1      46.848  30.812  28.277  1.00  0.00     0.049 A 
ATOM     55  H   UNL A   1      45.922  28.924  28.108  1.00  0.00     0.167 HD
ATOM     56  C   UNL A   1      44.474  31.239  28.851  1.00  0.00     0.074 A 
ATOM     57  C   UNL A   1      43.392  32.095  29.293  1.00  0.00     0.031 C 
ATOM     58  C   UNL A   1      45.750  31.661  28.664  1.00  0.00     0.034 A 
BRANCH  45  59
ATOM     59  C   UNL A   1      49.685  27.150  27.142  1.00  0.00     0.023 A 
ATOM     60  C   UNL A   1      50.446  26.503  28.136  1.00  0.00     0.012 A 
ATOM     61  C   UNL A   1      50.246  27.358  25.867  1.00  0.00     0.148 A 
ATOM     62  C   UNL A   1      51.753  26.092  27.876  1.00  0.00     0.002 A 
ATOM     63  C   UNL A   1      51.535  26.913  25.603  1.00  0.00     0.091 A 
ATOM     64  F   UNL A   1      49.515  27.998  24.943  1.00  0.00    -0.205 F 
ATOM     65  C   UNL A   1      52.293  26.288  26.608  1.00  0.00     0.022 A 
BRANCH  63  66
ATOM     66  S   UNL A   1      52.295  27.058  23.981  1.00  0.00     0.127 S 
ATOM     67  O   UNL A   1      52.712  28.459  23.974  1.00  0.00    -0.237 OA
ATOM     68  O   UNL A   1      53.395  26.097  24.067  1.00  0.00    -0.237 OA
ATOM     69  O   UNL A   1      51.259  26.706  23.021  1.00  0.00    -0.744 OA
ENDBRANCH  63  66
ENDBRANCH  45  59
BRANCH  46  70
ATOM     70  C   UNL A   1      40.193  29.331  29.353  1.00  0.00     0.023 A 
ATOM     71  C   UNL A   1      39.281  29.703  28.347  1.00  0.00     0.012 A 
ATOM     72  C   UNL A   1      39.748  29.250  30.686  1.00  0.00     0.148 A 
ATOM     73  C   UNL A   1      37.957  30.011  28.664  1.00  0.00     0.002 A 
ATOM     74  C   UNL A   1      38.416  29.507  30.990  1.00  0.00     0.091 A 
ATOM     75  F   UNL A   1      40.636  28.918  31.634  1.00  0.00    -0.205 F 
ATOM     76  C   UNL A   1      37.522  29.902  29.983  1.00  0.00     0.022 A 
BRANCH  74  77
ATOM     77  S   UNL A   1      37.745  29.264  32.639  1.00  0.00     0.127 S 
ATOM     78  O   UNL A   1      38.638  30.088  33.449  1.00  0.00    -0.237 OA
ATOM     79  O   UNL A   1      36.385  29.785  32.496  1.00  0.00    -0.237 OA
ATOM     80  O   UNL A   1      37.812  27.828  32.877  1.00  0.00    -0.744 OA
ENDBRANCH  74  77
ENDBRANCH  46  70
BRANCH  58  81
ATOM     81  C   UNL A   1      46.053  33.115  28.916  1.00  0.00     0.023 A 
ATOM     82  C   UNL A   1      46.666  33.498  30.125  1.00  0.00     0.012 A 
ATOM     83  C   UNL A   1      45.813  34.087  27.925  1.00  0.00     0.148 A 
ATOM     84  C   UNL A   1      47.009  34.830  30.356  1.00  0.00     0.002 A 
ATOM     85  C   UNL A   1      46.199  35.405  28.144  1.00  0.00     0.091 A 
ATOM     86  F   UNL A   1      45.212  33.707  26.787  1.00  0.00    -0.205 F 
ATOM     87  C   UNL A   1      46.787  35.779  29.362  1.00  0.00     0.022 A 
BRANCH  85  88
ATOM     88  S   UNL A   1      46.036  36.673  26.881  1.00  0.00     0.127 S 
ATOM     89  O   UNL A   1      46.734  36.061  25.752  1.00  0.00    -0.237 OA
ATOM     90  O   UNL A   1      44.585  36.770  26.718  1.00  0.00    -0.237 OA
ATOM     91  O   UNL A   1      46.660  37.868  27.434  1.00  0.00    -0.744 OA
ENDBRANCH  85  88
ENDBRANCH  58  81
ENDBRANCH  32  33
ENDBRANCH  25  27
ENDBRANCH  24  25
ENDBRANCH  23  24
ENDBRANCH  22  23
ENDBRANCH  21  22
ENDBRANCH   1  21
TORSDOF 22
ENDMDL
