MODEL 1
REMARK VINA RESULT:     -10.6      0.000      0.000
REMARK SMILES Cc1cc2c(c(C)c1Cl)C=C(C(=O)OCCOCCOC(=O)c1ccc(-c3c4nc(c(-c5cccc(S(=O)(=O)[O-])c5F)c5ccc([nH]5)c(-c5cccc(S(=O)(=O)[O-])c5F)c5nc(c(-c6cccc(S(=O)(=O)[O-])c6F)c6ccc3[nH]6)C=C5)C=C4)cc1)[C@@H](C(F)(F)F)O2
REMARK SMILES IDX 18 1 17 2 16 3 15 4 14 5 12 6 13 7 11 8 1 9 2 10 3 11 8 12
REMARK SMILES IDX 4 13 6 14 9 15 5 16 91 17 7 18 10 19 86 20 87 21 88 22 89 23
REMARK SMILES IDX 90 24 19 25 20 26 21 27 22 28 23 29 24 30 85 31 25 32 84 33
REMARK SMILES IDX 26 34 27 35 28 36 78 37 29 38 83 39 77 40 79 41 30 42 82 43
REMARK SMILES IDX 76 44 75 45 31 47 63 48 43 49 62 50 44 51 47 52 61 53 80 54
REMARK SMILES IDX 45 55 46 56 60 58 81 59 48 60 32 61 33 62 41 63 34 64 36 65
REMARK SMILES IDX 42 66 35 67 37 68 38 69 39 70 40 71 64 72 65 73 73 74 66 75
REMARK SMILES IDX 68 76 74 77 67 78 69 79 70 80 71 81 72 82 49 83 50 84 58 85
REMARK SMILES IDX 51 86 53 87 59 88 52 89 54 90 55 91 56 92 57 93
REMARK H PARENT 79 46 47 57
REMARK Flexibility Score: inf
ROOT
ATOM      1  C   UNL A   1      41.959  18.989  26.548  1.00  0.00     0.202 C 
ENDROOT
BRANCH   1   2
ATOM      2  O   UNL A   1      42.724  18.086  25.748  1.00  0.00    -0.374 OA
BRANCH   2   3
ATOM      3  C   UNL A   1      44.097  18.397  25.523  1.00  0.00     0.202 C 
BRANCH   3   4
ATOM      4  C   UNL A   1      44.399  19.506  24.508  1.00  0.00     0.261 C 
BRANCH   4   5
ATOM      5  O   UNL A   1      45.140  20.582  25.102  1.00  0.00    -0.460 OA
BRANCH   5   6
ATOM      6  C   UNL A   1      44.387  21.635  25.490  1.00  0.00     0.338 C 
ATOM      7  O   UNL A   1      43.202  21.821  25.249  1.00  0.00    -0.246 OA
BRANCH   6   8
ATOM      8  C   UNL A   1      45.163  22.498  26.400  1.00  0.00     0.087 C 
ATOM      9  C   UNL A   1      46.938  26.936  30.743  1.00  0.00     0.046 C 
ATOM     10  C   UNL A   1      46.360  25.736  30.042  1.00  0.00    -0.028 A 
ATOM     11  C   UNL A   1      46.972  25.301  28.857  1.00  0.00     0.052 A 
ATOM     12  C   UNL A   1      45.189  25.087  30.481  1.00  0.00     0.047 A 
ATOM     13  C   UNL A   1      46.411  24.279  28.095  1.00  0.00     0.128 A 
ATOM     14  C   UNL A   1      44.630  24.018  29.744  1.00  0.00    -0.021 A 
ATOM     15  Cl  UNL A   1      44.414  25.654  31.931  1.00  0.00    -0.084 Cl
ATOM     16  C   UNL A   1      45.229  23.657  28.512  1.00  0.00     0.022 A 
ATOM     17  O   UNL A   1      47.095  23.954  26.957  1.00  0.00    -0.475 OA
ATOM     18  C   UNL A   1      43.408  23.270  30.225  1.00  0.00     0.047 C 
ATOM     19  C   UNL A   1      44.609  22.701  27.603  1.00  0.00     0.027 C 
ATOM     20  C   UNL A   1      46.457  23.111  25.958  1.00  0.00     0.316 C 
BRANCH  20  21
ATOM     21  C   UNL A   1      46.316  23.919  24.659  1.00  0.00     0.430 C 
ATOM     22  F   UNL A   1      47.079  25.036  24.692  1.00  0.00    -0.167 F 
ATOM     23  F   UNL A   1      46.707  23.201  23.581  1.00  0.00    -0.167 F 
ATOM     24  F   UNL A   1      45.036  24.304  24.448  1.00  0.00    -0.167 F 
ENDBRANCH  20  21
ENDBRANCH   6   8
ENDBRANCH   5   6
ENDBRANCH   4   5
ENDBRANCH   3   4
ENDBRANCH   2   3
ENDBRANCH   1   2
BRANCH   1  25
ATOM     25  C   UNL A   1      40.638  19.509  25.967  1.00  0.00     0.261 C 
BRANCH  25  26
ATOM     26  O   UNL A   1      39.994  20.459  26.836  1.00  0.00    -0.460 OA
BRANCH  26  27
ATOM     27  C   UNL A   1      39.382  21.486  26.200  1.00  0.00     0.338 C 
ATOM     28  O   UNL A   1      38.527  21.407  25.326  1.00  0.00    -0.246 OA
BRANCH  27  29
ATOM     29  C   UNL A   1      39.745  22.764  26.835  1.00  0.00     0.060 A 
ATOM     30  C   UNL A   1      39.082  23.918  26.397  1.00  0.00     0.016 A 
ATOM     31  C   UNL A   1      40.772  22.846  27.777  1.00  0.00     0.016 A 
ATOM     32  C   UNL A   1      39.479  25.168  26.865  1.00  0.00     0.010 A 
ATOM     33  C   UNL A   1      41.177  24.104  28.235  1.00  0.00     0.010 A 
ATOM     34  C   UNL A   1      40.557  25.272  27.753  1.00  0.00    -0.014 A 
BRANCH  34  35
ATOM     35  C   UNL A   1      41.124  26.607  28.057  1.00  0.00     0.031 A 
ATOM     36  C   UNL A   1      42.477  26.965  27.506  1.00  0.00     0.074 A 
ATOM     37  C   UNL A   1      40.429  27.499  28.787  1.00  0.00     0.049 A 
ATOM     38  N   UNL A   1      43.160  28.071  27.646  1.00  0.00    -0.248 NA
ATOM     39  C   UNL A   1      43.149  25.945  26.681  1.00  0.00     0.031 C 
ATOM     40  C   UNL A   1      39.100  27.273  29.351  1.00  0.00     0.029 A 
ATOM     41  N   UNL A   1      40.754  28.771  29.186  1.00  0.00    -0.354 N 
ATOM     42  C   UNL A   1      44.343  27.879  26.942  1.00  0.00     0.074 A 
ATOM     43  C   UNL A   1      44.296  26.543  26.390  1.00  0.00     0.031 C 
ATOM     44  C   UNL A   1      38.727  28.367  30.036  1.00  0.00     0.029 A 
ATOM     45  C   UNL A   1      39.798  29.361  29.979  1.00  0.00     0.049 A 
ATOM     46  H   UNL A   1      41.592  29.220  28.929  1.00  0.00     0.167 HD
ATOM     47  C   UNL A   1      45.363  28.747  26.750  1.00  0.00     0.034 A 
ATOM     48  C   UNL A   1      39.795  30.559  30.597  1.00  0.00     0.034 A 
ATOM     49  C   UNL A   1      45.397  30.081  27.284  1.00  0.00     0.049 A 
ATOM     50  C   UNL A   1      40.972  31.485  30.410  1.00  0.00     0.074 A 
ATOM     51  C   UNL A   1      46.382  31.041  27.129  1.00  0.00     0.029 A 
ATOM     52  N   UNL A   1      44.409  30.644  28.076  1.00  0.00    -0.354 N 
ATOM     53  N   UNL A   1      42.037  31.325  29.663  1.00  0.00    -0.248 NA
ATOM     54  C   UNL A   1      40.935  32.766  31.132  1.00  0.00     0.031 C 
ATOM     55  C   UNL A   1      45.998  32.179  27.843  1.00  0.00     0.029 A 
ATOM     56  C   UNL A   1      44.763  31.935  28.424  1.00  0.00     0.049 A 
ATOM     57  H   UNL A   1      43.578  30.193  28.349  1.00  0.00     0.167 HD
ATOM     58  C   UNL A   1      42.779  32.494  29.798  1.00  0.00     0.074 A 
ATOM     59  C   UNL A   1      42.029  33.364  30.680  1.00  0.00     0.031 C 
ATOM     60  C   UNL A   1      43.980  32.813  29.255  1.00  0.00     0.034 A 
BRANCH  47  61
ATOM     61  C   UNL A   1      46.512  28.309  25.883  1.00  0.00     0.023 A 
ATOM     62  C   UNL A   1      46.336  28.247  24.486  1.00  0.00     0.012 A 
ATOM     63  C   UNL A   1      47.786  28.064  26.433  1.00  0.00     0.148 A 
ATOM     64  C   UNL A   1      47.406  27.936  23.649  1.00  0.00     0.002 A 
ATOM     65  C   UNL A   1      48.858  27.795  25.589  1.00  0.00     0.091 A 
ATOM     66  F   UNL A   1      47.926  28.111  27.765  1.00  0.00    -0.205 F 
ATOM     67  C   UNL A   1      48.668  27.724  24.198  1.00  0.00     0.022 A 
BRANCH  65  68
ATOM     68  S   UNL A   1      50.539  27.585  26.186  1.00  0.00     0.127 S 
ATOM     69  O   UNL A   1      50.814  28.902  26.759  1.00  0.00    -0.237 OA
ATOM     70  O   UNL A   1      50.384  26.513  27.167  1.00  0.00    -0.237 OA
ATOM     71  O   UNL A   1      51.341  27.237  25.020  1.00  0.00    -0.744 OA
ENDBRANCH  65  68
ENDBRANCH  47  61
BRANCH  48  72
ATOM     72  C   UNL A   1      38.616  30.980  31.407  1.00  0.00     0.023 A 
ATOM     73  C   UNL A   1      38.633  30.788  32.803  1.00  0.00     0.012 A 
ATOM     74  C   UNL A   1      37.491  31.583  30.812  1.00  0.00     0.148 A 
ATOM     75  C   UNL A   1      37.543  31.167  33.588  1.00  0.00     0.002 A 
ATOM     76  C   UNL A   1      36.432  32.010  31.607  1.00  0.00     0.091 A 
ATOM     77  F   UNL A   1      37.481  31.737  29.481  1.00  0.00    -0.205 F 
ATOM     78  C   UNL A   1      36.449  31.788  32.991  1.00  0.00     0.022 A 
BRANCH  76  79
ATOM     79  S   UNL A   1      35.043  32.936  30.942  1.00  0.00     0.127 S 
ATOM     80  O   UNL A   1      35.674  34.200  30.574  1.00  0.00    -0.237 OA
ATOM     81  O   UNL A   1      34.633  32.099  29.814  1.00  0.00    -0.237 OA
ATOM     82  O   UNL A   1      34.067  33.005  32.023  1.00  0.00    -0.744 OA
ENDBRANCH  76  79
ENDBRANCH  48  72
BRANCH  60  83
ATOM     83  C   UNL A   1      44.570  34.162  29.574  1.00  0.00     0.023 A 
ATOM     84  C   UNL A   1      45.597  34.261  30.534  1.00  0.00     0.012 A 
ATOM     85  C   UNL A   1      44.197  35.307  28.840  1.00  0.00     0.148 A 
ATOM     86  C   UNL A   1      46.229  35.480  30.773  1.00  0.00     0.002 A 
ATOM     87  C   UNL A   1      44.867  36.507  29.048  1.00  0.00     0.091 A 
ATOM     88  F   UNL A   1      43.209  35.194  27.941  1.00  0.00    -0.205 F 
ATOM     89  C   UNL A   1      45.876  36.598  30.020  1.00  0.00     0.022 A 
BRANCH  87  90
ATOM     90  S   UNL A   1      44.555  37.972  28.055  1.00  0.00     0.127 S 
ATOM     91  O   UNL A   1      44.998  37.536  26.733  1.00  0.00    -0.237 OA
ATOM     92  O   UNL A   1      43.106  38.136  28.190  1.00  0.00    -0.237 OA
ATOM     93  O   UNL A   1      45.342  39.041  28.656  1.00  0.00    -0.744 OA
ENDBRANCH  87  90
ENDBRANCH  60  83
ENDBRANCH  34  35
ENDBRANCH  27  29
ENDBRANCH  26  27
ENDBRANCH  25  26
ENDBRANCH   1  25
TORSDOF 18
ENDMDL
MODEL 2
REMARK VINA RESULT:     -10.0      1.687      7.734
REMARK SMILES Cc1cc2c(c(C)c1Cl)C=C(C(=O)OCCOCCOC(=O)c1ccc(-c3c4nc(c(-c5cccc(S(=O)(=O)[O-])c5F)c5ccc([nH]5)c(-c5cccc(S(=O)(=O)[O-])c5F)c5nc(c(-c6cccc(S(=O)(=O)[O-])c6F)c6ccc3[nH]6)C=C5)C=C4)cc1)[C@@H](C(F)(F)F)O2
REMARK SMILES IDX 18 1 17 2 16 3 15 4 14 5 12 6 13 7 11 8 1 9 2 10 3 11 8 12
REMARK SMILES IDX 4 13 6 14 9 15 5 16 91 17 7 18 10 19 86 20 87 21 88 22 89 23
REMARK SMILES IDX 90 24 19 25 20 26 21 27 22 28 23 29 24 30 85 31 25 32 84 33
REMARK SMILES IDX 26 34 27 35 28 36 78 37 29 38 83 39 77 40 79 41 30 42 82 43
REMARK SMILES IDX 76 44 75 45 31 47 63 48 43 49 62 50 44 51 47 52 61 53 80 54
REMARK SMILES IDX 45 55 46 56 60 58 81 59 48 60 32 61 33 62 41 63 34 64 36 65
REMARK SMILES IDX 42 66 35 67 37 68 38 69 39 70 40 71 64 72 65 73 73 74 66 75
REMARK SMILES IDX 68 76 74 77 67 78 69 79 70 80 71 81 72 82 49 83 50 84 58 85
REMARK SMILES IDX 51 86 53 87 59 88 52 89 54 90 55 91 56 92 57 93
REMARK H PARENT 79 46 47 57
REMARK Flexibility Score: inf
ROOT
ATOM      1  C   UNL A   1      41.853  19.392  26.581  1.00  0.00     0.202 C 
ENDROOT
BRANCH   1   2
ATOM      2  O   UNL A   1      42.576  18.353  25.918  1.00  0.00    -0.374 OA
BRANCH   2   3
ATOM      3  C   UNL A   1      43.978  18.534  25.732  1.00  0.00     0.202 C 
BRANCH   3   4
ATOM      4  C   UNL A   1      44.413  19.395  24.541  1.00  0.00     0.261 C 
BRANCH   4   5
ATOM      5  O   UNL A   1      45.158  20.547  24.962  1.00  0.00    -0.460 OA
BRANCH   5   6
ATOM      6  C   UNL A   1      44.400  21.591  25.362  1.00  0.00     0.338 C 
ATOM      7  O   UNL A   1      43.215  21.777  25.117  1.00  0.00    -0.246 OA
BRANCH   6   8
ATOM      8  C   UNL A   1      45.168  22.441  26.291  1.00  0.00     0.087 C 
ATOM      9  C   UNL A   1      46.898  26.789  30.741  1.00  0.00     0.046 C 
ATOM     10  C   UNL A   1      46.335  25.599  30.011  1.00  0.00    -0.028 A 
ATOM     11  C   UNL A   1      46.946  25.206  28.812  1.00  0.00     0.052 A 
ATOM     12  C   UNL A   1      45.177  24.921  30.440  1.00  0.00     0.047 A 
ATOM     13  C   UNL A   1      46.397  24.196  28.026  1.00  0.00     0.128 A 
ATOM     14  C   UNL A   1      44.630  23.863  29.677  1.00  0.00    -0.021 A 
ATOM     15  Cl  UNL A   1      44.401  25.437  31.908  1.00  0.00    -0.084 Cl
ATOM     16  C   UNL A   1      45.228  23.545  28.433  1.00  0.00     0.022 A 
ATOM     17  O   UNL A   1      47.079  23.912  26.877  1.00  0.00    -0.475 OA
ATOM     18  C   UNL A   1      43.422  23.084  30.144  1.00  0.00     0.047 C 
ATOM     19  C   UNL A   1      44.618  22.603  27.501  1.00  0.00     0.027 C 
ATOM     20  C   UNL A   1      46.450  23.087  25.858  1.00  0.00     0.316 C 
BRANCH  20  21
ATOM     21  C   UNL A   1      46.288  23.926  24.582  1.00  0.00     0.430 C 
ATOM     22  F   UNL A   1      47.106  23.482  23.599  1.00  0.00    -0.167 F 
ATOM     23  F   UNL A   1      45.024  23.869  24.104  1.00  0.00    -0.167 F 
ATOM     24  F   UNL A   1      46.581  25.229  24.801  1.00  0.00    -0.167 F 
ENDBRANCH  20  21
ENDBRANCH   6   8
ENDBRANCH   5   6
ENDBRANCH   4   5
ENDBRANCH   3   4
ENDBRANCH   2   3
ENDBRANCH   1   2
BRANCH   1  25
ATOM     25  C   UNL A   1      40.459  19.742  26.043  1.00  0.00     0.261 C 
BRANCH  25  26
ATOM     26  O   UNL A   1      39.794  20.731  26.849  1.00  0.00    -0.460 OA
BRANCH  26  27
ATOM     27  C   UNL A   1      39.242  21.753  26.152  1.00  0.00     0.338 C 
ATOM     28  O   UNL A   1      38.408  21.670  25.259  1.00  0.00    -0.246 OA
BRANCH  27  29
ATOM     29  C   UNL A   1      39.640  23.042  26.743  1.00  0.00     0.060 A 
ATOM     30  C   UNL A   1      39.231  24.210  26.086  1.00  0.00     0.016 A 
ATOM     31  C   UNL A   1      40.468  23.107  27.864  1.00  0.00     0.016 A 
ATOM     32  C   UNL A   1      39.691  25.451  26.522  1.00  0.00     0.010 A 
ATOM     33  C   UNL A   1      40.938  24.354  28.292  1.00  0.00     0.010 A 
ATOM     34  C   UNL A   1      40.581  25.525  27.600  1.00  0.00    -0.014 A 
BRANCH  34  35
ATOM     35  C   UNL A   1      41.250  26.814  27.904  1.00  0.00     0.031 A 
ATOM     36  C   UNL A   1      40.473  27.884  28.622  1.00  0.00     0.074 A 
ATOM     37  C   UNL A   1      42.538  27.014  27.573  1.00  0.00     0.049 A 
ATOM     38  N   UNL A   1      40.857  29.080  28.985  1.00  0.00    -0.248 NA
ATOM     39  C   UNL A   1      39.081  27.565  28.984  1.00  0.00     0.031 C 
ATOM     40  C   UNL A   1      43.396  26.042  26.899  1.00  0.00     0.029 A 
ATOM     41  N   UNL A   1      43.345  28.109  27.751  1.00  0.00    -0.354 N 
ATOM     42  C   UNL A   1      39.757  29.659  29.606  1.00  0.00     0.074 A 
ATOM     43  C   UNL A   1      38.683  28.693  29.554  1.00  0.00     0.031 C 
ATOM     44  C   UNL A   1      44.609  26.590  26.708  1.00  0.00     0.029 A 
ATOM     45  C   UNL A   1      44.605  27.958  27.225  1.00  0.00     0.049 A 
ATOM     46  H   UNL A   1      43.049  28.928  28.213  1.00  0.00     0.167 HD
ATOM     47  C   UNL A   1      39.660  30.876  30.191  1.00  0.00     0.034 A 
ATOM     48  C   UNL A   1      45.634  28.827  27.158  1.00  0.00     0.034 A 
ATOM     49  C   UNL A   1      40.736  31.826  30.258  1.00  0.00     0.049 A 
ATOM     50  C   UNL A   1      45.478  30.198  27.769  1.00  0.00     0.074 A 
ATOM     51  C   UNL A   1      40.738  33.079  30.845  1.00  0.00     0.029 A 
ATOM     52  N   UNL A   1      41.999  31.634  29.720  1.00  0.00    -0.354 N 
ATOM     53  N   UNL A   1      44.465  30.693  28.437  1.00  0.00    -0.248 NA
ATOM     54  C   UNL A   1      46.617  31.120  27.640  1.00  0.00     0.031 C 
ATOM     55  C   UNL A   1      41.996  33.652  30.646  1.00  0.00     0.029 A 
ATOM     56  C   UNL A   1      42.786  32.747  29.954  1.00  0.00     0.049 A 
ATOM     57  H   UNL A   1      42.293  30.824  29.243  1.00  0.00     0.167 HD
ATOM     58  C   UNL A   1      44.854  31.968  28.834  1.00  0.00     0.074 A 
ATOM     59  C   UNL A   1      46.206  32.160  28.353  1.00  0.00     0.031 C 
ATOM     60  C   UNL A   1      44.151  32.903  29.521  1.00  0.00     0.034 A 
BRANCH  47  61
ATOM     61  C   UNL A   1      38.361  31.240  30.857  1.00  0.00     0.023 A 
ATOM     62  C   UNL A   1      38.219  31.039  32.244  1.00  0.00     0.012 A 
ATOM     63  C   UNL A   1      37.328  31.874  30.138  1.00  0.00     0.148 A 
ATOM     64  C   UNL A   1      37.064  31.452  32.906  1.00  0.00     0.002 A 
ATOM     65  C   UNL A   1      36.197  32.321  30.813  1.00  0.00     0.091 A 
ATOM     66  F   UNL A   1      37.478  32.038  28.816  1.00  0.00    -0.205 F 
ATOM     67  C   UNL A   1      36.061  32.104  32.195  1.00  0.00     0.022 A 
BRANCH  65  68
ATOM     68  S   UNL A   1      34.882  33.241  30.006  1.00  0.00     0.127 S 
ATOM     69  O   UNL A   1      34.269  32.207  29.172  1.00  0.00    -0.237 OA
ATOM     70  O   UNL A   1      34.068  33.671  31.141  1.00  0.00    -0.237 OA
ATOM     71  O   UNL A   1      35.534  34.320  29.275  1.00  0.00    -0.744 OA
ENDBRANCH  65  68
ENDBRANCH  47  61
BRANCH  48  72
ATOM     72  C   UNL A   1      46.924  28.413  26.535  1.00  0.00     0.023 A 
ATOM     73  C   UNL A   1      48.012  28.069  27.361  1.00  0.00     0.012 A 
ATOM     74  C   UNL A   1      47.076  28.340  25.136  1.00  0.00     0.148 A 
ATOM     75  C   UNL A   1      49.233  27.683  26.807  1.00  0.00     0.002 A 
ATOM     76  C   UNL A   1      48.278  27.900  24.591  1.00  0.00     0.091 A 
ATOM     77  F   UNL A   1      46.039  28.694  24.365  1.00  0.00    -0.205 F 
ATOM     78  C   UNL A   1      49.362  27.587  25.424  1.00  0.00     0.022 A 
BRANCH  76  79
ATOM     79  S   UNL A   1      48.490  27.621  22.829  1.00  0.00     0.127 S 
ATOM     80  O   UNL A   1      49.762  28.290  22.571  1.00  0.00    -0.237 OA
ATOM     81  O   UNL A   1      48.535  26.160  22.758  1.00  0.00    -0.237 OA
ATOM     82  O   UNL A   1      47.320  28.215  22.196  1.00  0.00    -0.744 OA
ENDBRANCH  76  79
ENDBRANCH  48  72
BRANCH  60  83
ATOM     83  C   UNL A   1      44.818  34.221  29.817  1.00  0.00     0.023 A 
ATOM     84  C   UNL A   1      44.668  35.293  28.915  1.00  0.00     0.012 A 
ATOM     85  C   UNL A   1      45.486  34.434  31.041  1.00  0.00     0.148 A 
ATOM     86  C   UNL A   1      45.189  36.550  29.217  1.00  0.00     0.002 A 
ATOM     87  C   UNL A   1      45.958  35.703  31.356  1.00  0.00     0.091 A 
ATOM     88  F   UNL A   1      45.629  33.397  31.879  1.00  0.00    -0.205 F 
ATOM     89  C   UNL A   1      45.819  36.759  30.441  1.00  0.00     0.022 A 
BRANCH  87  90
ATOM     90  S   UNL A   1      46.689  36.094  32.950  1.00  0.00     0.127 S 
ATOM     91  O   UNL A   1      45.613  35.727  33.869  1.00  0.00    -0.237 OA
ATOM     92  O   UNL A   1      47.851  35.205  32.986  1.00  0.00    -0.237 OA
ATOM     93  O   UNL A   1      47.015  37.513  32.906  1.00  0.00    -0.744 OA
ENDBRANCH  87  90
ENDBRANCH  60  83
ENDBRANCH  34  35
ENDBRANCH  27  29
ENDBRANCH  26  27
ENDBRANCH  25  26
ENDBRANCH   1  25
TORSDOF 18
ENDMDL
MODEL 3
REMARK VINA RESULT:      -9.9      5.492     12.147
REMARK SMILES Cc1cc2c(c(C)c1Cl)C=C(C(=O)OCCOCCOC(=O)c1ccc(-c3c4nc(c(-c5cccc(S(=O)(=O)[O-])c5F)c5ccc([nH]5)c(-c5cccc(S(=O)(=O)[O-])c5F)c5nc(c(-c6cccc(S(=O)(=O)[O-])c6F)c6ccc3[nH]6)C=C5)C=C4)cc1)[C@@H](C(F)(F)F)O2
REMARK SMILES IDX 18 1 17 2 16 3 15 4 14 5 12 6 13 7 11 8 1 9 2 10 3 11 8 12
REMARK SMILES IDX 4 13 6 14 9 15 5 16 91 17 7 18 10 19 86 20 87 21 88 22 89 23
REMARK SMILES IDX 90 24 19 25 20 26 21 27 22 28 23 29 24 30 85 31 25 32 84 33
REMARK SMILES IDX 26 34 27 35 28 36 78 37 29 38 83 39 77 40 79 41 30 42 82 43
REMARK SMILES IDX 76 44 75 45 31 47 63 48 43 49 62 50 44 51 47 52 61 53 80 54
REMARK SMILES IDX 45 55 46 56 60 58 81 59 48 60 32 61 33 62 41 63 34 64 36 65
REMARK SMILES IDX 42 66 35 67 37 68 38 69 39 70 40 71 64 72 65 73 73 74 66 75
REMARK SMILES IDX 68 76 74 77 67 78 69 79 70 80 71 81 72 82 49 83 50 84 58 85
REMARK SMILES IDX 51 86 53 87 59 88 52 89 54 90 55 91 56 92 57 93
REMARK H PARENT 79 46 47 57
REMARK Flexibility Score: inf
ROOT
ATOM      1  C   UNL A   1      31.282  31.894  26.522  1.00  0.00     0.202 C 
ENDROOT
BRANCH   1   2
ATOM      2  O   UNL A   1      31.857  30.614  26.790  1.00  0.00    -0.374 OA
BRANCH   2   3
ATOM      3  C   UNL A   1      32.633  30.005  25.760  1.00  0.00     0.202 C 
BRANCH   3   4
ATOM      4  C   UNL A   1      33.774  29.084  26.204  1.00  0.00     0.261 C 
BRANCH   4   5
ATOM      5  O   UNL A   1      33.386  27.703  26.170  1.00  0.00    -0.460 OA
BRANCH   5   6
ATOM      6  C   UNL A   1      33.530  27.109  24.965  1.00  0.00     0.338 C 
ATOM      7  O   UNL A   1      33.875  27.641  23.918  1.00  0.00    -0.246 OA
BRANCH   6   8
ATOM      8  C   UNL A   1      33.354  25.651  25.101  1.00  0.00     0.087 C 
ATOM      9  C   UNL A   1      34.015  19.244  24.625  1.00  0.00     0.046 C 
ATOM     10  C   UNL A   1      34.194  20.707  24.933  1.00  0.00    -0.028 A 
ATOM     11  C   UNL A   1      33.053  21.520  24.979  1.00  0.00     0.052 A 
ATOM     12  C   UNL A   1      35.461  21.301  25.095  1.00  0.00     0.047 A 
ATOM     13  C   UNL A   1      33.163  22.900  25.132  1.00  0.00     0.128 A 
ATOM     14  C   UNL A   1      35.590  22.695  25.296  1.00  0.00    -0.021 A 
ATOM     15  Cl  UNL A   1      36.876  20.294  25.001  1.00  0.00    -0.084 Cl
ATOM     16  C   UNL A   1      34.422  23.496  25.258  1.00  0.00     0.022 A 
ATOM     17  O   UNL A   1      31.980  23.584  25.149  1.00  0.00    -0.475 OA
ATOM     18  C   UNL A   1      36.934  23.348  25.529  1.00  0.00     0.047 C 
ATOM     19  C   UNL A   1      34.485  24.953  25.264  1.00  0.00     0.027 C 
ATOM     20  C   UNL A   1      31.990  25.032  25.020  1.00  0.00     0.316 C 
BRANCH  20  21
ATOM     21  C   UNL A   1      31.244  25.411  23.732  1.00  0.00     0.430 C 
ATOM     22  F   UNL A   1      30.621  26.605  23.862  1.00  0.00    -0.167 F 
ATOM     23  F   UNL A   1      32.087  25.514  22.679  1.00  0.00    -0.167 F 
ATOM     24  F   UNL A   1      30.304  24.492  23.411  1.00  0.00    -0.167 F 
ENDBRANCH  20  21
ENDBRANCH   6   8
ENDBRANCH   5   6
ENDBRANCH   4   5
ENDBRANCH   3   4
ENDBRANCH   2   3
ENDBRANCH   1   2
BRANCH   1  25
ATOM     25  C   UNL A   1      32.123  33.134  26.853  1.00  0.00     0.261 C 
BRANCH  25  26
ATOM     26  O   UNL A   1      32.910  32.959  28.045  1.00  0.00    -0.460 OA
BRANCH  26  27
ATOM     27  C   UNL A   1      33.986  33.776  28.139  1.00  0.00     0.338 C 
ATOM     28  O   UNL A   1      33.983  35.001  28.146  1.00  0.00    -0.246 OA
BRANCH  27  29
ATOM     29  C   UNL A   1      35.196  32.989  28.431  1.00  0.00     0.060 A 
ATOM     30  C   UNL A   1      35.022  31.677  28.891  1.00  0.00     0.016 A 
ATOM     31  C   UNL A   1      36.471  33.549  28.341  1.00  0.00     0.016 A 
ATOM     32  C   UNL A   1      36.124  30.934  29.309  1.00  0.00     0.010 A 
ATOM     33  C   UNL A   1      37.574  32.806  28.774  1.00  0.00     0.010 A 
ATOM     34  C   UNL A   1      37.400  31.510  29.294  1.00  0.00    -0.014 A 
BRANCH  34  35
ATOM     35  C   UNL A   1      38.523  30.808  29.960  1.00  0.00     0.031 A 
ATOM     36  C   UNL A   1      38.879  31.183  31.373  1.00  0.00     0.074 A 
ATOM     37  C   UNL A   1      39.195  29.830  29.326  1.00  0.00     0.049 A 
ATOM     38  N   UNL A   1      39.820  30.702  32.143  1.00  0.00    -0.248 NA
ATOM     39  C   UNL A   1      38.065  32.235  32.007  1.00  0.00     0.031 C 
ATOM     40  C   UNL A   1      38.923  29.365  27.968  1.00  0.00     0.029 A 
ATOM     41  N   UNL A   1      40.251  29.060  29.741  1.00  0.00    -0.354 N 
ATOM     42  C   UNL A   1      39.720  31.396  33.343  1.00  0.00     0.074 A 
ATOM     43  C   UNL A   1      38.641  32.346  33.195  1.00  0.00     0.031 C 
ATOM     44  C   UNL A   1      39.800  28.396  27.656  1.00  0.00     0.029 A 
ATOM     45  C   UNL A   1      40.710  28.189  28.782  1.00  0.00     0.049 A 
ATOM     46  H   UNL A   1      40.645  29.124  30.643  1.00  0.00     0.167 HD
ATOM     47  C   UNL A   1      40.445  31.236  34.475  1.00  0.00     0.034 A 
ATOM     48  C   UNL A   1      41.751  27.332  28.806  1.00  0.00     0.034 A 
ATOM     49  C   UNL A   1      41.505  30.277  34.625  1.00  0.00     0.049 A 
ATOM     50  C   UNL A   1      42.577  27.216  30.063  1.00  0.00     0.074 A 
ATOM     51  C   UNL A   1      42.286  30.030  35.740  1.00  0.00     0.029 A 
ATOM     52  N   UNL A   1      41.935  29.409  33.634  1.00  0.00    -0.354 N 
ATOM     53  N   UNL A   1      42.409  27.810  31.219  1.00  0.00    -0.248 NA
ATOM     54  C   UNL A   1      43.722  26.292  30.027  1.00  0.00     0.031 C 
ATOM     55  C   UNL A   1      43.201  29.025  35.417  1.00  0.00     0.029 A 
ATOM     56  C   UNL A   1      42.975  28.631  34.108  1.00  0.00     0.049 A 
ATOM     57  H   UNL A   1      41.556  29.354  32.727  1.00  0.00     0.167 HD
ATOM     58  C   UNL A   1      43.402  27.310  32.056  1.00  0.00     0.074 A 
ATOM     59  C   UNL A   1      44.153  26.345  31.280  1.00  0.00     0.031 C 
ATOM     60  C   UNL A   1      43.678  27.632  33.344  1.00  0.00     0.034 A 
BRANCH  47  61
ATOM     61  C   UNL A   1      40.090  32.081  35.669  1.00  0.00     0.023 A 
ATOM     62  C   UNL A   1      40.816  33.263  35.916  1.00  0.00     0.012 A 
ATOM     63  C   UNL A   1      38.980  31.766  36.477  1.00  0.00     0.148 A 
ATOM     64  C   UNL A   1      40.451  34.115  36.957  1.00  0.00     0.002 A 
ATOM     65  C   UNL A   1      38.597  32.642  37.487  1.00  0.00     0.091 A 
ATOM     66  F   UNL A   1      38.315  30.628  36.234  1.00  0.00    -0.205 F 
ATOM     67  C   UNL A   1      39.335  33.812  37.733  1.00  0.00     0.022 A 
BRANCH  65  68
ATOM     68  S   UNL A   1      37.130  32.386  38.493  1.00  0.00     0.127 S 
ATOM     69  O   UNL A   1      37.029  30.927  38.500  1.00  0.00    -0.237 OA
ATOM     70  O   UNL A   1      37.527  32.977  39.770  1.00  0.00    -0.237 OA
ATOM     71  O   UNL A   1      36.045  33.078  37.809  1.00  0.00    -0.744 OA
ENDBRANCH  65  68
ENDBRANCH  47  61
BRANCH  48  72
ATOM     72  C   UNL A   1      42.043  26.475  27.621  1.00  0.00     0.023 A 
ATOM     73  C   UNL A   1      42.715  27.031  26.515  1.00  0.00     0.012 A 
ATOM     74  C   UNL A   1      41.678  25.115  27.588  1.00  0.00     0.148 A 
ATOM     75  C   UNL A   1      42.997  26.255  25.389  1.00  0.00     0.002 A 
ATOM     76  C   UNL A   1      42.013  24.333  26.488  1.00  0.00     0.091 A 
ATOM     77  F   UNL A   1      41.018  24.608  28.639  1.00  0.00    -0.205 F 
ATOM     78  C   UNL A   1      42.657  24.905  25.381  1.00  0.00     0.022 A 
BRANCH  76  79
ATOM     79  S   UNL A   1      41.732  22.559  26.446  1.00  0.00     0.127 S 
ATOM     80  O   UNL A   1      42.360  22.127  27.691  1.00  0.00    -0.237 OA
ATOM     81  O   UNL A   1      40.270  22.485  26.433  1.00  0.00    -0.237 OA
ATOM     82  O   UNL A   1      42.366  22.093  25.220  1.00  0.00    -0.744 OA
ENDBRANCH  76  79
ENDBRANCH  48  72
BRANCH  60  83
ATOM     83  C   UNL A   1      44.829  26.934  34.021  1.00  0.00     0.023 A 
ATOM     84  C   UNL A   1      46.107  27.529  34.005  1.00  0.00     0.012 A 
ATOM     85  C   UNL A   1      44.621  25.761  34.774  1.00  0.00     0.148 A 
ATOM     86  C   UNL A   1      47.163  26.956  34.711  1.00  0.00     0.002 A 
ATOM     87  C   UNL A   1      45.668  25.223  35.515  1.00  0.00     0.091 A 
ATOM     88  F   UNL A   1      43.402  25.204  34.765  1.00  0.00    -0.205 F 
ATOM     89  C   UNL A   1      46.941  25.814  35.477  1.00  0.00     0.022 A 
BRANCH  87  90
ATOM     90  S   UNL A   1      45.452  23.818  36.614  1.00  0.00     0.127 S 
ATOM     91  O   UNL A   1      46.835  23.489  36.952  1.00  0.00    -0.237 OA
ATOM     92  O   UNL A   1      44.677  24.398  37.712  1.00  0.00    -0.237 OA
ATOM     93  O   UNL A   1      44.741  22.808  35.841  1.00  0.00    -0.744 OA
ENDBRANCH  87  90
ENDBRANCH  60  83
ENDBRANCH  34  35
ENDBRANCH  27  29
ENDBRANCH  26  27
ENDBRANCH  25  26
ENDBRANCH   1  25
TORSDOF 18
ENDMDL
