MODEL 1
REMARK VINA RESULT:     -11.2      0.000      0.000
REMARK SMILES O=C(OCCOCCOC(=O)c1cccc(Oc2ncc([N+](=O)[O-])cc2Br)c1)c1ccc(-c2c3nc(c(-c4cccc(S(=O)(=O)[O-])c4F)c4ccc([nH]4)c(-c4cccc(S(=O)(=O)[O-])c4F)c4nc(c(-c5cccc(S(=O)(=O)[O-])c5F)c5ccc2[nH]5)C=C4)C=C3)cc1
REMARK SMILES IDX 6 1 5 2 4 3 3 4 2 5 1 6 29 7 30 8 91 9 31 10 90 11 32 12
REMARK SMILES IDX 33 13 34 14 84 15 35 16 89 17 83 18 85 19 36 20 88 21 82 22
REMARK SMILES IDX 81 23 37 25 69 26 49 27 68 28 50 29 53 30 67 31 86 32 51 33
REMARK SMILES IDX 52 34 66 36 87 37 54 38 38 39 39 40 47 41 40 42 42 43 48 44
REMARK SMILES IDX 41 45 43 46 44 47 45 48 46 49 70 50 71 51 79 52 72 53 74 54
REMARK SMILES IDX 80 55 73 56 75 57 76 58 77 59 78 60 55 61 56 62 64 63 57 64
REMARK SMILES IDX 59 65 65 66 58 67 60 68 61 69 62 70 63 71 7 72 8 73 9 74
REMARK SMILES IDX 10 75 11 76 12 77 13 78 28 79 14 80 16 81 15 82 17 83 18 84
REMARK SMILES IDX 19 85 26 86 20 87 25 88 27 89 21 90 22 91 23 92 24 93
REMARK H PARENT 85 24 53 35
REMARK Flexibility Score: inf
ROOT
ATOM      1  O   UNL A   1      31.782  30.483  27.124  1.00  0.00    -0.374 OA
ENDROOT
BRANCH   1   2
ATOM      2  C   UNL A   1      31.326  31.744  26.636  1.00  0.00     0.202 C 
BRANCH   2   3
ATOM      3  C   UNL A   1      32.380  32.852  26.642  1.00  0.00     0.261 C 
BRANCH   3   4
ATOM      4  O   UNL A   1      32.196  33.711  27.777  1.00  0.00    -0.460 OA
BRANCH   4   5
ATOM      5  C   UNL A   1      33.153  34.265  28.561  1.00  0.00     0.338 C 
ATOM      6  O   UNL A   1      32.989  35.417  28.960  1.00  0.00    -0.246 OA
BRANCH   5   7
ATOM      7  C   UNL A   1      34.383  33.535  28.992  1.00  0.00     0.060 A 
ATOM      8  C   UNL A   1      34.390  32.275  29.586  1.00  0.00     0.016 A 
ATOM      9  C   UNL A   1      35.622  34.137  28.721  1.00  0.00     0.016 A 
ATOM     10  C   UNL A   1      35.553  31.649  29.970  1.00  0.00     0.010 A 
ATOM     11  C   UNL A   1      36.816  33.500  29.077  1.00  0.00     0.010 A 
ATOM     12  C   UNL A   1      36.770  32.264  29.728  1.00  0.00    -0.014 A 
BRANCH  12  13
ATOM     13  C   UNL A   1      37.932  31.624  30.355  1.00  0.00     0.031 A 
ATOM     14  C   UNL A   1      38.174  31.902  31.804  1.00  0.00     0.074 A 
ATOM     15  C   UNL A   1      38.586  30.661  29.683  1.00  0.00     0.049 A 
ATOM     16  N   UNL A   1      39.090  31.417  32.591  1.00  0.00    -0.248 NA
ATOM     17  C   UNL A   1      37.241  32.835  32.464  1.00  0.00     0.031 C 
ATOM     18  C   UNL A   1      38.281  30.232  28.313  1.00  0.00     0.029 A 
ATOM     19  N   UNL A   1      39.604  29.838  30.071  1.00  0.00    -0.354 N 
ATOM     20  C   UNL A   1      38.889  32.035  33.817  1.00  0.00     0.074 A 
ATOM     21  C   UNL A   1      37.747  32.909  33.683  1.00  0.00     0.031 C 
ATOM     22  C   UNL A   1      39.093  29.216  27.980  1.00  0.00     0.029 A 
ATOM     23  C   UNL A   1      40.015  28.976  29.082  1.00  0.00     0.049 A 
ATOM     24  H   UNL A   1      40.006  29.861  30.969  1.00  0.00     0.167 HD
ATOM     25  C   UNL A   1      39.615  31.890  34.946  1.00  0.00     0.034 A 
ATOM     26  C   UNL A   1      41.052  28.120  29.071  1.00  0.00     0.034 A 
ATOM     27  C   UNL A   1      40.737  31.001  35.037  1.00  0.00     0.049 A 
ATOM     28  C   UNL A   1      41.886  28.033  30.320  1.00  0.00     0.074 A 
ATOM     29  C   UNL A   1      41.589  30.790  36.103  1.00  0.00     0.029 A 
ATOM     30  N   UNL A   1      41.168  30.179  34.003  1.00  0.00    -0.354 N 
ATOM     31  N   UNL A   1      41.707  28.636  31.472  1.00  0.00    -0.248 NA
ATOM     32  C   UNL A   1      43.049  27.142  30.277  1.00  0.00     0.031 C 
ATOM     33  C   UNL A   1      42.562  29.871  35.696  1.00  0.00     0.029 A 
ATOM     34  C   UNL A   1      42.281  29.466  34.398  1.00  0.00     0.049 A 
ATOM     35  H   UNL A   1      40.740  30.114  33.118  1.00  0.00     0.167 HD
ATOM     36  C   UNL A   1      42.712  28.169  32.308  1.00  0.00     0.074 A 
ATOM     37  C   UNL A   1      43.484  27.219  31.527  1.00  0.00     0.031 C 
ATOM     38  C   UNL A   1      42.985  28.496  33.596  1.00  0.00     0.034 A 
BRANCH  25  39
ATOM     39  C   UNL A   1      39.258  32.773  36.110  1.00  0.00     0.023 A 
ATOM     40  C   UNL A   1      39.806  34.066  36.232  1.00  0.00     0.012 A 
ATOM     41  C   UNL A   1      38.396  32.290  37.114  1.00  0.00     0.148 A 
ATOM     42  C   UNL A   1      39.533  34.847  37.356  1.00  0.00     0.002 A 
ATOM     43  C   UNL A   1      38.090  33.092  38.205  1.00  0.00     0.091 A 
ATOM     44  F   UNL A   1      37.916  31.044  36.997  1.00  0.00    -0.205 F 
ATOM     45  C   UNL A   1      38.671  34.364  38.336  1.00  0.00     0.022 A 
BRANCH  43  46
ATOM     46  S   UNL A   1      36.940  32.583  39.485  1.00  0.00     0.127 S 
ATOM     47  O   UNL A   1      35.665  32.629  38.772  1.00  0.00    -0.237 OA
ATOM     48  O   UNL A   1      37.415  31.236  39.800  1.00  0.00    -0.237 OA
ATOM     49  O   UNL A   1      37.083  33.548  40.565  1.00  0.00    -0.744 OA
ENDBRANCH  43  46
ENDBRANCH  25  39
BRANCH  26  50
ATOM     50  C   UNL A   1      41.363  27.314  27.857  1.00  0.00     0.023 A 
ATOM     51  C   UNL A   1      41.946  27.929  26.732  1.00  0.00     0.012 A 
ATOM     52  C   UNL A   1      41.085  25.932  27.811  1.00  0.00     0.148 A 
ATOM     53  C   UNL A   1      42.210  27.194  25.576  1.00  0.00     0.002 A 
ATOM     54  C   UNL A   1      41.401  25.194  26.676  1.00  0.00     0.091 A 
ATOM     55  F   UNL A   1      40.517  25.362  28.884  1.00  0.00    -0.205 F 
ATOM     56  C   UNL A   1      41.946  25.827  25.549  1.00  0.00     0.022 A 
BRANCH  54  57
ATOM     57  S   UNL A   1      41.200  23.411  26.599  1.00  0.00     0.127 S 
ATOM     58  O   UNL A   1      39.760  23.282  26.393  1.00  0.00    -0.237 OA
ATOM     59  O   UNL A   1      42.023  23.065  25.439  1.00  0.00    -0.237 OA
ATOM     60  O   UNL A   1      41.705  22.900  27.866  1.00  0.00    -0.744 OA
ENDBRANCH  54  57
ENDBRANCH  26  50
BRANCH  38  61
ATOM     61  C   UNL A   1      44.121  27.769  34.256  1.00  0.00     0.023 A 
ATOM     62  C   UNL A   1      45.429  28.287  34.194  1.00  0.00     0.012 A 
ATOM     63  C   UNL A   1      43.865  26.605  35.006  1.00  0.00     0.148 A 
ATOM     64  C   UNL A   1      46.475  27.631  34.838  1.00  0.00     0.002 A 
ATOM     65  C   UNL A   1      44.900  25.994  35.696  1.00  0.00     0.091 A 
ATOM     66  F   UNL A   1      42.614  26.121  35.030  1.00  0.00    -0.205 F 
ATOM     67  C   UNL A   1      46.209  26.494  35.599  1.00  0.00     0.022 A 
BRANCH  65  68
ATOM     68  S   UNL A   1      44.621  24.602  36.792  1.00  0.00     0.127 S 
ATOM     69  O   UNL A   1      45.913  24.490  37.468  1.00  0.00    -0.237 OA
ATOM     70  O   UNL A   1      43.529  25.086  37.637  1.00  0.00    -0.237 OA
ATOM     71  O   UNL A   1      44.265  23.479  35.935  1.00  0.00    -0.744 OA
ENDBRANCH  65  68
ENDBRANCH  38  61
ENDBRANCH  12  13
ENDBRANCH   5   7
ENDBRANCH   4   5
ENDBRANCH   3   4
ENDBRANCH   2   3
ENDBRANCH   1   2
BRANCH   1  72
ATOM     72  C   UNL A   1      32.815  29.830  26.382  1.00  0.00     0.202 C 
BRANCH  72  73
ATOM     73  C   UNL A   1      33.526  28.823  27.284  1.00  0.00     0.261 C 
BRANCH  73  74
ATOM     74  O   UNL A   1      33.715  27.618  26.533  1.00  0.00    -0.460 OA
BRANCH  74  75
ATOM     75  C   UNL A   1      32.573  26.951  26.228  1.00  0.00     0.338 C 
ATOM     76  O   UNL A   1      31.634  26.696  26.964  1.00  0.00    -0.246 OA
BRANCH  75  77
ATOM     77  C   UNL A   1      32.582  26.664  24.778  1.00  0.00     0.063 A 
ATOM     78  C   UNL A   1      31.590  27.173  23.940  1.00  0.00     0.016 A 
ATOM     79  C   UNL A   1      33.569  25.834  24.264  1.00  0.00     0.062 A 
ATOM     80  C   UNL A   1      31.584  26.821  22.588  1.00  0.00     0.005 A 
ATOM     81  C   UNL A   1      33.429  25.307  22.983  1.00  0.00     0.130 A 
ATOM     82  C   UNL A   1      32.481  25.855  22.119  1.00  0.00     0.047 A 
BRANCH  81  83
ATOM     83  O   UNL A   1      34.109  24.175  22.564  1.00  0.00    -0.438 OA
BRANCH  83  84
ATOM     84  C   UNL A   1      33.922  23.034  23.326  1.00  0.00     0.234 A 
ATOM     85  N   UNL A   1      32.698  22.471  23.167  1.00  0.00    -0.214 NA
ATOM     86  C   UNL A   1      34.958  22.417  24.052  1.00  0.00     0.087 A 
ATOM     87  C   UNL A   1      32.519  21.222  23.662  1.00  0.00     0.200 A 
ATOM     88  C   UNL A   1      34.766  21.108  24.502  1.00  0.00     0.108 A 
ATOM     89  Br  UNL A   1      36.642  23.226  24.382  1.00  0.00    -0.045 Br
ATOM     90  C   UNL A   1      33.525  20.504  24.291  1.00  0.00     0.288 A 
BRANCH  90  91
ATOM     91  N   UNL A   1      33.273  19.135  24.713  1.00  0.00     0.064 N 
ATOM     92  O   UNL A   1      34.233  18.352  24.720  1.00  0.00    -0.258 OA
ATOM     93  O   UNL A   1      32.116  18.836  25.032  1.00  0.00    -0.258 OA
ENDBRANCH  90  91
ENDBRANCH  83  84
ENDBRANCH  81  83
ENDBRANCH  75  77
ENDBRANCH  74  75
ENDBRANCH  73  74
ENDBRANCH  72  73
ENDBRANCH   1  72
TORSDOF 20
ENDMDL
MODEL 2
REMARK VINA RESULT:     -10.7      6.068     11.260
REMARK SMILES O=C(OCCOCCOC(=O)c1cccc(Oc2ncc([N+](=O)[O-])cc2Br)c1)c1ccc(-c2c3nc(c(-c4cccc(S(=O)(=O)[O-])c4F)c4ccc([nH]4)c(-c4cccc(S(=O)(=O)[O-])c4F)c4nc(c(-c5cccc(S(=O)(=O)[O-])c5F)c5ccc2[nH]5)C=C4)C=C3)cc1
REMARK SMILES IDX 6 1 5 2 4 3 3 4 2 5 1 6 29 7 30 8 91 9 31 10 90 11 32 12
REMARK SMILES IDX 33 13 34 14 84 15 35 16 89 17 83 18 85 19 36 20 88 21 82 22
REMARK SMILES IDX 81 23 37 25 69 26 49 27 68 28 50 29 53 30 67 31 86 32 51 33
REMARK SMILES IDX 52 34 66 36 87 37 54 38 38 39 39 40 47 41 40 42 42 43 48 44
REMARK SMILES IDX 41 45 43 46 44 47 45 48 46 49 70 50 71 51 79 52 72 53 74 54
REMARK SMILES IDX 80 55 73 56 75 57 76 58 77 59 78 60 55 61 56 62 64 63 57 64
REMARK SMILES IDX 59 65 65 66 58 67 60 68 61 69 62 70 63 71 7 72 8 73 9 74
REMARK SMILES IDX 10 75 11 76 12 77 13 78 28 79 14 80 16 81 15 82 17 83 18 84
REMARK SMILES IDX 19 85 26 86 20 87 25 88 27 89 21 90 22 91 23 92 24 93
REMARK H PARENT 85 24 53 35
REMARK Flexibility Score: inf
ROOT
ATOM      1  O   UNL A   1      37.476  21.784  25.736  1.00  0.00    -0.374 OA
ENDROOT
BRANCH   1   2
ATOM      2  C   UNL A   1      38.858  21.433  25.801  1.00  0.00     0.202 C 
BRANCH   2   3
ATOM      3  C   UNL A   1      39.184  20.020  25.314  1.00  0.00     0.261 C 
BRANCH   3   4
ATOM      4  O   UNL A   1      40.213  19.437  26.127  1.00  0.00    -0.460 OA
BRANCH   4   5
ATOM      5  C   UNL A   1      41.550  19.647  26.050  1.00  0.00     0.338 C 
ATOM      6  O   UNL A   1      42.266  18.726  25.663  1.00  0.00    -0.246 OA
BRANCH   5   7
ATOM      7  C   UNL A   1      42.194  20.954  26.379  1.00  0.00     0.060 A 
ATOM      8  C   UNL A   1      42.523  21.373  27.666  1.00  0.00     0.016 A 
ATOM      9  C   UNL A   1      42.549  21.790  25.308  1.00  0.00     0.016 A 
ATOM     10  C   UNL A   1      43.111  22.592  27.915  1.00  0.00     0.010 A 
ATOM     11  C   UNL A   1      43.175  23.019  25.542  1.00  0.00     0.010 A 
ATOM     12  C   UNL A   1      43.429  23.425  26.856  1.00  0.00    -0.014 A 
BRANCH  12  13
ATOM     13  C   UNL A   1      43.855  24.779  27.227  1.00  0.00     0.031 A 
ATOM     14  C   UNL A   1      45.248  25.187  26.870  1.00  0.00     0.074 A 
ATOM     15  C   UNL A   1      42.931  25.655  27.658  1.00  0.00     0.049 A 
ATOM     16  N   UNL A   1      45.835  26.336  27.036  1.00  0.00    -0.248 NA
ATOM     17  C   UNL A   1      46.087  24.168  26.210  1.00  0.00     0.031 C 
ATOM     18  C   UNL A   1      41.511  25.350  27.869  1.00  0.00     0.029 A 
ATOM     19  N   UNL A   1      43.033  26.985  27.952  1.00  0.00    -0.354 N 
ATOM     20  C   UNL A   1      47.130  26.160  26.569  1.00  0.00     0.074 A 
ATOM     21  C   UNL A   1      47.238  24.805  26.083  1.00  0.00     0.031 C 
ATOM     22  C   UNL A   1      40.874  26.468  28.249  1.00  0.00     0.029 A 
ATOM     23  C   UNL A   1      41.850  27.541  28.377  1.00  0.00     0.049 A 
ATOM     24  H   UNL A   1      43.871  27.495  27.868  1.00  0.00     0.167 HD
ATOM     25  C   UNL A   1      48.138  27.059  26.568  1.00  0.00     0.034 A 
ATOM     26  C   UNL A   1      41.610  28.775  28.853  1.00  0.00     0.034 A 
ATOM     27  C   UNL A   1      47.982  28.400  27.051  1.00  0.00     0.049 A 
ATOM     28  C   UNL A   1      42.769  29.731  28.906  1.00  0.00     0.074 A 
ATOM     29  C   UNL A   1      48.929  29.399  27.152  1.00  0.00     0.029 A 
ATOM     30  N   UNL A   1      46.787  28.924  27.530  1.00  0.00    -0.354 N 
ATOM     31  N   UNL A   1      44.000  29.556  28.484  1.00  0.00    -0.248 NA
ATOM     32  C   UNL A   1      42.510  31.054  29.483  1.00  0.00     0.031 C 
ATOM     33  C   UNL A   1      48.315  30.513  27.733  1.00  0.00     0.029 A 
ATOM     34  C   UNL A   1      46.972  30.228  27.939  1.00  0.00     0.049 A 
ATOM     35  H   UNL A   1      45.932  28.435  27.569  1.00  0.00     0.167 HD
ATOM     36  C   UNL A   1      44.655  30.759  28.707  1.00  0.00     0.074 A 
ATOM     37  C   UNL A   1      43.674  31.658  29.287  1.00  0.00     0.031 C 
ATOM     38  C   UNL A   1      45.947  31.096  28.467  1.00  0.00     0.034 A 
BRANCH  25  39
ATOM     39  C   UNL A   1      49.488  26.576  26.114  1.00  0.00     0.023 A 
ATOM     40  C   UNL A   1      50.254  25.709  26.918  1.00  0.00     0.012 A 
ATOM     41  C   UNL A   1      50.012  27.024  24.886  1.00  0.00     0.148 A 
ATOM     42  C   UNL A   1      51.539  25.330  26.526  1.00  0.00     0.002 A 
ATOM     43  C   UNL A   1      51.272  26.603  24.479  1.00  0.00     0.091 A 
ATOM     44  F   UNL A   1      49.282  27.877  24.154  1.00  0.00    -0.205 F 
ATOM     45  C   UNL A   1      52.043  25.770  25.305  1.00  0.00     0.022 A 
BRANCH  43  46
ATOM     46  S   UNL A   1      51.978  27.064  22.895  1.00  0.00     0.127 S 
ATOM     47  O   UNL A   1      52.259  28.485  23.099  1.00  0.00    -0.237 OA
ATOM     48  O   UNL A   1      53.164  26.210  22.833  1.00  0.00    -0.237 OA
ATOM     49  O   UNL A   1      50.961  26.769  21.897  1.00  0.00    -0.744 OA
ENDBRANCH  43  46
ENDBRANCH  25  39
BRANCH  26  50
ATOM     50  C   UNL A   1      40.249  29.159  29.326  1.00  0.00     0.023 A 
ATOM     51  C   UNL A   1      39.326  29.731  28.430  1.00  0.00     0.012 A 
ATOM     52  C   UNL A   1      39.861  28.955  30.667  1.00  0.00     0.148 A 
ATOM     53  C   UNL A   1      38.061  30.128  28.867  1.00  0.00     0.002 A 
ATOM     54  C   UNL A   1      38.581  29.301  31.083  1.00  0.00     0.091 A 
ATOM     55  F   UNL A   1      40.755  28.421  31.513  1.00  0.00    -0.205 F 
ATOM     56  C   UNL A   1      37.685  29.906  30.189  1.00  0.00     0.022 A 
BRANCH  54  57
ATOM     57  S   UNL A   1      37.975  28.946  32.736  1.00  0.00     0.127 S 
ATOM     58  O   UNL A   1      38.080  27.490  32.786  1.00  0.00    -0.237 OA
ATOM     59  O   UNL A   1      38.939  29.662  33.572  1.00  0.00    -0.237 OA
ATOM     60  O   UNL A   1      36.622  29.483  32.786  1.00  0.00    -0.744 OA
ENDBRANCH  54  57
ENDBRANCH  26  50
BRANCH  38  61
ATOM     61  C   UNL A   1      46.349  32.511  28.768  1.00  0.00     0.023 A 
ATOM     62  C   UNL A   1      46.787  32.868  30.057  1.00  0.00     0.012 A 
ATOM     63  C   UNL A   1      46.361  33.469  27.735  1.00  0.00     0.148 A 
ATOM     64  C   UNL A   1      47.194  34.173  30.325  1.00  0.00     0.002 A 
ATOM     65  C   UNL A   1      46.828  34.748  27.994  1.00  0.00     0.091 A 
ATOM     66  F   UNL A   1      45.918  33.108  26.522  1.00  0.00    -0.205 F 
ATOM     67  C   UNL A   1      47.228  35.108  29.292  1.00  0.00     0.022 A 
BRANCH  65  68
ATOM     68  S   UNL A   1      47.017  35.973  26.697  1.00  0.00     0.127 S 
ATOM     69  O   UNL A   1      45.706  36.619  26.703  1.00  0.00    -0.237 OA
ATOM     70  O   UNL A   1      48.109  36.800  27.209  1.00  0.00    -0.237 OA
ATOM     71  O   UNL A   1      47.342  35.229  25.486  1.00  0.00    -0.744 OA
ENDBRANCH  65  68
ENDBRANCH  38  61
ENDBRANCH  12  13
ENDBRANCH   5   7
ENDBRANCH   4   5
ENDBRANCH   3   4
ENDBRANCH   2   3
ENDBRANCH   1   2
BRANCH   1  72
ATOM     72  C   UNL A   1      36.761  21.407  24.557  1.00  0.00     0.202 C 
BRANCH  72  73
ATOM     73  C   UNL A   1      36.638  22.616  23.632  1.00  0.00     0.261 C 
BRANCH  73  74
ATOM     74  O   UNL A   1      36.085  23.697  24.393  1.00  0.00    -0.460 OA
BRANCH  74  75
ATOM     75  C   UNL A   1      34.900  24.172  23.932  1.00  0.00     0.338 C 
ATOM     76  O   UNL A   1      34.681  24.745  22.878  1.00  0.00    -0.246 OA
BRANCH  75  77
ATOM     77  C   UNL A   1      33.844  23.775  24.886  1.00  0.00     0.063 A 
ATOM     78  C   UNL A   1      33.846  24.253  26.197  1.00  0.00     0.016 A 
ATOM     79  C   UNL A   1      32.871  22.873  24.476  1.00  0.00     0.062 A 
ATOM     80  C   UNL A   1      32.878  23.800  27.096  1.00  0.00     0.005 A 
ATOM     81  C   UNL A   1      32.059  22.255  25.423  1.00  0.00     0.130 A 
ATOM     82  C   UNL A   1      32.009  22.769  26.720  1.00  0.00     0.047 A 
BRANCH  81  83
ATOM     83  O   UNL A   1      31.386  21.072  25.170  1.00  0.00    -0.438 OA
BRANCH  83  84
ATOM     84  C   UNL A   1      32.163  20.009  24.740  1.00  0.00     0.234 A 
ATOM     85  N   UNL A   1      32.602  19.216  25.750  1.00  0.00    -0.214 NA
ATOM     86  C   UNL A   1      32.329  19.678  23.382  1.00  0.00     0.087 A 
ATOM     87  C   UNL A   1      33.139  18.019  25.412  1.00  0.00     0.200 A 
ATOM     88  C   UNL A   1      32.834  18.415  23.063  1.00  0.00     0.108 A 
ATOM     89  Br  UNL A   1      31.822  20.815  21.950  1.00  0.00    -0.045 Br
ATOM     90  C   UNL A   1      33.235  17.573  24.102  1.00  0.00     0.288 A 
BRANCH  90  91
ATOM     91  N   UNL A   1      33.744  16.237  23.833  1.00  0.00     0.064 N 
ATOM     92  O   UNL A   1      33.528  15.360  24.681  1.00  0.00    -0.258 OA
ATOM     93  O   UNL A   1      34.367  16.062  22.779  1.00  0.00    -0.258 OA
ENDBRANCH  90  91
ENDBRANCH  83  84
ENDBRANCH  81  83
ENDBRANCH  75  77
ENDBRANCH  74  75
ENDBRANCH  73  74
ENDBRANCH  72  73
ENDBRANCH   1  72
TORSDOF 20
ENDMDL
MODEL 3
REMARK VINA RESULT:     -10.7      5.484     11.202
REMARK SMILES O=C(OCCOCCOC(=O)c1cccc(Oc2ncc([N+](=O)[O-])cc2Br)c1)c1ccc(-c2c3nc(c(-c4cccc(S(=O)(=O)[O-])c4F)c4ccc([nH]4)c(-c4cccc(S(=O)(=O)[O-])c4F)c4nc(c(-c5cccc(S(=O)(=O)[O-])c5F)c5ccc2[nH]5)C=C4)C=C3)cc1
REMARK SMILES IDX 6 1 5 2 4 3 3 4 2 5 1 6 29 7 30 8 91 9 31 10 90 11 32 12
REMARK SMILES IDX 33 13 34 14 84 15 35 16 89 17 83 18 85 19 36 20 88 21 82 22
REMARK SMILES IDX 81 23 37 25 69 26 49 27 68 28 50 29 53 30 67 31 86 32 51 33
REMARK SMILES IDX 52 34 66 36 87 37 54 38 38 39 39 40 47 41 40 42 42 43 48 44
REMARK SMILES IDX 41 45 43 46 44 47 45 48 46 49 70 50 71 51 79 52 72 53 74 54
REMARK SMILES IDX 80 55 73 56 75 57 76 58 77 59 78 60 55 61 56 62 64 63 57 64
REMARK SMILES IDX 59 65 65 66 58 67 60 68 61 69 62 70 63 71 7 72 8 73 9 74
REMARK SMILES IDX 10 75 11 76 12 77 13 78 28 79 14 80 16 81 15 82 17 83 18 84
REMARK SMILES IDX 19 85 26 86 20 87 25 88 27 89 21 90 22 91 23 92 24 93
REMARK H PARENT 85 24 53 35
REMARK Flexibility Score: inf
ROOT
ATOM      1  O   UNL A   1      37.082  21.299  25.148  1.00  0.00    -0.374 OA
ENDROOT
BRANCH   1   2
ATOM      2  C   UNL A   1      38.376  21.053  25.698  1.00  0.00     0.202 C 
BRANCH   2   3
ATOM      3  C   UNL A   1      38.859  19.607  25.576  1.00  0.00     0.261 C 
BRANCH   3   4
ATOM      4  O   UNL A   1      40.279  19.570  25.366  1.00  0.00    -0.460 OA
BRANCH   4   5
ATOM      5  C   UNL A   1      41.255  19.950  26.227  1.00  0.00     0.338 C 
ATOM      6  O   UNL A   1      42.002  19.087  26.683  1.00  0.00    -0.246 OA
BRANCH   5   7
ATOM      7  C   UNL A   1      41.488  21.371  26.624  1.00  0.00     0.060 A 
ATOM      8  C   UNL A   1      41.441  22.456  25.752  1.00  0.00     0.016 A 
ATOM      9  C   UNL A   1      41.707  21.635  27.986  1.00  0.00     0.016 A 
ATOM     10  C   UNL A   1      41.671  23.746  26.171  1.00  0.00     0.010 A 
ATOM     11  C   UNL A   1      41.912  22.945  28.433  1.00  0.00     0.010 A 
ATOM     12  C   UNL A   1      41.918  23.995  27.510  1.00  0.00    -0.014 A 
BRANCH  12  13
ATOM     13  C   UNL A   1      42.356  25.360  27.825  1.00  0.00     0.031 A 
ATOM     14  C   UNL A   1      43.686  25.796  27.301  1.00  0.00     0.074 A 
ATOM     15  C   UNL A   1      41.471  26.218  28.362  1.00  0.00     0.049 A 
ATOM     16  N   UNL A   1      44.263  26.959  27.393  1.00  0.00    -0.248 NA
ATOM     17  C   UNL A   1      44.462  24.793  26.547  1.00  0.00     0.031 C 
ATOM     18  C   UNL A   1      40.094  25.883  28.743  1.00  0.00     0.029 A 
ATOM     19  N   UNL A   1      41.578  27.551  28.638  1.00  0.00    -0.354 N 
ATOM     20  C   UNL A   1      45.496  26.810  26.773  1.00  0.00     0.074 A 
ATOM     21  C   UNL A   1      45.575  25.455  26.281  1.00  0.00     0.031 C 
ATOM     22  C   UNL A   1      39.483  26.988  29.195  1.00  0.00     0.029 A 
ATOM     23  C   UNL A   1      40.443  28.083  29.202  1.00  0.00     0.049 A 
ATOM     24  H   UNL A   1      42.388  28.079  28.453  1.00  0.00     0.167 HD
ATOM     25  C   UNL A   1      46.476  27.730  26.649  1.00  0.00     0.034 A 
ATOM     26  C   UNL A   1      40.234  29.314  29.701  1.00  0.00     0.034 A 
ATOM     27  C   UNL A   1      46.350  29.070  27.145  1.00  0.00     0.049 A 
ATOM     28  C   UNL A   1      41.370  30.296  29.612  1.00  0.00     0.074 A 
ATOM     29  C   UNL A   1      47.279  30.090  27.128  1.00  0.00     0.029 A 
ATOM     30  N   UNL A   1      45.209  29.569  27.763  1.00  0.00    -0.354 N 
ATOM     31  N   UNL A   1      42.544  30.145  29.045  1.00  0.00    -0.248 NA
ATOM     32  C   UNL A   1      41.153  31.615  30.213  1.00  0.00     0.031 C 
ATOM     33  C   UNL A   1      46.715  31.193  27.777  1.00  0.00     0.029 A 
ATOM     34  C   UNL A   1      45.413  30.879  28.144  1.00  0.00     0.049 A 
ATOM     35  H   UNL A   1      44.377  29.062  27.906  1.00  0.00     0.167 HD
ATOM     36  C   UNL A   1      43.195  31.363  29.184  1.00  0.00     0.074 A 
ATOM     37  C   UNL A   1      42.271  32.243  29.876  1.00  0.00     0.031 C 
ATOM     38  C   UNL A   1      44.441  31.727  28.789  1.00  0.00     0.034 A 
BRANCH  25  39
ATOM     39  C   UNL A   1      47.772  27.274  26.036  1.00  0.00     0.023 A 
ATOM     40  C   UNL A   1      48.795  26.725  26.834  1.00  0.00     0.012 A 
ATOM     41  C   UNL A   1      47.983  27.432  24.653  1.00  0.00     0.148 A 
ATOM     42  C   UNL A   1      50.024  26.380  26.270  1.00  0.00     0.002 A 
ATOM     43  C   UNL A   1      49.191  27.041  24.090  1.00  0.00     0.091 A 
ATOM     44  F   UNL A   1      47.010  27.991  23.919  1.00  0.00    -0.205 F 
ATOM     45  C   UNL A   1      50.218  26.530  24.899  1.00  0.00     0.022 A 
BRANCH  43  46
ATOM     46  S   UNL A   1      49.509  27.135  22.327  1.00  0.00     0.127 S 
ATOM     47  O   UNL A   1      48.652  26.067  21.814  1.00  0.00    -0.237 OA
ATOM     48  O   UNL A   1      49.056  28.489  22.009  1.00  0.00    -0.237 OA
ATOM     49  O   UNL A   1      50.939  26.917  22.161  1.00  0.00    -0.744 OA
ENDBRANCH  43  46
ENDBRANCH  25  39
BRANCH  26  50
ATOM     50  C   UNL A   1      38.932  29.670  30.334  1.00  0.00     0.023 A 
ATOM     51  C   UNL A   1      38.639  29.232  31.639  1.00  0.00     0.012 A 
ATOM     52  C   UNL A   1      37.977  30.446  29.645  1.00  0.00     0.148 A 
ATOM     53  C   UNL A   1      37.410  29.527  32.231  1.00  0.00     0.002 A 
ATOM     54  C   UNL A   1      36.778  30.784  30.259  1.00  0.00     0.091 A 
ATOM     55  F   UNL A   1      38.264  30.845  28.397  1.00  0.00    -0.205 F 
ATOM     56  C   UNL A   1      36.483  30.309  31.546  1.00  0.00     0.022 A 
BRANCH  54  57
ATOM     57  S   UNL A   1      35.577  31.881  29.496  1.00  0.00     0.127 S 
ATOM     58  O   UNL A   1      34.760  32.272  30.641  1.00  0.00    -0.237 OA
ATOM     59  O   UNL A   1      36.433  32.939  28.959  1.00  0.00    -0.237 OA
ATOM     60  O   UNL A   1      34.901  31.083  28.482  1.00  0.00    -0.744 OA
ENDBRANCH  54  57
ENDBRANCH  26  50
BRANCH  38  61
ATOM     61  C   UNL A   1      44.844  33.152  29.037  1.00  0.00     0.023 A 
ATOM     62  C   UNL A   1      45.416  33.527  30.267  1.00  0.00     0.012 A 
ATOM     63  C   UNL A   1      44.721  34.102  28.005  1.00  0.00     0.148 A 
ATOM     64  C   UNL A   1      45.823  34.841  30.481  1.00  0.00     0.002 A 
ATOM     65  C   UNL A   1      45.187  35.393  28.204  1.00  0.00     0.091 A 
ATOM     66  F   UNL A   1      44.152  33.725  26.850  1.00  0.00    -0.205 F 
ATOM     67  C   UNL A   1      45.722  35.770  29.446  1.00  0.00     0.022 A 
BRANCH  65  68
ATOM     68  S   UNL A   1      45.204  36.612  26.887  1.00  0.00     0.127 S 
ATOM     69  O   UNL A   1      43.776  36.806  26.642  1.00  0.00    -0.237 OA
ATOM     70  O   UNL A   1      45.875  37.745  27.524  1.00  0.00    -0.237 OA
ATOM     71  O   UNL A   1      45.951  36.009  25.791  1.00  0.00    -0.744 OA
ENDBRANCH  65  68
ENDBRANCH  38  61
ENDBRANCH  12  13
ENDBRANCH   5   7
ENDBRANCH   4   5
ENDBRANCH   3   4
ENDBRANCH   2   3
ENDBRANCH   1   2
BRANCH   1  72
ATOM     72  C   UNL A   1      36.630  22.654  25.120  1.00  0.00     0.202 C 
BRANCH  72  73
ATOM     73  C   UNL A   1      35.883  22.912  23.813  1.00  0.00     0.261 C 
BRANCH  73  74
ATOM     74  O   UNL A   1      34.648  22.186  23.864  1.00  0.00    -0.460 OA
BRANCH  74  75
ATOM     75  C   UNL A   1      33.563  22.875  23.427  1.00  0.00     0.338 C 
ATOM     76  O   UNL A   1      33.314  23.241  22.290  1.00  0.00    -0.246 OA
BRANCH  75  77
ATOM     77  C   UNL A   1      32.628  23.027  24.562  1.00  0.00     0.063 A 
ATOM     78  C   UNL A   1      31.739  22.007  24.899  1.00  0.00     0.016 A 
ATOM     79  C   UNL A   1      32.609  24.227  25.261  1.00  0.00     0.062 A 
ATOM     80  C   UNL A   1      30.817  22.211  25.929  1.00  0.00     0.005 A 
ATOM     81  C   UNL A   1      31.550  24.508  26.120  1.00  0.00     0.130 A 
ATOM     82  C   UNL A   1      30.696  23.477  26.511  1.00  0.00     0.047 A 
BRANCH  81  83
ATOM     83  O   UNL A   1      31.231  25.798  26.511  1.00  0.00    -0.438 OA
BRANCH  83  84
ATOM     84  C   UNL A   1      31.088  26.726  25.492  1.00  0.00     0.234 A 
ATOM     85  N   UNL A   1      30.103  26.417  24.612  1.00  0.00    -0.214 NA
ATOM     86  C   UNL A   1      31.770  27.957  25.474  1.00  0.00     0.087 A 
ATOM     87  C   UNL A   1      29.717  27.384  23.745  1.00  0.00     0.200 A 
ATOM     88  C   UNL A   1      31.314  28.956  24.609  1.00  0.00     0.108 A 
ATOM     89  Br  UNL A   1      33.221  28.376  26.622  1.00  0.00    -0.045 Br
ATOM     90  C   UNL A   1      30.263  28.659  23.739  1.00  0.00     0.288 A 
BRANCH  90  91
ATOM     91  N   UNL A   1      29.729  29.665  22.834  1.00  0.00     0.064 N 
ATOM     92  O   UNL A   1      29.316  30.721  23.331  1.00  0.00    -0.258 OA
ATOM     93  O   UNL A   1      29.715  29.400  21.626  1.00  0.00    -0.258 OA
ENDBRANCH  90  91
ENDBRANCH  83  84
ENDBRANCH  81  83
ENDBRANCH  75  77
ENDBRANCH  74  75
ENDBRANCH  73  74
ENDBRANCH  72  73
ENDBRANCH   1  72
TORSDOF 20
ENDMDL
