MODEL 1
REMARK VINA RESULT:     -11.6      0.000      0.000
REMARK SMILES COc1cc2c(cc1OC)[C@H](C(=O)OCCOCCOC(=O)c1ccc(-c3c4nc(c(-c5cccc(S(=O)(=O)[O-])c5F)c5ccc([nH]5)c(-c5cccc(S(=O)(=O)[O-])c5F)c5nc(c(-c6cccc(S(=O)(=O)[O-])c6F)c6ccc3[nH]6)C=C5)C=C4)cc1)[C@H](c1cccs1)N(C)C2=O
REMARK SMILES IDX 18 1 17 2 16 3 15 4 14 5 12 6 13 7 11 8 3 9 4 10 8 11 5 12
REMARK SMILES IDX 7 13 6 14 94 15 92 16 95 17 86 18 93 19 2 20 1 21 9 22 10 23
REMARK SMILES IDX 87 24 88 25 91 26 89 27 90 28 19 29 20 30 21 31 22 32 23 33
REMARK SMILES IDX 24 34 85 35 25 36 84 37 26 38 27 39 28 40 78 41 29 42 83 43
REMARK SMILES IDX 77 44 79 45 30 46 82 47 76 48 75 49 31 51 63 52 43 53 62 54
REMARK SMILES IDX 44 55 47 56 61 57 80 58 45 59 46 60 60 62 81 63 48 64 32 65
REMARK SMILES IDX 33 66 41 67 34 68 36 69 42 70 35 71 37 72 38 73 39 74 40 75
REMARK SMILES IDX 64 76 65 77 73 78 66 79 68 80 74 81 67 82 69 83 70 84 71 85
REMARK SMILES IDX 72 86 49 87 50 88 58 89 51 90 53 91 59 92 52 93 54 94 55 95
REMARK SMILES IDX 56 96 57 97
REMARK H PARENT 79 50 47 61
REMARK Flexibility Score: inf
ROOT
ATOM      1  C   UNL A   1      32.033  29.738  25.351  1.00  0.00     0.202 C 
ENDROOT
BRANCH   1   2
ATOM      2  O   UNL A   1      31.232  28.620  25.726  1.00  0.00    -0.374 OA
BRANCH   2   3
ATOM      3  C   UNL A   1      31.513  28.001  26.985  1.00  0.00     0.202 C 
BRANCH   3   4
ATOM      4  C   UNL A   1      32.136  26.604  26.910  1.00  0.00     0.261 C 
BRANCH   4   5
ATOM      5  O   UNL A   1      31.176  25.679  26.369  1.00  0.00    -0.463 OA
BRANCH   5   6
ATOM      6  C   UNL A   1      31.453  24.369  26.510  1.00  0.00     0.316 C 
ATOM      7  O   UNL A   1      31.578  23.815  27.602  1.00  0.00    -0.251 OA
BRANCH   6   8
ATOM      8  C   UNL A   1      31.508  23.581  25.220  1.00  0.00     0.158 C 
ATOM      9  C   UNL A   1      32.563  25.181  21.299  1.00  0.00     0.161 A 
ATOM     10  C   UNL A   1      32.605  23.813  21.576  1.00  0.00     0.064 A 
ATOM     11  C   UNL A   1      32.079  26.063  22.273  1.00  0.00     0.161 A 
ATOM     12  C   UNL A   1      32.225  23.329  22.835  1.00  0.00     0.048 A 
ATOM     13  C   UNL A   1      31.679  25.559  23.528  1.00  0.00     0.056 A 
ATOM     14  C   UNL A   1      31.820  24.205  23.863  1.00  0.00    -0.015 A 
ATOM     15  C   UNL A   1      32.269  21.852  23.061  1.00  0.00     0.254 C 
ATOM     16  N   UNL A   1      32.313  21.422  24.383  1.00  0.00    -0.333 N 
ATOM     17  O   UNL A   1      32.246  21.084  22.104  1.00  0.00    -0.269 OA
ATOM     18  C   UNL A   1      32.444  22.379  25.486  1.00  0.00     0.144 C 
ATOM     19  C   UNL A   1      32.372  20.003  24.666  1.00  0.00     0.147 C 
BRANCH   9  20
ATOM     20  O   UNL A   1      33.095  25.670  20.139  1.00  0.00    -0.493 OA
ATOM     21  C   UNL A   1      32.253  25.586  18.996  1.00  0.00     0.278 C 
ENDBRANCH   9  20
BRANCH  11  22
ATOM     22  O   UNL A   1      31.934  27.423  22.180  1.00  0.00    -0.493 OA
ATOM     23  C   UNL A   1      30.634  27.980  22.355  1.00  0.00     0.278 C 
ENDBRANCH  11  22
BRANCH  18  24
ATOM     24  C   UNL A   1      33.888  22.806  25.757  1.00  0.00     0.028 A 
ATOM     25  C   UNL A   1      34.482  24.000  25.371  1.00  0.00     0.017 A 
ATOM     26  S   UNL A   1      35.035  21.813  26.567  1.00  0.00    -0.147 S 
ATOM     27  C   UNL A   1      35.887  24.023  25.599  1.00  0.00     0.012 A 
ATOM     28  C   UNL A   1      36.318  22.886  26.239  1.00  0.00     0.065 A 
ENDBRANCH  18  24
ENDBRANCH   6   8
ENDBRANCH   5   6
ENDBRANCH   4   5
ENDBRANCH   3   4
ENDBRANCH   2   3
ENDBRANCH   1   2
BRANCH   1  29
ATOM     29  C   UNL A   1      31.794  31.050  26.102  1.00  0.00     0.261 C 
BRANCH  29  30
ATOM     30  O   UNL A   1      32.500  31.081  27.352  1.00  0.00    -0.460 OA
BRANCH  30  31
ATOM     31  C   UNL A   1      33.377  32.105  27.477  1.00  0.00     0.338 C 
ATOM     32  O   UNL A   1      33.119  33.301  27.435  1.00  0.00    -0.246 OA
BRANCH  31  33
ATOM     33  C   UNL A   1      34.697  31.586  27.869  1.00  0.00     0.060 A 
ATOM     34  C   UNL A   1      34.832  30.202  28.045  1.00  0.00     0.016 A 
ATOM     35  C   UNL A   1      35.771  32.440  28.115  1.00  0.00     0.016 A 
ATOM     36  C   UNL A   1      36.031  29.669  28.515  1.00  0.00     0.010 A 
ATOM     37  C   UNL A   1      36.965  31.901  28.598  1.00  0.00     0.010 A 
ATOM     38  C   UNL A   1      37.097  30.518  28.832  1.00  0.00    -0.014 A 
BRANCH  38  39
ATOM     39  C   UNL A   1      38.278  29.992  29.569  1.00  0.00     0.031 A 
ATOM     40  C   UNL A   1      38.495  30.442  30.991  1.00  0.00     0.074 A 
ATOM     41  C   UNL A   1      39.144  29.132  28.998  1.00  0.00     0.049 A 
ATOM     42  N   UNL A   1      39.476  30.164  31.810  1.00  0.00    -0.248 NA
ATOM     43  C   UNL A   1      37.478  31.343  31.561  1.00  0.00     0.031 C 
ATOM     44  C   UNL A   1      39.062  28.623  27.629  1.00  0.00     0.029 A 
ATOM     45  N   UNL A   1      40.279  28.544  29.505  1.00  0.00    -0.354 N 
ATOM     46  C   UNL A   1      39.218  30.887  32.968  1.00  0.00     0.074 A 
ATOM     47  C   UNL A   1      38.008  31.643  32.736  1.00  0.00     0.031 C 
ATOM     48  C   UNL A   1      40.106  27.805  27.403  1.00  0.00     0.029 A 
ATOM     49  C   UNL A   1      40.947  27.752  28.599  1.00  0.00     0.049 A 
ATOM     50  H   UNL A   1      40.587  28.679  30.430  1.00  0.00     0.167 HD
ATOM     51  C   UNL A   1      39.904  30.903  34.134  1.00  0.00     0.034 A 
ATOM     52  C   UNL A   1      42.108  27.076  28.717  1.00  0.00     0.034 A 
ATOM     53  C   UNL A   1      41.076  30.115  34.390  1.00  0.00     0.049 A 
ATOM     54  C   UNL A   1      42.854  27.111  30.029  1.00  0.00     0.074 A 
ATOM     55  C   UNL A   1      41.810  30.022  35.559  1.00  0.00     0.029 A 
ATOM     56  N   UNL A   1      41.687  29.284  33.466  1.00  0.00    -0.354 N 
ATOM     57  N   UNL A   1      42.534  27.714  31.149  1.00  0.00    -0.248 NA
ATOM     58  C   UNL A   1      44.108  26.345  30.103  1.00  0.00     0.031 C 
ATOM     59  C   UNL A   1      42.881  29.152  35.333  1.00  0.00     0.029 A 
ATOM     60  C   UNL A   1      42.792  28.676  34.035  1.00  0.00     0.049 A 
ATOM     61  H   UNL A   1      41.380  29.146  32.540  1.00  0.00     0.167 HD
ATOM     62  C   UNL A   1      43.518  27.361  32.068  1.00  0.00     0.074 A 
ATOM     63  C   UNL A   1      44.436  26.479  31.381  1.00  0.00     0.031 C 
ATOM     64  C   UNL A   1      43.657  27.744  33.362  1.00  0.00     0.034 A 
BRANCH  51  65
ATOM     65  C   UNL A   1      39.377  31.778  35.240  1.00  0.00     0.023 A 
ATOM     66  C   UNL A   1      38.444  31.258  36.161  1.00  0.00     0.012 A 
ATOM     67  C   UNL A   1      39.840  33.099  35.396  1.00  0.00     0.148 A 
ATOM     68  C   UNL A   1      37.950  32.049  37.195  1.00  0.00     0.002 A 
ATOM     69  C   UNL A   1      39.381  33.866  36.460  1.00  0.00     0.091 A 
ATOM     70  F   UNL A   1      40.710  33.582  34.498  1.00  0.00    -0.205 F 
ATOM     71  C   UNL A   1      38.427  33.348  37.351  1.00  0.00     0.022 A 
BRANCH  69  72
ATOM     72  S   UNL A   1      39.993  35.520  36.798  1.00  0.00     0.127 S 
ATOM     73  O   UNL A   1      41.436  35.293  36.862  1.00  0.00    -0.237 OA
ATOM     74  O   UNL A   1      39.544  36.259  35.617  1.00  0.00    -0.237 OA
ATOM     75  O   UNL A   1      39.372  35.932  38.048  1.00  0.00    -0.744 OA
ENDBRANCH  69  72
ENDBRANCH  51  65
BRANCH  52  76
ATOM     76  C   UNL A   1      42.635  26.266  27.579  1.00  0.00     0.023 A 
ATOM     77  C   UNL A   1      43.499  26.868  26.641  1.00  0.00     0.012 A 
ATOM     78  C   UNL A   1      42.264  24.920  27.401  1.00  0.00     0.148 A 
ATOM     79  C   UNL A   1      43.945  26.158  25.524  1.00  0.00     0.002 A 
ATOM     80  C   UNL A   1      42.757  24.201  26.317  1.00  0.00     0.091 A 
ATOM     81  F   UNL A   1      41.429  24.368  28.293  1.00  0.00    -0.205 F 
ATOM     82  C   UNL A   1      43.580  24.825  25.365  1.00  0.00     0.022 A 
BRANCH  80  83
ATOM     83  S   UNL A   1      42.437  22.449  26.092  1.00  0.00     0.127 S 
ATOM     84  O   UNL A   1      43.141  22.173  24.842  1.00  0.00    -0.237 OA
ATOM     85  O   UNL A   1      43.056  21.875  27.287  1.00  0.00    -0.237 OA
ATOM     86  O   UNL A   1      40.987  22.318  26.043  1.00  0.00    -0.744 OA
ENDBRANCH  80  83
ENDBRANCH  52  76
BRANCH  64  87
ATOM     87  C   UNL A   1      44.804  27.168  34.153  1.00  0.00     0.023 A 
ATOM     88  C   UNL A   1      46.040  27.842  34.201  1.00  0.00     0.012 A 
ATOM     89  C   UNL A   1      44.624  26.000  34.921  1.00  0.00     0.148 A 
ATOM     90  C   UNL A   1      47.089  27.346  34.976  1.00  0.00     0.002 A 
ATOM     91  C   UNL A   1      45.655  25.540  35.732  1.00  0.00     0.091 A 
ATOM     92  F   UNL A   1      43.446  25.364  34.850  1.00  0.00    -0.205 F 
ATOM     93  C   UNL A   1      46.892  26.204  35.750  1.00  0.00     0.022 A 
BRANCH  91  94
ATOM     94  S   UNL A   1      45.459  24.139  36.839  1.00  0.00     0.127 S 
ATOM     95  O   UNL A   1      46.777  24.069  37.467  1.00  0.00    -0.237 OA
ATOM     96  O   UNL A   1      44.385  24.592  37.724  1.00  0.00    -0.237 OA
ATOM     97  O   UNL A   1      45.109  23.005  35.995  1.00  0.00    -0.744 OA
ENDBRANCH  91  94
ENDBRANCH  64  87
ENDBRANCH  38  39
ENDBRANCH  31  33
ENDBRANCH  30  31
ENDBRANCH  29  30
ENDBRANCH   1  29
TORSDOF 20
ENDMDL
MODEL 2
REMARK VINA RESULT:     -11.5      1.984      8.034
REMARK SMILES COc1cc2c(cc1OC)[C@H](C(=O)OCCOCCOC(=O)c1ccc(-c3c4nc(c(-c5cccc(S(=O)(=O)[O-])c5F)c5ccc([nH]5)c(-c5cccc(S(=O)(=O)[O-])c5F)c5nc(c(-c6cccc(S(=O)(=O)[O-])c6F)c6ccc3[nH]6)C=C5)C=C4)cc1)[C@H](c1cccs1)N(C)C2=O
REMARK SMILES IDX 18 1 17 2 16 3 15 4 14 5 12 6 13 7 11 8 3 9 4 10 8 11 5 12
REMARK SMILES IDX 7 13 6 14 94 15 92 16 95 17 86 18 93 19 2 20 1 21 9 22 10 23
REMARK SMILES IDX 87 24 88 25 91 26 89 27 90 28 19 29 20 30 21 31 22 32 23 33
REMARK SMILES IDX 24 34 85 35 25 36 84 37 26 38 27 39 28 40 78 41 29 42 83 43
REMARK SMILES IDX 77 44 79 45 30 46 82 47 76 48 75 49 31 51 63 52 43 53 62 54
REMARK SMILES IDX 44 55 47 56 61 57 80 58 45 59 46 60 60 62 81 63 48 64 32 65
REMARK SMILES IDX 33 66 41 67 34 68 36 69 42 70 35 71 37 72 38 73 39 74 40 75
REMARK SMILES IDX 64 76 65 77 73 78 66 79 68 80 74 81 67 82 69 83 70 84 71 85
REMARK SMILES IDX 72 86 49 87 50 88 58 89 51 90 53 91 59 92 52 93 54 94 55 95
REMARK SMILES IDX 56 96 57 97
REMARK H PARENT 79 50 47 61
REMARK Flexibility Score: inf
ROOT
ATOM      1  C   UNL A   1      31.955  28.479  25.069  1.00  0.00     0.202 C 
ENDROOT
BRANCH   1   2
ATOM      2  O   UNL A   1      31.182  27.438  25.665  1.00  0.00    -0.374 OA
BRANCH   2   3
ATOM      3  C   UNL A   1      31.889  26.308  26.184  1.00  0.00     0.202 C 
BRANCH   3   4
ATOM      4  C   UNL A   1      31.088  25.006  26.263  1.00  0.00     0.261 C 
BRANCH   4   5
ATOM      5  O   UNL A   1      31.857  24.010  26.959  1.00  0.00    -0.463 OA
BRANCH   5   6
ATOM      6  C   UNL A   1      31.959  22.804  26.370  1.00  0.00     0.316 C 
ATOM      7  O   UNL A   1      31.004  22.205  25.876  1.00  0.00    -0.251 OA
BRANCH   6   8
ATOM      8  C   UNL A   1      33.366  22.258  26.261  1.00  0.00     0.158 C 
ATOM      9  C   UNL A   1      34.471  18.365  24.628  1.00  0.00     0.161 A 
ATOM     10  C   UNL A   1      35.397  19.401  24.763  1.00  0.00     0.064 A 
ATOM     11  C   UNL A   1      33.170  18.541  25.116  1.00  0.00     0.161 A 
ATOM     12  C   UNL A   1      35.018  20.627  25.325  1.00  0.00     0.048 A 
ATOM     13  C   UNL A   1      32.809  19.773  25.700  1.00  0.00     0.056 A 
ATOM     14  C   UNL A   1      33.691  20.861  25.741  1.00  0.00    -0.015 A 
ATOM     15  C   UNL A   1      36.062  21.688  25.463  1.00  0.00     0.254 C 
ATOM     16  N   UNL A   1      35.610  22.996  25.607  1.00  0.00    -0.333 N 
ATOM     17  O   UNL A   1      37.251  21.383  25.465  1.00  0.00    -0.269 OA
ATOM     18  C   UNL A   1      34.186  23.321  25.493  1.00  0.00     0.144 C 
ATOM     19  C   UNL A   1      36.575  24.069  25.731  1.00  0.00     0.147 C 
BRANCH   9  20
ATOM     20  O   UNL A   1      34.790  17.236  23.926  1.00  0.00    -0.493 OA
ATOM     21  C   UNL A   1      34.021  17.007  22.752  1.00  0.00     0.278 C 
ENDBRANCH   9  20
BRANCH  11  22
ATOM     22  O   UNL A   1      32.138  17.639  25.105  1.00  0.00    -0.493 OA
ATOM     23  C   UNL A   1      32.319  16.391  25.768  1.00  0.00     0.278 C 
ENDBRANCH  11  22
BRANCH  18  24
ATOM     24  C   UNL A   1      33.712  23.499  24.049  1.00  0.00     0.028 A 
ATOM     25  C   UNL A   1      33.306  22.492  23.184  1.00  0.00     0.017 A 
ATOM     26  S   UNL A   1      33.658  25.020  23.249  1.00  0.00    -0.147 S 
ATOM     27  C   UNL A   1      33.110  22.949  21.850  1.00  0.00     0.012 A 
ATOM     28  C   UNL A   1      33.278  24.309  21.748  1.00  0.00     0.065 A 
ENDBRANCH  18  24
ENDBRANCH   6   8
ENDBRANCH   5   6
ENDBRANCH   4   5
ENDBRANCH   3   4
ENDBRANCH   2   3
ENDBRANCH   1   2
BRANCH   1  29
ATOM     29  C   UNL A   1      31.651  29.912  25.512  1.00  0.00     0.261 C 
BRANCH  29  30
ATOM     30  O   UNL A   1      32.090  30.156  26.856  1.00  0.00    -0.460 OA
BRANCH  30  31
ATOM     31  C   UNL A   1      32.766  31.317  27.025  1.00  0.00     0.338 C 
ATOM     32  O   UNL A   1      32.316  32.451  26.917  1.00  0.00    -0.246 OA
BRANCH  31  33
ATOM     33  C   UNL A   1      34.111  31.039  27.555  1.00  0.00     0.060 A 
ATOM     34  C   UNL A   1      34.440  29.707  27.841  1.00  0.00     0.016 A 
ATOM     35  C   UNL A   1      35.015  32.065  27.820  1.00  0.00     0.016 A 
ATOM     36  C   UNL A   1      35.660  29.400  28.441  1.00  0.00     0.010 A 
ATOM     37  C   UNL A   1      36.231  31.753  28.433  1.00  0.00     0.010 A 
ATOM     38  C   UNL A   1      36.551  30.424  28.777  1.00  0.00    -0.014 A 
BRANCH  38  39
ATOM     39  C   UNL A   1      37.730  30.138  29.639  1.00  0.00     0.031 A 
ATOM     40  C   UNL A   1      38.811  29.237  29.100  1.00  0.00     0.074 A 
ATOM     41  C   UNL A   1      37.849  30.664  30.873  1.00  0.00     0.049 A 
ATOM     42  N   UNL A   1      39.898  28.803  29.683  1.00  0.00    -0.248 NA
ATOM     43  C   UNL A   1      38.633  28.743  27.723  1.00  0.00     0.031 C 
ATOM     44  C   UNL A   1      36.876  31.540  31.524  1.00  0.00     0.029 A 
ATOM     45  N   UNL A   1      38.845  30.519  31.811  1.00  0.00    -0.354 N 
ATOM     46  C   UNL A   1      40.506  27.954  28.765  1.00  0.00     0.074 A 
ATOM     47  C   UNL A   1      39.652  27.906  27.600  1.00  0.00     0.031 C 
ATOM     48  C   UNL A   1      37.320  31.850  32.756  1.00  0.00     0.029 A 
ATOM     49  C   UNL A   1      38.594  31.173  32.995  1.00  0.00     0.049 A 
ATOM     50  H   UNL A   1      39.662  29.994  31.650  1.00  0.00     0.167 HD
ATOM     51  C   UNL A   1      41.683  27.295  28.863  1.00  0.00     0.034 A 
ATOM     52  C   UNL A   1      39.303  31.208  34.142  1.00  0.00     0.034 A 
ATOM     53  C   UNL A   1      42.562  27.379  29.995  1.00  0.00     0.049 A 
ATOM     54  C   UNL A   1      40.612  30.462  34.226  1.00  0.00     0.074 A 
ATOM     55  C   UNL A   1      43.802  26.790  30.165  1.00  0.00     0.029 A 
ATOM     56  N   UNL A   1      42.297  28.096  31.150  1.00  0.00    -0.354 N 
ATOM     57  N   UNL A   1      41.224  29.755  33.306  1.00  0.00    -0.248 NA
ATOM     58  C   UNL A   1      41.348  30.547  35.498  1.00  0.00     0.031 C 
ATOM     59  C   UNL A   1      44.276  27.132  31.435  1.00  0.00     0.029 A 
ATOM     60  C   UNL A   1      43.348  27.963  32.040  1.00  0.00     0.049 A 
ATOM     61  H   UNL A   1      41.481  28.623  31.313  1.00  0.00     0.167 HD
ATOM     62  C   UNL A   1      42.430  29.352  33.872  1.00  0.00     0.074 A 
ATOM     63  C   UNL A   1      42.473  29.909  35.207  1.00  0.00     0.031 C 
ATOM     64  C   UNL A   1      43.410  28.580  33.338  1.00  0.00     0.034 A 
BRANCH  51  65
ATOM     65  C   UNL A   1      42.107  26.449  27.692  1.00  0.00     0.023 A 
ATOM     66  C   UNL A   1      42.861  27.026  26.649  1.00  0.00     0.012 A 
ATOM     67  C   UNL A   1      41.800  25.075  27.646  1.00  0.00     0.148 A 
ATOM     68  C   UNL A   1      43.269  26.258  25.560  1.00  0.00     0.002 A 
ATOM     69  C   UNL A   1      42.254  24.306  26.583  1.00  0.00     0.091 A 
ATOM     70  F   UNL A   1      41.065  24.552  28.637  1.00  0.00    -0.205 F 
ATOM     71  C   UNL A   1      42.976  24.897  25.533  1.00  0.00     0.022 A 
BRANCH  69  72
ATOM     72  S   UNL A   1      42.001  22.530  26.493  1.00  0.00     0.127 S 
ATOM     73  O   UNL A   1      40.542  22.441  26.465  1.00  0.00    -0.237 OA
ATOM     74  O   UNL A   1      42.657  22.192  25.229  1.00  0.00    -0.237 OA
ATOM     75  O   UNL A   1      42.636  21.972  27.678  1.00  0.00    -0.744 OA
ENDBRANCH  69  72
ENDBRANCH  51  65
BRANCH  52  76
ATOM     76  C   UNL A   1      38.822  32.008  35.308  1.00  0.00     0.023 A 
ATOM     77  C   UNL A   1      38.975  33.409  35.299  1.00  0.00     0.012 A 
ATOM     78  C   UNL A   1      38.245  31.390  36.434  1.00  0.00     0.148 A 
ATOM     79  C   UNL A   1      38.607  34.174  36.407  1.00  0.00     0.002 A 
ATOM     80  C   UNL A   1      37.828  32.164  37.512  1.00  0.00     0.091 A 
ATOM     81  F   UNL A   1      38.122  30.056  36.433  1.00  0.00    -0.205 F 
ATOM     82  C   UNL A   1      38.028  33.554  37.510  1.00  0.00     0.022 A 
BRANCH  80  83
ATOM     83  S   UNL A   1      36.966  31.468  38.926  1.00  0.00     0.127 S 
ATOM     84  O   UNL A   1      35.779  32.316  39.000  1.00  0.00    -0.237 OA
ATOM     85  O   UNL A   1      36.719  30.097  38.481  1.00  0.00    -0.237 OA
ATOM     86  O   UNL A   1      37.894  31.580  40.044  1.00  0.00    -0.744 OA
ENDBRANCH  80  83
ENDBRANCH  52  76
BRANCH  64  87
ATOM     87  C   UNL A   1      44.648  28.335  34.163  1.00  0.00     0.023 A 
ATOM     88  C   UNL A   1      45.743  29.217  34.075  1.00  0.00     0.012 A 
ATOM     89  C   UNL A   1      44.686  27.276  35.094  1.00  0.00     0.148 A 
ATOM     90  C   UNL A   1      46.870  29.029  34.876  1.00  0.00     0.002 A 
ATOM     91  C   UNL A   1      45.789  27.127  35.925  1.00  0.00     0.091 A 
ATOM     92  F   UNL A   1      43.640  26.440  35.151  1.00  0.00    -0.205 F 
ATOM     93  C   UNL A   1      46.888  27.994  35.809  1.00  0.00     0.022 A 
BRANCH  91  94
ATOM     94  S   UNL A   1      45.856  25.887  37.224  1.00  0.00     0.127 S 
ATOM     95  O   UNL A   1      47.064  26.278  37.947  1.00  0.00    -0.237 OA
ATOM     96  O   UNL A   1      44.607  26.129  37.947  1.00  0.00    -0.237 OA
ATOM     97  O   UNL A   1      45.923  24.599  36.547  1.00  0.00    -0.744 OA
ENDBRANCH  91  94
ENDBRANCH  64  87
ENDBRANCH  38  39
ENDBRANCH  31  33
ENDBRANCH  30  31
ENDBRANCH  29  30
ENDBRANCH   1  29
TORSDOF 20
ENDMDL
MODEL 3
REMARK VINA RESULT:     -11.2      4.934     10.022
REMARK SMILES COc1cc2c(cc1OC)[C@H](C(=O)OCCOCCOC(=O)c1ccc(-c3c4nc(c(-c5cccc(S(=O)(=O)[O-])c5F)c5ccc([nH]5)c(-c5cccc(S(=O)(=O)[O-])c5F)c5nc(c(-c6cccc(S(=O)(=O)[O-])c6F)c6ccc3[nH]6)C=C5)C=C4)cc1)[C@H](c1cccs1)N(C)C2=O
REMARK SMILES IDX 18 1 17 2 16 3 15 4 14 5 12 6 13 7 11 8 3 9 4 10 8 11 5 12
REMARK SMILES IDX 7 13 6 14 94 15 92 16 95 17 86 18 93 19 2 20 1 21 9 22 10 23
REMARK SMILES IDX 87 24 88 25 91 26 89 27 90 28 19 29 20 30 21 31 22 32 23 33
REMARK SMILES IDX 24 34 85 35 25 36 84 37 26 38 27 39 28 40 78 41 29 42 83 43
REMARK SMILES IDX 77 44 79 45 30 46 82 47 76 48 75 49 31 51 63 52 43 53 62 54
REMARK SMILES IDX 44 55 47 56 61 57 80 58 45 59 46 60 60 62 81 63 48 64 32 65
REMARK SMILES IDX 33 66 41 67 34 68 36 69 42 70 35 71 37 72 38 73 39 74 40 75
REMARK SMILES IDX 64 76 65 77 73 78 66 79 68 80 74 81 67 82 69 83 70 84 71 85
REMARK SMILES IDX 72 86 49 87 50 88 58 89 51 90 53 91 59 92 52 93 54 94 55 95
REMARK SMILES IDX 56 96 57 97
REMARK H PARENT 79 50 47 61
REMARK Flexibility Score: inf
ROOT
ATOM      1  C   UNL A   1      36.487  20.973  24.624  1.00  0.00     0.202 C 
ENDROOT
BRANCH   1   2
ATOM      2  O   UNL A   1      36.148  22.356  24.701  1.00  0.00    -0.374 OA
BRANCH   2   3
ATOM      3  C   UNL A   1      36.188  23.112  23.487  1.00  0.00     0.202 C 
BRANCH   3   4
ATOM      4  C   UNL A   1      34.826  23.453  22.877  1.00  0.00     0.261 C 
BRANCH   4   5
ATOM      5  O   UNL A   1      34.340  24.684  23.442  1.00  0.00    -0.463 OA
BRANCH   5   6
ATOM      6  C   UNL A   1      33.561  25.445  22.651  1.00  0.00     0.316 C 
ATOM      7  O   UNL A   1      33.960  25.982  21.618  1.00  0.00    -0.251 OA
BRANCH   6   8
ATOM      8  C   UNL A   1      32.109  25.526  23.066  1.00  0.00     0.158 C 
ATOM      9  C   UNL A   1      30.306  23.445  26.453  1.00  0.00     0.161 A 
ATOM     10  C   UNL A   1      29.699  24.552  25.856  1.00  0.00     0.064 A 
ATOM     11  C   UNL A   1      31.480  22.924  25.895  1.00  0.00     0.161 A 
ATOM     12  C   UNL A   1      30.287  25.174  24.747  1.00  0.00     0.048 A 
ATOM     13  C   UNL A   1      32.048  23.547  24.765  1.00  0.00     0.056 A 
ATOM     14  C   UNL A   1      31.516  24.725  24.222  1.00  0.00    -0.015 A 
ATOM     15  C   UNL A   1      29.576  26.341  24.139  1.00  0.00     0.254 C 
ATOM     16  N   UNL A   1      30.337  27.196  23.350  1.00  0.00    -0.333 N 
ATOM     17  O   UNL A   1      28.373  26.494  24.331  1.00  0.00    -0.269 OA
ATOM     18  C   UNL A   1      31.789  27.029  23.237  1.00  0.00     0.144 C 
ATOM     19  C   UNL A   1      29.707  28.352  22.745  1.00  0.00     0.147 C 
BRANCH   9  20
ATOM     20  O   UNL A   1      29.830  22.945  27.633  1.00  0.00    -0.493 OA
ATOM     21  C   UNL A   1      28.620  22.205  27.540  1.00  0.00     0.278 C 
ENDBRANCH   9  20
BRANCH  11  22
ATOM     22  O   UNL A   1      32.200  21.835  26.315  1.00  0.00    -0.493 OA
ATOM     23  C   UNL A   1      32.518  20.824  25.363  1.00  0.00     0.278 C 
ENDBRANCH  11  22
BRANCH  18  24
ATOM     24  C   UNL A   1      32.570  27.672  24.384  1.00  0.00     0.028 A 
ATOM     25  C   UNL A   1      32.555  27.277  25.715  1.00  0.00     0.017 A 
ATOM     26  S   UNL A   1      33.577  29.052  24.191  1.00  0.00    -0.147 S 
ATOM     27  C   UNL A   1      33.231  28.188  26.575  1.00  0.00     0.012 A 
ATOM     28  C   UNL A   1      33.827  29.206  25.870  1.00  0.00     0.065 A 
ENDBRANCH  18  24
ENDBRANCH   6   8
ENDBRANCH   5   6
ENDBRANCH   4   5
ENDBRANCH   3   4
ENDBRANCH   2   3
ENDBRANCH   1   2
BRANCH   1  29
ATOM     29  C   UNL A   1      37.920  20.584  24.996  1.00  0.00     0.261 C 
BRANCH  29  30
ATOM     30  O   UNL A   1      38.326  21.183  26.236  1.00  0.00    -0.460 OA
BRANCH  30  31
ATOM     31  C   UNL A   1      39.666  21.286  26.398  1.00  0.00     0.338 C 
ATOM     32  O   UNL A   1      40.518  20.509  25.985  1.00  0.00    -0.246 OA
BRANCH  31  33
ATOM     33  C   UNL A   1      39.998  22.591  26.993  1.00  0.00     0.060 A 
ATOM     34  C   UNL A   1      39.255  23.707  26.582  1.00  0.00     0.016 A 
ATOM     35  C   UNL A   1      41.050  22.734  27.894  1.00  0.00     0.016 A 
ATOM     36  C   UNL A   1      39.594  24.980  27.034  1.00  0.00     0.010 A 
ATOM     37  C   UNL A   1      41.394  24.014  28.334  1.00  0.00     0.010 A 
ATOM     38  C   UNL A   1      40.691  25.150  27.886  1.00  0.00    -0.014 A 
BRANCH  38  39
ATOM     39  C   UNL A   1      41.215  26.514  28.168  1.00  0.00     0.031 A 
ATOM     40  C   UNL A   1      42.630  26.837  27.762  1.00  0.00     0.074 A 
ATOM     41  C   UNL A   1      40.458  27.454  28.768  1.00  0.00     0.049 A 
ATOM     42  N   UNL A   1      43.318  27.933  27.951  1.00  0.00    -0.248 NA
ATOM     43  C   UNL A   1      43.376  25.775  27.065  1.00  0.00     0.031 C 
ATOM     44  C   UNL A   1      39.080  27.275  29.224  1.00  0.00     0.029 A 
ATOM     45  N   UNL A   1      40.757  28.751  29.113  1.00  0.00    -0.354 N 
ATOM     46  C   UNL A   1      44.585  27.676  27.440  1.00  0.00     0.074 A 
ATOM     47  C   UNL A   1      44.582  26.311  26.963  1.00  0.00     0.031 C 
ATOM     48  C   UNL A   1      38.655  28.417  29.793  1.00  0.00     0.029 A 
ATOM     49  C   UNL A   1      39.737  29.401  29.769  1.00  0.00     0.049 A 
ATOM     50  H   UNL A   1      41.621  29.175  28.910  1.00  0.00     0.167 HD
ATOM     51  C   UNL A   1      45.650  28.504  27.344  1.00  0.00     0.034 A 
ATOM     52  C   UNL A   1      39.689  30.639  30.302  1.00  0.00     0.034 A 
ATOM     53  C   UNL A   1      45.645  29.876  27.767  1.00  0.00     0.049 A 
ATOM     54  C   UNL A   1      40.892  31.543  30.182  1.00  0.00     0.074 A 
ATOM     55  C   UNL A   1      46.658  30.811  27.661  1.00  0.00     0.029 A 
ATOM     56  N   UNL A   1      44.575  30.511  28.375  1.00  0.00    -0.354 N 
ATOM     57  N   UNL A   1      42.043  31.318  29.596  1.00  0.00    -0.248 NA
ATOM     58  C   UNL A   1      40.777  32.887  30.771  1.00  0.00     0.031 C 
ATOM     59  C   UNL A   1      46.209  32.007  28.229  1.00  0.00     0.029 A 
ATOM     60  C   UNL A   1      44.903  31.825  28.655  1.00  0.00     0.049 A 
ATOM     61  H   UNL A   1      43.709  30.090  28.578  1.00  0.00     0.167 HD
ATOM     62  C   UNL A   1      42.766  32.502  29.704  1.00  0.00     0.074 A 
ATOM     63  C   UNL A   1      41.918  33.449  30.397  1.00  0.00     0.031 C 
ATOM     64  C   UNL A   1      44.025  32.779  29.280  1.00  0.00     0.034 A 
BRANCH  51  65
ATOM     65  C   UNL A   1      46.906  27.954  26.720  1.00  0.00     0.023 A 
ATOM     66  C   UNL A   1      47.857  27.296  27.527  1.00  0.00     0.012 A 
ATOM     67  C   UNL A   1      47.122  28.047  25.332  1.00  0.00     0.148 A 
ATOM     68  C   UNL A   1      49.022  26.774  26.968  1.00  0.00     0.002 A 
ATOM     69  C   UNL A   1      48.261  27.480  24.775  1.00  0.00     0.091 A 
ATOM     70  F   UNL A   1      46.216  28.695  24.586  1.00  0.00    -0.205 F 
ATOM     71  C   UNL A   1      49.218  26.855  25.592  1.00  0.00     0.022 A 
BRANCH  69  72
ATOM     72  S   UNL A   1      48.567  27.458  23.006  1.00  0.00     0.127 S 
ATOM     73  O   UNL A   1      49.871  28.115  22.924  1.00  0.00    -0.237 OA
ATOM     74  O   UNL A   1      48.588  26.023  22.718  1.00  0.00    -0.237 OA
ATOM     75  O   UNL A   1      47.465  28.186  22.396  1.00  0.00    -0.744 OA
ENDBRANCH  69  72
ENDBRANCH  51  65
BRANCH  52  76
ATOM     76  C   UNL A   1      38.447  31.132  30.969  1.00  0.00     0.023 A 
ATOM     77  C   UNL A   1      38.293  30.961  32.360  1.00  0.00     0.012 A 
ATOM     78  C   UNL A   1      37.409  31.736  30.235  1.00  0.00     0.148 A 
ATOM     79  C   UNL A   1      37.110  31.341  32.998  1.00  0.00     0.002 A 
ATOM     80  C   UNL A   1      36.257  32.164  30.886  1.00  0.00     0.091 A 
ATOM     81  F   UNL A   1      37.565  31.876  28.911  1.00  0.00    -0.205 F 
ATOM     82  C   UNL A   1      36.096  31.948  32.264  1.00  0.00     0.022 A 
BRANCH  80  83
ATOM     83  S   UNL A   1      34.947  33.060  30.045  1.00  0.00     0.127 S 
ATOM     84  O   UNL A   1      34.429  32.044  29.131  1.00  0.00    -0.237 OA
ATOM     85  O   UNL A   1      34.057  33.401  31.155  1.00  0.00    -0.237 OA
ATOM     86  O   UNL A   1      35.594  34.204  29.417  1.00  0.00    -0.744 OA
ENDBRANCH  80  83
ENDBRANCH  52  76
BRANCH  64  87
ATOM     87  C   UNL A   1      44.553  34.175  29.488  1.00  0.00     0.023 A 
ATOM     88  C   UNL A   1      45.239  34.504  30.673  1.00  0.00     0.012 A 
ATOM     89  C   UNL A   1      44.444  35.137  28.463  1.00  0.00     0.148 A 
ATOM     90  C   UNL A   1      45.779  35.778  30.850  1.00  0.00     0.002 A 
ATOM     91  C   UNL A   1      45.031  36.387  28.623  1.00  0.00     0.091 A 
ATOM     92  F   UNL A   1      43.775  34.810  27.349  1.00  0.00    -0.205 F 
ATOM     93  C   UNL A   1      45.687  36.714  29.821  1.00  0.00     0.022 A 
BRANCH  91  94
ATOM     94  S   UNL A   1      45.051  37.618  27.315  1.00  0.00     0.127 S 
ATOM     95  O   UNL A   1      45.619  38.775  28.003  1.00  0.00    -0.237 OA
ATOM     96  O   UNL A   1      45.936  37.002  26.325  1.00  0.00    -0.237 OA
ATOM     97  O   UNL A   1      43.669  37.766  26.881  1.00  0.00    -0.744 OA
ENDBRANCH  91  94
ENDBRANCH  64  87
ENDBRANCH  38  39
ENDBRANCH  31  33
ENDBRANCH  30  31
ENDBRANCH  29  30
ENDBRANCH   1  29
TORSDOF 20
ENDMDL
