MODEL 1
REMARK VINA RESULT:     -10.3      0.000      0.000
REMARK SMILES COc1cc(OC(F)(F)F)cc2c1O[C@@H](C(F)(F)F)C(C(=O)OCCOCCOC(=O)c1ccc(-c3c4nc(c(-c5cccc(S(=O)(=O)[O-])c5F)c5ccc([nH]5)c(-c5cccc(S(=O)(=O)[O-])c5F)c5nc(c(-c6cccc(S(=O)(=O)[O-])c6F)c6ccc3[nH]6)C=C5)C=C4)cc1)=C2
REMARK SMILES IDX 27 1 26 2 25 3 24 4 23 5 21 6 22 7 20 8 3 9 4 10 13 11 5 12
REMARK SMILES IDX 12 13 14 14 11 15 95 16 15 17 2 18 1 19 6 20 7 21 8 22 9 23
REMARK SMILES IDX 10 24 16 25 17 26 18 27 19 28 28 29 29 30 30 31 31 32 32 33
REMARK SMILES IDX 33 34 94 35 34 36 93 37 35 38 36 39 37 40 87 41 38 42 92 43
REMARK SMILES IDX 86 44 88 45 39 46 91 47 85 48 84 49 40 51 72 52 52 53 71 54
REMARK SMILES IDX 53 55 56 56 70 57 89 58 54 59 55 60 69 62 90 63 57 64 41 65
REMARK SMILES IDX 42 66 50 67 43 68 45 69 51 70 44 71 46 72 47 73 48 74 49 75
REMARK SMILES IDX 73 76 74 77 82 78 75 79 77 80 83 81 76 82 78 83 79 84 80 85
REMARK SMILES IDX 81 86 58 87 59 88 67 89 60 90 62 91 68 92 61 93 63 94 64 95
REMARK SMILES IDX 65 96 66 97
REMARK H PARENT 88 50 56 61
REMARK Flexibility Score: inf
ROOT
ATOM      1  C   UNL A   1      33.768  35.229  28.261  1.00  0.00     0.202 C 
ENDROOT
BRANCH   1   2
ATOM      2  O   UNL A   1      32.638  35.898  28.814  1.00  0.00    -0.374 OA
BRANCH   2   3
ATOM      3  C   UNL A   1      32.800  36.630  30.026  1.00  0.00     0.202 C 
BRANCH   3   4
ATOM      4  C   UNL A   1      32.979  35.849  31.333  1.00  0.00     0.261 C 
BRANCH   4   5
ATOM      5  O   UNL A   1      34.358  35.574  31.620  1.00  0.00    -0.460 OA
BRANCH   5   6
ATOM      6  C   UNL A   1      34.680  34.262  31.622  1.00  0.00     0.338 C 
ATOM      7  O   UNL A   1      33.962  33.334  31.280  1.00  0.00    -0.246 OA
BRANCH   6   8
ATOM      8  C   UNL A   1      36.099  34.068  31.959  1.00  0.00     0.087 C 
ATOM      9  C   UNL A   1      40.029  34.628  33.248  1.00  0.00     0.165 A 
ATOM     10  C   UNL A   1      41.073  34.556  32.319  1.00  0.00     0.097 A 
ATOM     11  C   UNL A   1      38.716  34.408  32.822  1.00  0.00     0.170 A 
ATOM     12  C   UNL A   1      40.822  34.236  30.982  1.00  0.00     0.134 A 
ATOM     13  C   UNL A   1      38.444  34.113  31.472  1.00  0.00     0.025 A 
ATOM     14  O   UNL A   1      37.692  34.599  33.715  1.00  0.00    -0.471 OA
ATOM     15  C   UNL A   1      39.505  34.002  30.568  1.00  0.00     0.059 A 
ATOM     16  C   UNL A   1      37.051  34.095  31.010  1.00  0.00     0.027 C 
ATOM     17  C   UNL A   1      36.488  33.860  33.402  1.00  0.00     0.316 C 
BRANCH   9  18
ATOM     18  O   UNL A   1      40.416  35.011  34.506  1.00  0.00    -0.493 OA
ATOM     19  C   UNL A   1      41.278  36.142  34.572  1.00  0.00     0.278 C 
ENDBRANCH   9  18
BRANCH  12  20
ATOM     20  O   UNL A   1      41.758  34.148  29.991  1.00  0.00    -0.406 OA
BRANCH  20  21
ATOM     21  C   UNL A   1      41.972  35.296  29.184  1.00  0.00     0.573 C 
ATOM     22  F   UNL A   1      42.469  34.960  27.974  1.00  0.00    -0.132 F 
ATOM     23  F   UNL A   1      40.826  35.991  29.022  1.00  0.00    -0.132 F 
ATOM     24  F   UNL A   1      42.868  36.102  29.795  1.00  0.00    -0.132 F 
ENDBRANCH  20  21
ENDBRANCH  12  20
BRANCH  17  25
ATOM     25  C   UNL A   1      35.459  34.116  34.516  1.00  0.00     0.430 C 
ATOM     26  F   UNL A   1      34.977  35.379  34.469  1.00  0.00    -0.167 F 
ATOM     27  F   UNL A   1      34.379  33.305  34.328  1.00  0.00    -0.167 F 
ATOM     28  F   UNL A   1      35.923  33.861  35.754  1.00  0.00    -0.167 F 
ENDBRANCH  17  25
ENDBRANCH   6   8
ENDBRANCH   5   6
ENDBRANCH   4   5
ENDBRANCH   3   4
ENDBRANCH   2   3
ENDBRANCH   1   2
BRANCH   1  29
ATOM     29  C   UNL A   1      33.665  33.738  27.920  1.00  0.00     0.261 C 
BRANCH  29  30
ATOM     30  O   UNL A   1      34.881  33.014  28.149  1.00  0.00    -0.460 OA
BRANCH  30  31
ATOM     31  C   UNL A   1      34.713  31.671  28.237  1.00  0.00     0.338 C 
ATOM     32  O   UNL A   1      33.664  31.053  28.122  1.00  0.00    -0.246 OA
BRANCH  31  33
ATOM     33  C   UNL A   1      36.017  30.994  28.303  1.00  0.00     0.060 A 
ATOM     34  C   UNL A   1      36.007  29.608  28.508  1.00  0.00     0.016 A 
ATOM     35  C   UNL A   1      37.217  31.706  28.285  1.00  0.00     0.016 A 
ATOM     36  C   UNL A   1      37.193  28.938  28.778  1.00  0.00     0.010 A 
ATOM     37  C   UNL A   1      38.410  31.029  28.560  1.00  0.00     0.010 A 
ATOM     38  C   UNL A   1      38.392  29.656  28.866  1.00  0.00    -0.014 A 
BRANCH  38  39
ATOM     39  C   UNL A   1      39.571  28.993  29.468  1.00  0.00     0.031 A 
ATOM     40  C   UNL A   1      40.108  29.509  30.775  1.00  0.00     0.074 A 
ATOM     41  C   UNL A   1      40.119  27.908  28.892  1.00  0.00     0.049 A 
ATOM     42  N   UNL A   1      41.097  29.058  31.502  1.00  0.00    -0.248 NA
ATOM     43  C   UNL A   1      39.444  30.697  31.337  1.00  0.00     0.031 C 
ATOM     44  C   UNL A   1      39.685  27.316  27.629  1.00  0.00     0.029 A 
ATOM     45  N   UNL A   1      41.170  27.126  29.293  1.00  0.00    -0.354 N 
ATOM     46  C   UNL A   1      41.189  29.917  32.591  1.00  0.00     0.074 A 
ATOM     47  C   UNL A   1      40.176  30.935  32.414  1.00  0.00     0.031 C 
ATOM     48  C   UNL A   1      40.480  26.272  27.345  1.00  0.00     0.029 A 
ATOM     49  C   UNL A   1      41.488  26.136  28.395  1.00  0.00     0.049 A 
ATOM     50  H   UNL A   1      41.650  27.259  30.142  1.00  0.00     0.167 HD
ATOM     51  C   UNL A   1      42.026  29.856  33.654  1.00  0.00     0.034 A 
ATOM     52  C   UNL A   1      42.488  25.235  28.413  1.00  0.00     0.034 A 
ATOM     53  C   UNL A   1      43.026  28.838  33.831  1.00  0.00     0.049 A 
ATOM     54  C   UNL A   1      43.413  25.185  29.599  1.00  0.00     0.074 A 
ATOM     55  C   UNL A   1      43.905  28.666  34.886  1.00  0.00     0.029 A 
ATOM     56  N   UNL A   1      43.290  27.824  32.922  1.00  0.00    -0.354 N 
ATOM     57  N   UNL A   1      43.425  25.943  30.670  1.00  0.00    -0.248 NA
ATOM     58  C   UNL A   1      44.432  24.127  29.602  1.00  0.00     0.031 C 
ATOM     59  C   UNL A   1      44.722  27.566  34.598  1.00  0.00     0.029 A 
ATOM     60  C   UNL A   1      44.321  27.025  33.387  1.00  0.00     0.049 A 
ATOM     61  H   UNL A   1      42.815  27.692  32.070  1.00  0.00     0.167 HD
ATOM     62  C   UNL A   1      44.422  25.428  31.492  1.00  0.00     0.074 A 
ATOM     63  C   UNL A   1      44.979  24.284  30.800  1.00  0.00     0.031 C 
ATOM     64  C   UNL A   1      44.839  25.864  32.708  1.00  0.00     0.034 A 
BRANCH  51  65
ATOM     65  C   UNL A   1      41.879  30.922  34.711  1.00  0.00     0.023 A 
ATOM     66  C   UNL A   1      42.910  31.865  34.907  1.00  0.00     0.012 A 
ATOM     67  C   UNL A   1      40.717  30.999  35.503  1.00  0.00     0.148 A 
ATOM     68  C   UNL A   1      42.809  32.834  35.905  1.00  0.00     0.002 A 
ATOM     69  C   UNL A   1      40.602  31.999  36.462  1.00  0.00     0.091 A 
ATOM     70  F   UNL A   1      39.757  30.081  35.322  1.00  0.00    -0.205 F 
ATOM     71  C   UNL A   1      41.652  32.907  36.675  1.00  0.00     0.022 A 
BRANCH  69  72
ATOM     72  S   UNL A   1      39.117  32.226  37.447  1.00  0.00     0.127 S 
ATOM     73  O   UNL A   1      38.558  33.443  36.861  1.00  0.00    -0.237 OA
ATOM     74  O   UNL A   1      38.363  31.006  37.154  1.00  0.00    -0.237 OA
ATOM     75  O   UNL A   1      39.567  32.343  38.827  1.00  0.00    -0.744 OA
ENDBRANCH  69  72
ENDBRANCH  51  65
BRANCH  52  76
ATOM     76  C   UNL A   1      42.636  24.282  27.278  1.00  0.00     0.023 A 
ATOM     77  C   UNL A   1      43.396  24.643  26.150  1.00  0.00     0.012 A 
ATOM     78  C   UNL A   1      42.058  22.999  27.339  1.00  0.00     0.148 A 
ATOM     79  C   UNL A   1      43.556  23.750  25.089  1.00  0.00     0.002 A 
ATOM     80  C   UNL A   1      42.270  22.095  26.306  1.00  0.00     0.091 A 
ATOM     81  F   UNL A   1      41.331  22.682  28.420  1.00  0.00    -0.205 F 
ATOM     82  C   UNL A   1      43.004  22.475  25.172  1.00  0.00     0.022 A 
BRANCH  80  83
ATOM     83  S   UNL A   1      41.714  20.390  26.387  1.00  0.00     0.127 S 
ATOM     84  O   UNL A   1      40.283  20.530  26.132  1.00  0.00    -0.237 OA
ATOM     85  O   UNL A   1      42.480  19.775  25.303  1.00  0.00    -0.237 OA
ATOM     86  O   UNL A   1      42.073  19.919  27.719  1.00  0.00    -0.744 OA
ENDBRANCH  80  83
ENDBRANCH  52  76
BRANCH  64  87
ATOM     87  C   UNL A   1      45.917  25.069  33.401  1.00  0.00     0.023 A 
ATOM     88  C   UNL A   1      47.275  25.401  33.220  1.00  0.00     0.012 A 
ATOM     89  C   UNL A   1      45.575  24.018  34.275  1.00  0.00     0.148 A 
ATOM     90  C   UNL A   1      48.275  24.668  33.860  1.00  0.00     0.002 A 
ATOM     91  C   UNL A   1      46.574  23.329  34.952  1.00  0.00     0.091 A 
ATOM     92  F   UNL A   1      44.280  23.702  34.422  1.00  0.00    -0.205 F 
ATOM     93  C   UNL A   1      47.925  23.642  34.733  1.00  0.00     0.022 A 
BRANCH  91  94
ATOM     94  S   UNL A   1      46.206  22.061  36.171  1.00  0.00     0.127 S 
ATOM     95  O   UNL A   1      47.546  21.654  36.591  1.00  0.00    -0.237 OA
ATOM     96  O   UNL A   1      45.452  22.809  37.179  1.00  0.00    -0.237 OA
ATOM     97  O   UNL A   1      45.432  21.046  35.470  1.00  0.00    -0.744 OA
ENDBRANCH  91  94
ENDBRANCH  64  87
ENDBRANCH  38  39
ENDBRANCH  31  33
ENDBRANCH  30  31
ENDBRANCH  29  30
ENDBRANCH   1  29
TORSDOF 21
ENDMDL
MODEL 2
REMARK VINA RESULT:      -9.9      1.914      2.395
REMARK SMILES COc1cc(OC(F)(F)F)cc2c1O[C@@H](C(F)(F)F)C(C(=O)OCCOCCOC(=O)c1ccc(-c3c4nc(c(-c5cccc(S(=O)(=O)[O-])c5F)c5ccc([nH]5)c(-c5cccc(S(=O)(=O)[O-])c5F)c5nc(c(-c6cccc(S(=O)(=O)[O-])c6F)c6ccc3[nH]6)C=C5)C=C4)cc1)=C2
REMARK SMILES IDX 27 1 26 2 25 3 24 4 23 5 21 6 22 7 20 8 3 9 4 10 13 11 5 12
REMARK SMILES IDX 12 13 14 14 11 15 95 16 15 17 2 18 1 19 6 20 7 21 8 22 9 23
REMARK SMILES IDX 10 24 16 25 17 26 18 27 19 28 28 29 29 30 30 31 31 32 32 33
REMARK SMILES IDX 33 34 94 35 34 36 93 37 35 38 36 39 37 40 87 41 38 42 92 43
REMARK SMILES IDX 86 44 88 45 39 46 91 47 85 48 84 49 40 51 72 52 52 53 71 54
REMARK SMILES IDX 53 55 56 56 70 57 89 58 54 59 55 60 69 62 90 63 57 64 41 65
REMARK SMILES IDX 42 66 50 67 43 68 45 69 51 70 44 71 46 72 47 73 48 74 49 75
REMARK SMILES IDX 73 76 74 77 82 78 75 79 77 80 83 81 76 82 78 83 79 84 80 85
REMARK SMILES IDX 81 86 58 87 59 88 67 89 60 90 62 91 68 92 61 93 63 94 64 95
REMARK SMILES IDX 65 96 66 97
REMARK H PARENT 88 50 56 61
REMARK Flexibility Score: inf
ROOT
ATOM      1  C   UNL A   1      33.450  35.318  28.593  1.00  0.00     0.202 C 
ENDROOT
BRANCH   1   2
ATOM      2  O   UNL A   1      32.461  35.903  29.435  1.00  0.00    -0.374 OA
BRANCH   2   3
ATOM      3  C   UNL A   1      32.882  36.638  30.581  1.00  0.00     0.202 C 
BRANCH   3   4
ATOM      4  C   UNL A   1      33.359  35.859  31.813  1.00  0.00     0.261 C 
BRANCH   4   5
ATOM      5  O   UNL A   1      34.769  35.596  31.780  1.00  0.00    -0.460 OA
BRANCH   5   6
ATOM      6  C   UNL A   1      35.097  34.285  31.836  1.00  0.00     0.338 C 
ATOM      7  O   UNL A   1      34.333  33.337  31.728  1.00  0.00    -0.246 OA
BRANCH   6   8
ATOM      8  C   UNL A   1      36.556  34.109  31.901  1.00  0.00     0.087 C 
ATOM      9  C   UNL A   1      40.648  34.706  32.469  1.00  0.00     0.165 A 
ATOM     10  C   UNL A   1      41.504  34.685  31.363  1.00  0.00     0.097 A 
ATOM     11  C   UNL A   1      39.282  34.474  32.282  1.00  0.00     0.170 A 
ATOM     12  C   UNL A   1      41.016  34.403  30.084  1.00  0.00     0.134 A 
ATOM     13  C   UNL A   1      38.771  34.217  30.995  1.00  0.00     0.025 A 
ATOM     14  O   UNL A   1      38.437  34.616  33.354  1.00  0.00    -0.471 OA
ATOM     15  C   UNL A   1      39.649  34.156  29.909  1.00  0.00     0.059 A 
ATOM     16  C   UNL A   1      37.317  34.185  30.796  1.00  0.00     0.027 C 
ATOM     17  C   UNL A   1      37.206  33.864  33.240  1.00  0.00     0.316 C 
BRANCH   9  18
ATOM     18  O   UNL A   1      41.253  35.057  33.647  1.00  0.00    -0.493 OA
ATOM     19  C   UNL A   1      42.677  35.061  33.635  1.00  0.00     0.278 C 
ENDBRANCH   9  18
BRANCH  12  20
ATOM     20  O   UNL A   1      41.757  34.365  28.936  1.00  0.00    -0.406 OA
BRANCH  20  21
ATOM     21  C   UNL A   1      41.961  35.588  28.245  1.00  0.00     0.573 C 
ATOM     22  F   UNL A   1      41.726  36.650  29.045  1.00  0.00    -0.132 F 
ATOM     23  F   UNL A   1      43.219  35.662  27.759  1.00  0.00    -0.132 F 
ATOM     24  F   UNL A   1      41.105  35.652  27.202  1.00  0.00    -0.132 F 
ENDBRANCH  20  21
ENDBRANCH  12  20
BRANCH  17  25
ATOM     25  C   UNL A   1      36.395  34.063  34.532  1.00  0.00     0.430 C 
ATOM     26  F   UNL A   1      35.666  32.964  34.836  1.00  0.00    -0.167 F 
ATOM     27  F   UNL A   1      37.250  34.237  35.580  1.00  0.00    -0.167 F 
ATOM     28  F   UNL A   1      35.589  35.141  34.507  1.00  0.00    -0.167 F 
ENDBRANCH  17  25
ENDBRANCH   6   8
ENDBRANCH   5   6
ENDBRANCH   4   5
ENDBRANCH   3   4
ENDBRANCH   2   3
ENDBRANCH   1   2
BRANCH   1  29
ATOM     29  C   UNL A   1      33.153  33.981  27.902  1.00  0.00     0.261 C 
BRANCH  29  30
ATOM     30  O   UNL A   1      33.687  32.847  28.598  1.00  0.00    -0.460 OA
BRANCH  30  31
ATOM     31  C   UNL A   1      33.868  31.756  27.813  1.00  0.00     0.338 C 
ATOM     32  O   UNL A   1      33.116  31.347  26.940  1.00  0.00    -0.246 OA
BRANCH  31  33
ATOM     33  C   UNL A   1      35.217  31.203  28.007  1.00  0.00     0.060 A 
ATOM     34  C   UNL A   1      35.312  29.830  28.269  1.00  0.00     0.016 A 
ATOM     35  C   UNL A   1      36.347  32.020  28.051  1.00  0.00     0.016 A 
ATOM     36  C   UNL A   1      36.526  29.280  28.656  1.00  0.00     0.010 A 
ATOM     37  C   UNL A   1      37.569  31.464  28.445  1.00  0.00     0.010 A 
ATOM     38  C   UNL A   1      37.647  30.107  28.805  1.00  0.00    -0.014 A 
BRANCH  38  39
ATOM     39  C   UNL A   1      38.828  29.575  29.524  1.00  0.00     0.031 A 
ATOM     40  C   UNL A   1      39.004  29.905  30.981  1.00  0.00     0.074 A 
ATOM     41  C   UNL A   1      39.700  28.759  28.905  1.00  0.00     0.049 A 
ATOM     42  N   UNL A   1      39.932  29.514  31.814  1.00  0.00    -0.248 NA
ATOM     43  C   UNL A   1      37.999  30.800  31.580  1.00  0.00     0.031 C 
ATOM     44  C   UNL A   1      39.633  28.367  27.499  1.00  0.00     0.029 A 
ATOM     45  N   UNL A   1      40.819  28.129  29.382  1.00  0.00    -0.354 N 
ATOM     46  C   UNL A   1      39.639  30.132  33.025  1.00  0.00     0.074 A 
ATOM     47  C   UNL A   1      38.464  30.948  32.809  1.00  0.00     0.031 C 
ATOM     48  C   UNL A   1      40.683  27.577  27.220  1.00  0.00     0.029 A 
ATOM     49  C   UNL A   1      41.502  27.426  28.420  1.00  0.00     0.049 A 
ATOM     50  H   UNL A   1      41.105  28.175  30.323  1.00  0.00     0.167 HD
ATOM     51  C   UNL A   1      40.276  30.017  34.215  1.00  0.00     0.034 A 
ATOM     52  C   UNL A   1      42.665  26.751  28.499  1.00  0.00     0.034 A 
ATOM     53  C   UNL A   1      41.439  29.197  34.427  1.00  0.00     0.049 A 
ATOM     54  C   UNL A   1      43.363  26.639  29.827  1.00  0.00     0.074 A 
ATOM     55  C   UNL A   1      42.142  28.985  35.599  1.00  0.00     0.029 A 
ATOM     56  N   UNL A   1      42.078  28.463  33.439  1.00  0.00    -0.354 N 
ATOM     57  N   UNL A   1      43.019  27.148  30.987  1.00  0.00    -0.248 NA
ATOM     58  C   UNL A   1      44.582  25.820  29.869  1.00  0.00     0.031 C 
ATOM     59  C   UNL A   1      43.227  28.147  35.312  1.00  0.00     0.029 A 
ATOM     60  C   UNL A   1      43.171  27.800  33.972  1.00  0.00     0.049 A 
ATOM     61  H   UNL A   1      41.797  28.419  32.497  1.00  0.00     0.167 HD
ATOM     62  C   UNL A   1      43.954  26.678  31.903  1.00  0.00     0.074 A 
ATOM     63  C   UNL A   1      44.868  25.830  31.164  1.00  0.00     0.031 C 
ATOM     64  C   UNL A   1      44.049  26.926  33.234  1.00  0.00     0.034 A 
BRANCH  51  65
ATOM     65  C   UNL A   1      39.712  30.793  35.378  1.00  0.00     0.023 A 
ATOM     66  C   UNL A   1      38.512  30.371  35.989  1.00  0.00     0.012 A 
ATOM     67  C   UNL A   1      40.375  31.931  35.877  1.00  0.00     0.148 A 
ATOM     68  C   UNL A   1      37.955  31.097  37.042  1.00  0.00     0.002 A 
ATOM     69  C   UNL A   1      39.840  32.620  36.959  1.00  0.00     0.091 A 
ATOM     70  F   UNL A   1      41.501  32.333  35.271  1.00  0.00    -0.205 F 
ATOM     71  C   UNL A   1      38.624  32.215  37.533  1.00  0.00     0.022 A 
BRANCH  69  72
ATOM     72  S   UNL A   1      40.669  34.023  37.715  1.00  0.00     0.127 S 
ATOM     73  O   UNL A   1      40.524  35.044  36.679  1.00  0.00    -0.237 OA
ATOM     74  O   UNL A   1      39.860  34.251  38.913  1.00  0.00    -0.237 OA
ATOM     75  O   UNL A   1      42.033  33.587  37.980  1.00  0.00    -0.744 OA
ENDBRANCH  69  72
ENDBRANCH  51  65
BRANCH  52  76
ATOM     76  C   UNL A   1      43.217  26.099  27.279  1.00  0.00     0.023 A 
ATOM     77  C   UNL A   1      44.092  26.810  26.435  1.00  0.00     0.012 A 
ATOM     78  C   UNL A   1      42.909  24.758  26.981  1.00  0.00     0.148 A 
ATOM     79  C   UNL A   1      44.630  26.203  25.300  1.00  0.00     0.002 A 
ATOM     80  C   UNL A   1      43.493  24.143  25.881  1.00  0.00     0.091 A 
ATOM     81  F   UNL A   1      42.066  24.106  27.794  1.00  0.00    -0.205 F 
ATOM     82  C   UNL A   1      44.340  24.868  25.030  1.00  0.00     0.022 A 
BRANCH  80  83
ATOM     83  S   UNL A   1      43.286  22.393  25.534  1.00  0.00     0.127 S 
ATOM     84  O   UNL A   1      43.866  21.781  26.727  1.00  0.00    -0.237 OA
ATOM     85  O   UNL A   1      41.831  22.281  25.425  1.00  0.00    -0.237 OA
ATOM     86  O   UNL A   1      44.003  22.148  24.289  1.00  0.00    -0.744 OA
ENDBRANCH  80  83
ENDBRANCH  52  76
BRANCH  64  87
ATOM     87  C   UNL A   1      45.148  26.229  33.997  1.00  0.00     0.023 A 
ATOM     88  C   UNL A   1      44.925  24.962  34.570  1.00  0.00     0.012 A 
ATOM     89  C   UNL A   1      46.424  26.818  34.099  1.00  0.00     0.148 A 
ATOM     90  C   UNL A   1      45.940  24.315  35.275  1.00  0.00     0.002 A 
ATOM     91  C   UNL A   1      47.446  26.142  34.755  1.00  0.00     0.091 A 
ATOM     92  F   UNL A   1      46.615  28.033  33.564  1.00  0.00    -0.205 F 
ATOM     93  C   UNL A   1      47.202  24.898  35.358  1.00  0.00     0.022 A 
BRANCH  91  94
ATOM     94  S   UNL A   1      49.126  26.775  34.820  1.00  0.00     0.127 S 
ATOM     95  O   UNL A   1      49.825  25.695  35.515  1.00  0.00    -0.237 OA
ATOM     96  O   UNL A   1      49.463  26.909  33.402  1.00  0.00    -0.237 OA
ATOM     97  O   UNL A   1      49.049  28.039  35.541  1.00  0.00    -0.744 OA
ENDBRANCH  91  94
ENDBRANCH  64  87
ENDBRANCH  38  39
ENDBRANCH  31  33
ENDBRANCH  30  31
ENDBRANCH  29  30
ENDBRANCH   1  29
TORSDOF 21
ENDMDL
MODEL 3
REMARK VINA RESULT:      -9.7      4.751     11.147
REMARK SMILES COc1cc(OC(F)(F)F)cc2c1O[C@@H](C(F)(F)F)C(C(=O)OCCOCCOC(=O)c1ccc(-c3c4nc(c(-c5cccc(S(=O)(=O)[O-])c5F)c5ccc([nH]5)c(-c5cccc(S(=O)(=O)[O-])c5F)c5nc(c(-c6cccc(S(=O)(=O)[O-])c6F)c6ccc3[nH]6)C=C5)C=C4)cc1)=C2
REMARK SMILES IDX 27 1 26 2 25 3 24 4 23 5 21 6 22 7 20 8 3 9 4 10 13 11 5 12
REMARK SMILES IDX 12 13 14 14 11 15 95 16 15 17 2 18 1 19 6 20 7 21 8 22 9 23
REMARK SMILES IDX 10 24 16 25 17 26 18 27 19 28 28 29 29 30 30 31 31 32 32 33
REMARK SMILES IDX 33 34 94 35 34 36 93 37 35 38 36 39 37 40 87 41 38 42 92 43
REMARK SMILES IDX 86 44 88 45 39 46 91 47 85 48 84 49 40 51 72 52 52 53 71 54
REMARK SMILES IDX 53 55 56 56 70 57 89 58 54 59 55 60 69 62 90 63 57 64 41 65
REMARK SMILES IDX 42 66 50 67 43 68 45 69 51 70 44 71 46 72 47 73 48 74 49 75
REMARK SMILES IDX 73 76 74 77 82 78 75 79 77 80 83 81 76 82 78 83 79 84 80 85
REMARK SMILES IDX 81 86 58 87 59 88 67 89 60 90 62 91 68 92 61 93 63 94 64 95
REMARK SMILES IDX 65 96 66 97
REMARK H PARENT 88 50 56 61
REMARK Flexibility Score: inf
ROOT
ATOM      1  C   UNL A   1      33.406  31.277  27.661  1.00  0.00     0.202 C 
ENDROOT
BRANCH   1   2
ATOM      2  O   UNL A   1      32.287  31.432  26.793  1.00  0.00    -0.374 OA
BRANCH   2   3
ATOM      3  C   UNL A   1      31.762  30.282  26.136  1.00  0.00     0.202 C 
BRANCH   3   4
ATOM      4  C   UNL A   1      32.713  29.119  25.830  1.00  0.00     0.261 C 
BRANCH   4   5
ATOM      5  O   UNL A   1      32.039  28.010  25.217  1.00  0.00    -0.460 OA
BRANCH   5   6
ATOM      6  C   UNL A   1      31.851  26.948  26.032  1.00  0.00     0.338 C 
ATOM      7  O   UNL A   1      31.186  26.924  27.057  1.00  0.00    -0.246 OA
BRANCH   6   8
ATOM      8  C   UNL A   1      32.438  25.730  25.454  1.00  0.00     0.087 C 
ATOM      9  C   UNL A   1      33.264  21.766  24.440  1.00  0.00     0.165 A 
ATOM     10  C   UNL A   1      34.480  21.197  24.831  1.00  0.00     0.097 A 
ATOM     11  C   UNL A   1      33.001  23.103  24.751  1.00  0.00     0.170 A 
ATOM     12  C   UNL A   1      35.445  21.956  25.499  1.00  0.00     0.134 A 
ATOM     13  C   UNL A   1      33.952  23.873  25.449  1.00  0.00     0.025 A 
ATOM     14  O   UNL A   1      31.760  23.614  24.469  1.00  0.00    -0.471 OA
ATOM     15  C   UNL A   1      35.179  23.299  25.793  1.00  0.00     0.059 A 
ATOM     16  C   UNL A   1      33.571  25.201  25.946  1.00  0.00     0.027 C 
ATOM     17  C   UNL A   1      31.735  25.052  24.304  1.00  0.00     0.316 C 
BRANCH   9  18
ATOM     18  O   UNL A   1      32.392  20.888  23.850  1.00  0.00    -0.493 OA
ATOM     19  C   UNL A   1      32.498  19.532  24.270  1.00  0.00     0.278 C 
ENDBRANCH   9  18
BRANCH  12  20
ATOM     20  O   UNL A   1      36.658  21.503  25.935  1.00  0.00    -0.406 OA
BRANCH  20  21
ATOM     21  C   UNL A   1      37.651  21.237  24.956  1.00  0.00     0.573 C 
ATOM     22  F   UNL A   1      37.444  21.963  23.836  1.00  0.00    -0.132 F 
ATOM     23  F   UNL A   1      38.885  21.499  25.439  1.00  0.00    -0.132 F 
ATOM     24  F   UNL A   1      37.601  19.929  24.623  1.00  0.00    -0.132 F 
ENDBRANCH  20  21
ENDBRANCH  12  20
BRANCH  17  25
ATOM     25  C   UNL A   1      30.304  25.472  23.927  1.00  0.00     0.430 C 
ATOM     26  F   UNL A   1      30.299  26.590  23.165  1.00  0.00    -0.167 F 
ATOM     27  F   UNL A   1      29.736  24.501  23.156  1.00  0.00    -0.167 F 
ATOM     28  F   UNL A   1      29.492  25.649  24.986  1.00  0.00    -0.167 F 
ENDBRANCH  17  25
ENDBRANCH   6   8
ENDBRANCH   5   6
ENDBRANCH   4   5
ENDBRANCH   3   4
ENDBRANCH   2   3
ENDBRANCH   1   2
BRANCH   1  29
ATOM     29  C   UNL A   1      34.517  32.334  27.652  1.00  0.00     0.261 C 
BRANCH  29  30
ATOM     30  O   UNL A   1      34.031  33.671  27.475  1.00  0.00    -0.460 OA
BRANCH  30  31
ATOM     31  C   UNL A   1      33.669  34.281  28.631  1.00  0.00     0.338 C 
ATOM     32  O   UNL A   1      32.605  34.835  28.867  1.00  0.00    -0.246 OA
BRANCH  31  33
ATOM     33  C   UNL A   1      34.668  34.026  29.680  1.00  0.00     0.060 A 
ATOM     34  C   UNL A   1      35.999  34.353  29.387  1.00  0.00     0.016 A 
ATOM     35  C   UNL A   1      34.336  33.376  30.870  1.00  0.00     0.016 A 
ATOM     36  C   UNL A   1      37.016  33.960  30.247  1.00  0.00     0.010 A 
ATOM     37  C   UNL A   1      35.363  32.978  31.733  1.00  0.00     0.010 A 
ATOM     38  C   UNL A   1      36.707  33.216  31.393  1.00  0.00    -0.014 A 
BRANCH  38  39
ATOM     39  C   UNL A   1      37.809  32.533  32.111  1.00  0.00     0.031 A 
ATOM     40  C   UNL A   1      38.520  31.392  31.436  1.00  0.00     0.074 A 
ATOM     41  C   UNL A   1      38.210  32.961  33.320  1.00  0.00     0.049 A 
ATOM     42  N   UNL A   1      39.535  30.683  31.855  1.00  0.00    -0.248 NA
ATOM     43  C   UNL A   1      38.017  30.994  30.110  1.00  0.00     0.031 C 
ATOM     44  C   UNL A   1      37.600  34.056  34.071  1.00  0.00     0.029 A 
ATOM     45  N   UNL A   1      39.219  32.511  34.131  1.00  0.00    -0.354 N 
ATOM     46  C   UNL A   1      39.776  29.742  30.861  1.00  0.00     0.074 A 
ATOM     47  C   UNL A   1      38.782  29.951  29.831  1.00  0.00     0.031 C 
ATOM     48  C   UNL A   1      38.236  34.180  35.248  1.00  0.00     0.029 A 
ATOM     49  C   UNL A   1      39.281  33.162  35.339  1.00  0.00     0.049 A 
ATOM     50  H   UNL A   1      39.840  31.793  33.873  1.00  0.00     0.167 HD
ATOM     51  C   UNL A   1      40.749  28.802  30.798  1.00  0.00     0.034 A 
ATOM     52  C   UNL A   1      40.080  32.949  36.401  1.00  0.00     0.034 A 
ATOM     53  C   UNL A   1      41.741  28.603  31.820  1.00  0.00     0.049 A 
ATOM     54  C   UNL A   1      41.151  31.895  36.317  1.00  0.00     0.074 A 
ATOM     55  C   UNL A   1      42.789  27.700  31.841  1.00  0.00     0.029 A 
ATOM     56  N   UNL A   1      41.800  29.312  33.012  1.00  0.00    -0.354 N 
ATOM     57  N   UNL A   1      41.431  31.079  35.328  1.00  0.00    -0.248 NA
ATOM     58  C   UNL A   1      42.047  31.765  37.474  1.00  0.00     0.031 C 
ATOM     59  C   UNL A   1      43.462  27.841  33.061  1.00  0.00     0.029 A 
ATOM     60  C   UNL A   1      42.863  28.864  33.778  1.00  0.00     0.049 A 
ATOM     61  H   UNL A   1      41.178  30.028  33.274  1.00  0.00     0.167 HD
ATOM     62  C   UNL A   1      42.559  30.369  35.727  1.00  0.00     0.074 A 
ATOM     63  C   UNL A   1      42.918  30.864  37.040  1.00  0.00     0.031 C 
ATOM     64  C   UNL A   1      43.235  29.395  35.066  1.00  0.00     0.034 A 
BRANCH  51  65
ATOM     65  C   UNL A   1      40.786  27.926  29.570  1.00  0.00     0.023 A 
ATOM     66  C   UNL A   1      39.963  26.782  29.498  1.00  0.00     0.012 A 
ATOM     67  C   UNL A   1      41.624  28.241  28.483  1.00  0.00     0.148 A 
ATOM     68  C   UNL A   1      40.011  25.940  28.387  1.00  0.00     0.002 A 
ATOM     69  C   UNL A   1      41.628  27.425  27.358  1.00  0.00     0.091 A 
ATOM     70  F   UNL A   1      42.417  29.318  28.577  1.00  0.00    -0.205 F 
ATOM     71  C   UNL A   1      40.835  26.267  27.314  1.00  0.00     0.022 A 
BRANCH  69  72
ATOM     72  S   UNL A   1      42.595  27.806  25.893  1.00  0.00     0.127 S 
ATOM     73  O   UNL A   1      42.367  26.618  25.072  1.00  0.00    -0.237 OA
ATOM     74  O   UNL A   1      41.944  29.021  25.400  1.00  0.00    -0.237 OA
ATOM     75  O   UNL A   1      43.963  27.997  26.354  1.00  0.00    -0.744 OA
ENDBRANCH  69  72
ENDBRANCH  51  65
BRANCH  52  76
ATOM     76  C   UNL A   1      39.913  33.784  37.623  1.00  0.00     0.023 A 
ATOM     77  C   UNL A   1      40.539  35.042  37.707  1.00  0.00     0.012 A 
ATOM     78  C   UNL A   1      39.096  33.348  38.683  1.00  0.00     0.148 A 
ATOM     79  C   UNL A   1      40.373  35.841  38.839  1.00  0.00     0.002 A 
ATOM     80  C   UNL A   1      38.889  34.173  39.781  1.00  0.00     0.091 A 
ATOM     81  F   UNL A   1      38.518  32.142  38.584  1.00  0.00    -0.205 F 
ATOM     82  C   UNL A   1      39.541  35.412  39.869  1.00  0.00     0.022 A 
BRANCH  80  83
ATOM     83  S   UNL A   1      37.729  33.763  41.090  1.00  0.00     0.127 S 
ATOM     84  O   UNL A   1      38.540  32.906  41.951  1.00  0.00    -0.237 OA
ATOM     85  O   UNL A   1      37.425  35.084  41.641  1.00  0.00    -0.237 OA
ATOM     86  O   UNL A   1      36.604  33.112  40.432  1.00  0.00    -0.744 OA
ENDBRANCH  80  83
ENDBRANCH  52  76
BRANCH  64  87
ATOM     87  C   UNL A   1      44.469  28.832  35.726  1.00  0.00     0.023 A 
ATOM     88  C   UNL A   1      45.740  29.369  35.436  1.00  0.00     0.012 A 
ATOM     89  C   UNL A   1      44.358  27.799  36.677  1.00  0.00     0.148 A 
ATOM     90  C   UNL A   1      46.883  28.852  36.046  1.00  0.00     0.002 A 
ATOM     91  C   UNL A   1      45.496  27.327  37.322  1.00  0.00     0.091 A 
ATOM     92  F   UNL A   1      43.144  27.286  36.928  1.00  0.00    -0.205 F 
ATOM     93  C   UNL A   1      46.760  27.841  36.995  1.00  0.00     0.022 A 
BRANCH  91  94
ATOM     94  S   UNL A   1      45.416  26.097  38.629  1.00  0.00     0.127 S 
ATOM     95  O   UNL A   1      44.472  26.713  39.560  1.00  0.00    -0.237 OA
ATOM     96  O   UNL A   1      44.899  24.925  37.922  1.00  0.00    -0.237 OA
ATOM     97  O   UNL A   1      46.779  25.950  39.122  1.00  0.00    -0.744 OA
ENDBRANCH  91  94
ENDBRANCH  64  87
ENDBRANCH  38  39
ENDBRANCH  31  33
ENDBRANCH  30  31
ENDBRANCH  29  30
ENDBRANCH   1  29
TORSDOF 21
ENDMDL
