MODEL 1
REMARK VINA RESULT:     -11.6      0.000      0.000
REMARK SMILES CC[C@@H](C)N1C(=O)/C(=C/Nc2cccc(C(=O)OCCOCCOC(=O)c3ccc(-c4c5nc(c(-c6cccc(S(=O)(=O)[O-])c6F)c6ccc([nH]6)c(-c6cccc(S(=O)(=O)[O-])c6F)c6nc(c(-c7cccc(S(=O)(=O)[O-])c7F)c7ccc4[nH]7)C=C6)C=C5)cc3)c2)C(=O)NC1=S
REMARK SMILES IDX 20 1 19 2 18 3 16 4 17 5 15 6 11 7 12 8 90 9 13 10 14 11
REMARK SMILES IDX 10 12 9 14 5 15 6 16 94 17 7 18 8 19 93 20 95 21 91 22 92 24
REMARK SMILES IDX 3 25 4 26 2 27 1 28 21 29 22 30 23 31 24 32 25 33 26 34
REMARK SMILES IDX 27 35 28 36 89 37 29 38 88 39 30 40 31 41 32 42 82 43 33 44
REMARK SMILES IDX 87 45 81 46 83 47 34 48 86 49 80 50 79 51 35 53 67 54 47 55
REMARK SMILES IDX 66 56 48 57 51 58 65 59 84 60 49 61 50 62 64 64 85 65 52 66
REMARK SMILES IDX 36 67 37 68 45 69 38 70 40 71 46 72 39 73 41 74 42 75 43 76
REMARK SMILES IDX 44 77 68 78 69 79 77 80 70 81 72 82 78 83 71 84 73 85 74 86
REMARK SMILES IDX 75 87 76 88 53 89 54 90 62 91 55 92 57 93 63 94 56 95 58 96
REMARK SMILES IDX 59 97 60 98 61 99
REMARK H PARENT 10 13 93 23 83 52 51 63
REMARK Flexibility Score: inf
ROOT
ATOM      1  C   UNL A   1      43.099  19.723  25.537  1.00  0.00     0.202 C 
ENDROOT
BRANCH   1   2
ATOM      2  C   UNL A   1      42.335  20.710  26.426  1.00  0.00     0.261 C 
BRANCH   2   3
ATOM      3  O   UNL A   1      41.114  20.139  26.924  1.00  0.00    -0.460 OA
BRANCH   3   4
ATOM      4  C   UNL A   1      40.069  20.160  26.061  1.00  0.00     0.338 C 
ATOM      5  O   UNL A   1      39.644  19.222  25.402  1.00  0.00    -0.246 OA
BRANCH   4   6
ATOM      6  C   UNL A   1      39.354  21.452  26.172  1.00  0.00     0.062 A 
ATOM      7  C   UNL A   1      37.421  22.881  25.808  1.00  0.00     0.039 A 
ATOM      8  C   UNL A   1      38.156  23.955  26.334  1.00  0.00     0.026 A 
ATOM      9  C   UNL A   1      38.036  21.624  25.733  1.00  0.00     0.041 A 
ATOM     10  C   UNL A   1      39.471  23.789  26.772  1.00  0.00     0.003 A 
ATOM     11  C   UNL A   1      40.069  22.535  26.697  1.00  0.00     0.016 A 
BRANCH   7  12
ATOM     12  N   UNL A   1      36.084  23.104  25.448  1.00  0.00    -0.361 N 
ATOM     13  H   UNL A   1      35.627  22.354  25.004  1.00  0.00     0.166 HD
BRANCH  12  14
ATOM     14  C   UNL A   1      35.332  24.237  25.639  1.00  0.00     0.102 C 
ATOM     15  N   UNL A   1      32.554  26.170  24.636  1.00  0.00    -0.282 N 
ATOM     16  C   UNL A   1      33.835  26.082  25.179  1.00  0.00     0.267 C 
ATOM     17  C   UNL A   1      32.415  25.866  23.281  1.00  0.00     0.183 C 
ATOM     18  O   UNL A   1      34.380  26.912  25.899  1.00  0.00    -0.268 OA
ATOM     19  C   UNL A   1      34.593  24.901  24.736  1.00  0.00     0.121 C 
ATOM     20  N   UNL A   1      33.413  25.096  22.714  1.00  0.00    -0.298 N 
ATOM     21  S   UNL A   1      31.229  26.310  22.187  1.00  0.00    -0.040 S 
ATOM     22  C   UNL A   1      34.450  24.473  23.348  1.00  0.00     0.264 C 
ATOM     23  H   UNL A   1      33.372  24.984  21.737  1.00  0.00     0.172 HD
ATOM     24  O   UNL A   1      35.158  23.631  22.809  1.00  0.00    -0.269 OA
BRANCH  15  25
ATOM     25  C   UNL A   1      31.418  26.343  25.634  1.00  0.00     0.090 C 
ATOM     26  C   UNL A   1      30.086  25.662  25.296  1.00  0.00     0.031 C 
BRANCH  25  27
ATOM     27  C   UNL A   1      31.154  27.808  26.089  1.00  0.00     0.022 C 
ATOM     28  C   UNL A   1      31.463  28.076  27.556  1.00  0.00     0.006 C 
ENDBRANCH  25  27
ENDBRANCH  15  25
ENDBRANCH  12  14
ENDBRANCH   7  12
ENDBRANCH   4   6
ENDBRANCH   3   4
ENDBRANCH   2   3
ENDBRANCH   1   2
BRANCH   1  29
ATOM     29  O   UNL A   1      44.087  20.274  24.667  1.00  0.00    -0.374 OA
BRANCH  29  30
ATOM     30  C   UNL A   1      45.330  20.659  25.256  1.00  0.00     0.202 C 
BRANCH  30  31
ATOM     31  C   UNL A   1      45.749  22.127  25.108  1.00  0.00     0.261 C 
BRANCH  31  32
ATOM     32  O   UNL A   1      44.891  23.018  25.840  1.00  0.00    -0.460 OA
BRANCH  32  33
ATOM     33  C   UNL A   1      44.851  24.287  25.370  1.00  0.00     0.338 C 
ATOM     34  O   UNL A   1      45.325  24.701  24.320  1.00  0.00    -0.246 OA
BRANCH  33  35
ATOM     35  C   UNL A   1      43.976  25.107  26.227  1.00  0.00     0.060 A 
ATOM     36  C   UNL A   1      44.005  26.497  26.053  1.00  0.00     0.016 A 
ATOM     37  C   UNL A   1      43.190  24.532  27.227  1.00  0.00     0.016 A 
ATOM     38  C   UNL A   1      43.285  27.325  26.913  1.00  0.00     0.010 A 
ATOM     39  C   UNL A   1      42.475  25.364  28.093  1.00  0.00     0.010 A 
ATOM     40  C   UNL A   1      42.549  26.764  27.963  1.00  0.00    -0.014 A 
BRANCH  40  41
ATOM     41  C   UNL A   1      41.992  27.631  29.030  1.00  0.00     0.031 A 
ATOM     42  C   UNL A   1      42.755  27.763  30.322  1.00  0.00     0.074 A 
ATOM     43  C   UNL A   1      40.820  28.271  28.865  1.00  0.00     0.049 A 
ATOM     44  N   UNL A   1      42.422  28.382  31.423  1.00  0.00    -0.248 NA
ATOM     45  C   UNL A   1      44.069  27.097  30.382  1.00  0.00     0.031 C 
ATOM     46  C   UNL A   1      39.996  28.239  27.656  1.00  0.00     0.029 A 
ATOM     47  N   UNL A   1      40.105  29.055  29.737  1.00  0.00    -0.354 N 
ATOM     48  C   UNL A   1      43.456  28.144  32.321  1.00  0.00     0.074 A 
ATOM     49  C   UNL A   1      44.430  27.321  31.637  1.00  0.00     0.031 C 
ATOM     50  C   UNL A   1      38.876  28.952  27.872  1.00  0.00     0.029 A 
ATOM     51  C   UNL A   1      38.890  29.465  29.240  1.00  0.00     0.049 A 
ATOM     52  H   UNL A   1      40.432  29.302  30.632  1.00  0.00     0.167 HD
ATOM     53  C   UNL A   1      43.588  28.577  33.597  1.00  0.00     0.034 A 
ATOM     54  C   UNL A   1      37.895  30.151  29.834  1.00  0.00     0.034 A 
ATOM     55  C   UNL A   1      42.630  29.417  34.262  1.00  0.00     0.049 A 
ATOM     56  C   UNL A   1      38.053  30.596  31.262  1.00  0.00     0.074 A 
ATOM     57  C   UNL A   1      42.694  29.954  35.535  1.00  0.00     0.029 A 
ATOM     58  N   UNL A   1      41.427  29.833  33.713  1.00  0.00    -0.354 N 
ATOM     59  N   UNL A   1      39.073  30.432  32.068  1.00  0.00    -0.248 NA
ATOM     60  C   UNL A   1      36.932  31.343  31.850  1.00  0.00     0.031 C 
ATOM     61  C   UNL A   1      41.513  30.663  35.771  1.00  0.00     0.029 A 
ATOM     62  C   UNL A   1      40.733  30.606  34.626  1.00  0.00     0.049 A 
ATOM     63  H   UNL A   1      41.113  29.610  32.806  1.00  0.00     0.167 HD
ATOM     64  C   UNL A   1      38.735  31.090  33.245  1.00  0.00     0.074 A 
ATOM     65  C   UNL A   1      37.419  31.661  33.042  1.00  0.00     0.031 C 
ATOM     66  C   UNL A   1      39.447  31.209  34.392  1.00  0.00     0.034 A 
BRANCH  53  67
ATOM     67  C   UNL A   1      44.818  28.160  34.362  1.00  0.00     0.023 A 
ATOM     68  C   UNL A   1      45.991  28.939  34.290  1.00  0.00     0.012 A 
ATOM     69  C   UNL A   1      44.789  27.030  35.203  1.00  0.00     0.148 A 
ATOM     70  C   UNL A   1      47.126  28.581  35.018  1.00  0.00     0.002 A 
ATOM     71  C   UNL A   1      45.908  26.706  35.961  1.00  0.00     0.091 A 
ATOM     72  F   UNL A   1      43.672  26.289  35.241  1.00  0.00    -0.205 F 
ATOM     73  C   UNL A   1      47.081  27.474  35.861  1.00  0.00     0.022 A 
BRANCH  71  74
ATOM     74  S   UNL A   1      45.922  25.349  37.137  1.00  0.00     0.127 S 
ATOM     75  O   UNL A   1      47.094  25.677  37.949  1.00  0.00    -0.237 OA
ATOM     76  O   UNL A   1      44.640  25.521  37.821  1.00  0.00    -0.237 OA
ATOM     77  O   UNL A   1      46.032  24.131  36.347  1.00  0.00    -0.744 OA
ENDBRANCH  71  74
ENDBRANCH  53  67
BRANCH  54  78
ATOM     78  C   UNL A   1      36.650  30.480  29.087  1.00  0.00     0.023 A 
ATOM     79  C   UNL A   1      35.897  29.448  28.496  1.00  0.00     0.012 A 
ATOM     80  C   UNL A   1      36.226  31.812  28.945  1.00  0.00     0.148 A 
ATOM     81  C   UNL A   1      34.745  29.745  27.764  1.00  0.00     0.002 A 
ATOM     82  C   UNL A   1      35.044  32.095  28.273  1.00  0.00     0.091 A 
ATOM     83  F   UNL A   1      36.994  32.772  29.475  1.00  0.00    -0.205 F 
ATOM     84  C   UNL A   1      34.313  31.065  27.662  1.00  0.00     0.022 A 
BRANCH  82  85
ATOM     85  S   UNL A   1      34.365  33.755  28.184  1.00  0.00     0.127 S 
ATOM     86  O   UNL A   1      35.276  34.413  27.249  1.00  0.00    -0.237 OA
ATOM     87  O   UNL A   1      33.028  33.491  27.659  1.00  0.00    -0.237 OA
ATOM     88  O   UNL A   1      34.413  34.272  29.545  1.00  0.00    -0.744 OA
ENDBRANCH  82  85
ENDBRANCH  54  78
BRANCH  66  89
ATOM     89  C   UNL A   1      38.855  32.034  35.503  1.00  0.00     0.023 A 
ATOM     90  C   UNL A   1      38.749  33.432  35.369  1.00  0.00     0.012 A 
ATOM     91  C   UNL A   1      38.330  31.404  36.648  1.00  0.00     0.148 A 
ATOM     92  C   UNL A   1      38.150  34.193  36.372  1.00  0.00     0.002 A 
ATOM     93  C   UNL A   1      37.687  32.162  37.617  1.00  0.00     0.091 A 
ATOM     94  F   UNL A   1      38.461  30.074  36.763  1.00  0.00    -0.205 F 
ATOM     95  C   UNL A   1      37.608  33.558  37.488  1.00  0.00     0.022 A 
BRANCH  93  96
ATOM     96  S   UNL A   1      36.872  31.421  39.036  1.00  0.00     0.127 S 
ATOM     97  O   UNL A   1      36.630  30.060  38.563  1.00  0.00    -0.237 OA
ATOM     98  O   UNL A   1      37.898  31.533  40.074  1.00  0.00    -0.237 OA
ATOM     99  O   UNL A   1      35.677  32.219  39.277  1.00  0.00    -0.744 OA
ENDBRANCH  93  96
ENDBRANCH  66  89
ENDBRANCH  40  41
ENDBRANCH  33  35
ENDBRANCH  32  33
ENDBRANCH  31  32
ENDBRANCH  30  31
ENDBRANCH  29  30
ENDBRANCH   1  29
TORSDOF 21
ENDMDL
MODEL 2
REMARK VINA RESULT:     -11.0      1.992      2.338
REMARK SMILES CC[C@@H](C)N1C(=O)/C(=C/Nc2cccc(C(=O)OCCOCCOC(=O)c3ccc(-c4c5nc(c(-c6cccc(S(=O)(=O)[O-])c6F)c6ccc([nH]6)c(-c6cccc(S(=O)(=O)[O-])c6F)c6nc(c(-c7cccc(S(=O)(=O)[O-])c7F)c7ccc4[nH]7)C=C6)C=C5)cc3)c2)C(=O)NC1=S
REMARK SMILES IDX 20 1 19 2 18 3 16 4 17 5 15 6 11 7 12 8 90 9 13 10 14 11
REMARK SMILES IDX 10 12 9 14 5 15 6 16 94 17 7 18 8 19 93 20 95 21 91 22 92 24
REMARK SMILES IDX 3 25 4 26 2 27 1 28 21 29 22 30 23 31 24 32 25 33 26 34
REMARK SMILES IDX 27 35 28 36 89 37 29 38 88 39 30 40 31 41 32 42 82 43 33 44
REMARK SMILES IDX 87 45 81 46 83 47 34 48 86 49 80 50 79 51 35 53 67 54 47 55
REMARK SMILES IDX 66 56 48 57 51 58 65 59 84 60 49 61 50 62 64 64 85 65 52 66
REMARK SMILES IDX 36 67 37 68 45 69 38 70 40 71 46 72 39 73 41 74 42 75 43 76
REMARK SMILES IDX 44 77 68 78 69 79 77 80 70 81 72 82 78 83 71 84 73 85 74 86
REMARK SMILES IDX 75 87 76 88 53 89 54 90 62 91 55 92 57 93 63 94 56 95 58 96
REMARK SMILES IDX 59 97 60 98 61 99
REMARK H PARENT 10 13 93 23 83 52 51 63
REMARK Flexibility Score: inf
ROOT
ATOM      1  C   UNL A   1      42.369  19.705  25.772  1.00  0.00     0.202 C 
ENDROOT
BRANCH   1   2
ATOM      2  C   UNL A   1      41.658  20.978  26.244  1.00  0.00     0.261 C 
BRANCH   2   3
ATOM      3  O   UNL A   1      40.342  20.693  26.745  1.00  0.00    -0.460 OA
BRANCH   3   4
ATOM      4  C   UNL A   1      39.418  20.377  25.804  1.00  0.00     0.338 C 
ATOM      5  O   UNL A   1      39.231  19.280  25.299  1.00  0.00    -0.246 OA
BRANCH   4   6
ATOM      6  C   UNL A   1      38.496  21.519  25.605  1.00  0.00     0.062 A 
ATOM      7  C   UNL A   1      36.663  22.632  24.459  1.00  0.00     0.039 A 
ATOM      8  C   UNL A   1      36.899  23.767  25.251  1.00  0.00     0.026 A 
ATOM      9  C   UNL A   1      37.475  21.505  24.647  1.00  0.00     0.041 A 
ATOM     10  C   UNL A   1      37.916  23.787  26.206  1.00  0.00     0.003 A 
ATOM     11  C   UNL A   1      38.712  22.660  26.387  1.00  0.00     0.016 A 
BRANCH   7  12
ATOM     12  N   UNL A   1      35.582  22.658  23.565  1.00  0.00    -0.361 N 
ATOM     13  H   UNL A   1      35.379  21.810  23.110  1.00  0.00     0.166 HD
BRANCH  12  14
ATOM     14  C   UNL A   1      34.771  23.720  23.246  1.00  0.00     0.102 C 
ATOM     15  N   UNL A   1      32.075  25.794  24.185  1.00  0.00    -0.282 N 
ATOM     16  C   UNL A   1      32.842  25.178  23.197  1.00  0.00     0.267 C 
ATOM     17  C   UNL A   1      31.289  24.967  24.989  1.00  0.00     0.183 C 
ATOM     18  O   UNL A   1      32.935  25.525  22.024  1.00  0.00    -0.268 OA
ATOM     19  C   UNL A   1      33.508  23.943  23.639  1.00  0.00     0.121 C 
ATOM     20  N   UNL A   1      31.656  23.637  25.053  1.00  0.00    -0.298 N 
ATOM     21  S   UNL A   1      29.923  25.314  25.891  1.00  0.00    -0.040 S 
ATOM     22  C   UNL A   1      32.780  23.054  24.540  1.00  0.00     0.264 C 
ATOM     23  H   UNL A   1      31.034  23.037  25.524  1.00  0.00     0.172 HD
ATOM     24  O   UNL A   1      33.142  21.920  24.831  1.00  0.00    -0.269 OA
BRANCH  15  25
ATOM     25  C   UNL A   1      32.371  27.266  24.436  1.00  0.00     0.090 C 
ATOM     26  C   UNL A   1      33.798  27.623  24.872  1.00  0.00     0.031 C 
BRANCH  25  27
ATOM     27  C   UNL A   1      31.347  28.001  25.349  1.00  0.00     0.022 C 
ATOM     28  C   UNL A   1      31.729  28.034  26.822  1.00  0.00     0.006 C 
ENDBRANCH  25  27
ENDBRANCH  15  25
ENDBRANCH  12  14
ENDBRANCH   7  12
ENDBRANCH   4   6
ENDBRANCH   3   4
ENDBRANCH   2   3
ENDBRANCH   1   2
BRANCH   1  29
ATOM     29  O   UNL A   1      43.498  19.880  24.915  1.00  0.00    -0.374 OA
BRANCH  29  30
ATOM     30  C   UNL A   1      44.756  20.136  25.543  1.00  0.00     0.202 C 
BRANCH  30  31
ATOM     31  C   UNL A   1      45.385  21.516  25.311  1.00  0.00     0.261 C 
BRANCH  31  32
ATOM     32  O   UNL A   1      44.749  22.544  26.089  1.00  0.00    -0.460 OA
BRANCH  32  33
ATOM     33  C   UNL A   1      44.532  23.707  25.429  1.00  0.00     0.338 C 
ATOM     34  O   UNL A   1      44.811  23.958  24.264  1.00  0.00    -0.246 OA
BRANCH  33  35
ATOM     35  C   UNL A   1      43.724  24.610  26.268  1.00  0.00     0.060 A 
ATOM     36  C   UNL A   1      43.910  25.990  26.112  1.00  0.00     0.016 A 
ATOM     37  C   UNL A   1      42.848  24.116  27.235  1.00  0.00     0.016 A 
ATOM     38  C   UNL A   1      43.257  26.884  26.958  1.00  0.00     0.010 A 
ATOM     39  C   UNL A   1      42.199  25.014  28.088  1.00  0.00     0.010 A 
ATOM     40  C   UNL A   1      42.430  26.398  27.978  1.00  0.00    -0.014 A 
BRANCH  40  41
ATOM     41  C   UNL A   1      41.935  27.312  29.037  1.00  0.00     0.031 A 
ATOM     42  C   UNL A   1      42.729  27.431  30.312  1.00  0.00     0.074 A 
ATOM     43  C   UNL A   1      40.793  28.006  28.880  1.00  0.00     0.049 A 
ATOM     44  N   UNL A   1      42.446  28.087  31.406  1.00  0.00    -0.248 NA
ATOM     45  C   UNL A   1      44.009  26.703  30.362  1.00  0.00     0.031 C 
ATOM     46  C   UNL A   1      39.947  27.991  27.687  1.00  0.00     0.029 A 
ATOM     47  N   UNL A   1      40.134  28.840  29.748  1.00  0.00    -0.354 N 
ATOM     48  C   UNL A   1      43.485  27.816  32.290  1.00  0.00     0.074 A 
ATOM     49  C   UNL A   1      44.404  26.933  31.606  1.00  0.00     0.031 C 
ATOM     50  C   UNL A   1      38.866  28.762  27.908  1.00  0.00     0.029 A 
ATOM     51  C   UNL A   1      38.931  29.299  29.265  1.00  0.00     0.049 A 
ATOM     52  H   UNL A   1      40.490  29.087  30.632  1.00  0.00     0.167 HD
ATOM     53  C   UNL A   1      43.662  28.266  33.555  1.00  0.00     0.034 A 
ATOM     54  C   UNL A   1      37.982  30.045  29.863  1.00  0.00     0.034 A 
ATOM     55  C   UNL A   1      42.758  29.165  34.220  1.00  0.00     0.049 A 
ATOM     56  C   UNL A   1      38.189  30.508  31.278  1.00  0.00     0.074 A 
ATOM     57  C   UNL A   1      42.873  29.722  35.480  1.00  0.00     0.029 A 
ATOM     58  N   UNL A   1      41.566  29.628  33.684  1.00  0.00    -0.354 N 
ATOM     59  N   UNL A   1      39.215  30.310  32.070  1.00  0.00    -0.248 NA
ATOM     60  C   UNL A   1      37.116  31.321  31.872  1.00  0.00     0.031 C 
ATOM     61  C   UNL A   1      41.732  30.493  35.723  1.00  0.00     0.029 A 
ATOM     62  C   UNL A   1      40.929  30.452  34.593  1.00  0.00     0.049 A 
ATOM     63  H   UNL A   1      41.225  29.403  32.788  1.00  0.00     0.167 HD
ATOM     64  C   UNL A   1      38.931  31.007  33.239  1.00  0.00     0.074 A 
ATOM     65  C   UNL A   1      37.640  31.637  33.048  1.00  0.00     0.031 C 
ATOM     66  C   UNL A   1      39.669  31.112  34.370  1.00  0.00     0.034 A 
BRANCH  53  67
ATOM     67  C   UNL A   1      44.884  27.803  34.305  1.00  0.00     0.023 A 
ATOM     68  C   UNL A   1      44.832  26.630  35.083  1.00  0.00     0.012 A 
ATOM     69  C   UNL A   1      46.103  28.499  34.186  1.00  0.00     0.148 A 
ATOM     70  C   UNL A   1      45.965  26.173  35.757  1.00  0.00     0.002 A 
ATOM     71  C   UNL A   1      47.240  28.014  34.821  1.00  0.00     0.091 A 
ATOM     72  F   UNL A   1      46.128  29.626  33.459  1.00  0.00    -0.205 F 
ATOM     73  C   UNL A   1      47.170  26.858  35.617  1.00  0.00     0.022 A 
BRANCH  71  74
ATOM     74  S   UNL A   1      48.855  28.777  34.636  1.00  0.00     0.127 S 
ATOM     75  O   UNL A   1      49.069  28.664  33.193  1.00  0.00    -0.237 OA
ATOM     76  O   UNL A   1      48.609  30.138  35.111  1.00  0.00    -0.237 OA
ATOM     77  O   UNL A   1      49.766  27.998  35.463  1.00  0.00    -0.744 OA
ENDBRANCH  71  74
ENDBRANCH  53  67
BRANCH  54  78
ATOM     78  C   UNL A   1      36.741  30.420  29.132  1.00  0.00     0.023 A 
ATOM     79  C   UNL A   1      35.944  29.418  28.549  1.00  0.00     0.012 A 
ATOM     80  C   UNL A   1      36.363  31.767  28.998  1.00  0.00     0.148 A 
ATOM     81  C   UNL A   1      34.795  29.757  27.831  1.00  0.00     0.002 A 
ATOM     82  C   UNL A   1      35.184  32.094  28.340  1.00  0.00     0.091 A 
ATOM     83  F   UNL A   1      37.172  32.698  29.520  1.00  0.00    -0.205 F 
ATOM     84  C   UNL A   1      34.409  31.092  27.737  1.00  0.00     0.022 A 
BRANCH  82  85
ATOM     85  S   UNL A   1      34.565  33.777  28.263  1.00  0.00     0.127 S 
ATOM     86  O   UNL A   1      35.424  34.378  27.244  1.00  0.00    -0.237 OA
ATOM     87  O   UNL A   1      33.181  33.555  27.850  1.00  0.00    -0.237 OA
ATOM     88  O   UNL A   1      34.739  34.322  29.603  1.00  0.00    -0.744 OA
ENDBRANCH  82  85
ENDBRANCH  54  78
BRANCH  66  89
ATOM     89  C   UNL A   1      39.140  31.986  35.475  1.00  0.00     0.023 A 
ATOM     90  C   UNL A   1      38.202  31.478  36.395  1.00  0.00     0.012 A 
ATOM     91  C   UNL A   1      39.641  33.292  35.644  1.00  0.00     0.148 A 
ATOM     92  C   UNL A   1      37.752  32.267  37.452  1.00  0.00     0.002 A 
ATOM     93  C   UNL A   1      39.229  34.052  36.730  1.00  0.00     0.091 A 
ATOM     94  F   UNL A   1      40.517  33.762  34.745  1.00  0.00    -0.205 F 
ATOM     95  C   UNL A   1      38.274  33.547  37.628  1.00  0.00     0.022 A 
BRANCH  93  96
ATOM     96  S   UNL A   1      39.921  35.669  37.093  1.00  0.00     0.127 S 
ATOM     97  O   UNL A   1      39.576  36.419  35.887  1.00  0.00    -0.237 OA
ATOM     98  O   UNL A   1      39.176  36.062  38.290  1.00  0.00    -0.237 OA
ATOM     99  O   UNL A   1      41.346  35.459  37.308  1.00  0.00    -0.744 OA
ENDBRANCH  93  96
ENDBRANCH  66  89
ENDBRANCH  40  41
ENDBRANCH  33  35
ENDBRANCH  32  33
ENDBRANCH  31  32
ENDBRANCH  30  31
ENDBRANCH  29  30
ENDBRANCH   1  29
TORSDOF 21
ENDMDL
MODEL 3
REMARK VINA RESULT:     -10.9      4.779      7.587
REMARK SMILES CC[C@@H](C)N1C(=O)/C(=C/Nc2cccc(C(=O)OCCOCCOC(=O)c3ccc(-c4c5nc(c(-c6cccc(S(=O)(=O)[O-])c6F)c6ccc([nH]6)c(-c6cccc(S(=O)(=O)[O-])c6F)c6nc(c(-c7cccc(S(=O)(=O)[O-])c7F)c7ccc4[nH]7)C=C6)C=C5)cc3)c2)C(=O)NC1=S
REMARK SMILES IDX 20 1 19 2 18 3 16 4 17 5 15 6 11 7 12 8 90 9 13 10 14 11
REMARK SMILES IDX 10 12 9 14 5 15 6 16 94 17 7 18 8 19 93 20 95 21 91 22 92 24
REMARK SMILES IDX 3 25 4 26 2 27 1 28 21 29 22 30 23 31 24 32 25 33 26 34
REMARK SMILES IDX 27 35 28 36 89 37 29 38 88 39 30 40 31 41 32 42 82 43 33 44
REMARK SMILES IDX 87 45 81 46 83 47 34 48 86 49 80 50 79 51 35 53 67 54 47 55
REMARK SMILES IDX 66 56 48 57 51 58 65 59 84 60 49 61 50 62 64 64 85 65 52 66
REMARK SMILES IDX 36 67 37 68 45 69 38 70 40 71 46 72 39 73 41 74 42 75 43 76
REMARK SMILES IDX 44 77 68 78 69 79 77 80 70 81 72 82 78 83 71 84 73 85 74 86
REMARK SMILES IDX 75 87 76 88 53 89 54 90 62 91 55 92 57 93 63 94 56 95 58 96
REMARK SMILES IDX 59 97 60 98 61 99
REMARK H PARENT 10 13 93 23 83 52 51 63
REMARK Flexibility Score: inf
ROOT
ATOM      1  C   UNL A   1      35.943  21.246  24.389  1.00  0.00     0.202 C 
ENDROOT
BRANCH   1   2
ATOM      2  C   UNL A   1      35.205  20.406  25.437  1.00  0.00     0.261 C 
BRANCH   2   3
ATOM      3  O   UNL A   1      34.522  19.294  24.839  1.00  0.00    -0.460 OA
BRANCH   3   4
ATOM      4  C   UNL A   1      33.175  19.289  24.992  1.00  0.00     0.338 C 
ATOM      5  O   UNL A   1      32.520  18.543  25.706  1.00  0.00    -0.246 OA
BRANCH   4   6
ATOM      6  C   UNL A   1      32.591  20.473  24.322  1.00  0.00     0.062 A 
ATOM      7  C   UNL A   1      31.525  22.659  24.355  1.00  0.00     0.039 A 
ATOM      8  C   UNL A   1      31.415  22.591  22.958  1.00  0.00     0.026 A 
ATOM      9  C   UNL A   1      32.121  21.585  25.032  1.00  0.00     0.041 A 
ATOM     10  C   UNL A   1      31.881  21.485  22.246  1.00  0.00     0.003 A 
ATOM     11  C   UNL A   1      32.475  20.427  22.928  1.00  0.00     0.016 A 
BRANCH   7  12
ATOM     12  N   UNL A   1      31.096  23.828  25.000  1.00  0.00    -0.361 N 
ATOM     13  H   UNL A   1      30.234  23.769  25.472  1.00  0.00     0.166 HD
BRANCH  12  14
ATOM     14  C   UNL A   1      31.727  25.046  25.055  1.00  0.00     0.102 C 
ATOM     15  N   UNL A   1      31.448  28.557  24.830  1.00  0.00    -0.282 N 
ATOM     16  C   UNL A   1      32.194  27.390  24.676  1.00  0.00     0.267 C 
ATOM     17  C   UNL A   1      30.373  28.746  23.959  1.00  0.00     0.183 C 
ATOM     18  O   UNL A   1      33.417  27.305  24.646  1.00  0.00    -0.268 OA
ATOM     19  C   UNL A   1      31.381  26.187  24.439  1.00  0.00     0.121 C 
ATOM     20  N   UNL A   1      29.869  27.615  23.346  1.00  0.00    -0.298 N 
ATOM     21  S   UNL A   1      29.588  30.149  23.495  1.00  0.00    -0.040 S 
ATOM     22  C   UNL A   1      30.197  26.313  23.594  1.00  0.00     0.264 C 
ATOM     23  H   UNL A   1      29.193  27.766  22.647  1.00  0.00     0.172 HD
ATOM     24  O   UNL A   1      29.548  25.363  23.170  1.00  0.00    -0.269 OA
BRANCH  15  25
ATOM     25  C   UNL A   1      31.734  29.370  26.085  1.00  0.00     0.090 C 
ATOM     26  C   UNL A   1      32.636  30.600  25.925  1.00  0.00     0.031 C 
BRANCH  25  27
ATOM     27  C   UNL A   1      32.196  28.541  27.319  1.00  0.00     0.022 C 
ATOM     28  C   UNL A   1      33.641  28.782  27.733  1.00  0.00     0.006 C 
ENDBRANCH  25  27
ENDBRANCH  15  25
ENDBRANCH  12  14
ENDBRANCH   7  12
ENDBRANCH   4   6
ENDBRANCH   3   4
ENDBRANCH   2   3
ENDBRANCH   1   2
BRANCH   1  29
ATOM     29  O   UNL A   1      37.345  21.432  24.586  1.00  0.00    -0.374 OA
BRANCH  29  30
ATOM     30  C   UNL A   1      38.124  20.265  24.854  1.00  0.00     0.202 C 
BRANCH  30  31
ATOM     31  C   UNL A   1      39.002  20.285  26.112  1.00  0.00     0.261 C 
BRANCH  31  32
ATOM     32  O   UNL A   1      40.390  20.060  25.813  1.00  0.00    -0.460 OA
BRANCH  32  33
ATOM     33  C   UNL A   1      41.232  20.219  26.861  1.00  0.00     0.338 C 
ATOM     34  O   UNL A   1      41.971  19.374  27.350  1.00  0.00    -0.246 OA
BRANCH  33  35
ATOM     35  C   UNL A   1      41.286  21.642  27.244  1.00  0.00     0.060 A 
ATOM     36  C   UNL A   1      40.821  22.587  26.319  1.00  0.00     0.016 A 
ATOM     37  C   UNL A   1      41.842  22.049  28.457  1.00  0.00     0.016 A 
ATOM     38  C   UNL A   1      40.955  23.949  26.583  1.00  0.00     0.010 A 
ATOM     39  C   UNL A   1      41.982  23.415  28.717  1.00  0.00     0.010 A 
ATOM     40  C   UNL A   1      41.574  24.369  27.766  1.00  0.00    -0.014 A 
BRANCH  40  41
ATOM     41  C   UNL A   1      41.953  25.793  27.944  1.00  0.00     0.031 A 
ATOM     42  C   UNL A   1      43.314  26.239  27.477  1.00  0.00     0.074 A 
ATOM     43  C   UNL A   1      41.115  26.668  28.529  1.00  0.00     0.049 A 
ATOM     44  N   UNL A   1      43.898  27.400  27.612  1.00  0.00    -0.248 NA
ATOM     45  C   UNL A   1      44.130  25.235  26.771  1.00  0.00     0.031 C 
ATOM     46  C   UNL A   1      39.766  26.364  29.006  1.00  0.00     0.029 A 
ATOM     47  N   UNL A   1      41.292  27.992  28.846  1.00  0.00    -0.354 N 
ATOM     48  C   UNL A   1      45.162  27.256  27.052  1.00  0.00     0.074 A 
ATOM     49  C   UNL A   1      45.264  25.894  26.577  1.00  0.00     0.031 C 
ATOM     50  C   UNL A   1      39.246  27.466  29.578  1.00  0.00     0.029 A 
ATOM     51  C   UNL A   1      40.234  28.541  29.533  1.00  0.00     0.049 A 
ATOM     52  H   UNL A   1      42.100  28.500  28.604  1.00  0.00     0.167 HD
ATOM     53  C   UNL A   1      46.149  28.177  26.938  1.00  0.00     0.034 A 
ATOM     54  C   UNL A   1      40.095  29.762  30.084  1.00  0.00     0.034 A 
ATOM     55  C   UNL A   1      46.032  29.538  27.388  1.00  0.00     0.049 A 
ATOM     56  C   UNL A   1      41.216  30.757  29.968  1.00  0.00     0.074 A 
ATOM     57  C   UNL A   1      46.953  30.563  27.271  1.00  0.00     0.029 A 
ATOM     58  N   UNL A   1      44.933  30.059  28.052  1.00  0.00    -0.354 N 
ATOM     59  N   UNL A   1      42.373  30.630  29.364  1.00  0.00    -0.248 NA
ATOM     60  C   UNL A   1      41.000  32.072  30.588  1.00  0.00     0.031 C 
ATOM     61  C   UNL A   1      46.426  31.696  27.898  1.00  0.00     0.029 A 
ATOM     62  C   UNL A   1      45.158  31.387  28.364  1.00  0.00     0.049 A 
ATOM     63  H   UNL A   1      44.113  29.558  28.268  1.00  0.00     0.167 HD
ATOM     64  C   UNL A   1      43.005  31.861  29.495  1.00  0.00     0.074 A 
ATOM     65  C   UNL A   1      42.100  32.721  30.230  1.00  0.00     0.031 C 
ATOM     66  C   UNL A   1      44.227  32.244  29.052  1.00  0.00     0.034 A 
BRANCH  53  67
ATOM     67  C   UNL A   1      47.442  27.751  26.291  1.00  0.00     0.023 A 
ATOM     68  C   UNL A   1      48.480  27.212  27.078  1.00  0.00     0.012 A 
ATOM     69  C   UNL A   1      47.602  27.826  24.894  1.00  0.00     0.148 A 
ATOM     70  C   UNL A   1      49.669  26.784  26.488  1.00  0.00     0.002 A 
ATOM     71  C   UNL A   1      48.771  27.354  24.307  1.00  0.00     0.091 A 
ATOM     72  F   UNL A   1      46.613  28.362  24.164  1.00  0.00    -0.205 F 
ATOM     73  C   UNL A   1      49.810  26.844  25.104  1.00  0.00     0.022 A 
BRANCH  71  74
ATOM     74  S   UNL A   1      49.014  27.312  22.529  1.00  0.00     0.127 S 
ATOM     75  O   UNL A   1      50.471  27.398  22.429  1.00  0.00    -0.237 OA
ATOM     76  O   UNL A   1      48.454  26.009  22.172  1.00  0.00    -0.237 OA
ATOM     77  O   UNL A   1      48.285  28.454  21.995  1.00  0.00    -0.744 OA
ENDBRANCH  71  74
ENDBRANCH  53  67
BRANCH  54  78
ATOM     78  C   UNL A   1      38.841  30.134  30.793  1.00  0.00     0.023 A 
ATOM     79  C   UNL A   1      38.614  29.669  32.102  1.00  0.00     0.012 A 
ATOM     80  C   UNL A   1      37.868  30.930  30.165  1.00  0.00     0.148 A 
ATOM     81  C   UNL A   1      37.427  29.983  32.767  1.00  0.00     0.002 A 
ATOM     82  C   UNL A   1      36.719  31.294  30.856  1.00  0.00     0.091 A 
ATOM     83  F   UNL A   1      38.092  31.312  28.902  1.00  0.00    -0.205 F 
ATOM     84  C   UNL A   1      36.486  30.804  32.150  1.00  0.00     0.022 A 
BRANCH  82  85
ATOM     85  S   UNL A   1      35.508  32.429  30.171  1.00  0.00     0.127 S 
ATOM     86  O   UNL A   1      34.414  32.336  31.137  1.00  0.00    -0.237 OA
ATOM     87  O   UNL A   1      36.248  33.688  30.198  1.00  0.00    -0.237 OA
ATOM     88  O   UNL A   1      35.193  31.915  28.845  1.00  0.00    -0.744 OA
ENDBRANCH  82  85
ENDBRANCH  54  78
BRANCH  66  89
ATOM     89  C   UNL A   1      44.643  33.671  29.288  1.00  0.00     0.023 A 
ATOM     90  C   UNL A   1      45.422  34.006  30.414  1.00  0.00     0.012 A 
ATOM     91  C   UNL A   1      44.327  34.666  28.342  1.00  0.00     0.148 A 
ATOM     92  C   UNL A   1      45.856  35.316  30.606  1.00  0.00     0.002 A 
ATOM     93  C   UNL A   1      44.809  35.956  28.513  1.00  0.00     0.091 A 
ATOM     94  F   UNL A   1      43.568  34.328  27.290  1.00  0.00    -0.205 F 
ATOM     95  C   UNL A   1      45.562  36.287  29.651  1.00  0.00     0.022 A 
BRANCH  93  96
ATOM     96  S   UNL A   1      44.566  37.246  27.286  1.00  0.00     0.127 S 
ATOM     97  O   UNL A   1      44.662  38.455  28.101  1.00  0.00    -0.237 OA
ATOM     98  O   UNL A   1      45.695  37.027  26.382  1.00  0.00    -0.237 OA
ATOM     99  O   UNL A   1      43.258  36.997  26.693  1.00  0.00    -0.744 OA
ENDBRANCH  93  96
ENDBRANCH  66  89
ENDBRANCH  40  41
ENDBRANCH  33  35
ENDBRANCH  32  33
ENDBRANCH  31  32
ENDBRANCH  30  31
ENDBRANCH  29  30
ENDBRANCH   1  29
TORSDOF 21
ENDMDL
