MODEL 1
REMARK VINA RESULT:     -11.9      0.000      0.000
REMARK SMILES C[NH+]1CCC(NC(=O)N[C@H]2C=C[C@H](C(=O)OCCOCCOC(=O)c3ccc(-c4c5nc(c(-c6cccc(S(=O)(=O)[O-])c6F)c6ccc([nH]6)c(-c6cccc(S(=O)(=O)[O-])c6F)c6nc(c(-c7cccc(S(=O)(=O)[O-])c7F)c7ccc4[nH]7)C=C6)C=C5)cc3)C2)CC1
REMARK SMILES IDX 20 1 19 2 18 3 17 4 16 5 14 6 15 7 13 8 10 9 11 10 88 11
REMARK SMILES IDX 12 12 9 13 6 14 7 15 8 17 5 19 1 20 2 21 3 22 90 23 4 25
REMARK SMILES IDX 89 26 21 27 22 28 23 29 24 30 25 31 26 32 87 33 27 34 86 35
REMARK SMILES IDX 28 36 29 37 30 38 80 39 31 40 85 41 79 42 81 43 32 44 84 45
REMARK SMILES IDX 78 46 77 47 33 49 65 50 45 51 64 52 46 53 49 54 63 55 82 56
REMARK SMILES IDX 47 57 48 58 62 60 83 61 50 62 34 63 35 64 43 65 36 66 38 67
REMARK SMILES IDX 44 68 37 69 39 70 40 71 41 72 42 73 66 74 67 75 75 76 68 77
REMARK SMILES IDX 70 78 76 79 69 80 71 81 72 82 73 83 74 84 51 85 52 86 60 87
REMARK SMILES IDX 53 88 55 89 61 90 54 91 56 92 57 93 58 94 59 95
REMARK H PARENT 6 16 9 18 2 24 81 48 49 59
REMARK Flexibility Score: inf
ROOT
ATOM      1  C   UNL A   1      35.753  20.053  24.957  1.00  0.00     0.202 C 
ENDROOT
BRANCH   1   2
ATOM      2  O   UNL A   1      35.207  21.253  25.508  1.00  0.00    -0.374 OA
BRANCH   2   3
ATOM      3  C   UNL A   1      33.929  21.111  26.134  1.00  0.00     0.202 C 
BRANCH   3   4
ATOM      4  C   UNL A   1      33.778  21.902  27.437  1.00  0.00     0.261 C 
BRANCH   4   5
ATOM      5  O   UNL A   1      33.743  23.305  27.156  1.00  0.00    -0.463 OA
BRANCH   5   6
ATOM      6  C   UNL A   1      32.568  23.831  26.695  1.00  0.00     0.312 C 
ATOM      7  O   UNL A   1      31.491  23.811  27.267  1.00  0.00    -0.252 OA
BRANCH   6   8
ATOM      8  C   UNL A   1      32.862  24.508  25.368  1.00  0.00     0.124 C 
ATOM      9  C   UNL A   1      33.277  23.777  23.062  1.00  0.00     0.107 C 
ATOM     10  C   UNL A   1      34.521  24.254  23.724  1.00  0.00    -0.006 C 
ATOM     11  C   UNL A   1      32.195  23.843  24.145  1.00  0.00     0.048 C 
ATOM     12  C   UNL A   1      34.310  24.592  25.001  1.00  0.00    -0.014 C 
BRANCH   9  13
ATOM     13  N   UNL A   1      33.046  24.407  21.767  1.00  0.00    -0.332 N 
ATOM     14  N   UNL A   1      32.777  26.778  21.763  1.00  0.00    -0.335 N 
ATOM     15  C   UNL A   1      32.901  25.589  21.168  1.00  0.00     0.315 C 
ATOM     16  H   UNL A   1      32.841  27.539  21.142  1.00  0.00     0.165 HD
ATOM     17  O   UNL A   1      32.887  25.575  19.932  1.00  0.00    -0.249 OA
ATOM     18  H   UNL A   1      32.971  23.701  21.086  1.00  0.00     0.165 HD
BRANCH  14  19
ATOM     19  C   UNL A   1      32.567  27.166  23.135  1.00  0.00     0.095 C 
ATOM     20  C   UNL A   1      31.884  28.801  26.959  1.00  0.00     0.332 C 
ATOM     21  N   UNL A   1      32.072  28.776  25.501  1.00  0.00    -0.337 N 
ATOM     22  C   UNL A   1      30.989  28.016  24.869  1.00  0.00     0.264 C 
ATOM     23  C   UNL A   1      33.428  28.311  25.182  1.00  0.00     0.264 C 
ATOM     24  H   UNL A   1      32.008  29.715  25.107  1.00  0.00     0.347 HD
ATOM     25  C   UNL A   1      31.203  27.807  23.369  1.00  0.00     0.086 C 
ATOM     26  C   UNL A   1      33.657  28.073  23.686  1.00  0.00     0.086 C 
ENDBRANCH  14  19
ENDBRANCH   9  13
ENDBRANCH   6   8
ENDBRANCH   5   6
ENDBRANCH   4   5
ENDBRANCH   3   4
ENDBRANCH   2   3
ENDBRANCH   1   2
BRANCH   1  27
ATOM     27  C   UNL A   1      37.281  19.972  24.949  1.00  0.00     0.261 C 
BRANCH  27  28
ATOM     28  O   UNL A   1      37.857  21.122  25.583  1.00  0.00    -0.460 OA
BRANCH  28  29
ATOM     29  C   UNL A   1      39.122  20.930  26.030  1.00  0.00     0.338 C 
ATOM     30  O   UNL A   1      39.824  19.951  25.858  1.00  0.00    -0.246 OA
BRANCH  29  31
ATOM     31  C   UNL A   1      39.626  22.181  26.624  1.00  0.00     0.060 A 
ATOM     32  C   UNL A   1      39.053  23.376  26.177  1.00  0.00     0.016 A 
ATOM     33  C   UNL A   1      40.675  22.191  27.546  1.00  0.00     0.016 A 
ATOM     34  C   UNL A   1      39.571  24.595  26.600  1.00  0.00     0.010 A 
ATOM     35  C   UNL A   1      41.195  23.416  27.969  1.00  0.00     0.010 A 
ATOM     36  C   UNL A   1      40.675  24.620  27.461  1.00  0.00    -0.014 A 
BRANCH  36  37
ATOM     37  C   UNL A   1      41.371  25.904  27.709  1.00  0.00     0.031 A 
ATOM     38  C   UNL A   1      40.647  26.995  28.448  1.00  0.00     0.074 A 
ATOM     39  C   UNL A   1      42.639  26.080  27.300  1.00  0.00     0.049 A 
ATOM     40  N   UNL A   1      41.059  28.196  28.759  1.00  0.00    -0.248 NA
ATOM     41  C   UNL A   1      39.275  26.696  28.892  1.00  0.00     0.031 C 
ATOM     42  C   UNL A   1      43.441  25.090  26.585  1.00  0.00     0.029 A 
ATOM     43  N   UNL A   1      43.466  27.169  27.412  1.00  0.00    -0.354 N 
ATOM     44  C   UNL A   1      39.991  28.807  29.407  1.00  0.00     0.074 A 
ATOM     45  C   UNL A   1      38.907  27.849  29.430  1.00  0.00     0.031 C 
ATOM     46  C   UNL A   1      44.641  25.623  26.301  1.00  0.00     0.029 A 
ATOM     47  C   UNL A   1      44.678  27.000  26.787  1.00  0.00     0.049 A 
ATOM     48  H   UNL A   1      43.216  27.990  27.893  1.00  0.00     0.167 HD
ATOM     49  C   UNL A   1      39.925  30.047  29.947  1.00  0.00     0.034 A 
ATOM     50  C   UNL A   1      45.692  27.870  26.607  1.00  0.00     0.034 A 
ATOM     51  C   UNL A   1      41.012  30.988  29.932  1.00  0.00     0.049 A 
ATOM     52  C   UNL A   1      45.581  29.255  27.189  1.00  0.00     0.074 A 
ATOM     53  C   UNL A   1      41.063  32.252  30.489  1.00  0.00     0.029 A 
ATOM     54  N   UNL A   1      42.236  30.773  29.315  1.00  0.00    -0.354 N 
ATOM     55  N   UNL A   1      44.606  29.781  27.891  1.00  0.00    -0.248 NA
ATOM     56  C   UNL A   1      46.724  30.154  26.983  1.00  0.00     0.031 C 
ATOM     57  C   UNL A   1      42.302  32.819  30.175  1.00  0.00     0.029 A 
ATOM     58  C   UNL A   1      43.042  31.888  29.464  1.00  0.00     0.049 A 
ATOM     59  H   UNL A   1      42.493  29.949  28.842  1.00  0.00     0.167 HD
ATOM     60  C   UNL A   1      45.034  31.057  28.243  1.00  0.00     0.074 A 
ATOM     61  C   UNL A   1      46.365  31.215  27.693  1.00  0.00     0.031 C 
ATOM     62  C   UNL A   1      44.383  32.014  28.950  1.00  0.00     0.034 A 
BRANCH  49  63
ATOM     63  C   UNL A   1      38.634  30.454  30.610  1.00  0.00     0.023 A 
ATOM     64  C   UNL A   1      38.451  30.232  31.989  1.00  0.00     0.012 A 
ATOM     65  C   UNL A   1      37.624  31.107  29.876  1.00  0.00     0.148 A 
ATOM     66  C   UNL A   1      37.270  30.619  32.622  1.00  0.00     0.002 A 
ATOM     67  C   UNL A   1      36.470  31.535  30.522  1.00  0.00     0.091 A 
ATOM     68  F   UNL A   1      37.807  31.292  28.561  1.00  0.00    -0.205 F 
ATOM     69  C   UNL A   1      36.286  31.280  31.891  1.00  0.00     0.022 A 
BRANCH  67  70
ATOM     70  S   UNL A   1      35.180  32.465  29.688  1.00  0.00     0.127 S 
ATOM     71  O   UNL A   1      34.238  32.706  30.781  1.00  0.00    -0.237 OA
ATOM     72  O   UNL A   1      35.904  33.653  29.236  1.00  0.00    -0.237 OA
ATOM     73  O   UNL A   1      34.689  31.607  28.620  1.00  0.00    -0.744 OA
ENDBRANCH  67  70
ENDBRANCH  49  63
BRANCH  50  74
ATOM     74  C   UNL A   1      46.912  27.448  25.864  1.00  0.00     0.023 A 
ATOM     75  C   UNL A   1      47.903  26.694  26.520  1.00  0.00     0.012 A 
ATOM     76  C   UNL A   1      47.087  27.781  24.507  1.00  0.00     0.148 A 
ATOM     77  C   UNL A   1      49.063  26.308  25.848  1.00  0.00     0.002 A 
ATOM     78  C   UNL A   1      48.217  27.344  23.827  1.00  0.00     0.091 A 
ATOM     79  F   UNL A   1      46.137  28.510  23.905  1.00  0.00    -0.205 F 
ATOM     80  C   UNL A   1      49.216  26.624  24.501  1.00  0.00     0.022 A 
BRANCH  78  81
ATOM     81  S   UNL A   1      48.436  27.588  22.062  1.00  0.00     0.127 S 
ATOM     82  O   UNL A   1      49.622  28.439  22.022  1.00  0.00    -0.237 OA
ATOM     83  O   UNL A   1      48.642  26.217  21.594  1.00  0.00    -0.237 OA
ATOM     84  O   UNL A   1      47.201  28.204  21.593  1.00  0.00    -0.744 OA
ENDBRANCH  78  81
ENDBRANCH  50  74
BRANCH  62  85
ATOM     85  C   UNL A   1      45.115  33.306  29.216  1.00  0.00     0.023 A 
ATOM     86  C   UNL A   1      45.884  33.455  30.387  1.00  0.00     0.012 A 
ATOM     87  C   UNL A   1      45.090  34.348  28.268  1.00  0.00     0.148 A 
ATOM     88  C   UNL A   1      46.583  34.637  30.629  1.00  0.00     0.002 A 
ATOM     89  C   UNL A   1      45.833  35.500  28.490  1.00  0.00     0.091 A 
ATOM     90  F   UNL A   1      44.340  34.193  27.167  1.00  0.00    -0.205 F 
ATOM     91  C   UNL A   1      46.567  35.654  29.677  1.00  0.00     0.022 A 
BRANCH  89  92
ATOM     92  S   UNL A   1      45.952  36.819  27.276  1.00  0.00     0.127 S 
ATOM     93  O   UNL A   1      46.400  36.092  26.089  1.00  0.00    -0.237 OA
ATOM     94  O   UNL A   1      44.573  37.303  27.211  1.00  0.00    -0.237 OA
ATOM     95  O   UNL A   1      46.905  37.778  27.816  1.00  0.00    -0.744 OA
ENDBRANCH  89  92
ENDBRANCH  62  85
ENDBRANCH  36  37
ENDBRANCH  29  31
ENDBRANCH  28  29
ENDBRANCH  27  28
ENDBRANCH   1  27
TORSDOF 19
ENDMDL
MODEL 2
REMARK VINA RESULT:     -11.8      0.429      7.459
REMARK SMILES C[NH+]1CCC(NC(=O)N[C@H]2C=C[C@H](C(=O)OCCOCCOC(=O)c3ccc(-c4c5nc(c(-c6cccc(S(=O)(=O)[O-])c6F)c6ccc([nH]6)c(-c6cccc(S(=O)(=O)[O-])c6F)c6nc(c(-c7cccc(S(=O)(=O)[O-])c7F)c7ccc4[nH]7)C=C6)C=C5)cc3)C2)CC1
REMARK SMILES IDX 20 1 19 2 18 3 17 4 16 5 14 6 15 7 13 8 10 9 11 10 88 11
REMARK SMILES IDX 12 12 9 13 6 14 7 15 8 17 5 19 1 20 2 21 3 22 90 23 4 25
REMARK SMILES IDX 89 26 21 27 22 28 23 29 24 30 25 31 26 32 87 33 27 34 86 35
REMARK SMILES IDX 28 36 29 37 30 38 80 39 31 40 85 41 79 42 81 43 32 44 84 45
REMARK SMILES IDX 78 46 77 47 33 49 65 50 45 51 64 52 46 53 49 54 63 55 82 56
REMARK SMILES IDX 47 57 48 58 62 60 83 61 50 62 34 63 35 64 43 65 36 66 38 67
REMARK SMILES IDX 44 68 37 69 39 70 40 71 41 72 42 73 66 74 67 75 75 76 68 77
REMARK SMILES IDX 70 78 76 79 69 80 71 81 72 82 73 83 74 84 51 85 52 86 60 87
REMARK SMILES IDX 53 88 55 89 61 90 54 91 56 92 57 93 58 94 59 95
REMARK H PARENT 6 16 9 18 2 24 81 48 49 59
REMARK Flexibility Score: inf
ROOT
ATOM      1  C   UNL A   1      35.984  20.134  24.977  1.00  0.00     0.202 C 
ENDROOT
BRANCH   1   2
ATOM      2  O   UNL A   1      35.409  21.153  25.797  1.00  0.00    -0.374 OA
BRANCH   2   3
ATOM      3  C   UNL A   1      33.988  21.087  25.947  1.00  0.00     0.202 C 
BRANCH   3   4
ATOM      4  C   UNL A   1      33.451  21.826  27.175  1.00  0.00     0.261 C 
BRANCH   4   5
ATOM      5  O   UNL A   1      33.581  23.240  26.989  1.00  0.00    -0.463 OA
BRANCH   5   6
ATOM      6  C   UNL A   1      32.468  23.932  26.596  1.00  0.00     0.312 C 
ATOM      7  O   UNL A   1      31.438  24.071  27.234  1.00  0.00    -0.252 OA
BRANCH   6   8
ATOM      8  C   UNL A   1      32.775  24.558  25.248  1.00  0.00     0.124 C 
ATOM      9  C   UNL A   1      33.183  23.742  22.969  1.00  0.00     0.107 C 
ATOM     10  C   UNL A   1      34.433  24.222  23.617  1.00  0.00    -0.006 C 
ATOM     11  C   UNL A   1      32.101  23.862  24.046  1.00  0.00     0.048 C 
ATOM     12  C   UNL A   1      34.225  24.608  24.881  1.00  0.00    -0.014 C 
BRANCH   9  13
ATOM     13  N   UNL A   1      32.965  24.330  21.653  1.00  0.00    -0.332 N 
ATOM     14  N   UNL A   1      32.806  26.709  21.556  1.00  0.00    -0.335 N 
ATOM     15  C   UNL A   1      32.866  25.494  21.009  1.00  0.00     0.315 C 
ATOM     16  H   UNL A   1      32.897  27.441  20.904  1.00  0.00     0.165 HD
ATOM     17  O   UNL A   1      32.835  25.431  19.774  1.00  0.00    -0.249 OA
ATOM     18  H   UNL A   1      32.847  23.602  21.001  1.00  0.00     0.165 HD
BRANCH  14  19
ATOM     19  C   UNL A   1      32.633  27.161  22.914  1.00  0.00     0.095 C 
ATOM     20  C   UNL A   1      31.978  28.953  26.671  1.00  0.00     0.332 C 
ATOM     21  N   UNL A   1      32.073  28.851  25.208  1.00  0.00    -0.337 N 
ATOM     22  C   UNL A   1      31.068  27.910  24.705  1.00  0.00     0.264 C 
ATOM     23  C   UNL A   1      33.457  28.552  24.818  1.00  0.00     0.264 C 
ATOM     24  H   UNL A   1      31.853  29.743  24.763  1.00  0.00     0.347 HD
ATOM     25  C   UNL A   1      31.211  27.627  23.208  1.00  0.00     0.086 C 
ATOM     26  C   UNL A   1      33.619  28.243  23.327  1.00  0.00     0.086 C 
ENDBRANCH  14  19
ENDBRANCH   9  13
ENDBRANCH   6   8
ENDBRANCH   5   6
ENDBRANCH   4   5
ENDBRANCH   3   4
ENDBRANCH   2   3
ENDBRANCH   1   2
BRANCH   1  27
ATOM     27  C   UNL A   1      37.513  20.123  24.923  1.00  0.00     0.261 C 
BRANCH  27  28
ATOM     28  O   UNL A   1      38.055  21.310  25.518  1.00  0.00    -0.460 OA
BRANCH  28  29
ATOM     29  C   UNL A   1      39.263  21.131  26.105  1.00  0.00     0.338 C 
ATOM     30  O   UNL A   1      39.985  20.155  26.023  1.00  0.00    -0.246 OA
BRANCH  29  31
ATOM     31  C   UNL A   1      39.690  22.391  26.739  1.00  0.00     0.060 A 
ATOM     32  C   UNL A   1      39.011  23.555  26.366  1.00  0.00     0.016 A 
ATOM     33  C   UNL A   1      40.767  22.444  27.626  1.00  0.00     0.016 A 
ATOM     34  C   UNL A   1      39.448  24.792  26.826  1.00  0.00     0.010 A 
ATOM     35  C   UNL A   1      41.207  23.687  28.087  1.00  0.00     0.010 A 
ATOM     36  C   UNL A   1      40.577  24.867  27.651  1.00  0.00    -0.014 A 
BRANCH  36  37
ATOM     37  C   UNL A   1      41.181  26.190  27.935  1.00  0.00     0.031 A 
ATOM     38  C   UNL A   1      42.585  26.464  27.473  1.00  0.00     0.074 A 
ATOM     39  C   UNL A   1      40.474  27.137  28.575  1.00  0.00     0.049 A 
ATOM     40  N   UNL A   1      43.310  27.541  27.626  1.00  0.00    -0.248 NA
ATOM     41  C   UNL A   1      43.267  25.380  26.746  1.00  0.00     0.031 C 
ATOM     42  C   UNL A   1      39.103  26.986  29.058  1.00  0.00     0.029 A 
ATOM     43  N   UNL A   1      40.825  28.410  28.944  1.00  0.00    -0.354 N 
ATOM     44  C   UNL A   1      44.540  27.257  27.044  1.00  0.00     0.074 A 
ATOM     45  C   UNL A   1      44.469  25.900  26.548  1.00  0.00     0.031 C 
ATOM     46  C   UNL A   1      38.734  28.117  29.682  1.00  0.00     0.029 A 
ATOM     47  C   UNL A   1      39.852  29.056  29.668  1.00  0.00     0.049 A 
ATOM     48  H   UNL A   1      41.690  28.821  28.714  1.00  0.00     0.167 HD
ATOM     49  C   UNL A   1      45.624  28.059  26.920  1.00  0.00     0.034 A 
ATOM     50  C   UNL A   1      39.874  30.261  30.272  1.00  0.00     0.034 A 
ATOM     51  C   UNL A   1      45.681  29.412  27.403  1.00  0.00     0.049 A 
ATOM     52  C   UNL A   1      41.103  31.121  30.147  1.00  0.00     0.074 A 
ATOM     53  C   UNL A   1      46.715  30.323  27.289  1.00  0.00     0.029 A 
ATOM     54  N   UNL A   1      44.666  30.045  28.107  1.00  0.00    -0.354 N 
ATOM     55  N   UNL A   1      42.220  30.879  29.502  1.00  0.00    -0.248 NA
ATOM     56  C   UNL A   1      41.064  32.434  30.805  1.00  0.00     0.031 C 
ATOM     57  C   UNL A   1      46.343  31.493  27.959  1.00  0.00     0.029 A 
ATOM     58  C   UNL A   1      45.057  31.328  28.448  1.00  0.00     0.049 A 
ATOM     59  H   UNL A   1      43.797  29.640  28.330  1.00  0.00     0.167 HD
ATOM     60  C   UNL A   1      42.998  32.024  29.643  1.00  0.00     0.074 A 
ATOM     61  C   UNL A   1      42.217  32.965  30.419  1.00  0.00     0.031 C 
ATOM     62  C   UNL A   1      44.249  32.270  29.181  1.00  0.00     0.034 A 
BRANCH  49  63
ATOM     63  C   UNL A   1      46.836  27.496  26.224  1.00  0.00     0.023 A 
ATOM     64  C   UNL A   1      47.669  26.577  26.894  1.00  0.00     0.012 A 
ATOM     65  C   UNL A   1      47.119  27.836  24.886  1.00  0.00     0.148 A 
ATOM     66  C   UNL A   1      48.784  26.033  26.257  1.00  0.00     0.002 A 
ATOM     67  C   UNL A   1      48.203  27.252  24.241  1.00  0.00     0.091 A 
ATOM     68  F   UNL A   1      46.328  28.726  24.271  1.00  0.00    -0.205 F 
ATOM     69  C   UNL A   1      49.044  26.362  24.929  1.00  0.00     0.022 A 
BRANCH  67  70
ATOM     70  S   UNL A   1      48.575  27.547  22.509  1.00  0.00     0.127 S 
ATOM     71  O   UNL A   1      48.669  26.183  21.992  1.00  0.00    -0.237 OA
ATOM     72  O   UNL A   1      47.394  28.288  22.065  1.00  0.00    -0.237 OA
ATOM     73  O   UNL A   1      49.816  28.308  22.487  1.00  0.00    -0.744 OA
ENDBRANCH  67  70
ENDBRANCH  49  63
BRANCH  50  74
ATOM     74  C   UNL A   1      38.681  30.737  31.028  1.00  0.00     0.023 A 
ATOM     75  C   UNL A   1      38.621  30.555  32.422  1.00  0.00     0.012 A 
ATOM     76  C   UNL A   1      37.613  31.378  30.370  1.00  0.00     0.148 A 
ATOM     77  C   UNL A   1      37.503  30.974  33.145  1.00  0.00     0.002 A 
ATOM     78  C   UNL A   1      36.530  31.845  31.104  1.00  0.00     0.091 A 
ATOM     79  F   UNL A   1      37.686  31.529  29.041  1.00  0.00    -0.205 F 
ATOM     80  C   UNL A   1      36.463  31.626  32.489  1.00  0.00     0.022 A 
BRANCH  78  81
ATOM     81  S   UNL A   1      35.209  32.811  30.365  1.00  0.00     0.127 S 
ATOM     82  O   UNL A   1      35.936  33.967  29.849  1.00  0.00    -0.237 OA
ATOM     83  O   UNL A   1      34.703  31.892  29.343  1.00  0.00    -0.237 OA
ATOM     84  O   UNL A   1      34.270  33.085  31.444  1.00  0.00    -0.744 OA
ENDBRANCH  78  81
ENDBRANCH  50  74
BRANCH  62  85
ATOM     85  C   UNL A   1      44.840  33.631  29.455  1.00  0.00     0.023 A 
ATOM     86  C   UNL A   1      45.500  33.884  30.674  1.00  0.00     0.012 A 
ATOM     87  C   UNL A   1      44.795  34.639  28.472  1.00  0.00     0.148 A 
ATOM     88  C   UNL A   1      46.069  35.132  30.926  1.00  0.00     0.002 A 
ATOM     89  C   UNL A   1      45.412  35.861  28.708  1.00  0.00     0.091 A 
ATOM     90  F   UNL A   1      44.149  34.385  27.324  1.00  0.00    -0.205 F 
ATOM     91  C   UNL A   1      46.036  36.115  29.940  1.00  0.00     0.022 A 
BRANCH  89  92
ATOM     92  S   UNL A   1      45.506  37.150  27.461  1.00  0.00     0.127 S 
ATOM     93  O   UNL A   1      46.020  36.413  26.308  1.00  0.00    -0.237 OA
ATOM     94  O   UNL A   1      44.108  37.568  27.343  1.00  0.00    -0.237 OA
ATOM     95  O   UNL A   1      46.398  38.167  27.999  1.00  0.00    -0.744 OA
ENDBRANCH  89  92
ENDBRANCH  62  85
ENDBRANCH  36  37
ENDBRANCH  29  31
ENDBRANCH  28  29
ENDBRANCH  27  28
ENDBRANCH   1  27
TORSDOF 19
ENDMDL
MODEL 3
REMARK VINA RESULT:     -11.7      1.703      2.747
REMARK SMILES C[NH+]1CCC(NC(=O)N[C@H]2C=C[C@H](C(=O)OCCOCCOC(=O)c3ccc(-c4c5nc(c(-c6cccc(S(=O)(=O)[O-])c6F)c6ccc([nH]6)c(-c6cccc(S(=O)(=O)[O-])c6F)c6nc(c(-c7cccc(S(=O)(=O)[O-])c7F)c7ccc4[nH]7)C=C6)C=C5)cc3)C2)CC1
REMARK SMILES IDX 20 1 19 2 18 3 17 4 16 5 14 6 15 7 13 8 10 9 11 10 88 11
REMARK SMILES IDX 12 12 9 13 6 14 7 15 8 17 5 19 1 20 2 21 3 22 90 23 4 25
REMARK SMILES IDX 89 26 21 27 22 28 23 29 24 30 25 31 26 32 87 33 27 34 86 35
REMARK SMILES IDX 28 36 29 37 30 38 80 39 31 40 85 41 79 42 81 43 32 44 84 45
REMARK SMILES IDX 78 46 77 47 33 49 65 50 45 51 64 52 46 53 49 54 63 55 82 56
REMARK SMILES IDX 47 57 48 58 62 60 83 61 50 62 34 63 35 64 43 65 36 66 38 67
REMARK SMILES IDX 44 68 37 69 39 70 40 71 41 72 42 73 66 74 67 75 75 76 68 77
REMARK SMILES IDX 70 78 76 79 69 80 71 81 72 82 73 83 74 84 51 85 52 86 60 87
REMARK SMILES IDX 53 88 55 89 61 90 54 91 56 92 57 93 58 94 59 95
REMARK H PARENT 6 16 9 18 2 24 81 48 49 59
REMARK Flexibility Score: inf
ROOT
ATOM      1  C   UNL A   1      35.772  20.710  24.984  1.00  0.00     0.202 C 
ENDROOT
BRANCH   1   2
ATOM      2  O   UNL A   1      35.835  22.130  25.132  1.00  0.00    -0.374 OA
BRANCH   2   3
ATOM      3  C   UNL A   1      35.687  22.877  23.921  1.00  0.00     0.202 C 
BRANCH   3   4
ATOM      4  C   UNL A   1      34.430  23.749  23.872  1.00  0.00     0.261 C 
BRANCH   4   5
ATOM      5  O   UNL A   1      34.559  24.846  24.784  1.00  0.00    -0.463 OA
BRANCH   5   6
ATOM      6  C   UNL A   1      33.697  24.893  25.844  1.00  0.00     0.312 C 
ATOM      7  O   UNL A   1      33.594  24.063  26.732  1.00  0.00    -0.252 OA
BRANCH   6   8
ATOM      8  C   UNL A   1      32.937  26.204  25.755  1.00  0.00     0.124 C 
ATOM      9  C   UNL A   1      32.621  28.167  27.194  1.00  0.00     0.107 C 
ATOM     10  C   UNL A   1      31.402  27.314  27.146  1.00  0.00    -0.006 C 
ATOM     11  C   UNL A   1      33.670  27.415  26.370  1.00  0.00     0.048 C 
ATOM     12  C   UNL A   1      31.594  26.210  26.414  1.00  0.00    -0.014 C 
BRANCH   9  13
ATOM     13  N   UNL A   1      32.342  29.570  26.908  1.00  0.00    -0.332 N 
ATOM     14  N   UNL A   1      31.573  30.082  24.708  1.00  0.00    -0.335 N 
ATOM     15  C   UNL A   1      31.869  30.393  25.971  1.00  0.00     0.315 C 
ATOM     16  H   UNL A   1      31.089  30.792  24.229  1.00  0.00     0.165 HD
ATOM     17  O   UNL A   1      31.682  31.564  26.321  1.00  0.00    -0.249 OA
ATOM     18  H   UNL A   1      32.596  30.104  27.694  1.00  0.00     0.165 HD
BRANCH  14  19
ATOM     19  C   UNL A   1      31.822  28.910  23.906  1.00  0.00     0.095 C 
ATOM     20  C   UNL A   1      32.537  25.814  21.138  1.00  0.00     0.332 C 
ATOM     21  N   UNL A   1      32.250  27.173  21.619  1.00  0.00    -0.337 N 
ATOM     22  C   UNL A   1      33.382  27.677  22.401  1.00  0.00     0.264 C 
ATOM     23  C   UNL A   1      30.955  27.194  22.312  1.00  0.00     0.264 C 
ATOM     24  H   UNL A   1      32.150  27.824  20.839  1.00  0.00     0.347 HD
ATOM     25  C   UNL A   1      33.094  29.022  23.072  1.00  0.00     0.086 C 
ATOM     26  C   UNL A   1      30.657  28.525  23.009  1.00  0.00     0.086 C 
ENDBRANCH  14  19
ENDBRANCH   9  13
ENDBRANCH   6   8
ENDBRANCH   5   6
ENDBRANCH   4   5
ENDBRANCH   3   4
ENDBRANCH   2   3
ENDBRANCH   1   2
BRANCH   1  27
ATOM     27  C   UNL A   1      37.122  19.990  24.994  1.00  0.00     0.261 C 
BRANCH  27  28
ATOM     28  O   UNL A   1      38.203  20.932  25.013  1.00  0.00    -0.460 OA
BRANCH  28  29
ATOM     29  C   UNL A   1      39.182  20.630  25.901  1.00  0.00     0.338 C 
ATOM     30  O   UNL A   1      39.706  19.547  26.080  1.00  0.00    -0.246 OA
BRANCH  29  31
ATOM     31  C   UNL A   1      39.675  21.871  26.525  1.00  0.00     0.060 A 
ATOM     32  C   UNL A   1      39.095  23.071  26.104  1.00  0.00     0.016 A 
ATOM     33  C   UNL A   1      40.721  21.866  27.451  1.00  0.00     0.016 A 
ATOM     34  C   UNL A   1      39.603  24.284  26.556  1.00  0.00     0.010 A 
ATOM     35  C   UNL A   1      41.231  23.086  27.903  1.00  0.00     0.010 A 
ATOM     36  C   UNL A   1      40.704  24.297  27.421  1.00  0.00    -0.014 A 
BRANCH  36  37
ATOM     37  C   UNL A   1      41.390  25.580  27.701  1.00  0.00     0.031 A 
ATOM     38  C   UNL A   1      40.636  26.671  28.407  1.00  0.00     0.074 A 
ATOM     39  C   UNL A   1      42.676  25.755  27.349  1.00  0.00     0.049 A 
ATOM     40  N   UNL A   1      41.035  27.872  28.738  1.00  0.00    -0.248 NA
ATOM     41  C   UNL A   1      39.245  26.375  28.790  1.00  0.00     0.031 C 
ATOM     42  C   UNL A   1      43.507  24.763  26.670  1.00  0.00     0.029 A 
ATOM     43  N   UNL A   1      43.498  26.842  27.499  1.00  0.00    -0.354 N 
ATOM     44  C   UNL A   1      39.940  28.484  29.337  1.00  0.00     0.074 A 
ATOM     45  C   UNL A   1      38.855  27.528  29.312  1.00  0.00     0.031 C 
ATOM     46  C   UNL A   1      44.719  25.295  26.440  1.00  0.00     0.029 A 
ATOM     47  C   UNL A   1      44.737  26.672  26.928  1.00  0.00     0.049 A 
ATOM     48  H   UNL A   1      43.228  27.663  27.968  1.00  0.00     0.167 HD
ATOM     49  C   UNL A   1      39.852  29.723  29.875  1.00  0.00     0.034 A 
ATOM     50  C   UNL A   1      45.758  27.541  26.794  1.00  0.00     0.034 A 
ATOM     51  C   UNL A   1      40.940  30.663  29.909  1.00  0.00     0.049 A 
ATOM     52  C   UNL A   1      45.624  28.925  27.371  1.00  0.00     0.074 A 
ATOM     53  C   UNL A   1      40.968  31.927  30.469  1.00  0.00     0.029 A 
ATOM     54  N   UNL A   1      42.190  30.447  29.347  1.00  0.00    -0.354 N 
ATOM     55  N   UNL A   1      44.619  29.452  28.029  1.00  0.00    -0.248 NA
ATOM     56  C   UNL A   1      46.776  29.823  27.216  1.00  0.00     0.031 C 
ATOM     57  C   UNL A   1      42.220  32.493  30.210  1.00  0.00     0.029 A 
ATOM     58  C   UNL A   1      42.990  31.561  29.532  1.00  0.00     0.049 A 
ATOM     59  H   UNL A   1      42.466  29.623  28.886  1.00  0.00     0.167 HD
ATOM     60  C   UNL A   1      45.033  30.727  28.401  1.00  0.00     0.074 A 
ATOM     61  C   UNL A   1      46.387  30.884  27.911  1.00  0.00     0.031 C 
ATOM     62  C   UNL A   1      44.352  31.685  29.079  1.00  0.00     0.034 A 
BRANCH  49  63
ATOM     63  C   UNL A   1      38.534  30.132  30.480  1.00  0.00     0.023 A 
ATOM     64  C   UNL A   1      38.277  29.880  31.843  1.00  0.00     0.012 A 
ATOM     65  C   UNL A   1      37.571  30.815  29.711  1.00  0.00     0.148 A 
ATOM     66  C   UNL A   1      37.069  30.269  32.423  1.00  0.00     0.002 A 
ATOM     67  C   UNL A   1      36.390  31.243  30.307  1.00  0.00     0.091 A 
ATOM     68  F   UNL A   1      37.823  31.028  28.412  1.00  0.00    -0.205 F 
ATOM     69  C   UNL A   1      36.132  30.959  31.658  1.00  0.00     0.022 A 
BRANCH  67  70
ATOM     70  S   UNL A   1      35.156  32.209  29.430  1.00  0.00     0.127 S 
ATOM     71  O   UNL A   1      34.274  32.620  30.522  1.00  0.00    -0.237 OA
ATOM     72  O   UNL A   1      35.962  33.289  28.859  1.00  0.00    -0.237 OA
ATOM     73  O   UNL A   1      34.560  31.311  28.452  1.00  0.00    -0.744 OA
ENDBRANCH  67  70
ENDBRANCH  49  63
BRANCH  50  74
ATOM     74  C   UNL A   1      47.010  27.117  26.105  1.00  0.00     0.023 A 
ATOM     75  C   UNL A   1      47.170  27.371  24.730  1.00  0.00     0.012 A 
ATOM     76  C   UNL A   1      48.046  26.475  26.812  1.00  0.00     0.148 A 
ATOM     77  C   UNL A   1      48.325  26.963  24.062  1.00  0.00     0.002 A 
ATOM     78  C   UNL A   1      49.217  26.124  26.153  1.00  0.00     0.091 A 
ATOM     79  F   UNL A   1      47.868  26.233  28.117  1.00  0.00    -0.205 F 
ATOM     80  C   UNL A   1      49.352  26.349  24.774  1.00  0.00     0.022 A 
BRANCH  78  81
ATOM     81  S   UNL A   1      50.642  25.451  27.014  1.00  0.00     0.127 S 
ATOM     82  O   UNL A   1      51.010  26.555  27.896  1.00  0.00    -0.237 OA
ATOM     83  O   UNL A   1      50.063  24.288  27.687  1.00  0.00    -0.237 OA
ATOM     84  O   UNL A   1      51.611  25.123  25.976  1.00  0.00    -0.744 OA
ENDBRANCH  78  81
ENDBRANCH  50  74
BRANCH  62  85
ATOM     85  C   UNL A   1      45.074  32.975  29.378  1.00  0.00     0.023 A 
ATOM     86  C   UNL A   1      45.847  33.099  30.549  1.00  0.00     0.012 A 
ATOM     87  C   UNL A   1      45.034  34.044  28.460  1.00  0.00     0.148 A 
ATOM     88  C   UNL A   1      46.536  34.280  30.821  1.00  0.00     0.002 A 
ATOM     89  C   UNL A   1      45.768  35.196  28.711  1.00  0.00     0.091 A 
ATOM     90  F   UNL A   1      44.281  33.913  27.358  1.00  0.00    -0.205 F 
ATOM     91  C   UNL A   1      46.506  35.323  29.899  1.00  0.00     0.022 A 
BRANCH  89  92
ATOM     92  S   UNL A   1      45.869  36.549  27.535  1.00  0.00     0.127 S 
ATOM     93  O   UNL A   1      46.503  35.901  26.388  1.00  0.00    -0.237 OA
ATOM     94  O   UNL A   1      44.460  36.894  27.339  1.00  0.00    -0.237 OA
ATOM     95  O   UNL A   1      46.661  37.587  28.180  1.00  0.00    -0.744 OA
ENDBRANCH  89  92
ENDBRANCH  62  85
ENDBRANCH  36  37
ENDBRANCH  29  31
ENDBRANCH  28  29
ENDBRANCH  27  28
ENDBRANCH   1  27
TORSDOF 19
ENDMDL
