MODEL 1
REMARK VINA RESULT:     -11.6      0.000      0.000
REMARK SMILES O=C(OCCOCCOC(=O)c1cccnc1Nc1cccc(C(F)(F)F)c1)c1ccc(-c2c3nc(c(-c4cccc(S(=O)(=O)[O-])c4F)c4ccc([nH]4)c(-c4cccc(S(=O)(=O)[O-])c4F)c4nc(c(-c5cccc(S(=O)(=O)[O-])c5F)c5ccc2[nH]5)C=C4)C=C3)cc1
REMARK SMILES IDX 6 1 5 2 4 3 3 4 2 5 1 6 29 7 30 8 91 9 31 10 90 11 32 12
REMARK SMILES IDX 33 13 34 14 84 15 35 16 89 17 83 18 85 19 36 20 88 21 82 22
REMARK SMILES IDX 81 23 37 25 69 26 49 27 68 28 50 29 53 30 67 31 86 32 51 33
REMARK SMILES IDX 52 34 66 36 87 37 54 38 38 39 39 40 47 41 40 42 42 43 48 44
REMARK SMILES IDX 41 45 43 46 44 47 45 48 46 49 70 50 71 51 79 52 72 53 74 54
REMARK SMILES IDX 80 55 73 56 75 57 76 58 77 59 78 60 55 61 56 62 64 63 57 64
REMARK SMILES IDX 59 65 65 66 58 67 60 68 61 69 62 70 63 71 7 72 8 73 9 74
REMARK SMILES IDX 10 75 11 76 12 77 13 78 17 79 14 80 16 81 15 82 18 83 19 85
REMARK SMILES IDX 20 86 28 87 21 88 23 89 22 90 24 91 25 92 26 93 27 94
REMARK H PARENT 85 24 53 35 18 84
REMARK Flexibility Score: inf
ROOT
ATOM      1  O   UNL A   1      33.649  27.641  24.219  1.00  0.00    -0.374 OA
ENDROOT
BRANCH   1   2
ATOM      2  C   UNL A   1      33.211  28.965  24.480  1.00  0.00     0.202 C 
BRANCH   2   3
ATOM      3  C   UNL A   1      32.878  29.282  25.934  1.00  0.00     0.261 C 
BRANCH   3   4
ATOM      4  O   UNL A   1      32.703  30.692  26.120  1.00  0.00    -0.460 OA
BRANCH   4   5
ATOM      5  C   UNL A   1      33.304  31.440  27.080  1.00  0.00     0.338 C 
ATOM      6  O   UNL A   1      32.745  32.450  27.498  1.00  0.00    -0.246 OA
BRANCH   5   7
ATOM      7  C   UNL A   1      34.627  31.061  27.649  1.00  0.00     0.060 A 
ATOM      8  C   UNL A   1      35.632  31.993  27.902  1.00  0.00     0.016 A 
ATOM      9  C   UNL A   1      34.836  29.739  28.050  1.00  0.00     0.016 A 
ATOM     10  C   UNL A   1      36.839  31.648  28.462  1.00  0.00     0.010 A 
ATOM     11  C   UNL A   1      36.020  29.391  28.711  1.00  0.00     0.010 A 
ATOM     12  C   UNL A   1      37.011  30.359  28.931  1.00  0.00    -0.014 A 
BRANCH  12  13
ATOM     13  C   UNL A   1      38.250  30.087  29.668  1.00  0.00     0.031 A 
ATOM     14  C   UNL A   1      39.279  29.223  29.030  1.00  0.00     0.074 A 
ATOM     15  C   UNL A   1      38.447  30.699  30.852  1.00  0.00     0.049 A 
ATOM     16  N   UNL A   1      40.375  28.749  29.545  1.00  0.00    -0.248 NA
ATOM     17  C   UNL A   1      39.049  28.844  27.624  1.00  0.00     0.031 C 
ATOM     18  C   UNL A   1      37.524  31.662  31.471  1.00  0.00     0.029 A 
ATOM     19  N   UNL A   1      39.475  30.610  31.748  1.00  0.00    -0.354 N 
ATOM     20  C   UNL A   1      40.921  27.940  28.560  1.00  0.00     0.074 A 
ATOM     21  C   UNL A   1      40.070  28.030  27.397  1.00  0.00     0.031 C 
ATOM     22  C   UNL A   1      38.023  32.059  32.651  1.00  0.00     0.029 A 
ATOM     23  C   UNL A   1      39.239  31.306  32.912  1.00  0.00     0.049 A 
ATOM     24  H   UNL A   1      40.300  30.100  31.578  1.00  0.00     0.167 HD
ATOM     25  C   UNL A   1      42.024  27.167  28.656  1.00  0.00     0.034 A 
ATOM     26  C   UNL A   1      39.895  31.265  34.087  1.00  0.00     0.034 A 
ATOM     27  C   UNL A   1      42.846  27.127  29.831  1.00  0.00     0.049 A 
ATOM     28  C   UNL A   1      41.086  30.352  34.174  1.00  0.00     0.074 A 
ATOM     29  C   UNL A   1      43.993  26.393  30.053  1.00  0.00     0.029 A 
ATOM     30  N   UNL A   1      42.587  27.842  30.993  1.00  0.00    -0.354 N 
ATOM     31  N   UNL A   1      41.629  29.617  33.231  1.00  0.00    -0.248 NA
ATOM     32  C   UNL A   1      41.754  30.253  35.476  1.00  0.00     0.031 C 
ATOM     33  C   UNL A   1      44.401  26.628  31.370  1.00  0.00     0.029 A 
ATOM     34  C   UNL A   1      43.533  27.541  31.952  1.00  0.00     0.049 A 
ATOM     35  H   UNL A   1      41.839  28.471  31.116  1.00  0.00     0.167 HD
ATOM     36  C   UNL A   1      42.710  28.979  33.819  1.00  0.00     0.074 A 
ATOM     37  C   UNL A   1      42.766  29.444  35.193  1.00  0.00     0.031 C 
ATOM     38  C   UNL A   1      43.568  28.072  33.292  1.00  0.00     0.034 A 
BRANCH  25  39
ATOM     39  C   UNL A   1      42.340  26.260  27.506  1.00  0.00     0.023 A 
ATOM     40  C   UNL A   1      43.029  26.740  26.376  1.00  0.00     0.012 A 
ATOM     41  C   UNL A   1      41.959  24.906  27.567  1.00  0.00     0.148 A 
ATOM     42  C   UNL A   1      43.316  25.885  25.312  1.00  0.00     0.002 A 
ATOM     43  C   UNL A   1      42.289  24.051  26.525  1.00  0.00     0.091 A 
ATOM     44  F   UNL A   1      41.272  24.484  28.638  1.00  0.00    -0.205 F 
ATOM     45  C   UNL A   1      42.956  24.541  25.391  1.00  0.00     0.022 A 
BRANCH  43  46
ATOM     46  S   UNL A   1      41.926  22.294  26.563  1.00  0.00     0.127 S 
ATOM     47  O   UNL A   1      42.552  21.890  27.822  1.00  0.00    -0.237 OA
ATOM     48  O   UNL A   1      40.464  22.289  26.579  1.00  0.00    -0.237 OA
ATOM     49  O   UNL A   1      42.531  21.727  25.366  1.00  0.00    -0.744 OA
ENDBRANCH  43  46
ENDBRANCH  25  39
BRANCH  26  50
ATOM     50  C   UNL A   1      39.404  32.033  35.269  1.00  0.00     0.023 A 
ATOM     51  C   UNL A   1      38.445  31.462  36.127  1.00  0.00     0.012 A 
ATOM     52  C   UNL A   1      39.871  33.337  35.541  1.00  0.00     0.148 A 
ATOM     53  C   UNL A   1      37.929  32.188  37.203  1.00  0.00     0.002 A 
ATOM     54  C   UNL A   1      39.400  34.030  36.650  1.00  0.00     0.091 A 
ATOM     55  F   UNL A   1      40.768  33.880  34.706  1.00  0.00    -0.205 F 
ATOM     56  C   UNL A   1      38.411  33.467  37.470  1.00  0.00     0.022 A 
BRANCH  54  57
ATOM     57  S   UNL A   1      40.063  35.628  37.134  1.00  0.00     0.127 S 
ATOM     58  O   UNL A   1      39.622  36.482  36.035  1.00  0.00    -0.237 OA
ATOM     59  O   UNL A   1      39.385  35.866  38.410  1.00  0.00    -0.237 OA
ATOM     60  O   UNL A   1      41.502  35.433  37.254  1.00  0.00    -0.744 OA
ENDBRANCH  54  57
ENDBRANCH  26  50
BRANCH  38  61
ATOM     61  C   UNL A   1      44.646  27.547  34.193  1.00  0.00     0.023 A 
ATOM     62  C   UNL A   1      45.870  28.236  34.292  1.00  0.00     0.012 A 
ATOM     63  C   UNL A   1      44.395  26.440  35.024  1.00  0.00     0.148 A 
ATOM     64  C   UNL A   1      46.841  27.814  35.194  1.00  0.00     0.002 A 
ATOM     65  C   UNL A   1      45.344  26.062  35.962  1.00  0.00     0.091 A 
ATOM     66  F   UNL A   1      43.226  25.797  34.895  1.00  0.00    -0.205 F 
ATOM     67  C   UNL A   1      46.573  26.739  36.040  1.00  0.00     0.022 A 
BRANCH  65  68
ATOM     68  S   UNL A   1      45.039  24.767  37.167  1.00  0.00     0.127 S 
ATOM     69  O   UNL A   1      43.978  25.363  37.980  1.00  0.00    -0.237 OA
ATOM     70  O   UNL A   1      44.608  23.656  36.320  1.00  0.00    -0.237 OA
ATOM     71  O   UNL A   1      46.302  24.552  37.858  1.00  0.00    -0.744 OA
ENDBRANCH  65  68
ENDBRANCH  38  61
ENDBRANCH  12  13
ENDBRANCH   5   7
ENDBRANCH   4   5
ENDBRANCH   3   4
ENDBRANCH   2   3
ENDBRANCH   1   2
BRANCH   1  72
ATOM     72  C   UNL A   1      32.852  26.835  23.357  1.00  0.00     0.202 C 
BRANCH  72  73
ATOM     73  C   UNL A   1      32.578  25.528  24.100  1.00  0.00     0.261 C 
BRANCH  73  74
ATOM     74  O   UNL A   1      33.729  25.230  24.915  1.00  0.00    -0.460 OA
BRANCH  74  75
ATOM     75  C   UNL A   1      33.607  24.177  25.769  1.00  0.00     0.341 C 
ATOM     76  O   UNL A   1      32.622  23.810  26.381  1.00  0.00    -0.246 OA
BRANCH  75  77
ATOM     77  C   UNL A   1      34.876  23.428  25.754  1.00  0.00     0.102 A 
ATOM     78  C   UNL A   1      36.080  24.141  25.680  1.00  0.00     0.021 A 
ATOM     79  C   UNL A   1      34.900  22.025  25.804  1.00  0.00     0.144 A 
ATOM     80  C   UNL A   1      37.282  23.451  25.659  1.00  0.00     0.021 A 
ATOM     81  N   UNL A   1      36.085  21.362  25.782  1.00  0.00    -0.238 NA
ATOM     82  C   UNL A   1      37.231  22.073  25.719  1.00  0.00     0.113 A 
BRANCH  79  83
ATOM     83  N   UNL A   1      33.721  21.253  25.729  1.00  0.00    -0.340 N 
ATOM     84  H   UNL A   1      33.066  21.366  26.455  1.00  0.00     0.168 HD
BRANCH  83  85
ATOM     85  C   UNL A   1      33.395  20.336  24.711  1.00  0.00     0.040 A 
ATOM     86  C   UNL A   1      32.519  20.683  23.675  1.00  0.00     0.026 A 
ATOM     87  C   UNL A   1      33.846  19.017  24.788  1.00  0.00     0.039 A 
ATOM     88  C   UNL A   1      32.149  19.749  22.704  1.00  0.00     0.003 A 
ATOM     89  C   UNL A   1      33.476  18.061  23.829  1.00  0.00     0.058 A 
ATOM     90  C   UNL A   1      32.629  18.442  22.779  1.00  0.00     0.013 A 
BRANCH  89  91
ATOM     91  C   UNL A   1      33.986  16.648  23.922  1.00  0.00     0.416 C 
ATOM     92  F   UNL A   1      33.031  15.772  24.337  1.00  0.00    -0.166 F 
ATOM     93  F   UNL A   1      34.427  16.175  22.722  1.00  0.00    -0.166 F 
ATOM     94  F   UNL A   1      35.030  16.496  24.785  1.00  0.00    -0.166 F 
ENDBRANCH  89  91
ENDBRANCH  83  85
ENDBRANCH  79  83
ENDBRANCH  75  77
ENDBRANCH  74  75
ENDBRANCH  73  74
ENDBRANCH  72  73
ENDBRANCH   1  72
TORSDOF 20
ENDMDL
MODEL 2
REMARK VINA RESULT:     -11.0      5.824     10.441
REMARK SMILES O=C(OCCOCCOC(=O)c1cccnc1Nc1cccc(C(F)(F)F)c1)c1ccc(-c2c3nc(c(-c4cccc(S(=O)(=O)[O-])c4F)c4ccc([nH]4)c(-c4cccc(S(=O)(=O)[O-])c4F)c4nc(c(-c5cccc(S(=O)(=O)[O-])c5F)c5ccc2[nH]5)C=C4)C=C3)cc1
REMARK SMILES IDX 6 1 5 2 4 3 3 4 2 5 1 6 29 7 30 8 91 9 31 10 90 11 32 12
REMARK SMILES IDX 33 13 34 14 84 15 35 16 89 17 83 18 85 19 36 20 88 21 82 22
REMARK SMILES IDX 81 23 37 25 69 26 49 27 68 28 50 29 53 30 67 31 86 32 51 33
REMARK SMILES IDX 52 34 66 36 87 37 54 38 38 39 39 40 47 41 40 42 42 43 48 44
REMARK SMILES IDX 41 45 43 46 44 47 45 48 46 49 70 50 71 51 79 52 72 53 74 54
REMARK SMILES IDX 80 55 73 56 75 57 76 58 77 59 78 60 55 61 56 62 64 63 57 64
REMARK SMILES IDX 59 65 65 66 58 67 60 68 61 69 62 70 63 71 7 72 8 73 9 74
REMARK SMILES IDX 10 75 11 76 12 77 13 78 17 79 14 80 16 81 15 82 18 83 19 85
REMARK SMILES IDX 20 86 28 87 21 88 23 89 22 90 24 91 25 92 26 93 27 94
REMARK H PARENT 85 24 53 35 18 84
REMARK Flexibility Score: inf
ROOT
ATOM      1  O   UNL A   1      33.920  20.239  24.580  1.00  0.00    -0.374 OA
ENDROOT
BRANCH   1   2
ATOM      2  C   UNL A   1      35.285  20.042  24.910  1.00  0.00     0.202 C 
BRANCH   2   3
ATOM      3  C   UNL A   1      36.159  21.293  24.900  1.00  0.00     0.261 C 
BRANCH   3   4
ATOM      4  O   UNL A   1      37.070  21.285  26.007  1.00  0.00    -0.460 OA
BRANCH   4   5
ATOM      5  C   UNL A   1      38.409  21.488  25.925  1.00  0.00     0.338 C 
ATOM      6  O   UNL A   1      39.111  20.667  25.342  1.00  0.00    -0.246 OA
BRANCH   5   7
ATOM      7  C   UNL A   1      39.053  22.692  26.519  1.00  0.00     0.060 A 
ATOM      8  C   UNL A   1      40.185  22.619  27.327  1.00  0.00     0.016 A 
ATOM      9  C   UNL A   1      38.574  23.957  26.168  1.00  0.00     0.016 A 
ATOM     10  C   UNL A   1      40.802  23.733  27.844  1.00  0.00     0.010 A 
ATOM     11  C   UNL A   1      39.248  25.103  26.606  1.00  0.00     0.010 A 
ATOM     12  C   UNL A   1      40.375  24.981  27.431  1.00  0.00    -0.014 A 
BRANCH  12  13
ATOM     13  C   UNL A   1      41.170  26.130  27.881  1.00  0.00     0.031 A 
ATOM     14  C   UNL A   1      40.516  27.149  28.744  1.00  0.00     0.074 A 
ATOM     15  C   UNL A   1      42.480  26.173  27.569  1.00  0.00     0.049 A 
ATOM     16  N   UNL A   1      40.981  28.296  29.143  1.00  0.00    -0.248 NA
ATOM     17  C   UNL A   1      39.159  26.837  29.229  1.00  0.00     0.031 C 
ATOM     18  C   UNL A   1      43.208  25.132  26.828  1.00  0.00     0.029 A 
ATOM     19  N   UNL A   1      43.433  27.118  27.828  1.00  0.00    -0.354 N 
ATOM     20  C   UNL A   1      39.944  28.886  29.849  1.00  0.00     0.074 A 
ATOM     21  C   UNL A   1      38.844  27.951  29.874  1.00  0.00     0.031 C 
ATOM     22  C   UNL A   1      44.488  25.507  26.681  1.00  0.00     0.029 A 
ATOM     23  C   UNL A   1      44.640  26.848  27.223  1.00  0.00     0.049 A 
ATOM     24  H   UNL A   1      43.273  27.911  28.389  1.00  0.00     0.167 HD
ATOM     25  C   UNL A   1      39.924  30.123  30.389  1.00  0.00     0.034 A 
ATOM     26  C   UNL A   1      45.716  27.640  27.057  1.00  0.00     0.034 A 
ATOM     27  C   UNL A   1      41.052  31.008  30.350  1.00  0.00     0.049 A 
ATOM     28  C   UNL A   1      45.636  29.029  27.625  1.00  0.00     0.074 A 
ATOM     29  C   UNL A   1      41.163  32.282  30.867  1.00  0.00     0.029 A 
ATOM     30  N   UNL A   1      42.261  30.709  29.736  1.00  0.00    -0.354 N 
ATOM     31  N   UNL A   1      44.671  29.575  28.329  1.00  0.00    -0.248 NA
ATOM     32  C   UNL A   1      46.779  29.915  27.379  1.00  0.00     0.031 C 
ATOM     33  C   UNL A   1      42.426  32.774  30.522  1.00  0.00     0.029 A 
ATOM     34  C   UNL A   1      43.115  31.789  29.828  1.00  0.00     0.049 A 
ATOM     35  H   UNL A   1      42.477  29.854  29.298  1.00  0.00     0.167 HD
ATOM     36  C   UNL A   1      45.095  30.862  28.622  1.00  0.00     0.074 A 
ATOM     37  C   UNL A   1      46.421  31.001  28.050  1.00  0.00     0.031 C 
ATOM     38  C   UNL A   1      44.447  31.855  29.279  1.00  0.00     0.034 A 
BRANCH  25  39
ATOM     39  C   UNL A   1      38.632  30.602  30.980  1.00  0.00     0.023 A 
ATOM     40  C   UNL A   1      38.363  30.445  32.352  1.00  0.00     0.012 A 
ATOM     41  C   UNL A   1      37.685  31.236  30.152  1.00  0.00     0.148 A 
ATOM     42  C   UNL A   1      37.157  30.895  32.888  1.00  0.00     0.002 A 
ATOM     43  C   UNL A   1      36.508  31.722  30.700  1.00  0.00     0.091 A 
ATOM     44  F   UNL A   1      37.952  31.339  28.841  1.00  0.00    -0.205 F 
ATOM     45  C   UNL A   1      36.236  31.543  32.066  1.00  0.00     0.022 A 
BRANCH  43  46
ATOM     46  S   UNL A   1      35.292  32.624  29.737  1.00  0.00     0.127 S 
ATOM     47  O   UNL A   1      34.925  31.635  28.723  1.00  0.00    -0.237 OA
ATOM     48  O   UNL A   1      34.256  32.890  30.734  1.00  0.00    -0.237 OA
ATOM     49  O   UNL A   1      35.972  33.806  29.226  1.00  0.00    -0.744 OA
ENDBRANCH  43  46
ENDBRANCH  25  39
BRANCH  26  50
ATOM     50  C   UNL A   1      46.897  27.178  26.271  1.00  0.00     0.023 A 
ATOM     51  C   UNL A   1      47.845  26.324  26.866  1.00  0.00     0.012 A 
ATOM     52  C   UNL A   1      47.097  27.593  24.937  1.00  0.00     0.148 A 
ATOM     53  C   UNL A   1      48.988  25.930  26.166  1.00  0.00     0.002 A 
ATOM     54  C   UNL A   1      48.204  27.146  24.225  1.00  0.00     0.091 A 
ATOM     55  F   UNL A   1      46.200  28.423  24.386  1.00  0.00    -0.205 F 
ATOM     56  C   UNL A   1      49.164  26.333  24.844  1.00  0.00     0.022 A 
BRANCH  54  57
ATOM     57  S   UNL A   1      48.436  27.516  22.482  1.00  0.00     0.127 S 
ATOM     58  O   UNL A   1      49.715  28.220  22.492  1.00  0.00    -0.237 OA
ATOM     59  O   UNL A   1      48.474  26.178  21.889  1.00  0.00    -0.237 OA
ATOM     60  O   UNL A   1      47.276  28.305  22.092  1.00  0.00    -0.744 OA
ENDBRANCH  54  57
ENDBRANCH  26  50
BRANCH  38  61
ATOM     61  C   UNL A   1      45.172  33.159  29.433  1.00  0.00     0.023 A 
ATOM     62  C   UNL A   1      46.019  33.361  30.539  1.00  0.00     0.012 A 
ATOM     63  C   UNL A   1      45.099  34.131  28.419  1.00  0.00     0.148 A 
ATOM     64  C   UNL A   1      46.770  34.528  30.644  1.00  0.00     0.002 A 
ATOM     65  C   UNL A   1      45.894  35.264  28.501  1.00  0.00     0.091 A 
ATOM     66  F   UNL A   1      44.272  33.916  27.386  1.00  0.00    -0.205 F 
ATOM     67  C   UNL A   1      46.721  35.471  29.618  1.00  0.00     0.022 A 
BRANCH  65  68
ATOM     68  S   UNL A   1      45.984  36.471  27.176  1.00  0.00     0.127 S 
ATOM     69  O   UNL A   1      44.605  36.955  27.122  1.00  0.00    -0.237 OA
ATOM     70  O   UNL A   1      46.949  37.434  27.705  1.00  0.00    -0.237 OA
ATOM     71  O   UNL A   1      46.432  35.746  25.996  1.00  0.00    -0.744 OA
ENDBRANCH  65  68
ENDBRANCH  38  61
ENDBRANCH  12  13
ENDBRANCH   5   7
ENDBRANCH   4   5
ENDBRANCH   3   4
ENDBRANCH   2   3
ENDBRANCH   1   2
BRANCH   1  72
ATOM     72  C   UNL A   1      32.970  20.225  25.640  1.00  0.00     0.202 C 
BRANCH  72  73
ATOM     73  C   UNL A   1      32.062  21.438  25.439  1.00  0.00     0.261 C 
BRANCH  73  74
ATOM     74  O   UNL A   1      32.842  22.623  25.691  1.00  0.00    -0.460 OA
BRANCH  74  75
ATOM     75  C   UNL A   1      32.229  23.813  25.444  1.00  0.00     0.341 C 
ATOM     76  O   UNL A   1      31.689  24.564  26.234  1.00  0.00    -0.246 OA
BRANCH  75  77
ATOM     77  C   UNL A   1      32.429  24.143  24.022  1.00  0.00     0.102 A 
ATOM     78  C   UNL A   1      33.451  23.495  23.315  1.00  0.00     0.021 A 
ATOM     79  C   UNL A   1      31.625  25.091  23.369  1.00  0.00     0.144 A 
ATOM     80  C   UNL A   1      33.655  23.799  21.978  1.00  0.00     0.021 A 
ATOM     81  N   UNL A   1      31.836  25.378  22.058  1.00  0.00    -0.238 NA
ATOM     82  C   UNL A   1      32.823  24.734  21.399  1.00  0.00     0.113 A 
BRANCH  79  83
ATOM     83  N   UNL A   1      30.682  25.878  24.063  1.00  0.00    -0.340 N 
ATOM     84  H   UNL A   1      29.997  25.400  24.585  1.00  0.00     0.168 HD
BRANCH  83  85
ATOM     85  C   UNL A   1      30.631  27.286  24.080  1.00  0.00     0.040 A 
ATOM     86  C   UNL A   1      31.451  28.031  24.935  1.00  0.00     0.026 A 
ATOM     87  C   UNL A   1      29.665  27.959  23.328  1.00  0.00     0.039 A 
ATOM     88  C   UNL A   1      31.349  29.424  24.994  1.00  0.00     0.003 A 
ATOM     89  C   UNL A   1      29.540  29.356  23.383  1.00  0.00     0.058 A 
ATOM     90  C   UNL A   1      30.399  30.085  24.218  1.00  0.00     0.013 A 
BRANCH  89  91
ATOM     91  C   UNL A   1      28.502  30.063  22.553  1.00  0.00     0.416 C 
ATOM     92  F   UNL A   1      29.034  30.683  21.464  1.00  0.00    -0.166 F 
ATOM     93  F   UNL A   1      27.555  29.210  22.068  1.00  0.00    -0.166 F 
ATOM     94  F   UNL A   1      27.818  31.026  23.232  1.00  0.00    -0.166 F 
ENDBRANCH  89  91
ENDBRANCH  83  85
ENDBRANCH  79  83
ENDBRANCH  75  77
ENDBRANCH  74  75
ENDBRANCH  73  74
ENDBRANCH  72  73
ENDBRANCH   1  72
TORSDOF 20
ENDMDL
MODEL 3
REMARK VINA RESULT:     -11.0      5.653     10.372
REMARK SMILES O=C(OCCOCCOC(=O)c1cccnc1Nc1cccc(C(F)(F)F)c1)c1ccc(-c2c3nc(c(-c4cccc(S(=O)(=O)[O-])c4F)c4ccc([nH]4)c(-c4cccc(S(=O)(=O)[O-])c4F)c4nc(c(-c5cccc(S(=O)(=O)[O-])c5F)c5ccc2[nH]5)C=C4)C=C3)cc1
REMARK SMILES IDX 6 1 5 2 4 3 3 4 2 5 1 6 29 7 30 8 91 9 31 10 90 11 32 12
REMARK SMILES IDX 33 13 34 14 84 15 35 16 89 17 83 18 85 19 36 20 88 21 82 22
REMARK SMILES IDX 81 23 37 25 69 26 49 27 68 28 50 29 53 30 67 31 86 32 51 33
REMARK SMILES IDX 52 34 66 36 87 37 54 38 38 39 39 40 47 41 40 42 42 43 48 44
REMARK SMILES IDX 41 45 43 46 44 47 45 48 46 49 70 50 71 51 79 52 72 53 74 54
REMARK SMILES IDX 80 55 73 56 75 57 76 58 77 59 78 60 55 61 56 62 64 63 57 64
REMARK SMILES IDX 59 65 65 66 58 67 60 68 61 69 62 70 63 71 7 72 8 73 9 74
REMARK SMILES IDX 10 75 11 76 12 77 13 78 17 79 14 80 16 81 15 82 18 83 19 85
REMARK SMILES IDX 20 86 28 87 21 88 23 89 22 90 24 91 25 92 26 93 27 94
REMARK H PARENT 85 24 53 35 18 84
REMARK Flexibility Score: inf
ROOT
ATOM      1  O   UNL A   1      35.421  22.247  24.430  1.00  0.00    -0.374 OA
ENDROOT
BRANCH   1   2
ATOM      2  C   UNL A   1      36.817  22.207  24.185  1.00  0.00     0.202 C 
BRANCH   2   3
ATOM      3  C   UNL A   1      37.556  20.991  24.737  1.00  0.00     0.261 C 
BRANCH   3   4
ATOM      4  O   UNL A   1      38.097  21.272  26.035  1.00  0.00    -0.460 OA
BRANCH   4   5
ATOM      5  C   UNL A   1      39.409  21.477  26.313  1.00  0.00     0.338 C 
ATOM      6  O   UNL A   1      40.219  20.578  26.106  1.00  0.00    -0.246 OA
BRANCH   5   7
ATOM      7  C   UNL A   1      39.897  22.775  26.856  1.00  0.00     0.060 A 
ATOM      8  C   UNL A   1      40.876  22.857  27.843  1.00  0.00     0.016 A 
ATOM      9  C   UNL A   1      39.439  23.963  26.281  1.00  0.00     0.016 A 
ATOM     10  C   UNL A   1      41.354  24.055  28.317  1.00  0.00     0.010 A 
ATOM     11  C   UNL A   1      39.985  25.188  26.683  1.00  0.00     0.010 A 
ATOM     12  C   UNL A   1      40.958  25.223  27.691  1.00  0.00    -0.014 A 
BRANCH  12  13
ATOM     13  C   UNL A   1      41.621  26.458  28.125  1.00  0.00     0.031 A 
ATOM     14  C   UNL A   1      40.833  27.451  28.902  1.00  0.00     0.074 A 
ATOM     15  C   UNL A   1      42.938  26.607  27.880  1.00  0.00     0.049 A 
ATOM     16  N   UNL A   1      41.171  28.652  29.268  1.00  0.00    -0.248 NA
ATOM     17  C   UNL A   1      39.484  27.038  29.331  1.00  0.00     0.031 C 
ATOM     18  C   UNL A   1      43.796  25.606  27.230  1.00  0.00     0.029 A 
ATOM     19  N   UNL A   1      43.788  27.646  28.141  1.00  0.00    -0.354 N 
ATOM     20  C   UNL A   1      40.048  29.176  29.889  1.00  0.00     0.074 A 
ATOM     21  C   UNL A   1      39.035  28.145  29.903  1.00  0.00     0.031 C 
ATOM     22  C   UNL A   1      45.044  26.089  27.131  1.00  0.00     0.029 A 
ATOM     23  C   UNL A   1      45.046  27.460  27.614  1.00  0.00     0.049 A 
ATOM     24  H   UNL A   1      43.526  28.444  28.654  1.00  0.00     0.167 HD
ATOM     25  C   UNL A   1      39.887  30.428  30.366  1.00  0.00     0.034 A 
ATOM     26  C   UNL A   1      46.055  28.339  27.465  1.00  0.00     0.034 A 
ATOM     27  C   UNL A   1      40.933  31.410  30.343  1.00  0.00     0.049 A 
ATOM     28  C   UNL A   1      45.820  29.739  27.960  1.00  0.00     0.074 A 
ATOM     29  C   UNL A   1      40.901  32.710  30.802  1.00  0.00     0.029 A 
ATOM     30  N   UNL A   1      42.196  31.195  29.807  1.00  0.00    -0.354 N 
ATOM     31  N   UNL A   1      44.772  30.225  28.585  1.00  0.00    -0.248 NA
ATOM     32  C   UNL A   1      46.892  30.714  27.730  1.00  0.00     0.031 C 
ATOM     33  C   UNL A   1      42.132  33.299  30.499  1.00  0.00     0.029 A 
ATOM     34  C   UNL A   1      42.945  32.352  29.891  1.00  0.00     0.049 A 
ATOM     35  H   UNL A   1      42.511  30.345  29.424  1.00  0.00     0.167 HD
ATOM     36  C   UNL A   1      45.063  31.557  28.836  1.00  0.00     0.074 A 
ATOM     37  C   UNL A   1      46.401  31.791  28.327  1.00  0.00     0.031 C 
ATOM     38  C   UNL A   1      44.294  32.515  29.409  1.00  0.00     0.034 A 
BRANCH  25  39
ATOM     39  C   UNL A   1      38.527  30.813  30.865  1.00  0.00     0.023 A 
ATOM     40  C   UNL A   1      38.131  30.519  32.183  1.00  0.00     0.012 A 
ATOM     41  C   UNL A   1      37.643  31.496  30.007  1.00  0.00     0.148 A 
ATOM     42  C   UNL A   1      36.861  30.883  32.633  1.00  0.00     0.002 A 
ATOM     43  C   UNL A   1      36.400  31.895  30.476  1.00  0.00     0.091 A 
ATOM     44  F   UNL A   1      38.033  31.731  28.745  1.00  0.00    -0.205 F 
ATOM     45  C   UNL A   1      36.003  31.579  31.785  1.00  0.00     0.022 A 
BRANCH  43  46
ATOM     46  S   UNL A   1      35.252  32.850  29.482  1.00  0.00     0.127 S 
ATOM     47  O   UNL A   1      36.039  34.047  29.188  1.00  0.00    -0.237 OA
ATOM     48  O   UNL A   1      35.036  31.965  28.338  1.00  0.00    -0.237 OA
ATOM     49  O   UNL A   1      34.080  33.075  30.316  1.00  0.00    -0.744 OA
ENDBRANCH  43  46
ENDBRANCH  25  39
BRANCH  26  50
ATOM     50  C   UNL A   1      47.314  27.952  26.765  1.00  0.00     0.023 A 
ATOM     51  C   UNL A   1      48.466  27.644  27.513  1.00  0.00     0.012 A 
ATOM     52  C   UNL A   1      47.384  27.903  25.356  1.00  0.00     0.148 A 
ATOM     53  C   UNL A   1      49.671  27.339  26.875  1.00  0.00     0.002 A 
ATOM     54  C   UNL A   1      48.569  27.538  24.728  1.00  0.00     0.091 A 
ATOM     55  F   UNL A   1      46.289  28.219  24.652  1.00  0.00    -0.205 F 
ATOM     56  C   UNL A   1      49.721  27.278  25.484  1.00  0.00     0.022 A 
BRANCH  54  57
ATOM     57  S   UNL A   1      48.680  27.311  22.949  1.00  0.00     0.127 S 
ATOM     58  O   UNL A   1      47.770  28.341  22.458  1.00  0.00    -0.237 OA
ATOM     59  O   UNL A   1      50.099  27.572  22.697  1.00  0.00    -0.237 OA
ATOM     60  O   UNL A   1      48.277  25.933  22.705  1.00  0.00    -0.744 OA
ENDBRANCH  54  57
ENDBRANCH  26  50
BRANCH  38  61
ATOM     61  C   UNL A   1      44.891  33.885  29.536  1.00  0.00     0.023 A 
ATOM     62  C   UNL A   1      45.598  34.233  30.702  1.00  0.00     0.012 A 
ATOM     63  C   UNL A   1      44.844  34.779  28.451  1.00  0.00     0.148 A 
ATOM     64  C   UNL A   1      46.237  35.466  30.793  1.00  0.00     0.002 A 
ATOM     65  C   UNL A   1      45.532  35.980  28.526  1.00  0.00     0.091 A 
ATOM     66  F   UNL A   1      44.149  34.424  27.361  1.00  0.00    -0.205 F 
ATOM     67  C   UNL A   1      46.219  36.332  29.701  1.00  0.00     0.022 A 
BRANCH  65  68
ATOM     68  S   UNL A   1      45.660  37.101  27.130  1.00  0.00     0.127 S 
ATOM     69  O   UNL A   1      46.658  38.058  27.609  1.00  0.00    -0.237 OA
ATOM     70  O   UNL A   1      46.127  36.214  26.066  1.00  0.00    -0.237 OA
ATOM     71  O   UNL A   1      44.326  37.648  26.926  1.00  0.00    -0.744 OA
ENDBRANCH  65  68
ENDBRANCH  38  61
ENDBRANCH  12  13
ENDBRANCH   5   7
ENDBRANCH   4   5
ENDBRANCH   3   4
ENDBRANCH   2   3
ENDBRANCH   1   2
BRANCH   1  72
ATOM     72  C   UNL A   1      34.924  23.275  25.281  1.00  0.00     0.202 C 
BRANCH  72  73
ATOM     73  C   UNL A   1      33.562  22.808  25.793  1.00  0.00     0.261 C 
BRANCH  73  74
ATOM     74  O   UNL A   1      32.764  22.432  24.654  1.00  0.00    -0.460 OA
BRANCH  74  75
ATOM     75  C   UNL A   1      31.697  23.231  24.375  1.00  0.00     0.341 C 
ATOM     76  O   UNL A   1      30.686  23.398  25.029  1.00  0.00    -0.246 OA
BRANCH  75  77
ATOM     77  C   UNL A   1      32.012  24.002  23.159  1.00  0.00     0.102 A 
ATOM     78  C   UNL A   1      32.899  23.456  22.222  1.00  0.00     0.021 A 
ATOM     79  C   UNL A   1      31.449  25.268  22.929  1.00  0.00     0.144 A 
ATOM     80  C   UNL A   1      33.209  24.172  21.077  1.00  0.00     0.021 A 
ATOM     81  N   UNL A   1      31.762  25.958  21.801  1.00  0.00    -0.238 NA
ATOM     82  C   UNL A   1      32.614  25.406  20.911  1.00  0.00     0.113 A 
BRANCH  79  83
ATOM     83  N   UNL A   1      30.669  25.930  23.901  1.00  0.00    -0.340 N 
ATOM     84  H   UNL A   1      29.953  25.408  24.331  1.00  0.00     0.168 HD
BRANCH  83  85
ATOM     85  C   UNL A   1      30.822  27.267  24.315  1.00  0.00     0.040 A 
ATOM     86  C   UNL A   1      30.164  28.311  23.655  1.00  0.00     0.026 A 
ATOM     87  C   UNL A   1      31.739  27.586  25.320  1.00  0.00     0.039 A 
ATOM     88  C   UNL A   1      30.372  29.641  24.029  1.00  0.00     0.003 A 
ATOM     89  C   UNL A   1      31.969  28.917  25.702  1.00  0.00     0.058 A 
ATOM     90  C   UNL A   1      31.269  29.944  25.053  1.00  0.00     0.013 A 
BRANCH  89  91
ATOM     91  C   UNL A   1      32.950  29.239  26.798  1.00  0.00     0.416 C 
ATOM     92  F   UNL A   1      33.249  28.158  27.569  1.00  0.00    -0.166 F 
ATOM     93  F   UNL A   1      34.142  29.689  26.312  1.00  0.00    -0.166 F 
ATOM     94  F   UNL A   1      32.516  30.201  27.659  1.00  0.00    -0.166 F 
ENDBRANCH  89  91
ENDBRANCH  83  85
ENDBRANCH  79  83
ENDBRANCH  75  77
ENDBRANCH  74  75
ENDBRANCH  73  74
ENDBRANCH  72  73
ENDBRANCH   1  72
TORSDOF 20
ENDMDL
