MODEL 1
REMARK VINA RESULT:     -10.9      0.000      0.000
REMARK SMILES CC(C)C[C@@H](NC(=O)c1cccnc1)C(=O)OCCOCCOC(=O)c1ccc(-c2c3nc(c(-c4cccc(S(=O)(=O)[O-])c4F)c4ccc([nH]4)c(-c4cccc(S(=O)(=O)[O-])c4F)c4nc(c(-c5cccc(S(=O)(=O)[O-])c5F)c5ccc2[nH]5)C=C4)C=C3)cc1
REMARK SMILES IDX 21 1 20 2 19 3 18 4 17 5 15 6 16 7 5 8 4 9 2 10 1 11 3 12
REMARK SMILES IDX 6 13 7 14 8 16 9 17 10 18 14 19 11 20 13 21 12 22 22 23
REMARK SMILES IDX 23 24 24 25 25 26 26 27 27 28 88 29 28 30 87 31 29 32 30 33
REMARK SMILES IDX 31 34 81 35 32 36 86 37 80 38 82 39 33 40 85 41 79 42 78 43
REMARK SMILES IDX 34 45 66 46 46 47 65 48 47 49 50 50 64 51 83 52 48 53 49 54
REMARK SMILES IDX 63 56 84 57 51 58 35 59 36 60 44 61 37 62 39 63 45 64 38 65
REMARK SMILES IDX 40 66 41 67 42 68 43 69 67 70 68 71 76 72 69 73 71 74 77 75
REMARK SMILES IDX 70 76 72 77 73 78 74 79 75 80 52 81 53 82 61 83 54 84 56 85
REMARK SMILES IDX 62 86 55 87 57 88 58 89 59 90 60 91
REMARK H PARENT 6 15 82 44 50 55
REMARK Flexibility Score: inf
ROOT
ATOM      1  C   UNL A   1      36.227  20.449  25.137  1.00  0.00     0.202 C 
ENDROOT
BRANCH   1   2
ATOM      2  O   UNL A   1      35.418  19.340  24.755  1.00  0.00    -0.374 OA
BRANCH   2   3
ATOM      3  C   UNL A   1      34.007  19.466  24.841  1.00  0.00     0.202 C 
BRANCH   3   4
ATOM      4  C   UNL A   1      33.373  20.865  24.818  1.00  0.00     0.261 C 
BRANCH   4   5
ATOM      5  O   UNL A   1      33.326  21.551  23.561  1.00  0.00    -0.462 OA
BRANCH   5   6
ATOM      6  C   UNL A   1      32.315  22.456  23.456  1.00  0.00     0.328 C 
ATOM      7  O   UNL A   1      31.119  22.188  23.543  1.00  0.00    -0.250 OA
BRANCH   6   8
ATOM      8  C   UNL A   1      32.811  23.869  23.122  1.00  0.00     0.192 C 
BRANCH   8   9
ATOM      9  C   UNL A   1      34.319  24.000  23.437  1.00  0.00     0.040 C 
BRANCH   9  10
ATOM     10  C   UNL A   1      34.672  24.865  24.668  1.00  0.00    -0.015 C 
ATOM     11  C   UNL A   1      33.430  25.451  25.343  1.00  0.00     0.007 C 
ATOM     12  C   UNL A   1      35.441  24.012  25.685  1.00  0.00     0.007 C 
ENDBRANCH   9  10
ENDBRANCH   8   9
BRANCH   8  13
ATOM     13  N   UNL A   1      32.532  24.381  21.766  1.00  0.00    -0.339 N 
ATOM     14  C   UNL A   1      32.667  25.641  21.241  1.00  0.00     0.253 C 
ATOM     15  H   UNL A   1      32.194  23.706  21.134  1.00  0.00     0.164 HD
ATOM     16  O   UNL A   1      32.945  25.786  20.055  1.00  0.00    -0.269 OA
BRANCH  14  17
ATOM     17  C   UNL A   1      32.330  26.821  22.038  1.00  0.00     0.058 A 
ATOM     18  C   UNL A   1      31.046  27.049  22.524  1.00  0.00     0.017 A 
ATOM     19  C   UNL A   1      33.339  27.713  22.377  1.00  0.00     0.124 A 
ATOM     20  C   UNL A   1      30.805  28.197  23.278  1.00  0.00     0.021 A 
ATOM     21  N   UNL A   1      33.128  28.836  23.106  1.00  0.00    -0.264 NA
ATOM     22  C   UNL A   1      31.867  29.051  23.544  1.00  0.00     0.111 A 
ENDBRANCH  14  17
ENDBRANCH   8  13
ENDBRANCH   6   8
ENDBRANCH   5   6
ENDBRANCH   4   5
ENDBRANCH   3   4
ENDBRANCH   2   3
ENDBRANCH   1   2
BRANCH   1  23
ATOM     23  C   UNL A   1      37.728  20.398  24.836  1.00  0.00     0.261 C 
BRANCH  23  24
ATOM     24  O   UNL A   1      38.405  21.621  25.186  1.00  0.00    -0.460 OA
BRANCH  24  25
ATOM     25  C   UNL A   1      39.509  21.449  25.945  1.00  0.00     0.338 C 
ATOM     26  O   UNL A   1      40.338  20.545  25.836  1.00  0.00    -0.246 OA
BRANCH  25  27
ATOM     27  C   UNL A   1      39.731  22.579  26.857  1.00  0.00     0.060 A 
ATOM     28  C   UNL A   1      38.964  23.733  26.651  1.00  0.00     0.016 A 
ATOM     29  C   UNL A   1      40.796  22.584  27.760  1.00  0.00     0.016 A 
ATOM     30  C   UNL A   1      39.325  24.927  27.267  1.00  0.00     0.010 A 
ATOM     31  C   UNL A   1      41.160  23.787  28.375  1.00  0.00     0.010 A 
ATOM     32  C   UNL A   1      40.468  24.975  28.074  1.00  0.00    -0.014 A 
BRANCH  32  33
ATOM     33  C   UNL A   1      41.055  26.300  28.393  1.00  0.00     0.031 A 
ATOM     34  C   UNL A   1      42.469  26.588  27.955  1.00  0.00     0.074 A 
ATOM     35  C   UNL A   1      40.333  27.251  29.008  1.00  0.00     0.049 A 
ATOM     36  N   UNL A   1      43.159  27.695  28.054  1.00  0.00    -0.248 NA
ATOM     37  C   UNL A   1      43.203  25.481  27.318  1.00  0.00     0.031 C 
ATOM     38  C   UNL A   1      38.957  27.099  29.476  1.00  0.00     0.029 A 
ATOM     39  N   UNL A   1      40.666  28.538  29.350  1.00  0.00    -0.354 N 
ATOM     40  C   UNL A   1      44.410  27.412  27.516  1.00  0.00     0.074 A 
ATOM     41  C   UNL A   1      44.393  26.025  27.107  1.00  0.00     0.031 C 
ATOM     42  C   UNL A   1      38.566  28.246  30.057  1.00  0.00     0.029 A 
ATOM     43  C   UNL A   1      39.664  29.211  30.006  1.00  0.00     0.049 A 
ATOM     44  H   UNL A   1      41.540  28.942  29.143  1.00  0.00     0.167 HD
ATOM     45  C   UNL A   1      45.472  28.235  27.354  1.00  0.00     0.034 A 
ATOM     46  C   UNL A   1      39.638  30.462  30.505  1.00  0.00     0.034 A 
ATOM     47  C   UNL A   1      45.479  29.623  27.725  1.00  0.00     0.049 A 
ATOM     48  C   UNL A   1      40.833  31.360  30.310  1.00  0.00     0.074 A 
ATOM     49  C   UNL A   1      46.487  30.556  27.550  1.00  0.00     0.029 A 
ATOM     50  N   UNL A   1      44.432  30.278  28.352  1.00  0.00    -0.354 N 
ATOM     51  N   UNL A   1      41.955  31.118  29.676  1.00  0.00    -0.248 NA
ATOM     52  C   UNL A   1      40.742  32.719  30.866  1.00  0.00     0.031 C 
ATOM     53  C   UNL A   1      46.052  31.774  28.085  1.00  0.00     0.029 A 
ATOM     54  C   UNL A   1      44.769  31.601  28.580  1.00  0.00     0.049 A 
ATOM     55  H   UNL A   1      43.573  29.864  28.597  1.00  0.00     0.167 HD
ATOM     56  C   UNL A   1      42.683  32.303  29.720  1.00  0.00     0.074 A 
ATOM     57  C   UNL A   1      41.868  33.267  30.430  1.00  0.00     0.031 C 
ATOM     58  C   UNL A   1      43.921  32.566  29.231  1.00  0.00     0.034 A 
BRANCH  45  59
ATOM     59  C   UNL A   1      46.706  27.662  26.711  1.00  0.00     0.023 A 
ATOM     60  C   UNL A   1      47.609  26.908  27.488  1.00  0.00     0.012 A 
ATOM     61  C   UNL A   1      46.953  27.831  25.336  1.00  0.00     0.148 A 
ATOM     62  C   UNL A   1      48.751  26.355  26.912  1.00  0.00     0.002 A 
ATOM     63  C   UNL A   1      48.075  27.246  24.760  1.00  0.00     0.091 A 
ATOM     64  F   UNL A   1      46.099  28.577  24.619  1.00  0.00    -0.205 F 
ATOM     65  C   UNL A   1      48.978  26.514  25.548  1.00  0.00     0.022 A 
BRANCH  63  66
ATOM     66  S   UNL A   1      48.411  27.342  22.998  1.00  0.00     0.127 S 
ATOM     67  O   UNL A   1      47.317  28.194  22.534  1.00  0.00    -0.237 OA
ATOM     68  O   UNL A   1      49.731  27.974  22.967  1.00  0.00    -0.237 OA
ATOM     69  O   UNL A   1      48.389  25.969  22.514  1.00  0.00    -0.744 OA
ENDBRANCH  63  66
ENDBRANCH  45  59
BRANCH  46  70
ATOM     70  C   UNL A   1      38.409  30.969  31.177  1.00  0.00     0.023 A 
ATOM     71  C   UNL A   1      38.285  30.849  32.575  1.00  0.00     0.012 A 
ATOM     72  C   UNL A   1      37.373  31.581  30.446  1.00  0.00     0.148 A 
ATOM     73  C   UNL A   1      37.140  31.308  33.230  1.00  0.00     0.002 A 
ATOM     74  C   UNL A   1      36.258  32.078  31.110  1.00  0.00     0.091 A 
ATOM     75  F   UNL A   1      37.499  31.663  29.113  1.00  0.00    -0.205 F 
ATOM     76  C   UNL A   1      36.133  31.931  32.499  1.00  0.00     0.022 A 
BRANCH  74  77
ATOM     77  S   UNL A   1      34.969  32.996  30.259  1.00  0.00     0.127 S 
ATOM     78  O   UNL A   1      34.029  33.267  31.344  1.00  0.00    -0.237 OA
ATOM     79  O   UNL A   1      35.698  34.167  29.770  1.00  0.00    -0.237 OA
ATOM     80  O   UNL A   1      34.489  32.109  29.208  1.00  0.00    -0.744 OA
ENDBRANCH  74  77
ENDBRANCH  46  70
BRANCH  58  81
ATOM     81  C   UNL A   1      44.464  33.960  29.411  1.00  0.00     0.023 A 
ATOM     82  C   UNL A   1      45.171  34.285  30.585  1.00  0.00     0.012 A 
ATOM     83  C   UNL A   1      44.344  34.919  28.387  1.00  0.00     0.148 A 
ATOM     84  C   UNL A   1      45.722  35.556  30.750  1.00  0.00     0.002 A 
ATOM     85  C   UNL A   1      44.936  36.169  28.540  1.00  0.00     0.091 A 
ATOM     86  F   UNL A   1      43.651  34.600  27.284  1.00  0.00    -0.205 F 
ATOM     87  C   UNL A   1      45.615  36.492  29.724  1.00  0.00     0.022 A 
BRANCH  85  88
ATOM     88  S   UNL A   1      44.922  37.393  27.224  1.00  0.00     0.127 S 
ATOM     89  O   UNL A   1      43.502  37.455  26.887  1.00  0.00    -0.237 OA
ATOM     90  O   UNL A   1      45.441  38.586  27.896  1.00  0.00    -0.237 OA
ATOM     91  O   UNL A   1      45.798  36.863  26.187  1.00  0.00    -0.744 OA
ENDBRANCH  85  88
ENDBRANCH  58  81
ENDBRANCH  32  33
ENDBRANCH  25  27
ENDBRANCH  24  25
ENDBRANCH  23  24
ENDBRANCH   1  23
TORSDOF 21
ENDMDL
MODEL 2
REMARK VINA RESULT:     -10.8      4.948     10.191
REMARK SMILES CC(C)C[C@@H](NC(=O)c1cccnc1)C(=O)OCCOCCOC(=O)c1ccc(-c2c3nc(c(-c4cccc(S(=O)(=O)[O-])c4F)c4ccc([nH]4)c(-c4cccc(S(=O)(=O)[O-])c4F)c4nc(c(-c5cccc(S(=O)(=O)[O-])c5F)c5ccc2[nH]5)C=C4)C=C3)cc1
REMARK SMILES IDX 21 1 20 2 19 3 18 4 17 5 15 6 16 7 5 8 4 9 2 10 1 11 3 12
REMARK SMILES IDX 6 13 7 14 8 16 9 17 10 18 14 19 11 20 13 21 12 22 22 23
REMARK SMILES IDX 23 24 24 25 25 26 26 27 27 28 88 29 28 30 87 31 29 32 30 33
REMARK SMILES IDX 31 34 81 35 32 36 86 37 80 38 82 39 33 40 85 41 79 42 78 43
REMARK SMILES IDX 34 45 66 46 46 47 65 48 47 49 50 50 64 51 83 52 48 53 49 54
REMARK SMILES IDX 63 56 84 57 51 58 35 59 36 60 44 61 37 62 39 63 45 64 38 65
REMARK SMILES IDX 40 66 41 67 42 68 43 69 67 70 68 71 76 72 69 73 71 74 77 75
REMARK SMILES IDX 70 76 72 77 73 78 74 79 75 80 52 81 53 82 61 83 54 84 56 85
REMARK SMILES IDX 62 86 55 87 57 88 58 89 59 90 60 91
REMARK H PARENT 6 15 82 44 50 55
REMARK Flexibility Score: inf
ROOT
ATOM      1  C   UNL A   1      31.422  30.453  25.906  1.00  0.00     0.202 C 
ENDROOT
BRANCH   1   2
ATOM      2  O   UNL A   1      32.266  29.312  26.025  1.00  0.00    -0.374 OA
BRANCH   2   3
ATOM      3  C   UNL A   1      31.666  28.034  26.160  1.00  0.00     0.202 C 
BRANCH   3   4
ATOM      4  C   UNL A   1      32.531  26.837  26.584  1.00  0.00     0.261 C 
BRANCH   4   5
ATOM      5  O   UNL A   1      33.493  26.348  25.643  1.00  0.00    -0.462 OA
BRANCH   5   6
ATOM      6  C   UNL A   1      33.171  25.148  25.087  1.00  0.00     0.328 C 
ATOM      7  O   UNL A   1      32.270  24.411  25.477  1.00  0.00    -0.250 OA
BRANCH   6   8
ATOM      8  C   UNL A   1      34.118  24.744  23.949  1.00  0.00     0.192 C 
BRANCH   8   9
ATOM      9  C   UNL A   1      34.976  23.527  24.367  1.00  0.00     0.040 C 
BRANCH   9  10
ATOM     10  C   UNL A   1      35.491  23.539  25.823  1.00  0.00    -0.015 C 
ATOM     11  C   UNL A   1      35.165  22.242  26.567  1.00  0.00     0.007 C 
ATOM     12  C   UNL A   1      37.010  23.748  25.824  1.00  0.00     0.007 C 
ENDBRANCH   9  10
ENDBRANCH   8   9
BRANCH   8  13
ATOM     13  N   UNL A   1      33.519  24.507  22.622  1.00  0.00    -0.339 N 
ATOM     14  C   UNL A   1      33.113  25.390  21.654  1.00  0.00     0.253 C 
ATOM     15  H   UNL A   1      33.389  23.559  22.393  1.00  0.00     0.164 HD
ATOM     16  O   UNL A   1      33.181  25.078  20.469  1.00  0.00    -0.269 OA
BRANCH  14  17
ATOM     17  C   UNL A   1      32.450  26.644  22.017  1.00  0.00     0.058 A 
ATOM     18  C   UNL A   1      33.163  27.800  22.321  1.00  0.00     0.017 A 
ATOM     19  C   UNL A   1      31.064  26.702  21.995  1.00  0.00     0.124 A 
ATOM     20  C   UNL A   1      32.458  28.957  22.656  1.00  0.00     0.021 A 
ATOM     21  N   UNL A   1      30.359  27.813  22.319  1.00  0.00    -0.264 NA
ATOM     22  C   UNL A   1      31.071  28.916  22.638  1.00  0.00     0.111 A 
ENDBRANCH  14  17
ENDBRANCH   8  13
ENDBRANCH   6   8
ENDBRANCH   5   6
ENDBRANCH   4   5
ENDBRANCH   3   4
ENDBRANCH   2   3
ENDBRANCH   1   2
BRANCH   1  23
ATOM     23  C   UNL A   1      31.806  31.730  26.659  1.00  0.00     0.261 C 
BRANCH  23  24
ATOM     24  O   UNL A   1      32.725  31.481  27.741  1.00  0.00    -0.460 OA
BRANCH  24  25
ATOM     25  C   UNL A   1      33.644  32.455  27.926  1.00  0.00     0.338 C 
ATOM     26  O   UNL A   1      33.415  33.639  28.176  1.00  0.00    -0.246 OA
BRANCH  25  27
ATOM     27  C   UNL A   1      35.012  31.920  27.960  1.00  0.00     0.060 A 
ATOM     28  C   UNL A   1      35.158  30.533  28.083  1.00  0.00     0.016 A 
ATOM     29  C   UNL A   1      36.118  32.765  28.070  1.00  0.00     0.016 A 
ATOM     30  C   UNL A   1      36.394  29.991  28.423  1.00  0.00     0.010 A 
ATOM     31  C   UNL A   1      37.359  32.219  28.416  1.00  0.00     0.010 A 
ATOM     32  C   UNL A   1      37.482  30.839  28.663  1.00  0.00    -0.014 A 
BRANCH  32  33
ATOM     33  C   UNL A   1      38.655  30.297  29.393  1.00  0.00     0.031 A 
ATOM     34  C   UNL A   1      38.897  30.755  30.809  1.00  0.00     0.074 A 
ATOM     35  C   UNL A   1      39.457  29.376  28.835  1.00  0.00     0.049 A 
ATOM     36  N   UNL A   1      39.807  30.362  31.664  1.00  0.00    -0.248 NA
ATOM     37  C   UNL A   1      37.993  31.792  31.334  1.00  0.00     0.031 C 
ATOM     38  C   UNL A   1      39.325  28.849  27.478  1.00  0.00     0.029 A 
ATOM     39  N   UNL A   1      40.551  28.723  29.347  1.00  0.00    -0.354 N 
ATOM     40  C   UNL A   1      39.600  31.117  32.812  1.00  0.00     0.074 A 
ATOM     41  C   UNL A   1      38.490  32.004  32.544  1.00  0.00     0.031 C 
ATOM     42  C   UNL A   1      40.311  27.961  27.259  1.00  0.00     0.029 A 
ATOM     43  C   UNL A   1      41.144  27.861  28.457  1.00  0.00     0.049 A 
ATOM     44  H   UNL A   1      40.879  28.859  30.265  1.00  0.00     0.167 HD
ATOM     45  C   UNL A   1      40.257  31.064  33.995  1.00  0.00     0.034 A 
ATOM     46  C   UNL A   1      42.233  27.080  28.597  1.00  0.00     0.034 A 
ATOM     47  C   UNL A   1      41.335  30.158  34.278  1.00  0.00     0.049 A 
ATOM     48  C   UNL A   1      42.946  27.037  29.924  1.00  0.00     0.074 A 
ATOM     49  C   UNL A   1      42.028  29.987  35.463  1.00  0.00     0.029 A 
ATOM     50  N   UNL A   1      41.882  29.273  33.363  1.00  0.00    -0.354 N 
ATOM     51  N   UNL A   1      42.650  27.655  31.042  1.00  0.00    -0.248 NA
ATOM     52  C   UNL A   1      44.120  26.157  30.020  1.00  0.00     0.031 C 
ATOM     53  C   UNL A   1      43.006  29.006  35.260  1.00  0.00     0.029 A 
ATOM     54  C   UNL A   1      42.911  28.558  33.952  1.00  0.00     0.049 A 
ATOM     55  H   UNL A   1      41.583  29.166  32.431  1.00  0.00     0.167 HD
ATOM     56  C   UNL A   1      43.574  27.208  31.982  1.00  0.00     0.074 A 
ATOM     57  C   UNL A   1      44.429  26.255  31.306  1.00  0.00     0.031 C 
ATOM     58  C   UNL A   1      43.712  27.565  33.284  1.00  0.00     0.034 A 
BRANCH  45  59
ATOM     59  C   UNL A   1      39.799  31.991  35.089  1.00  0.00     0.023 A 
ATOM     60  C   UNL A   1      40.174  33.349  35.051  1.00  0.00     0.012 A 
ATOM     61  C   UNL A   1      38.968  31.532  36.128  1.00  0.00     0.148 A 
ATOM     62  C   UNL A   1      39.749  34.230  36.044  1.00  0.00     0.002 A 
ATOM     63  C   UNL A   1      38.518  32.424  37.095  1.00  0.00     0.091 A 
ATOM     64  F   UNL A   1      38.647  30.230  36.163  1.00  0.00    -0.205 F 
ATOM     65  C   UNL A   1      38.914  33.771  37.059  1.00  0.00     0.022 A 
BRANCH  63  66
ATOM     66  S   UNL A   1      37.384  31.935  38.400  1.00  0.00     0.127 S 
ATOM     67  O   UNL A   1      38.199  32.153  39.595  1.00  0.00    -0.237 OA
ATOM     68  O   UNL A   1      36.285  32.886  38.231  1.00  0.00    -0.237 OA
ATOM     69  O   UNL A   1      37.031  30.550  38.121  1.00  0.00    -0.744 OA
ENDBRANCH  63  66
ENDBRANCH  45  59
BRANCH  46  70
ATOM     70  C   UNL A   1      42.677  26.215  27.467  1.00  0.00     0.023 A 
ATOM     71  C   UNL A   1      43.545  26.742  26.492  1.00  0.00     0.012 A 
ATOM     72  C   UNL A   1      42.260  24.874  27.364  1.00  0.00     0.148 A 
ATOM     73  C   UNL A   1      43.970  25.957  25.419  1.00  0.00     0.002 A 
ATOM     74  C   UNL A   1      42.725  24.084  26.319  1.00  0.00     0.091 A 
ATOM     75  F   UNL A   1      41.414  24.398  28.289  1.00  0.00    -0.205 F 
ATOM     76  C   UNL A   1      43.569  24.627  25.338  1.00  0.00     0.022 A 
BRANCH  74  77
ATOM     77  S   UNL A   1      42.350  22.331  26.205  1.00  0.00     0.127 S 
ATOM     78  O   UNL A   1      42.917  21.822  27.452  1.00  0.00    -0.237 OA
ATOM     79  O   UNL A   1      40.887  22.334  26.150  1.00  0.00    -0.237 OA
ATOM     80  O   UNL A   1      42.993  21.874  24.981  1.00  0.00    -0.744 OA
ENDBRANCH  74  77
ENDBRANCH  46  70
BRANCH  58  81
ATOM     81  C   UNL A   1      44.804  26.901  34.081  1.00  0.00     0.023 A 
ATOM     82  C   UNL A   1      46.097  27.458  34.090  1.00  0.00     0.012 A 
ATOM     83  C   UNL A   1      44.530  25.775  34.881  1.00  0.00     0.148 A 
ATOM     84  C   UNL A   1      47.110  26.886  34.859  1.00  0.00     0.002 A 
ATOM     85  C   UNL A   1      45.534  25.236  35.680  1.00  0.00     0.091 A 
ATOM     86  F   UNL A   1      43.300  25.244  34.846  1.00  0.00    -0.205 F 
ATOM     87  C   UNL A   1      46.826  25.783  35.662  1.00  0.00     0.022 A 
BRANCH  85  88
ATOM     88  S   UNL A   1      45.219  23.877  36.812  1.00  0.00     0.127 S 
ATOM     89  O   UNL A   1      44.768  22.827  35.902  1.00  0.00    -0.237 OA
ATOM     90  O   UNL A   1      46.538  23.645  37.404  1.00  0.00    -0.237 OA
ATOM     91  O   UNL A   1      44.222  24.373  37.753  1.00  0.00    -0.744 OA
ENDBRANCH  85  88
ENDBRANCH  58  81
ENDBRANCH  32  33
ENDBRANCH  25  27
ENDBRANCH  24  25
ENDBRANCH  23  24
ENDBRANCH   1  23
TORSDOF 21
ENDMDL
MODEL 3
REMARK VINA RESULT:     -10.7      5.066     10.168
REMARK SMILES CC(C)C[C@@H](NC(=O)c1cccnc1)C(=O)OCCOCCOC(=O)c1ccc(-c2c3nc(c(-c4cccc(S(=O)(=O)[O-])c4F)c4ccc([nH]4)c(-c4cccc(S(=O)(=O)[O-])c4F)c4nc(c(-c5cccc(S(=O)(=O)[O-])c5F)c5ccc2[nH]5)C=C4)C=C3)cc1
REMARK SMILES IDX 21 1 20 2 19 3 18 4 17 5 15 6 16 7 5 8 4 9 2 10 1 11 3 12
REMARK SMILES IDX 6 13 7 14 8 16 9 17 10 18 14 19 11 20 13 21 12 22 22 23
REMARK SMILES IDX 23 24 24 25 25 26 26 27 27 28 88 29 28 30 87 31 29 32 30 33
REMARK SMILES IDX 31 34 81 35 32 36 86 37 80 38 82 39 33 40 85 41 79 42 78 43
REMARK SMILES IDX 34 45 66 46 46 47 65 48 47 49 50 50 64 51 83 52 48 53 49 54
REMARK SMILES IDX 63 56 84 57 51 58 35 59 36 60 44 61 37 62 39 63 45 64 38 65
REMARK SMILES IDX 40 66 41 67 42 68 43 69 67 70 68 71 76 72 69 73 71 74 77 75
REMARK SMILES IDX 70 76 72 77 73 78 74 79 75 80 52 81 53 82 61 83 54 84 56 85
REMARK SMILES IDX 62 86 55 87 57 88 58 89 59 90 60 91
REMARK H PARENT 6 15 82 44 50 55
REMARK Flexibility Score: inf
ROOT
ATOM      1  C   UNL A   1      31.773  29.008  25.465  1.00  0.00     0.202 C 
ENDROOT
BRANCH   1   2
ATOM      2  O   UNL A   1      30.967  28.918  24.294  1.00  0.00    -0.374 OA
BRANCH   2   3
ATOM      3  C   UNL A   1      31.223  27.871  23.371  1.00  0.00     0.202 C 
BRANCH   3   4
ATOM      4  C   UNL A   1      32.459  27.954  22.463  1.00  0.00     0.261 C 
BRANCH   4   5
ATOM      5  O   UNL A   1      33.526  27.031  22.711  1.00  0.00    -0.462 OA
BRANCH   5   6
ATOM      6  C   UNL A   1      33.360  25.814  22.125  1.00  0.00     0.328 C 
ATOM      7  O   UNL A   1      33.275  25.621  20.915  1.00  0.00    -0.250 OA
BRANCH   6   8
ATOM      8  C   UNL A   1      33.194  24.679  23.145  1.00  0.00     0.192 C 
BRANCH   8   9
ATOM      9  C   UNL A   1      33.616  23.328  22.522  1.00  0.00     0.040 C 
BRANCH   9  10
ATOM     10  C   UNL A   1      32.563  22.200  22.593  1.00  0.00    -0.015 C 
ATOM     11  C   UNL A   1      32.908  21.148  23.651  1.00  0.00     0.007 C 
ATOM     12  C   UNL A   1      31.191  22.804  22.917  1.00  0.00     0.007 C 
ENDBRANCH   9  10
ENDBRANCH   8   9
BRANCH   8  13
ATOM     13  N   UNL A   1      33.840  24.851  24.460  1.00  0.00    -0.339 N 
ATOM     14  C   UNL A   1      33.521  24.329  25.688  1.00  0.00     0.253 C 
ATOM     15  H   UNL A   1      34.629  25.439  24.456  1.00  0.00     0.164 HD
ATOM     16  O   UNL A   1      34.406  24.094  26.505  1.00  0.00    -0.269 OA
BRANCH  14  17
ATOM     17  C   UNL A   1      32.123  24.192  26.101  1.00  0.00     0.058 A 
ATOM     18  C   UNL A   1      31.589  22.978  26.525  1.00  0.00     0.017 A 
ATOM     19  C   UNL A   1      31.319  25.322  26.134  1.00  0.00     0.124 A 
ATOM     20  C   UNL A   1      30.248  22.929  26.905  1.00  0.00     0.021 A 
ATOM     21  N   UNL A   1      30.013  25.297  26.497  1.00  0.00    -0.264 NA
ATOM     22  C   UNL A   1      29.508  24.103  26.878  1.00  0.00     0.111 A 
ENDBRANCH  14  17
ENDBRANCH   8  13
ENDBRANCH   6   8
ENDBRANCH   5   6
ENDBRANCH   4   5
ENDBRANCH   3   4
ENDBRANCH   2   3
ENDBRANCH   1   2
BRANCH   1  23
ATOM     23  C   UNL A   1      32.250  30.390  25.921  1.00  0.00     0.261 C 
BRANCH  23  24
ATOM     24  O   UNL A   1      32.771  30.381  27.264  1.00  0.00    -0.460 OA
BRANCH  24  25
ATOM     25  C   UNL A   1      33.521  31.461  27.578  1.00  0.00     0.338 C 
ATOM     26  O   UNL A   1      33.103  32.582  27.872  1.00  0.00    -0.246 OA
BRANCH  25  27
ATOM     27  C   UNL A   1      34.946  31.125  27.696  1.00  0.00     0.060 A 
ATOM     28  C   UNL A   1      35.290  29.768  27.691  1.00  0.00     0.016 A 
ATOM     29  C   UNL A   1      35.898  32.099  28.004  1.00  0.00     0.016 A 
ATOM     30  C   UNL A   1      36.560  29.370  28.098  1.00  0.00     0.010 A 
ATOM     31  C   UNL A   1      37.173  31.697  28.417  1.00  0.00     0.010 A 
ATOM     32  C   UNL A   1      37.482  30.329  28.532  1.00  0.00    -0.014 A 
BRANCH  32  33
ATOM     33  C   UNL A   1      38.657  29.877  29.319  1.00  0.00     0.031 A 
ATOM     34  C   UNL A   1      38.795  30.349  30.744  1.00  0.00     0.074 A 
ATOM     35  C   UNL A   1      39.554  29.021  28.801  1.00  0.00     0.049 A 
ATOM     36  N   UNL A   1      39.690  30.025  31.642  1.00  0.00    -0.248 NA
ATOM     37  C   UNL A   1      37.789  31.313  31.224  1.00  0.00     0.031 C 
ATOM     38  C   UNL A   1      39.528  28.489  27.441  1.00  0.00     0.029 A 
ATOM     39  N   UNL A   1      40.668  28.453  29.366  1.00  0.00    -0.354 N 
ATOM     40  C   UNL A   1      39.371  30.759  32.778  1.00  0.00     0.074 A 
ATOM     41  C   UNL A   1      38.210  31.560  32.456  1.00  0.00     0.031 C 
ATOM     42  C   UNL A   1      40.588  27.680  27.270  1.00  0.00     0.029 A 
ATOM     43  C   UNL A   1      41.368  27.642  28.507  1.00  0.00     0.049 A 
ATOM     44  H   UNL A   1      40.940  28.613  30.299  1.00  0.00     0.167 HD
ATOM     45  C   UNL A   1      39.972  30.754  33.991  1.00  0.00     0.034 A 
ATOM     46  C   UNL A   1      42.506  26.946  28.700  1.00  0.00     0.034 A 
ATOM     47  C   UNL A   1      41.102  29.933  34.327  1.00  0.00     0.049 A 
ATOM     48  C   UNL A   1      43.156  26.955  30.060  1.00  0.00     0.074 A 
ATOM     49  C   UNL A   1      41.748  29.813  35.545  1.00  0.00     0.029 A 
ATOM     50  N   UNL A   1      41.759  29.094  33.441  1.00  0.00    -0.354 N 
ATOM     51  N   UNL A   1      42.759  27.546  31.161  1.00  0.00    -0.248 NA
ATOM     52  C   UNL A   1      44.388  26.167  30.213  1.00  0.00     0.031 C 
ATOM     53  C   UNL A   1      42.808  28.911  35.390  1.00  0.00     0.029 A 
ATOM     54  C   UNL A   1      42.810  28.459  34.079  1.00  0.00     0.049 A 
ATOM     55  H   UNL A   1      41.513  28.967  32.496  1.00  0.00     0.167 HD
ATOM     56  C   UNL A   1      43.669  27.169  32.146  1.00  0.00     0.074 A 
ATOM     57  C   UNL A   1      44.626  26.285  31.513  1.00  0.00     0.031 C 
ATOM     58  C   UNL A   1      43.716  27.533  33.452  1.00  0.00     0.034 A 
BRANCH  45  59
ATOM     59  C   UNL A   1      39.393  31.641  35.061  1.00  0.00     0.023 A 
ATOM     60  C   UNL A   1      38.365  31.148  35.890  1.00  0.00     0.012 A 
ATOM     61  C   UNL A   1      39.890  32.940  35.275  1.00  0.00     0.148 A 
ATOM     62  C   UNL A   1      37.822  31.944  36.897  1.00  0.00     0.002 A 
ATOM     63  C   UNL A   1      39.370  33.715  36.305  1.00  0.00     0.091 A 
ATOM     64  F   UNL A   1      40.847  33.402  34.457  1.00  0.00    -0.205 F 
ATOM     65  C   UNL A   1      38.331  33.222  37.112  1.00  0.00     0.022 A 
BRANCH  63  66
ATOM     66  S   UNL A   1      40.011  35.347  36.697  1.00  0.00     0.127 S 
ATOM     67  O   UNL A   1      39.567  36.124  35.541  1.00  0.00    -0.237 OA
ATOM     68  O   UNL A   1      39.317  35.663  37.946  1.00  0.00    -0.237 OA
ATOM     69  O   UNL A   1      41.452  35.186  36.833  1.00  0.00    -0.744 OA
ENDBRANCH  63  66
ENDBRANCH  45  59
BRANCH  46  70
ATOM     70  C   UNL A   1      43.068  26.120  27.594  1.00  0.00     0.023 A 
ATOM     71  C   UNL A   1      43.980  26.701  26.692  1.00  0.00     0.012 A 
ATOM     72  C   UNL A   1      42.720  24.765  27.442  1.00  0.00     0.148 A 
ATOM     73  C   UNL A   1      44.516  25.953  25.642  1.00  0.00     0.002 A 
ATOM     74  C   UNL A   1      43.295  24.013  26.424  1.00  0.00     0.091 A 
ATOM     75  F   UNL A   1      41.832  24.237  28.297  1.00  0.00    -0.205 F 
ATOM     76  C   UNL A   1      44.182  24.609  25.515  1.00  0.00     0.022 A 
BRANCH  74  77
ATOM     77  S   UNL A   1      43.007  22.248  26.259  1.00  0.00     0.127 S 
ATOM     78  O   UNL A   1      42.752  21.855  27.643  1.00  0.00    -0.237 OA
ATOM     79  O   UNL A   1      41.836  22.208  25.383  1.00  0.00    -0.237 OA
ATOM     80  O   UNL A   1      44.221  21.710  25.659  1.00  0.00    -0.744 OA
ENDBRANCH  74  77
ENDBRANCH  46  70
BRANCH  58  81
ATOM     81  C   UNL A   1      44.816  26.952  34.302  1.00  0.00     0.023 A 
ATOM     82  C   UNL A   1      46.060  27.609  34.374  1.00  0.00     0.012 A 
ATOM     83  C   UNL A   1      44.593  25.805  35.088  1.00  0.00     0.148 A 
ATOM     84  C   UNL A   1      47.076  27.114  35.192  1.00  0.00     0.002 A 
ATOM     85  C   UNL A   1      45.595  25.343  35.935  1.00  0.00     0.091 A 
ATOM     86  F   UNL A   1      43.410  25.180  34.992  1.00  0.00    -0.205 F 
ATOM     87  C   UNL A   1      46.840  25.989  35.980  1.00  0.00     0.022 A 
BRANCH  85  88
ATOM     88  S   UNL A   1      45.332  23.959  37.050  1.00  0.00     0.127 S 
ATOM     89  O   UNL A   1      46.644  23.828  37.681  1.00  0.00    -0.237 OA
ATOM     90  O   UNL A   1      44.278  24.460  37.934  1.00  0.00    -0.237 OA
ATOM     91  O   UNL A   1      44.921  22.846  36.203  1.00  0.00    -0.744 OA
ENDBRANCH  85  88
ENDBRANCH  58  81
ENDBRANCH  32  33
ENDBRANCH  25  27
ENDBRANCH  24  25
ENDBRANCH  23  24
ENDBRANCH   1  23
TORSDOF 21
ENDMDL
