MODEL 1
REMARK VINA RESULT:     -10.9      0.000      0.000
REMARK SMILES COc1ccc(-c2c(C(=O)OCCOCCOC(=O)c3ccc(-c4c5nc(c(-c6cccc(S(=O)(=O)[O-])c6F)c6ccc([nH]6)c(-c6cccc(S(=O)(=O)[O-])c6F)c6nc(c(-c7cccc(S(=O)(=O)[O-])c7F)c7ccc4[nH]7)C=C6)C=C5)cc3)sc3c2N=C(O)C[C@H]3c2ccc(OC)c(OC)c2)cc1
REMARK SMILES IDX 15 1 14 2 13 3 12 4 11 5 9 6 10 7 8 8 7 9 85 10 83 11 84 12
REMARK SMILES IDX 86 13 90 14 87 15 89 16 6 17 3 18 4 19 102 20 5 21 101 22
REMARK SMILES IDX 2 23 1 24 91 25 92 26 100 27 93 28 97 29 94 30 98 31 99 32
REMARK SMILES IDX 95 33 96 34 88 35 16 37 17 38 18 39 19 40 20 41 21 42 82 43
REMARK SMILES IDX 22 44 81 45 23 46 24 47 25 48 75 49 26 50 80 51 74 52 76 53
REMARK SMILES IDX 27 54 79 55 73 56 72 57 28 59 60 60 40 61 59 62 41 63 44 64
REMARK SMILES IDX 58 65 77 66 42 67 43 68 57 70 78 71 45 72 29 73 30 74 38 75
REMARK SMILES IDX 31 76 33 77 39 78 32 79 34 80 35 81 36 82 37 83 61 84 62 85
REMARK SMILES IDX 70 86 63 87 65 88 71 89 64 90 66 91 67 92 68 93 69 94 46 95
REMARK SMILES IDX 47 96 55 97 48 98 50 99 56 100 49 101 51 102 52 103 53 104
REMARK SMILES IDX 54 105
REMARK H PARENT 88 36 76 58 44 69
REMARK Flexibility Score: inf
ROOT
ATOM      1  C   UNL A   1      41.714  40.374  26.575  1.00  0.00     0.202 C 
ENDROOT
BRANCH   1   2
ATOM      2  O   UNL A   1      41.505  40.667  25.196  1.00  0.00    -0.374 OA
BRANCH   2   3
ATOM      3  C   UNL A   1      42.187  41.763  24.583  1.00  0.00     0.202 C 
BRANCH   3   4
ATOM      4  C   UNL A   1      41.563  42.401  23.345  1.00  0.00     0.261 C 
BRANCH   4   5
ATOM      5  O   UNL A   1      42.206  41.980  22.136  1.00  0.00    -0.459 OA
BRANCH   5   6
ATOM      6  C   UNL A   1      42.428  42.954  21.215  1.00  0.00     0.349 C 
ATOM      7  O   UNL A   1      41.532  43.610  20.674  1.00  0.00    -0.245 OA
BRANCH   6   8
ATOM      8  C   UNL A   1      43.843  43.177  21.021  1.00  0.00     0.123 A 
ATOM      9  C   UNL A   1      44.553  43.903  20.067  1.00  0.00     0.033 A 
ATOM     10  C   UNL A   1      45.940  43.950  20.420  1.00  0.00     0.090 A 
ATOM     11  S   UNL A   1      44.894  42.416  22.155  1.00  0.00    -0.130 S 
ATOM     12  C   UNL A   1      46.260  43.191  21.512  1.00  0.00     0.040 A 
ATOM     13  N   UNL A   1      46.862  44.767  19.759  1.00  0.00    -0.216 NA
ATOM     14  C   UNL A   1      47.620  43.067  22.113  1.00  0.00     0.071 C 
ATOM     15  C   UNL A   1      48.074  44.714  20.199  1.00  0.00     0.186 C 
ATOM     16  C   UNL A   1      48.654  43.852  21.295  1.00  0.00     0.111 C 
BRANCH   9  17
ATOM     17  C   UNL A   1      43.913  44.577  18.938  1.00  0.00    -0.014 A 
ATOM     18  C   UNL A   1      42.536  45.830  16.824  1.00  0.00     0.118 A 
ATOM     19  C   UNL A   1      43.067  46.584  17.871  1.00  0.00     0.047 A 
ATOM     20  C   UNL A   1      42.729  44.449  16.811  1.00  0.00     0.047 A 
ATOM     21  C   UNL A   1      43.759  45.968  18.916  1.00  0.00     0.012 A 
ATOM     22  C   UNL A   1      43.415  43.827  17.864  1.00  0.00     0.012 A 
BRANCH  18  23
ATOM     23  O   UNL A   1      41.882  46.561  15.870  1.00  0.00    -0.497 OA
ATOM     24  C   UNL A   1      41.655  47.935  16.164  1.00  0.00     0.278 C 
ENDBRANCH  18  23
ENDBRANCH   9  17
BRANCH  14  25
ATOM     25  C   UNL A   1      47.651  43.475  23.584  1.00  0.00    -0.035 A 
ATOM     26  C   UNL A   1      48.004  44.771  23.971  1.00  0.00     0.008 A 
ATOM     27  C   UNL A   1      47.304  42.544  24.580  1.00  0.00     0.054 A 
ATOM     28  C   UNL A   1      48.008  45.120  25.320  1.00  0.00     0.051 A 
ATOM     29  C   UNL A   1      47.313  42.881  25.945  1.00  0.00     0.161 A 
ATOM     30  C   UNL A   1      47.665  44.191  26.315  1.00  0.00     0.160 A 
BRANCH  29  31
ATOM     31  O   UNL A   1      47.008  41.983  26.933  1.00  0.00    -0.493 OA
ATOM     32  C   UNL A   1      48.005  41.052  27.331  1.00  0.00     0.278 C 
ENDBRANCH  29  31
BRANCH  30  33
ATOM     33  O   UNL A   1      47.747  44.735  27.571  1.00  0.00    -0.493 OA
ATOM     34  C   UNL A   1      46.611  44.667  28.418  1.00  0.00     0.278 C 
ENDBRANCH  30  33
ENDBRANCH  14  25
BRANCH  15  35
ATOM     35  O   UNL A   1      48.987  45.519  19.617  1.00  0.00    -0.496 OA
ATOM     36  H   UNL A   1      49.717  45.835  20.114  1.00  0.00     0.294 HD
ENDBRANCH  15  35
ENDBRANCH   6   8
ENDBRANCH   5   6
ENDBRANCH   4   5
ENDBRANCH   3   4
ENDBRANCH   2   3
ENDBRANCH   1   2
BRANCH   1  37
ATOM     37  C   UNL A   1      42.033  38.941  26.981  1.00  0.00     0.261 C 
BRANCH  37  38
ATOM     38  O   UNL A   1      42.682  38.876  28.237  1.00  0.00    -0.460 OA
BRANCH  38  39
ATOM     39  C   UNL A   1      43.983  38.522  28.159  1.00  0.00     0.338 C 
ATOM     40  O   UNL A   1      44.892  39.150  27.633  1.00  0.00    -0.246 OA
BRANCH  39  41
ATOM     41  C   UNL A   1      44.136  37.176  28.709  1.00  0.00     0.060 A 
ATOM     42  C   UNL A   1      44.152  36.136  27.776  1.00  0.00     0.016 A 
ATOM     43  C   UNL A   1      43.881  36.967  30.072  1.00  0.00     0.016 A 
ATOM     44  C   UNL A   1      43.613  34.934  28.157  1.00  0.00     0.010 A 
ATOM     45  C   UNL A   1      43.336  35.770  30.448  1.00  0.00     0.010 A 
ATOM     46  C   UNL A   1      43.103  34.825  29.453  1.00  0.00    -0.014 A 
BRANCH  46  47
ATOM     47  C   UNL A   1      42.311  33.664  29.771  1.00  0.00     0.031 A 
ATOM     48  C   UNL A   1      40.944  34.031  30.187  1.00  0.00     0.074 A 
ATOM     49  C   UNL A   1      42.798  32.421  29.585  1.00  0.00     0.049 A 
ATOM     50  N   UNL A   1      40.437  33.966  31.372  1.00  0.00    -0.248 NA
ATOM     51  C   UNL A   1      40.124  34.780  29.220  1.00  0.00     0.031 C 
ATOM     52  C   UNL A   1      44.030  32.019  28.896  1.00  0.00     0.029 A 
ATOM     53  N   UNL A   1      42.200  31.233  29.844  1.00  0.00    -0.354 N 
ATOM     54  C   UNL A   1      39.135  34.430  31.225  1.00  0.00     0.074 A 
ATOM     55  C   UNL A   1      39.095  35.149  29.982  1.00  0.00     0.031 C 
ATOM     56  C   UNL A   1      43.931  30.715  28.544  1.00  0.00     0.029 A 
ATOM     57  C   UNL A   1      42.699  30.175  29.093  1.00  0.00     0.049 A 
ATOM     58  H   UNL A   1      41.477  31.129  30.504  1.00  0.00     0.167 HD
ATOM     59  C   UNL A   1      38.119  33.913  31.967  1.00  0.00     0.034 A 
ATOM     60  C   UNL A   1      42.061  29.000  28.852  1.00  0.00     0.034 A 
ATOM     61  C   UNL A   1      38.617  33.175  33.098  1.00  0.00     0.049 A 
ATOM     62  C   UNL A   1      40.984  28.872  29.867  1.00  0.00     0.074 A 
ATOM     63  C   UNL A   1      39.397  33.482  34.194  1.00  0.00     0.029 A 
ATOM     64  N   UNL A   1      38.653  31.807  32.969  1.00  0.00    -0.354 N 
ATOM     65  N   UNL A   1      41.218  28.749  31.145  1.00  0.00    -0.248 NA
ATOM     66  C   UNL A   1      39.666  29.383  29.517  1.00  0.00     0.031 C 
ATOM     67  C   UNL A   1      40.233  32.343  34.375  1.00  0.00     0.029 A 
ATOM     68  C   UNL A   1      39.868  31.379  33.432  1.00  0.00     0.049 A 
ATOM     69  H   UNL A   1      37.935  31.238  32.611  1.00  0.00     0.167 HD
ATOM     70  C   UNL A   1      40.281  29.581  31.749  1.00  0.00     0.074 A 
ATOM     71  C   UNL A   1      39.298  29.873  30.706  1.00  0.00     0.031 C 
ATOM     72  C   UNL A   1      40.551  30.206  32.932  1.00  0.00     0.034 A 
BRANCH  59  73
ATOM     73  C   UNL A   1      36.714  33.717  31.457  1.00  0.00     0.023 A 
ATOM     74  C   UNL A   1      36.540  32.810  30.392  1.00  0.00     0.012 A 
ATOM     75  C   UNL A   1      35.624  34.564  31.764  1.00  0.00     0.148 A 
ATOM     76  C   UNL A   1      35.361  32.783  29.640  1.00  0.00     0.002 A 
ATOM     77  C   UNL A   1      34.426  34.479  31.069  1.00  0.00     0.091 A 
ATOM     78  F   UNL A   1      35.771  35.565  32.636  1.00  0.00    -0.205 F 
ATOM     79  C   UNL A   1      34.300  33.612  29.983  1.00  0.00     0.022 A 
BRANCH  77  80
ATOM     80  S   UNL A   1      33.015  35.503  31.503  1.00  0.00     0.127 S 
ATOM     81  O   UNL A   1      33.647  36.806  31.686  1.00  0.00    -0.237 OA
ATOM     82  O   UNL A   1      32.179  35.378  30.309  1.00  0.00    -0.237 OA
ATOM     83  O   UNL A   1      32.443  34.894  32.697  1.00  0.00    -0.744 OA
ENDBRANCH  77  80
ENDBRANCH  59  73
BRANCH  60  84
ATOM     84  C   UNL A   1      42.066  28.193  27.605  1.00  0.00     0.023 A 
ATOM     85  C   UNL A   1      41.982  28.827  26.349  1.00  0.00     0.012 A 
ATOM     86  C   UNL A   1      42.419  26.824  27.634  1.00  0.00     0.148 A 
ATOM     87  C   UNL A   1      42.254  28.124  25.166  1.00  0.00     0.002 A 
ATOM     88  C   UNL A   1      42.675  26.127  26.456  1.00  0.00     0.091 A 
ATOM     89  F   UNL A   1      42.594  26.230  28.821  1.00  0.00    -0.205 F 
ATOM     90  C   UNL A   1      42.604  26.777  25.219  1.00  0.00     0.022 A 
BRANCH  88  91
ATOM     91  S   UNL A   1      43.148  24.391  26.454  1.00  0.00     0.127 S 
ATOM     92  O   UNL A   1      44.416  24.423  27.186  1.00  0.00    -0.237 OA
ATOM     93  O   UNL A   1      42.040  23.772  27.177  1.00  0.00    -0.237 OA
ATOM     94  O   UNL A   1      43.277  24.011  25.053  1.00  0.00    -0.744 OA
ENDBRANCH  88  91
ENDBRANCH  60  84
BRANCH  72  95
ATOM     95  C   UNL A   1      41.795  29.807  33.683  1.00  0.00     0.023 A 
ATOM     96  C   UNL A   1      42.926  30.646  33.787  1.00  0.00     0.012 A 
ATOM     97  C   UNL A   1      41.725  28.657  34.482  1.00  0.00     0.148 A 
ATOM     98  C   UNL A   1      43.967  30.334  34.667  1.00  0.00     0.002 A 
ATOM     99  C   UNL A   1      42.736  28.378  35.391  1.00  0.00     0.091 A 
ATOM    100  F   UNL A   1      40.637  27.879  34.371  1.00  0.00    -0.205 F 
ATOM    101  C   UNL A   1      43.863  29.209  35.482  1.00  0.00     0.022 A 
BRANCH  99 102
ATOM    102  S   UNL A   1      42.589  27.029  36.564  1.00  0.00     0.127 S 
ATOM    103  O   UNL A   1      41.225  27.205  37.059  1.00  0.00    -0.237 OA
ATOM    104  O   UNL A   1      42.785  25.854  35.713  1.00  0.00    -0.237 OA
ATOM    105  O   UNL A   1      43.643  27.234  37.549  1.00  0.00    -0.744 OA
ENDBRANCH  99 102
ENDBRANCH  72  95
ENDBRANCH  46  47
ENDBRANCH  39  41
ENDBRANCH  38  39
ENDBRANCH  37  38
ENDBRANCH   1  37
TORSDOF 23
ENDMDL
MODEL 2
REMARK VINA RESULT:     -10.1      4.950     10.012
REMARK SMILES COc1ccc(-c2c(C(=O)OCCOCCOC(=O)c3ccc(-c4c5nc(c(-c6cccc(S(=O)(=O)[O-])c6F)c6ccc([nH]6)c(-c6cccc(S(=O)(=O)[O-])c6F)c6nc(c(-c7cccc(S(=O)(=O)[O-])c7F)c7ccc4[nH]7)C=C6)C=C5)cc3)sc3c2N=C(O)C[C@H]3c2ccc(OC)c(OC)c2)cc1
REMARK SMILES IDX 15 1 14 2 13 3 12 4 11 5 9 6 10 7 8 8 7 9 85 10 83 11 84 12
REMARK SMILES IDX 86 13 90 14 87 15 89 16 6 17 3 18 4 19 102 20 5 21 101 22
REMARK SMILES IDX 2 23 1 24 91 25 92 26 100 27 93 28 97 29 94 30 98 31 99 32
REMARK SMILES IDX 95 33 96 34 88 35 16 37 17 38 18 39 19 40 20 41 21 42 82 43
REMARK SMILES IDX 22 44 81 45 23 46 24 47 25 48 75 49 26 50 80 51 74 52 76 53
REMARK SMILES IDX 27 54 79 55 73 56 72 57 28 59 60 60 40 61 59 62 41 63 44 64
REMARK SMILES IDX 58 65 77 66 42 67 43 68 57 70 78 71 45 72 29 73 30 74 38 75
REMARK SMILES IDX 31 76 33 77 39 78 32 79 34 80 35 81 36 82 37 83 61 84 62 85
REMARK SMILES IDX 70 86 63 87 65 88 71 89 64 90 66 91 67 92 68 93 69 94 46 95
REMARK SMILES IDX 47 96 55 97 48 98 50 99 56 100 49 101 51 102 52 103 53 104
REMARK SMILES IDX 54 105
REMARK H PARENT 88 36 76 58 44 69
REMARK Flexibility Score: inf
ROOT
ATOM      1  C   UNL A   1      38.466  34.210  31.539  1.00  0.00     0.202 C 
ENDROOT
BRANCH   1   2
ATOM      2  O   UNL A   1      38.796  34.999  30.399  1.00  0.00    -0.374 OA
BRANCH   2   3
ATOM      3  C   UNL A   1      39.719  34.506  29.426  1.00  0.00     0.202 C 
BRANCH   3   4
ATOM      4  C   UNL A   1      40.965  35.335  29.127  1.00  0.00     0.261 C 
BRANCH   4   5
ATOM      5  O   UNL A   1      42.168  34.672  29.535  1.00  0.00    -0.459 OA
BRANCH   5   6
ATOM      6  C   UNL A   1      43.328  35.292  29.194  1.00  0.00     0.349 C 
ATOM      7  O   UNL A   1      43.909  35.127  28.116  1.00  0.00    -0.245 OA
BRANCH   6   8
ATOM      8  C   UNL A   1      43.741  36.227  30.216  1.00  0.00     0.123 A 
ATOM      9  C   UNL A   1      43.842  37.617  30.226  1.00  0.00     0.033 A 
ATOM     10  C   UNL A   1      44.136  38.077  31.550  1.00  0.00     0.090 A 
ATOM     11  S   UNL A   1      44.215  35.543  31.725  1.00  0.00    -0.130 S 
ATOM     12  C   UNL A   1      44.368  37.071  32.448  1.00  0.00     0.040 A 
ATOM     13  N   UNL A   1      44.104  39.428  31.906  1.00  0.00    -0.216 NA
ATOM     14  C   UNL A   1      44.678  37.255  33.895  1.00  0.00     0.071 C 
ATOM     15  C   UNL A   1      44.377  39.688  33.140  1.00  0.00     0.186 C 
ATOM     16  C   UNL A   1      44.783  38.745  34.248  1.00  0.00     0.111 C 
BRANCH   9  17
ATOM     17  C   UNL A   1      43.582  38.444  29.049  1.00  0.00    -0.014 A 
ATOM     18  C   UNL A   1      43.085  39.903  26.691  1.00  0.00     0.118 A 
ATOM     19  C   UNL A   1      42.055  39.642  27.595  1.00  0.00     0.047 A 
ATOM     20  C   UNL A   1      44.376  39.470  26.985  1.00  0.00     0.047 A 
ATOM     21  C   UNL A   1      42.299  38.928  28.771  1.00  0.00     0.012 A 
ATOM     22  C   UNL A   1      44.623  38.744  28.160  1.00  0.00     0.012 A 
BRANCH  18  23
ATOM     23  O   UNL A   1      42.704  40.609  25.583  1.00  0.00    -0.497 OA
ATOM     24  C   UNL A   1      41.354  41.057  25.545  1.00  0.00     0.278 C 
ENDBRANCH  18  23
ENDBRANCH   9  17
BRANCH  14  25
ATOM     25  C   UNL A   1      43.683  36.539  34.805  1.00  0.00    -0.035 A 
ATOM     26  C   UNL A   1      44.108  35.603  35.753  1.00  0.00     0.008 A 
ATOM     27  C   UNL A   1      42.309  36.829  34.712  1.00  0.00     0.054 A 
ATOM     28  C   UNL A   1      43.179  34.977  36.581  1.00  0.00     0.051 A 
ATOM     29  C   UNL A   1      41.361  36.198  35.537  1.00  0.00     0.161 A 
ATOM     30  C   UNL A   1      41.808  35.264  36.488  1.00  0.00     0.160 A 
BRANCH  29  31
ATOM     31  O   UNL A   1      40.017  36.442  35.444  1.00  0.00    -0.493 OA
ATOM     32  C   UNL A   1      39.166  35.386  35.020  1.00  0.00     0.278 C 
ENDBRANCH  29  31
BRANCH  30  33
ATOM     33  O   UNL A   1      41.071  34.530  37.382  1.00  0.00    -0.493 OA
ATOM     34  C   UNL A   1      40.793  35.089  38.655  1.00  0.00     0.278 C 
ENDBRANCH  30  33
ENDBRANCH  14  25
BRANCH  15  35
ATOM     35  O   UNL A   1      44.316  40.977  33.537  1.00  0.00    -0.496 OA
ATOM     36  H   UNL A   1      44.920  41.299  34.177  1.00  0.00     0.294 HD
ENDBRANCH  15  35
ENDBRANCH   6   8
ENDBRANCH   5   6
ENDBRANCH   4   5
ENDBRANCH   3   4
ENDBRANCH   2   3
ENDBRANCH   1   2
BRANCH   1  37
ATOM     37  C   UNL A   1      36.999  33.955  31.857  1.00  0.00     0.261 C 
BRANCH  37  38
ATOM     38  O   UNL A   1      36.229  33.751  30.687  1.00  0.00    -0.460 OA
BRANCH  38  39
ATOM     39  C   UNL A   1      35.476  32.630  30.721  1.00  0.00     0.338 C 
ATOM     40  O   UNL A   1      34.374  32.493  31.235  1.00  0.00    -0.246 OA
BRANCH  39  41
ATOM     41  C   UNL A   1      36.244  31.532  30.136  1.00  0.00     0.060 A 
ATOM     42  C   UNL A   1      36.306  30.362  30.895  1.00  0.00     0.016 A 
ATOM     43  C   UNL A   1      37.149  31.812  29.101  1.00  0.00     0.016 A 
ATOM     44  C   UNL A   1      37.455  29.616  30.820  1.00  0.00     0.010 A 
ATOM     45  C   UNL A   1      38.297  31.072  29.033  1.00  0.00     0.010 A 
ATOM     46  C   UNL A   1      38.475  30.067  29.978  1.00  0.00    -0.014 A 
BRANCH  46  47
ATOM     47  C   UNL A   1      39.767  29.439  30.089  1.00  0.00     0.031 A 
ATOM     48  C   UNL A   1      40.312  29.547  31.457  1.00  0.00     0.074 A 
ATOM     49  C   UNL A   1      40.302  28.765  29.053  1.00  0.00     0.049 A 
ATOM     50  N   UNL A   1      41.294  30.282  31.857  1.00  0.00    -0.248 NA
ATOM     51  C   UNL A   1      39.520  28.951  32.546  1.00  0.00     0.031 C 
ATOM     52  C   UNL A   1      39.664  28.384  27.787  1.00  0.00     0.029 A 
ATOM     53  N   UNL A   1      41.501  28.136  28.983  1.00  0.00    -0.354 N 
ATOM     54  C   UNL A   1      41.395  30.023  33.219  1.00  0.00     0.074 A 
ATOM     55  C   UNL A   1      40.147  29.433  33.618  1.00  0.00     0.031 C 
ATOM     56  C   UNL A   1      40.364  27.368  27.230  1.00  0.00     0.029 A 
ATOM     57  C   UNL A   1      41.553  27.125  28.030  1.00  0.00     0.049 A 
ATOM     58  H   UNL A   1      42.265  28.374  29.556  1.00  0.00     0.167 HD
ATOM     59  C   UNL A   1      42.604  30.011  33.842  1.00  0.00     0.034 A 
ATOM     60  C   UNL A   1      42.445  26.101  28.005  1.00  0.00     0.034 A 
ATOM     61  C   UNL A   1      43.616  30.642  33.038  1.00  0.00     0.049 A 
ATOM     62  C   UNL A   1      43.585  26.495  28.872  1.00  0.00     0.074 A 
ATOM     63  C   UNL A   1      43.790  31.903  32.505  1.00  0.00     0.029 A 
ATOM     64  N   UNL A   1      44.447  29.806  32.330  1.00  0.00    -0.354 N 
ATOM     65  N   UNL A   1      44.377  27.497  28.600  1.00  0.00    -0.248 NA
ATOM     66  C   UNL A   1      43.534  26.098  30.272  1.00  0.00     0.031 C 
ATOM     67  C   UNL A   1      44.349  31.678  31.214  1.00  0.00     0.029 A 
ATOM     68  C   UNL A   1      44.552  30.305  31.060  1.00  0.00     0.049 A 
ATOM     69  H   UNL A   1      44.887  28.997  32.675  1.00  0.00     0.167 HD
ATOM     70  C   UNL A   1      44.557  28.136  29.822  1.00  0.00     0.074 A 
ATOM     71  C   UNL A   1      44.090  27.181  30.827  1.00  0.00     0.031 C 
ATOM     72  C   UNL A   1      44.767  29.483  29.889  1.00  0.00     0.034 A 
BRANCH  59  73
ATOM     73  C   UNL A   1      42.965  29.077  34.969  1.00  0.00     0.023 A 
ATOM     74  C   UNL A   1      43.605  29.643  36.091  1.00  0.00     0.012 A 
ATOM     75  C   UNL A   1      42.971  27.665  34.871  1.00  0.00     0.148 A 
ATOM     76  C   UNL A   1      44.260  28.849  37.037  1.00  0.00     0.002 A 
ATOM     77  C   UNL A   1      43.551  26.876  35.854  1.00  0.00     0.091 A 
ATOM     78  F   UNL A   1      42.545  27.064  33.757  1.00  0.00    -0.205 F 
ATOM     79  C   UNL A   1      44.227  27.464  36.923  1.00  0.00     0.022 A 
BRANCH  77  80
ATOM     80  S   UNL A   1      43.498  25.082  35.768  1.00  0.00     0.127 S 
ATOM     81  O   UNL A   1      42.063  24.839  35.662  1.00  0.00    -0.237 OA
ATOM     82  O   UNL A   1      44.266  24.820  34.550  1.00  0.00    -0.237 OA
ATOM     83  O   UNL A   1      44.141  24.614  36.989  1.00  0.00    -0.744 OA
ENDBRANCH  77  80
ENDBRANCH  59  73
BRANCH  60  84
ATOM     84  C   UNL A   1      42.210  24.689  27.609  1.00  0.00     0.023 A 
ATOM     85  C   UNL A   1      40.947  24.097  27.809  1.00  0.00     0.012 A 
ATOM     86  C   UNL A   1      43.141  24.004  26.795  1.00  0.00     0.148 A 
ATOM     87  C   UNL A   1      40.620  22.873  27.207  1.00  0.00     0.002 A 
ATOM     88  C   UNL A   1      42.817  22.783  26.210  1.00  0.00     0.091 A 
ATOM     89  F   UNL A   1      44.310  24.595  26.518  1.00  0.00    -0.205 F 
ATOM     90  C   UNL A   1      41.552  22.218  26.406  1.00  0.00     0.022 A 
BRANCH  88  91
ATOM     91  S   UNL A   1      43.967  21.893  25.150  1.00  0.00     0.127 S 
ATOM     92  O   UNL A   1      43.364  20.560  25.105  1.00  0.00    -0.237 OA
ATOM     93  O   UNL A   1      43.877  22.647  23.902  1.00  0.00    -0.237 OA
ATOM     94  O   UNL A   1      45.257  21.943  25.826  1.00  0.00    -0.744 OA
ENDBRANCH  88  91
ENDBRANCH  60  84
BRANCH  72  95
ATOM     95  C   UNL A   1      45.023  30.231  28.606  1.00  0.00     0.023 A 
ATOM     96  C   UNL A   1      43.983  30.761  27.812  1.00  0.00     0.012 A 
ATOM     97  C   UNL A   1      46.347  30.594  28.323  1.00  0.00     0.148 A 
ATOM     98  C   UNL A   1      44.265  31.630  26.753  1.00  0.00     0.002 A 
ATOM     99  C   UNL A   1      46.620  31.496  27.304  1.00  0.00     0.091 A 
ATOM    100  F   UNL A   1      47.319  30.083  29.096  1.00  0.00    -0.205 F 
ATOM    101  C   UNL A   1      45.583  32.010  26.511  1.00  0.00     0.022 A 
BRANCH  99 102
ATOM    102  S   UNL A   1      48.276  32.131  27.041  1.00  0.00     0.127 S 
ATOM    103  O   UNL A   1      48.064  33.094  25.962  1.00  0.00    -0.237 OA
ATOM    104  O   UNL A   1      48.592  32.727  28.340  1.00  0.00    -0.237 OA
ATOM    105  O   UNL A   1      49.101  30.980  26.698  1.00  0.00    -0.744 OA
ENDBRANCH  99 102
ENDBRANCH  72  95
ENDBRANCH  46  47
ENDBRANCH  39  41
ENDBRANCH  38  39
ENDBRANCH  37  38
ENDBRANCH   1  37
TORSDOF 23
ENDMDL
MODEL 3
REMARK VINA RESULT:      -9.9      6.450     13.884
REMARK SMILES COc1ccc(-c2c(C(=O)OCCOCCOC(=O)c3ccc(-c4c5nc(c(-c6cccc(S(=O)(=O)[O-])c6F)c6ccc([nH]6)c(-c6cccc(S(=O)(=O)[O-])c6F)c6nc(c(-c7cccc(S(=O)(=O)[O-])c7F)c7ccc4[nH]7)C=C6)C=C5)cc3)sc3c2N=C(O)C[C@H]3c2ccc(OC)c(OC)c2)cc1
REMARK SMILES IDX 15 1 14 2 13 3 12 4 11 5 9 6 10 7 8 8 7 9 85 10 83 11 84 12
REMARK SMILES IDX 86 13 90 14 87 15 89 16 6 17 3 18 4 19 102 20 5 21 101 22
REMARK SMILES IDX 2 23 1 24 91 25 92 26 100 27 93 28 97 29 94 30 98 31 99 32
REMARK SMILES IDX 95 33 96 34 88 35 16 37 17 38 18 39 19 40 20 41 21 42 82 43
REMARK SMILES IDX 22 44 81 45 23 46 24 47 25 48 75 49 26 50 80 51 74 52 76 53
REMARK SMILES IDX 27 54 79 55 73 56 72 57 28 59 60 60 40 61 59 62 41 63 44 64
REMARK SMILES IDX 58 65 77 66 42 67 43 68 57 70 78 71 45 72 29 73 30 74 38 75
REMARK SMILES IDX 31 76 33 77 39 78 32 79 34 80 35 81 36 82 37 83 61 84 62 85
REMARK SMILES IDX 70 86 63 87 65 88 71 89 64 90 66 91 67 92 68 93 69 94 46 95
REMARK SMILES IDX 47 96 55 97 48 98 50 99 56 100 49 101 51 102 52 103 53 104
REMARK SMILES IDX 54 105
REMARK H PARENT 88 36 76 58 44 69
REMARK Flexibility Score: inf
ROOT
ATOM      1  C   UNL A   1      44.817  37.326  27.999  1.00  0.00     0.202 C 
ENDROOT
BRANCH   1   2
ATOM      2  O   UNL A   1      43.929  36.409  28.633  1.00  0.00    -0.374 OA
BRANCH   2   3
ATOM      3  C   UNL A   1      42.530  36.694  28.700  1.00  0.00     0.202 C 
BRANCH   3   4
ATOM      4  C   UNL A   1      41.554  35.521  28.708  1.00  0.00     0.261 C 
BRANCH   4   5
ATOM      5  O   UNL A   1      41.438  34.922  30.004  1.00  0.00    -0.459 OA
BRANCH   5   6
ATOM      6  C   UNL A   1      41.737  33.598  30.073  1.00  0.00     0.349 C 
ATOM      7  O   UNL A   1      42.709  33.080  29.514  1.00  0.00    -0.245 OA
BRANCH   6   8
ATOM      8  C   UNL A   1      40.824  32.901  30.950  1.00  0.00     0.123 A 
ATOM      9  C   UNL A   1      40.862  32.633  32.317  1.00  0.00     0.033 A 
ATOM     10  C   UNL A   1      39.621  32.055  32.738  1.00  0.00     0.090 A 
ATOM     11  S   UNL A   1      39.408  32.251  30.213  1.00  0.00    -0.130 S 
ATOM     12  C   UNL A   1      38.757  31.790  31.710  1.00  0.00     0.040 A 
ATOM     13  N   UNL A   1      39.294  31.861  34.082  1.00  0.00    -0.216 NA
ATOM     14  C   UNL A   1      37.391  31.208  31.855  1.00  0.00     0.071 C 
ATOM     15  C   UNL A   1      38.133  31.343  34.307  1.00  0.00     0.186 C 
ATOM     16  C   UNL A   1      37.095  30.863  33.321  1.00  0.00     0.111 C 
BRANCH   9  17
ATOM     17  C   UNL A   1      41.993  32.997  33.170  1.00  0.00    -0.014 A 
ATOM     18  C   UNL A   1      44.075  33.674  34.942  1.00  0.00     0.118 A 
ATOM     19  C   UNL A   1      44.051  32.426  34.318  1.00  0.00     0.047 A 
ATOM     20  C   UNL A   1      43.077  34.602  34.649  1.00  0.00     0.047 A 
ATOM     21  C   UNL A   1      43.026  32.090  33.430  1.00  0.00     0.012 A 
ATOM     22  C   UNL A   1      42.042  34.264  33.766  1.00  0.00     0.012 A 
BRANCH  18  23
ATOM     23  O   UNL A   1      45.133  33.868  35.787  1.00  0.00    -0.497 OA
ATOM     24  C   UNL A   1      46.344  33.197  35.456  1.00  0.00     0.278 C 
ENDBRANCH  18  23
ENDBRANCH   9  17
BRANCH  14  25
ATOM     25  C   UNL A   1      36.305  32.104  31.267  1.00  0.00    -0.035 A 
ATOM     26  C   UNL A   1      35.602  31.734  30.116  1.00  0.00     0.008 A 
ATOM     27  C   UNL A   1      35.980  33.322  31.892  1.00  0.00     0.054 A 
ATOM     28  C   UNL A   1      34.604  32.564  29.610  1.00  0.00     0.051 A 
ATOM     29  C   UNL A   1      34.981  34.172  31.387  1.00  0.00     0.161 A 
ATOM     30  C   UNL A   1      34.282  33.780  30.232  1.00  0.00     0.160 A 
BRANCH  29  31
ATOM     31  O   UNL A   1      34.669  35.375  31.962  1.00  0.00    -0.493 OA
ATOM     32  C   UNL A   1      34.707  35.476  33.379  1.00  0.00     0.278 C 
ENDBRANCH  29  31
BRANCH  30  33
ATOM     33  O   UNL A   1      33.285  34.446  29.566  1.00  0.00    -0.493 OA
ATOM     34  C   UNL A   1      33.185  34.291  28.159  1.00  0.00     0.278 C 
ENDBRANCH  30  33
ENDBRANCH  14  25
BRANCH  15  35
ATOM     35  O   UNL A   1      37.759  31.178  35.593  1.00  0.00    -0.496 OA
ATOM     36  H   UNL A   1      37.367  31.888  36.062  1.00  0.00     0.294 HD
ENDBRANCH  15  35
ENDBRANCH   6   8
ENDBRANCH   5   6
ENDBRANCH   4   5
ENDBRANCH   3   4
ENDBRANCH   2   3
ENDBRANCH   1   2
BRANCH   1  37
ATOM     37  C   UNL A   1      45.719  36.820  26.880  1.00  0.00     0.261 C 
BRANCH  37  38
ATOM     38  O   UNL A   1      45.096  35.809  26.110  1.00  0.00    -0.460 OA
BRANCH  38  39
ATOM     39  C   UNL A   1      45.825  34.677  26.009  1.00  0.00     0.338 C 
ATOM     40  O   UNL A   1      46.764  34.465  25.253  1.00  0.00    -0.246 OA
BRANCH  39  41
ATOM     41  C   UNL A   1      45.237  33.661  26.881  1.00  0.00     0.060 A 
ATOM     42  C   UNL A   1      45.857  33.492  28.121  1.00  0.00     0.016 A 
ATOM     43  C   UNL A   1      44.387  32.696  26.322  1.00  0.00     0.016 A 
ATOM     44  C   UNL A   1      45.867  32.231  28.659  1.00  0.00     0.010 A 
ATOM     45  C   UNL A   1      44.404  31.437  26.855  1.00  0.00     0.010 A 
ATOM     46  C   UNL A   1      45.242  31.207  27.942  1.00  0.00    -0.014 A 
BRANCH  46  47
ATOM     47  C   UNL A   1      45.471  29.849  28.367  1.00  0.00     0.031 A 
ATOM     48  C   UNL A   1      46.608  29.236  27.656  1.00  0.00     0.074 A 
ATOM     49  C   UNL A   1      44.755  29.309  29.374  1.00  0.00     0.049 A 
ATOM     50  N   UNL A   1      46.568  28.317  26.750  1.00  0.00    -0.248 NA
ATOM     51  C   UNL A   1      47.921  29.890  27.795  1.00  0.00     0.031 C 
ATOM     52  C   UNL A   1      43.831  29.979  30.297  1.00  0.00     0.029 A 
ATOM     53  N   UNL A   1      44.829  28.056  29.884  1.00  0.00    -0.354 N 
ATOM     54  C   UNL A   1      47.898  28.104  26.405  1.00  0.00     0.074 A 
ATOM     55  C   UNL A   1      48.629  29.254  26.863  1.00  0.00     0.031 C 
ATOM     56  C   UNL A   1      43.675  29.208  31.399  1.00  0.00     0.029 A 
ATOM     57  C   UNL A   1      44.378  27.953  31.195  1.00  0.00     0.049 A 
ATOM     58  H   UNL A   1      45.172  27.288  29.373  1.00  0.00     0.167 HD
ATOM     59  C   UNL A   1      48.344  26.865  26.066  1.00  0.00     0.034 A 
ATOM     60  C   UNL A   1      44.687  26.957  32.066  1.00  0.00     0.034 A 
ATOM     61  C   UNL A   1      47.252  25.980  25.759  1.00  0.00     0.049 A 
ATOM     62  C   UNL A   1      45.193  25.815  31.263  1.00  0.00     0.074 A 
ATOM     63  C   UNL A   1      46.233  25.977  24.829  1.00  0.00     0.029 A 
ATOM     64  N   UNL A   1      46.872  25.108  26.751  1.00  0.00    -0.354 N 
ATOM     65  N   UNL A   1      44.454  25.156  30.413  1.00  0.00    -0.248 NA
ATOM     66  C   UNL A   1      46.630  25.736  31.037  1.00  0.00     0.031 C 
ATOM     67  C   UNL A   1      45.099  25.479  25.534  1.00  0.00     0.029 A 
ATOM     68  C   UNL A   1      45.505  25.136  26.826  1.00  0.00     0.049 A 
ATOM     69  H   UNL A   1      47.473  24.561  27.306  1.00  0.00     0.167 HD
ATOM     70  C   UNL A   1      45.278  24.972  29.308  1.00  0.00     0.074 A 
ATOM     71  C   UNL A   1      46.629  25.269  29.783  1.00  0.00     0.031 C 
ATOM     72  C   UNL A   1      44.762  24.906  28.045  1.00  0.00     0.034 A 
BRANCH  59  73
ATOM     73  C   UNL A   1      49.713  26.335  26.411  1.00  0.00     0.023 A 
ATOM     74  C   UNL A   1      49.952  26.010  27.762  1.00  0.00     0.012 A 
ATOM     75  C   UNL A   1      50.839  26.407  25.558  1.00  0.00     0.148 A 
ATOM     76  C   UNL A   1      51.249  25.817  28.249  1.00  0.00     0.002 A 
ATOM     77  C   UNL A   1      52.116  26.134  26.026  1.00  0.00     0.091 A 
ATOM     78  F   UNL A   1      50.716  26.879  24.315  1.00  0.00    -0.205 F 
ATOM     79  C   UNL A   1      52.332  25.871  27.379  1.00  0.00     0.022 A 
BRANCH  77  80
ATOM     80  S   UNL A   1      53.540  26.154  24.930  1.00  0.00     0.127 S 
ATOM     81  O   UNL A   1      54.594  25.665  25.814  1.00  0.00    -0.237 OA
ATOM     82  O   UNL A   1      53.122  25.221  23.883  1.00  0.00    -0.237 OA
ATOM     83  O   UNL A   1      53.668  27.534  24.480  1.00  0.00    -0.744 OA
ENDBRANCH  77  80
ENDBRANCH  59  73
BRANCH  60  84
ATOM     84  C   UNL A   1      44.935  27.061  33.527  1.00  0.00     0.023 A 
ATOM     85  C   UNL A   1      45.766  28.079  34.036  1.00  0.00     0.012 A 
ATOM     86  C   UNL A   1      44.147  26.329  34.445  1.00  0.00     0.148 A 
ATOM     87  C   UNL A   1      45.801  28.365  35.408  1.00  0.00     0.002 A 
ATOM     88  C   UNL A   1      44.194  26.607  35.809  1.00  0.00     0.091 A 
ATOM     89  F   UNL A   1      43.283  25.422  33.972  1.00  0.00    -0.205 F 
ATOM     90  C   UNL A   1      45.014  27.633  36.294  1.00  0.00     0.022 A 
BRANCH  88  91
ATOM     91  S   UNL A   1      43.191  25.713  37.005  1.00  0.00     0.127 S 
ATOM     92  O   UNL A   1      41.897  25.649  36.325  1.00  0.00    -0.237 OA
ATOM     93  O   UNL A   1      43.896  24.437  37.099  1.00  0.00    -0.237 OA
ATOM     94  O   UNL A   1      43.191  26.524  38.216  1.00  0.00    -0.744 OA
ENDBRANCH  88  91
ENDBRANCH  60  84
BRANCH  72  95
ATOM     95  C   UNL A   1      43.266  24.813  27.889  1.00  0.00     0.023 A 
ATOM     96  C   UNL A   1      42.439  25.952  27.772  1.00  0.00     0.012 A 
ATOM     97  C   UNL A   1      42.721  23.547  27.632  1.00  0.00     0.148 A 
ATOM     98  C   UNL A   1      41.095  25.823  27.411  1.00  0.00     0.002 A 
ATOM     99  C   UNL A   1      41.400  23.427  27.226  1.00  0.00     0.091 A 
ATOM    100  F   UNL A   1      43.528  22.480  27.744  1.00  0.00    -0.205 F 
ATOM    101  C   UNL A   1      40.580  24.562  27.122  1.00  0.00     0.022 A 
BRANCH  99 102
ATOM    102  S   UNL A   1      40.725  21.851  26.702  1.00  0.00     0.127 S 
ATOM    103  O   UNL A   1      41.675  21.442  25.670  1.00  0.00    -0.237 OA
ATOM    104  O   UNL A   1      40.782  21.063  27.934  1.00  0.00    -0.237 OA
ATOM    105  O   UNL A   1      39.373  22.126  26.233  1.00  0.00    -0.744 OA
ENDBRANCH  99 102
ENDBRANCH  72  95
ENDBRANCH  46  47
ENDBRANCH  39  41
ENDBRANCH  38  39
ENDBRANCH  37  38
ENDBRANCH   1  37
TORSDOF 23
ENDMDL
