MODEL 1
REMARK VINA RESULT:     -10.8      0.000      0.000
REMARK SMILES COc1c[nH]c(C[N@H+]2CCC[C@@H](c3ccc(C(=O)OCCOCCOC(=O)c4ccc(-c5c6nc(c(-c7cccc(S(=O)(=O)[O-])c7F)c7ccc([nH]7)c(-c7cccc(S(=O)(=O)[O-])c7F)c7nc(c(-c8cccc(S(=O)(=O)[O-])c8F)c8ccc5[nH]8)C=C7)C=C6)cc4)cc3)C2)cc1=O
REMARK SMILES IDX 21 1 20 2 19 3 17 4 18 5 16 6 13 7 14 8 92 9 15 10 91 11
REMARK SMILES IDX 12 12 8 13 9 14 93 15 10 17 11 18 7 19 6 20 3 21 4 22 95 23
REMARK SMILES IDX 5 24 94 25 96 26 2 28 1 29 22 30 23 31 24 32 25 33 26 34
REMARK SMILES IDX 27 35 28 36 29 37 90 38 30 39 89 40 31 41 32 42 33 43 83 44
REMARK SMILES IDX 34 45 88 46 82 47 84 48 35 49 87 50 81 51 80 52 36 54 68 55
REMARK SMILES IDX 48 56 67 57 49 58 52 59 66 60 85 61 50 62 51 63 65 65 86 66
REMARK SMILES IDX 53 67 37 68 38 69 46 70 39 71 41 72 47 73 40 74 42 75 43 76
REMARK SMILES IDX 44 77 45 78 69 79 70 80 78 81 71 82 73 83 79 84 72 85 74 86
REMARK SMILES IDX 75 87 76 88 77 89 54 90 55 91 63 92 56 93 58 94 64 95 57 96
REMARK SMILES IDX 59 97 60 98 61 99 62 100
REMARK H PARENT 8 16 5 27 84 53 52 64
REMARK Flexibility Score: inf
ROOT
ATOM      1  C   UNL A   1      36.467  21.119  24.871  1.00  0.00     0.202 C 
ENDROOT
BRANCH   1   2
ATOM      2  C   UNL A   1      35.173  20.628  25.526  1.00  0.00     0.261 C 
BRANCH   2   3
ATOM      3  O   UNL A   1      34.295  20.037  24.554  1.00  0.00    -0.460 OA
BRANCH   3   4
ATOM      4  C   UNL A   1      32.980  20.250  24.777  1.00  0.00     0.338 C 
ATOM      5  O   UNL A   1      32.219  19.551  25.433  1.00  0.00    -0.246 OA
BRANCH   4   6
ATOM      6  C   UNL A   1      32.574  21.571  24.252  1.00  0.00     0.060 A 
ATOM      7  C   UNL A   1      32.136  24.105  23.137  1.00  0.00    -0.039 A 
ATOM      8  C   UNL A   1      32.452  23.010  22.316  1.00  0.00     0.005 A 
ATOM      9  C   UNL A   1      31.925  23.885  24.509  1.00  0.00     0.005 A 
ATOM     10  C   UNL A   1      32.689  21.759  22.872  1.00  0.00     0.016 A 
ATOM     11  C   UNL A   1      32.134  22.618  25.067  1.00  0.00     0.016 A 
BRANCH   7  12
ATOM     12  C   UNL A   1      32.272  25.529  22.603  1.00  0.00     0.074 C 
ATOM     13  N   UNL A   1      31.243  27.811  23.051  1.00  0.00    -0.329 N 
ATOM     14  C   UNL A   1      32.579  28.375  23.271  1.00  0.00     0.262 C 
ATOM     15  C   UNL A   1      31.212  26.377  23.346  1.00  0.00     0.270 C 
ATOM     16  H   UNL A   1      31.036  27.925  22.059  1.00  0.00     0.348 HD
ATOM     17  C   UNL A   1      33.639  27.635  22.447  1.00  0.00     0.062 C 
ATOM     18  C   UNL A   1      33.668  26.143  22.777  1.00  0.00     0.020 C 
BRANCH  13  19
ATOM     19  C   UNL A   1      30.183  28.551  23.775  1.00  0.00     0.317 C 
BRANCH  19  20
ATOM     20  C   UNL A   1      29.616  29.795  23.093  1.00  0.00     0.074 A 
ATOM     21  C   UNL A   1      28.257  31.929  21.748  1.00  0.00     0.182 A 
ATOM     22  C   UNL A   1      28.372  30.696  21.234  1.00  0.00     0.133 A 
ATOM     23  C   UNL A   1      28.983  32.167  23.051  1.00  0.00     0.223 A 
ATOM     24  N   UNL A   1      29.072  29.681  21.826  1.00  0.00    -0.357 N 
ATOM     25  C   UNL A   1      29.630  30.992  23.707  1.00  0.00     0.083 A 
ATOM     26  O   UNL A   1      29.042  33.264  23.599  1.00  0.00    -0.286 OA
ATOM     27  H   UNL A   1      29.194  28.838  21.331  1.00  0.00     0.166 HD
BRANCH  21  28
ATOM     28  O   UNL A   1      27.455  32.867  21.127  1.00  0.00    -0.491 OA
ATOM     29  C   UNL A   1      27.699  33.025  19.736  1.00  0.00     0.278 C 
ENDBRANCH  21  28
ENDBRANCH  19  20
ENDBRANCH  13  19
ENDBRANCH   7  12
ENDBRANCH   4   6
ENDBRANCH   3   4
ENDBRANCH   2   3
ENDBRANCH   1   2
BRANCH   1  30
ATOM     30  O   UNL A   1      37.315  20.109  24.318  1.00  0.00    -0.374 OA
BRANCH  30  31
ATOM     31  C   UNL A   1      38.257  19.498  25.202  1.00  0.00     0.202 C 
BRANCH  31  32
ATOM     32  C   UNL A   1      39.255  20.435  25.893  1.00  0.00     0.261 C 
BRANCH  32  33
ATOM     33  O   UNL A   1      40.380  19.719  26.429  1.00  0.00    -0.460 OA
BRANCH  33  34
ATOM     34  C   UNL A   1      41.581  20.303  26.203  1.00  0.00     0.338 C 
ATOM     35  O   UNL A   1      42.493  19.864  25.513  1.00  0.00    -0.246 OA
BRANCH  34  36
ATOM     36  C   UNL A   1      41.601  21.667  26.763  1.00  0.00     0.060 A 
ATOM     37  C   UNL A   1      41.503  22.731  25.857  1.00  0.00     0.016 A 
ATOM     38  C   UNL A   1      41.779  21.911  28.127  1.00  0.00     0.016 A 
ATOM     39  C   UNL A   1      41.650  24.041  26.303  1.00  0.00     0.010 A 
ATOM     40  C   UNL A   1      41.930  23.230  28.573  1.00  0.00     0.010 A 
ATOM     41  C   UNL A   1      41.911  24.297  27.655  1.00  0.00    -0.014 A 
BRANCH  41  42
ATOM     42  C   UNL A   1      42.301  25.667  28.067  1.00  0.00     0.031 A 
ATOM     43  C   UNL A   1      43.744  26.083  27.961  1.00  0.00     0.074 A 
ATOM     44  C   UNL A   1      41.375  26.546  28.491  1.00  0.00     0.049 A 
ATOM     45  N   UNL A   1      44.289  27.247  28.204  1.00  0.00    -0.248 NA
ATOM     46  C   UNL A   1      44.700  25.051  27.526  1.00  0.00     0.031 C 
ATOM     47  C   UNL A   1      39.949  26.259  28.648  1.00  0.00     0.029 A 
ATOM     48  N   UNL A   1      41.500  27.855  28.879  1.00  0.00    -0.354 N 
ATOM     49  C   UNL A   1      45.649  27.085  27.972  1.00  0.00     0.074 A 
ATOM     50  C   UNL A   1      45.851  25.705  27.589  1.00  0.00     0.031 C 
ATOM     51  C   UNL A   1      39.334  27.358  29.116  1.00  0.00     0.029 A 
ATOM     52  C   UNL A   1      40.320  28.421  29.301  1.00  0.00     0.049 A 
ATOM     53  H   UNL A   1      42.354  28.345  28.859  1.00  0.00     0.167 HD
ATOM     54  C   UNL A   1      46.639  28.006  28.045  1.00  0.00     0.034 A 
ATOM     55  C   UNL A   1      40.066  29.654  29.781  1.00  0.00     0.034 A 
ATOM     56  C   UNL A   1      46.434  29.385  28.403  1.00  0.00     0.049 A 
ATOM     57  C   UNL A   1      41.184  30.662  29.848  1.00  0.00     0.074 A 
ATOM     58  C   UNL A   1      47.366  30.406  28.460  1.00  0.00     0.029 A 
ATOM     59  N   UNL A   1      45.217  29.934  28.771  1.00  0.00    -0.354 N 
ATOM     60  N   UNL A   1      42.439  30.529  29.494  1.00  0.00    -0.248 NA
ATOM     61  C   UNL A   1      40.840  32.006  30.338  1.00  0.00     0.031 C 
ATOM     62  C   UNL A   1      46.713  31.570  28.883  1.00  0.00     0.029 A 
ATOM     63  C   UNL A   1      45.371  31.278  29.063  1.00  0.00     0.049 A 
ATOM     64  H   UNL A   1      44.366  29.439  28.818  1.00  0.00     0.167 HD
ATOM     65  C   UNL A   1      43.024  31.778  29.679  1.00  0.00     0.074 A 
ATOM     66  C   UNL A   1      41.979  32.659  30.158  1.00  0.00     0.031 C 
ATOM     67  C   UNL A   1      44.311  32.159  29.481  1.00  0.00     0.034 A 
BRANCH  54  68
ATOM     68  C   UNL A   1      48.034  27.561  27.697  1.00  0.00     0.023 A 
ATOM     69  C   UNL A   1      48.842  26.965  28.689  1.00  0.00     0.012 A 
ATOM     70  C   UNL A   1      48.528  27.677  26.383  1.00  0.00     0.148 A 
ATOM     71  C   UNL A   1      50.128  26.520  28.385  1.00  0.00     0.002 A 
ATOM     72  C   UNL A   1      49.795  27.193  26.078  1.00  0.00     0.091 A 
ATOM     73  F   UNL A   1      47.756  28.269  25.460  1.00  0.00    -0.205 F 
ATOM     74  C   UNL A   1      50.600  26.624  27.079  1.00  0.00     0.022 A 
BRANCH  72  75
ATOM     75  S   UNL A   1      50.461  27.214  24.410  1.00  0.00     0.127 S 
ATOM     76  O   UNL A   1      51.711  26.474  24.583  1.00  0.00    -0.237 OA
ATOM     77  O   UNL A   1      49.430  26.499  23.657  1.00  0.00    -0.237 OA
ATOM     78  O   UNL A   1      50.608  28.617  24.055  1.00  0.00    -0.744 OA
ENDBRANCH  72  75
ENDBRANCH  54  68
BRANCH  55  79
ATOM     79  C   UNL A   1      38.679  30.024  30.181  1.00  0.00     0.023 A 
ATOM     80  C   UNL A   1      38.264  29.832  31.512  1.00  0.00     0.012 A 
ATOM     81  C   UNL A   1      37.779  30.584  29.254  1.00  0.00     0.148 A 
ATOM     82  C   UNL A   1      36.967  30.162  31.907  1.00  0.00     0.002 A 
ATOM     83  C   UNL A   1      36.507  30.963  29.667  1.00  0.00     0.091 A 
ATOM     84  F   UNL A   1      38.187  30.743  27.987  1.00  0.00    -0.205 F 
ATOM     85  C   UNL A   1      36.093  30.737  30.989  1.00  0.00     0.022 A 
BRANCH  83  86
ATOM     86  S   UNL A   1      35.365  31.830  28.585  1.00  0.00     0.127 S 
ATOM     87  O   UNL A   1      34.936  30.763  27.685  1.00  0.00    -0.237 OA
ATOM     88  O   UNL A   1      34.345  32.291  29.527  1.00  0.00    -0.237 OA
ATOM     89  O   UNL A   1      36.142  32.901  27.976  1.00  0.00    -0.744 OA
ENDBRANCH  83  86
ENDBRANCH  55  79
BRANCH  67  90
ATOM     90  C   UNL A   1      44.662  33.600  29.742  1.00  0.00     0.023 A 
ATOM     91  C   UNL A   1      45.191  33.981  30.990  1.00  0.00     0.012 A 
ATOM     92  C   UNL A   1      44.531  34.567  28.724  1.00  0.00     0.148 A 
ATOM     93  C   UNL A   1      45.550  35.307  31.235  1.00  0.00     0.002 A 
ATOM     94  C   UNL A   1      44.935  35.876  28.959  1.00  0.00     0.091 A 
ATOM     95  F   UNL A   1      44.007  34.192  27.547  1.00  0.00    -0.205 F 
ATOM     96  C   UNL A   1      45.433  36.250  30.217  1.00  0.00     0.022 A 
BRANCH  94  97
ATOM     97  S   UNL A   1      44.908  37.131  27.673  1.00  0.00     0.127 S 
ATOM     98  O   UNL A   1      45.287  38.330  28.417  1.00  0.00    -0.237 OA
ATOM     99  O   UNL A   1      45.925  36.645  26.738  1.00  0.00    -0.237 OA
ATOM    100  O   UNL A   1      43.552  37.123  27.139  1.00  0.00    -0.744 OA
ENDBRANCH  94  97
ENDBRANCH  67  90
ENDBRANCH  41  42
ENDBRANCH  34  36
ENDBRANCH  33  34
ENDBRANCH  32  33
ENDBRANCH  31  32
ENDBRANCH  30  31
ENDBRANCH   1  30
TORSDOF 21
ENDMDL
MODEL 2
REMARK VINA RESULT:     -10.7      2.877      3.701
REMARK SMILES COc1c[nH]c(C[N@H+]2CCC[C@@H](c3ccc(C(=O)OCCOCCOC(=O)c4ccc(-c5c6nc(c(-c7cccc(S(=O)(=O)[O-])c7F)c7ccc([nH]7)c(-c7cccc(S(=O)(=O)[O-])c7F)c7nc(c(-c8cccc(S(=O)(=O)[O-])c8F)c8ccc5[nH]8)C=C7)C=C6)cc4)cc3)C2)cc1=O
REMARK SMILES IDX 21 1 20 2 19 3 17 4 18 5 16 6 13 7 14 8 92 9 15 10 91 11
REMARK SMILES IDX 12 12 8 13 9 14 93 15 10 17 11 18 7 19 6 20 3 21 4 22 95 23
REMARK SMILES IDX 5 24 94 25 96 26 2 28 1 29 22 30 23 31 24 32 25 33 26 34
REMARK SMILES IDX 27 35 28 36 29 37 90 38 30 39 89 40 31 41 32 42 33 43 83 44
REMARK SMILES IDX 34 45 88 46 82 47 84 48 35 49 87 50 81 51 80 52 36 54 68 55
REMARK SMILES IDX 48 56 67 57 49 58 52 59 66 60 85 61 50 62 51 63 65 65 86 66
REMARK SMILES IDX 53 67 37 68 38 69 46 70 39 71 41 72 47 73 40 74 42 75 43 76
REMARK SMILES IDX 44 77 45 78 69 79 70 80 78 81 71 82 73 83 79 84 72 85 74 86
REMARK SMILES IDX 75 87 76 88 77 89 54 90 55 91 63 92 56 93 58 94 64 95 57 96
REMARK SMILES IDX 59 97 60 98 61 99 62 100
REMARK H PARENT 8 16 5 27 84 53 52 64
REMARK Flexibility Score: inf
ROOT
ATOM      1  C   UNL A   1      40.434  21.215  27.300  1.00  0.00     0.202 C 
ENDROOT
BRANCH   1   2
ATOM      2  C   UNL A   1      39.683  20.794  26.034  1.00  0.00     0.261 C 
BRANCH   2   3
ATOM      3  O   UNL A   1      38.703  21.778  25.665  1.00  0.00    -0.460 OA
BRANCH   3   4
ATOM      4  C   UNL A   1      37.582  21.275  25.103  1.00  0.00     0.338 C 
ATOM      5  O   UNL A   1      37.363  20.108  24.807  1.00  0.00    -0.246 OA
BRANCH   4   6
ATOM      6  C   UNL A   1      36.531  22.312  25.031  1.00  0.00     0.060 A 
ATOM      7  C   UNL A   1      34.790  24.493  24.770  1.00  0.00    -0.039 A 
ATOM      8  C   UNL A   1      35.400  23.930  23.638  1.00  0.00     0.005 A 
ATOM      9  C   UNL A   1      34.970  23.872  26.018  1.00  0.00     0.005 A 
ATOM     10  C   UNL A   1      36.279  22.862  23.770  1.00  0.00     0.016 A 
ATOM     11  C   UNL A   1      35.833  22.776  26.150  1.00  0.00     0.016 A 
BRANCH   7  12
ATOM     12  C   UNL A   1      34.162  25.883  24.693  1.00  0.00     0.074 C 
ATOM     13  N   UNL A   1      32.053  26.943  23.747  1.00  0.00    -0.329 N 
ATOM     14  C   UNL A   1      31.735  27.497  25.068  1.00  0.00     0.262 C 
ATOM     15  C   UNL A   1      32.868  25.732  23.857  1.00  0.00     0.270 C 
ATOM     16  H   UNL A   1      32.610  27.645  23.261  1.00  0.00     0.348 HD
ATOM     17  C   UNL A   1      33.007  27.779  25.875  1.00  0.00     0.062 C 
ATOM     18  C   UNL A   1      33.850  26.517  26.056  1.00  0.00     0.020 C 
BRANCH  13  19
ATOM     19  C   UNL A   1      30.849  26.729  22.912  1.00  0.00     0.317 C 
BRANCH  19  20
ATOM     20  C   UNL A   1      29.923  27.928  22.708  1.00  0.00     0.074 A 
ATOM     21  C   UNL A   1      28.282  30.159  21.976  1.00  0.00     0.182 A 
ATOM     22  C   UNL A   1      29.571  30.053  21.622  1.00  0.00     0.133 A 
ATOM     23  C   UNL A   1      27.758  29.072  22.884  1.00  0.00     0.223 A 
ATOM     24  N   UNL A   1      30.391  29.031  22.015  1.00  0.00    -0.357 N 
ATOM     25  C   UNL A   1      28.664  27.923  23.182  1.00  0.00     0.083 A 
ATOM     26  O   UNL A   1      26.627  29.078  23.360  1.00  0.00    -0.286 OA
ATOM     27  H   UNL A   1      31.350  29.083  21.798  1.00  0.00     0.166 HD
BRANCH  21  28
ATOM     28  O   UNL A   1      27.503  31.177  21.459  1.00  0.00    -0.491 OA
ATOM     29  C   UNL A   1      28.171  32.425  21.330  1.00  0.00     0.278 C 
ENDBRANCH  21  28
ENDBRANCH  19  20
ENDBRANCH  13  19
ENDBRANCH   7  12
ENDBRANCH   4   6
ENDBRANCH   3   4
ENDBRANCH   2   3
ENDBRANCH   1   2
BRANCH   1  30
ATOM     30  O   UNL A   1      41.736  20.653  27.476  1.00  0.00    -0.374 OA
BRANCH  30  31
ATOM     31  C   UNL A   1      42.270  19.900  26.385  1.00  0.00     0.202 C 
BRANCH  31  32
ATOM     32  C   UNL A   1      43.391  20.564  25.579  1.00  0.00     0.261 C 
BRANCH  32  33
ATOM     33  O   UNL A   1      43.728  21.862  26.096  1.00  0.00    -0.460 OA
BRANCH  33  34
ATOM     34  C   UNL A   1      43.461  22.891  25.258  1.00  0.00     0.338 C 
ATOM     35  O   UNL A   1      43.300  22.828  24.045  1.00  0.00    -0.246 OA
BRANCH  34  36
ATOM     36  C   UNL A   1      43.198  24.122  26.026  1.00  0.00     0.060 A 
ATOM     37  C   UNL A   1      42.992  25.300  25.296  1.00  0.00     0.016 A 
ATOM     38  C   UNL A   1      43.219  24.149  27.423  1.00  0.00     0.016 A 
ATOM     39  C   UNL A   1      42.873  26.518  25.957  1.00  0.00     0.010 A 
ATOM     40  C   UNL A   1      43.102  25.377  28.086  1.00  0.00     0.010 A 
ATOM     41  C   UNL A   1      42.974  26.571  27.353  1.00  0.00    -0.014 A 
BRANCH  41  42
ATOM     42  C   UNL A   1      43.085  27.893  28.018  1.00  0.00     0.031 A 
ATOM     43  C   UNL A   1      44.432  28.560  28.104  1.00  0.00     0.074 A 
ATOM     44  C   UNL A   1      41.993  28.511  28.502  1.00  0.00     0.049 A 
ATOM     45  N   UNL A   1      44.742  29.737  28.581  1.00  0.00    -0.248 NA
ATOM     46  C   UNL A   1      45.581  27.799  27.586  1.00  0.00     0.031 C 
ATOM     47  C   UNL A   1      40.637  27.963  28.489  1.00  0.00     0.029 A 
ATOM     48  N   UNL A   1      41.857  29.733  29.111  1.00  0.00    -0.354 N 
ATOM     49  C   UNL A   1      46.119  29.852  28.441  1.00  0.00     0.074 A 
ATOM     50  C   UNL A   1      46.590  28.618  27.853  1.00  0.00     0.031 C 
ATOM     51  C   UNL A   1      39.808  28.840  29.079  1.00  0.00     0.029 A 
ATOM     52  C   UNL A   1      40.574  30.005  29.520  1.00  0.00     0.049 A 
ATOM     53  H   UNL A   1      42.608  30.356  29.244  1.00  0.00     0.167 HD
ATOM     54  C   UNL A   1      46.920  30.901  28.749  1.00  0.00     0.034 A 
ATOM     55  C   UNL A   1      40.074  31.072  30.175  1.00  0.00     0.034 A 
ATOM     56  C   UNL A   1      46.449  32.138  29.312  1.00  0.00     0.049 A 
ATOM     57  C   UNL A   1      40.984  32.227  30.501  1.00  0.00     0.074 A 
ATOM     58  C   UNL A   1      47.175  33.276  29.616  1.00  0.00     0.029 A 
ATOM     59  N   UNL A   1      45.134  32.398  29.662  1.00  0.00    -0.354 N 
ATOM     60  N   UNL A   1      42.260  32.375  30.237  1.00  0.00    -0.248 NA
ATOM     61  C   UNL A   1      40.376  33.383  31.177  1.00  0.00     0.031 C 
ATOM     62  C   UNL A   1      46.300  34.218  30.169  1.00  0.00     0.029 A 
ATOM     63  C   UNL A   1      45.026  33.675  30.184  1.00  0.00     0.049 A 
ATOM     64  H   UNL A   1      44.386  31.766  29.555  1.00  0.00     0.167 HD
ATOM     65  C   UNL A   1      42.597  33.651  30.675  1.00  0.00     0.074 A 
ATOM     66  C   UNL A   1      41.385  34.242  31.204  1.00  0.00     0.031 C 
ATOM     67  C   UNL A   1      43.802  34.274  30.652  1.00  0.00     0.034 A 
BRANCH  54  68
ATOM     68  C   UNL A   1      48.390  30.768  28.451  1.00  0.00     0.023 A 
ATOM     69  C   UNL A   1      48.899  31.268  27.234  1.00  0.00     0.012 A 
ATOM     70  C   UNL A   1      49.274  30.204  29.390  1.00  0.00     0.148 A 
ATOM     71  C   UNL A   1      50.261  31.180  26.944  1.00  0.00     0.002 A 
ATOM     72  C   UNL A   1      50.636  30.158  29.112  1.00  0.00     0.091 A 
ATOM     73  F   UNL A   1      48.768  29.711  30.529  1.00  0.00    -0.205 F 
ATOM     74  C   UNL A   1      51.129  30.636  27.887  1.00  0.00     0.022 A 
BRANCH  72  75
ATOM     75  S   UNL A   1      51.842  29.544  30.293  1.00  0.00     0.127 S 
ATOM     76  O   UNL A   1      51.285  28.235  30.632  1.00  0.00    -0.237 OA
ATOM     77  O   UNL A   1      53.064  29.496  29.490  1.00  0.00    -0.237 OA
ATOM     78  O   UNL A   1      51.868  30.513  31.379  1.00  0.00    -0.744 OA
ENDBRANCH  72  75
ENDBRANCH  54  68
BRANCH  55  79
ATOM     79  C   UNL A   1      38.623  31.123  30.512  1.00  0.00     0.023 A 
ATOM     80  C   UNL A   1      38.155  30.479  31.673  1.00  0.00     0.012 A 
ATOM     81  C   UNL A   1      37.711  31.825  29.701  1.00  0.00     0.148 A 
ATOM     82  C   UNL A   1      36.800  30.506  32.004  1.00  0.00     0.002 A 
ATOM     83  C   UNL A   1      36.372  31.896  30.066  1.00  0.00     0.091 A 
ATOM     84  F   UNL A   1      38.173  32.418  28.590  1.00  0.00    -0.205 F 
ATOM     85  C   UNL A   1      35.911  31.222  31.207  1.00  0.00     0.022 A 
BRANCH  83  86
ATOM     86  S   UNL A   1      35.185  32.904  29.171  1.00  0.00     0.127 S 
ATOM     87  O   UNL A   1      35.952  34.124  28.928  1.00  0.00    -0.237 OA
ATOM     88  O   UNL A   1      34.927  32.089  27.984  1.00  0.00    -0.237 OA
ATOM     89  O   UNL A   1      34.040  33.042  30.061  1.00  0.00    -0.744 OA
ENDBRANCH  83  86
ENDBRANCH  55  79
BRANCH  67  90
ATOM     90  C   UNL A   1      43.870  35.685  31.176  1.00  0.00     0.023 A 
ATOM     91  C   UNL A   1      43.848  36.770  30.280  1.00  0.00     0.012 A 
ATOM     92  C   UNL A   1      43.886  35.936  32.563  1.00  0.00     0.148 A 
ATOM     93  C   UNL A   1      43.879  38.083  30.752  1.00  0.00     0.002 A 
ATOM     94  C   UNL A   1      43.869  37.246  33.029  1.00  0.00     0.091 A 
ATOM     95  F   UNL A   1      43.927  34.892  33.404  1.00  0.00    -0.205 F 
ATOM     96  C   UNL A   1      43.877  38.320  32.125  1.00  0.00     0.022 A 
BRANCH  94  97
ATOM     97  S   UNL A   1      43.768  37.638  34.779  1.00  0.00     0.127 S 
ATOM     98  O   UNL A   1      43.711  39.098  34.755  1.00  0.00    -0.237 OA
ATOM     99  O   UNL A   1      42.521  36.985  35.177  1.00  0.00    -0.237 OA
ATOM    100  O   UNL A   1      44.964  37.065  35.383  1.00  0.00    -0.744 OA
ENDBRANCH  94  97
ENDBRANCH  67  90
ENDBRANCH  41  42
ENDBRANCH  34  36
ENDBRANCH  33  34
ENDBRANCH  32  33
ENDBRANCH  31  32
ENDBRANCH  30  31
ENDBRANCH   1  30
TORSDOF 21
ENDMDL
MODEL 3
REMARK VINA RESULT:     -10.5      5.528     11.597
REMARK SMILES COc1c[nH]c(C[N@H+]2CCC[C@@H](c3ccc(C(=O)OCCOCCOC(=O)c4ccc(-c5c6nc(c(-c7cccc(S(=O)(=O)[O-])c7F)c7ccc([nH]7)c(-c7cccc(S(=O)(=O)[O-])c7F)c7nc(c(-c8cccc(S(=O)(=O)[O-])c8F)c8ccc5[nH]8)C=C7)C=C6)cc4)cc3)C2)cc1=O
REMARK SMILES IDX 21 1 20 2 19 3 17 4 18 5 16 6 13 7 14 8 92 9 15 10 91 11
REMARK SMILES IDX 12 12 8 13 9 14 93 15 10 17 11 18 7 19 6 20 3 21 4 22 95 23
REMARK SMILES IDX 5 24 94 25 96 26 2 28 1 29 22 30 23 31 24 32 25 33 26 34
REMARK SMILES IDX 27 35 28 36 29 37 90 38 30 39 89 40 31 41 32 42 33 43 83 44
REMARK SMILES IDX 34 45 88 46 82 47 84 48 35 49 87 50 81 51 80 52 36 54 68 55
REMARK SMILES IDX 48 56 67 57 49 58 52 59 66 60 85 61 50 62 51 63 65 65 86 66
REMARK SMILES IDX 53 67 37 68 38 69 46 70 39 71 41 72 47 73 40 74 42 75 43 76
REMARK SMILES IDX 44 77 45 78 69 79 70 80 78 81 71 82 73 83 79 84 72 85 74 86
REMARK SMILES IDX 75 87 76 88 77 89 54 90 55 91 63 92 56 93 58 94 64 95 57 96
REMARK SMILES IDX 59 97 60 98 61 99 62 100
REMARK H PARENT 8 16 5 27 84 53 52 64
REMARK Flexibility Score: inf
ROOT
ATOM      1  C   UNL A   1      35.023  32.425  30.657  1.00  0.00     0.202 C 
ENDROOT
BRANCH   1   2
ATOM      2  C   UNL A   1      34.597  32.053  29.234  1.00  0.00     0.261 C 
BRANCH   2   3
ATOM      3  O   UNL A   1      35.709  31.548  28.478  1.00  0.00    -0.460 OA
BRANCH   3   4
ATOM      4  C   UNL A   1      35.830  30.202  28.482  1.00  0.00     0.338 C 
ATOM      5  O   UNL A   1      34.994  29.384  28.119  1.00  0.00    -0.246 OA
BRANCH   4   6
ATOM      6  C   UNL A   1      37.210  29.808  28.836  1.00  0.00     0.060 A 
ATOM      7  C   UNL A   1      39.903  29.107  29.167  1.00  0.00    -0.039 A 
ATOM      8  C   UNL A   1      39.548  30.406  28.767  1.00  0.00     0.005 A 
ATOM      9  C   UNL A   1      38.884  28.203  29.515  1.00  0.00     0.005 A 
ATOM     10  C   UNL A   1      38.214  30.746  28.583  1.00  0.00     0.016 A 
ATOM     11  C   UNL A   1      37.537  28.554  29.360  1.00  0.00     0.016 A 
BRANCH   7  12
ATOM     12  C   UNL A   1      41.335  28.611  28.982  1.00  0.00     0.074 C 
ATOM     13  N   UNL A   1      42.516  26.409  28.511  1.00  0.00    -0.329 N 
ATOM     14  C   UNL A   1      43.179  27.009  27.348  1.00  0.00     0.262 C 
ATOM     15  C   UNL A   1      41.247  27.076  28.807  1.00  0.00     0.270 C 
ATOM     16  H   UNL A   1      43.134  26.556  29.309  1.00  0.00     0.348 HD
ATOM     17  C   UNL A   1      43.397  28.513  27.545  1.00  0.00     0.062 C 
ATOM     18  C   UNL A   1      42.079  29.245  27.799  1.00  0.00     0.020 C 
BRANCH  13  19
ATOM     19  C   UNL A   1      42.357  24.942  28.385  1.00  0.00     0.317 C 
BRANCH  19  20
ATOM     20  C   UNL A   1      43.343  24.212  27.473  1.00  0.00     0.074 A 
ATOM     21  C   UNL A   1      45.299  22.668  26.060  1.00  0.00     0.182 A 
ATOM     22  C   UNL A   1      45.572  23.336  27.190  1.00  0.00     0.133 A 
ATOM     23  C   UNL A   1      43.909  22.860  25.504  1.00  0.00     0.223 A 
ATOM     24  N   UNL A   1      44.674  24.132  27.846  1.00  0.00    -0.357 N 
ATOM     25  C   UNL A   1      42.938  23.644  26.323  1.00  0.00     0.083 A 
ATOM     26  O   UNL A   1      43.538  22.384  24.434  1.00  0.00    -0.286 OA
ATOM     27  H   UNL A   1      44.986  24.669  28.610  1.00  0.00     0.166 HD
BRANCH  21  28
ATOM     28  O   UNL A   1      46.239  21.815  25.515  1.00  0.00    -0.491 OA
ATOM     29  C   UNL A   1      45.702  20.625  24.953  1.00  0.00     0.278 C 
ENDBRANCH  21  28
ENDBRANCH  19  20
ENDBRANCH  13  19
ENDBRANCH   7  12
ENDBRANCH   4   6
ENDBRANCH   3   4
ENDBRANCH   2   3
ENDBRANCH   1   2
BRANCH   1  30
ATOM     30  O   UNL A   1      34.326  33.518  31.258  1.00  0.00    -0.374 OA
BRANCH  30  31
ATOM     31  C   UNL A   1      35.040  34.289  32.226  1.00  0.00     0.202 C 
BRANCH  31  32
ATOM     32  C   UNL A   1      34.851  33.890  33.694  1.00  0.00     0.261 C 
BRANCH  32  33
ATOM     33  O   UNL A   1      35.584  32.698  34.024  1.00  0.00    -0.460 OA
BRANCH  33  34
ATOM     34  C   UNL A   1      36.716  32.910  34.736  1.00  0.00     0.338 C 
ATOM     35  O   UNL A   1      36.812  33.498  35.807  1.00  0.00    -0.246 OA
BRANCH  34  36
ATOM     36  C   UNL A   1      37.843  32.168  34.139  1.00  0.00     0.060 A 
ATOM     37  C   UNL A   1      39.117  32.404  34.672  1.00  0.00     0.016 A 
ATOM     38  C   UNL A   1      37.678  31.315  33.045  1.00  0.00     0.016 A 
ATOM     39  C   UNL A   1      40.239  31.842  34.070  1.00  0.00     0.010 A 
ATOM     40  C   UNL A   1      38.809  30.753  32.439  1.00  0.00     0.010 A 
ATOM     41  C   UNL A   1      40.096  31.051  32.923  1.00  0.00    -0.014 A 
BRANCH  41  42
ATOM     42  C   UNL A   1      41.309  30.662  32.162  1.00  0.00     0.031 A 
ATOM     43  C   UNL A   1      41.889  31.627  31.162  1.00  0.00     0.074 A 
ATOM     44  C   UNL A   1      41.910  29.481  32.387  1.00  0.00     0.049 A 
ATOM     45  N   UNL A   1      42.974  31.517  30.440  1.00  0.00    -0.248 NA
ATOM     46  C   UNL A   1      41.149  32.881  30.946  1.00  0.00     0.031 C 
ATOM     47  C   UNL A   1      41.438  28.458  33.319  1.00  0.00     0.029 A 
ATOM     48  N   UNL A   1      43.044  28.938  31.836  1.00  0.00    -0.354 N 
ATOM     49  C   UNL A   1      43.038  32.673  29.672  1.00  0.00     0.074 A 
ATOM     50  C   UNL A   1      41.871  33.463  29.999  1.00  0.00     0.031 C 
ATOM     51  C   UNL A   1      42.268  27.402  33.264  1.00  0.00     0.029 A 
ATOM     52  C   UNL A   1      43.323  27.670  32.287  1.00  0.00     0.049 A 
ATOM     53  H   UNL A   1      43.604  29.412  31.180  1.00  0.00     0.167 HD
ATOM     54  C   UNL A   1      43.993  33.056  28.791  1.00  0.00     0.034 A 
ATOM     55  C   UNL A   1      44.315  26.823  31.950  1.00  0.00     0.034 A 
ATOM     56  C   UNL A   1      45.165  32.281  28.484  1.00  0.00     0.049 A 
ATOM     57  C   UNL A   1      45.368  27.275  30.972  1.00  0.00     0.074 A 
ATOM     58  C   UNL A   1      46.214  32.604  27.641  1.00  0.00     0.029 A 
ATOM     59  N   UNL A   1      45.441  31.025  29.001  1.00  0.00    -0.354 N 
ATOM     60  N   UNL A   1      45.486  28.427  30.358  1.00  0.00    -0.248 NA
ATOM     61  C   UNL A   1      46.452  26.326  30.675  1.00  0.00     0.031 C 
ATOM     62  C   UNL A   1      47.115  31.534  27.634  1.00  0.00     0.029 A 
ATOM     63  C   UNL A   1      46.640  30.556  28.492  1.00  0.00     0.049 A 
ATOM     64  H   UNL A   1      44.868  30.538  29.637  1.00  0.00     0.167 HD
ATOM     65  C   UNL A   1      46.673  28.358  29.636  1.00  0.00     0.074 A 
ATOM     66  C   UNL A   1      47.247  27.056  29.906  1.00  0.00     0.031 C 
ATOM     67  C   UNL A   1      47.231  29.283  28.815  1.00  0.00     0.034 A 
BRANCH  54  68
ATOM     68  C   UNL A   1      43.828  34.394  28.121  1.00  0.00     0.023 A 
ATOM     69  C   UNL A   1      43.158  34.472  26.882  1.00  0.00     0.012 A 
ATOM     70  C   UNL A   1      44.281  35.576  28.737  1.00  0.00     0.148 A 
ATOM     71  C   UNL A   1      42.969  35.702  26.253  1.00  0.00     0.002 A 
ATOM     72  C   UNL A   1      44.052  36.803  28.124  1.00  0.00     0.091 A 
ATOM     73  F   UNL A   1      44.938  35.479  29.901  1.00  0.00    -0.205 F 
ATOM     74  C   UNL A   1      43.406  36.867  26.879  1.00  0.00     0.022 A 
BRANCH  72  75
ATOM     75  S   UNL A   1      44.511  38.364  28.886  1.00  0.00     0.127 S 
ATOM     76  O   UNL A   1      45.970  38.270  28.896  1.00  0.00    -0.237 OA
ATOM     77  O   UNL A   1      43.970  39.340  27.940  1.00  0.00    -0.237 OA
ATOM     78  O   UNL A   1      43.876  38.372  30.196  1.00  0.00    -0.744 OA
ENDBRANCH  72  75
ENDBRANCH  54  68
BRANCH  55  79
ATOM     79  C   UNL A   1      44.394  25.479  32.590  1.00  0.00     0.023 A 
ATOM     80  C   UNL A   1      44.071  24.332  31.841  1.00  0.00     0.012 A 
ATOM     81  C   UNL A   1      44.807  25.333  33.928  1.00  0.00     0.148 A 
ATOM     82  C   UNL A   1      44.128  23.064  32.422  1.00  0.00     0.002 A 
ATOM     83  C   UNL A   1      44.916  24.063  34.484  1.00  0.00     0.091 A 
ATOM     84  F   UNL A   1      45.093  26.439  34.630  1.00  0.00    -0.205 F 
ATOM     85  C   UNL A   1      44.561  22.929  33.738  1.00  0.00     0.022 A 
BRANCH  83  86
ATOM     86  S   UNL A   1      45.590  23.789  36.126  1.00  0.00     0.127 S 
ATOM     87  O   UNL A   1      44.603  24.458  36.970  1.00  0.00    -0.237 OA
ATOM     88  O   UNL A   1      45.591  22.329  36.214  1.00  0.00    -0.237 OA
ATOM     89  O   UNL A   1      46.918  24.387  36.108  1.00  0.00    -0.744 OA
ENDBRANCH  83  86
ENDBRANCH  55  79
BRANCH  67  90
ATOM     90  C   UNL A   1      48.553  28.944  28.177  1.00  0.00     0.023 A 
ATOM     91  C   UNL A   1      49.754  29.207  28.863  1.00  0.00     0.012 A 
ATOM     92  C   UNL A   1      48.601  28.300  26.924  1.00  0.00     0.148 A 
ATOM     93  C   UNL A   1      50.984  28.870  28.298  1.00  0.00     0.002 A 
ATOM     94  C   UNL A   1      49.828  27.923  26.387  1.00  0.00     0.091 A 
ATOM     95  F   UNL A   1      47.450  28.074  26.274  1.00  0.00    -0.205 F 
ATOM     96  C   UNL A   1      51.020  28.218  27.067  1.00  0.00     0.022 A 
BRANCH  94  97
ATOM     97  S   UNL A   1      49.957  26.995  24.855  1.00  0.00     0.127 S 
ATOM     98  O   UNL A   1      49.517  27.982  23.870  1.00  0.00    -0.237 OA
ATOM     99  O   UNL A   1      51.383  26.672  24.801  1.00  0.00    -0.237 OA
ATOM    100  O   UNL A   1      49.086  25.838  25.017  1.00  0.00    -0.744 OA
ENDBRANCH  94  97
ENDBRANCH  67  90
ENDBRANCH  41  42
ENDBRANCH  34  36
ENDBRANCH  33  34
ENDBRANCH  32  33
ENDBRANCH  31  32
ENDBRANCH  30  31
ENDBRANCH   1  30
TORSDOF 21
ENDMDL
