MODEL 1
REMARK VINA RESULT:     -11.2      0.000      0.000
REMARK SMILES CCn1ncc(NC(=O)[C@@H]2CCCC[C@@H]2C(=O)OCCOCCOC(=O)c2ccc(-c3c4nc(c(-c5cccc(S(=O)(=O)[O-])c5F)c5ccc([nH]5)c(-c5cccc(S(=O)(=O)[O-])c5F)c5nc(c(-c6cccc(S(=O)(=O)[O-])c6F)c6ccc3[nH]6)C=C5)C=C4)cc2)c1C(=O)Nc1cnn(C)c1C
REMARK SMILES IDX 20 1 19 2 18 3 16 4 17 5 15 6 10 7 11 8 12 9 14 10 13 11
REMARK SMILES IDX 8 12 7 13 9 15 6 16 3 17 4 18 90 19 5 20 2 21 1 22 91 23
REMARK SMILES IDX 92 24 93 25 94 27 95 28 99 29 96 30 97 31 100 32 98 33 21 34
REMARK SMILES IDX 22 35 23 36 24 37 25 38 26 39 27 40 28 41 89 42 29 43 88 44
REMARK SMILES IDX 30 45 31 46 32 47 82 48 33 49 87 50 81 51 83 52 34 53 86 54
REMARK SMILES IDX 80 55 79 56 35 58 67 59 47 60 66 61 48 62 51 63 65 64 84 65
REMARK SMILES IDX 49 66 50 67 64 69 85 70 52 71 36 72 37 73 45 74 38 75 40 76
REMARK SMILES IDX 46 77 39 78 41 79 42 80 43 81 44 82 68 83 69 84 77 85 70 86
REMARK SMILES IDX 72 87 78 88 71 89 73 90 74 91 75 92 76 93 53 94 54 95 62 96
REMARK SMILES IDX 55 97 57 98 63 99 56 100 58 101 59 102 60 103 61 104
REMARK H PARENT 7 14 93 26 83 57 51 68
REMARK Flexibility Score: inf
ROOT
ATOM      1  C   UNL A   1      39.195  21.284  26.263  1.00  0.00     0.202 C 
ENDROOT
BRANCH   1   2
ATOM      2  C   UNL A   1      38.303  22.232  25.463  1.00  0.00     0.261 C 
BRANCH   2   3
ATOM      3  O   UNL A   1      37.034  21.669  25.130  1.00  0.00    -0.463 OA
BRANCH   3   4
ATOM      4  C   UNL A   1      36.306  22.450  24.295  1.00  0.00     0.309 C 
ATOM      5  O   UNL A   1      36.790  23.325  23.585  1.00  0.00    -0.252 OA
BRANCH   4   6
ATOM      6  C   UNL A   1      34.828  22.062  24.292  1.00  0.00     0.111 C 
ATOM      7  C   UNL A   1      33.962  23.340  24.336  1.00  0.00     0.093 C 
ATOM      8  C   UNL A   1      34.407  24.193  25.536  1.00  0.00     0.014 C 
ATOM      9  C   UNL A   1      34.409  23.397  26.844  1.00  0.00     0.001 C 
ATOM     10  C   UNL A   1      34.438  21.207  25.497  1.00  0.00     0.016 C 
ATOM     11  C   UNL A   1      34.773  21.913  26.805  1.00  0.00     0.001 C 
BRANCH   7  12
ATOM     12  C   UNL A   1      33.928  24.011  22.968  1.00  0.00     0.228 C 
ATOM     13  N   UNL A   1      33.599  25.316  22.795  1.00  0.00    -0.322 N 
ATOM     14  H   UNL A   1      33.674  25.611  21.859  1.00  0.00     0.170 HD
ATOM     15  O   UNL A   1      34.189  23.380  21.936  1.00  0.00    -0.274 OA
BRANCH  13  16
ATOM     16  C   UNL A   1      33.181  26.320  23.644  1.00  0.00     0.092 A 
ATOM     17  N   UNL A   1      32.289  27.619  25.148  1.00  0.00    -0.258 N 
ATOM     18  N   UNL A   1      33.559  28.068  25.048  1.00  0.00    -0.178 NA
ATOM     19  C   UNL A   1      31.941  26.698  24.173  1.00  0.00     0.150 A 
ATOM     20  C   UNL A   1      34.097  27.276  24.135  1.00  0.00     0.162 A 
BRANCH  17  21
ATOM     21  C   UNL A   1      31.548  28.150  26.270  1.00  0.00     0.142 C 
ATOM     22  C   UNL A   1      32.282  27.992  27.586  1.00  0.00     0.029 C 
ENDBRANCH  17  21
BRANCH  19  23
ATOM     23  C   UNL A   1      30.609  26.313  23.701  1.00  0.00     0.276 C 
ATOM     24  O   UNL A   1      30.339  25.148  23.416  1.00  0.00    -0.267 OA
ATOM     25  N   UNL A   1      29.560  27.205  23.855  1.00  0.00    -0.318 N 
ATOM     26  H   UNL A   1      28.983  27.107  24.647  1.00  0.00     0.170 HD
BRANCH  25  27
ATOM     27  C   UNL A   1      29.274  28.220  22.965  1.00  0.00     0.082 A 
ATOM     28  C   UNL A   1      30.139  28.882  22.071  1.00  0.00     0.161 A 
ATOM     29  C   UNL A   1      28.041  28.828  22.792  1.00  0.00     0.059 A 
ATOM     30  N   UNL A   1      29.571  29.968  21.547  1.00  0.00    -0.179 NA
ATOM     31  N   UNL A   1      28.335  29.973  22.086  1.00  0.00    -0.271 N 
ATOM     32  C   UNL A   1      26.685  28.560  23.338  1.00  0.00     0.068 C 
ATOM     33  C   UNL A   1      27.614  31.226  22.131  1.00  0.00     0.174 C 
ENDBRANCH  25  27
ENDBRANCH  19  23
ENDBRANCH  13  16
ENDBRANCH   7  12
ENDBRANCH   4   6
ENDBRANCH   3   4
ENDBRANCH   2   3
ENDBRANCH   1   2
BRANCH   1  34
ATOM     34  O   UNL A   1      39.697  20.080  25.692  1.00  0.00    -0.374 OA
BRANCH  34  35
ATOM     35  C   UNL A   1      40.797  19.360  26.238  1.00  0.00     0.202 C 
BRANCH  35  36
ATOM     36  C   UNL A   1      42.188  19.974  26.343  1.00  0.00     0.261 C 
BRANCH  36  37
ATOM     37  O   UNL A   1      42.801  20.242  25.095  1.00  0.00    -0.460 OA
BRANCH  37  38
ATOM     38  C   UNL A   1      44.130  20.442  25.231  1.00  0.00     0.338 C 
ATOM     39  O   UNL A   1      45.003  19.589  25.249  1.00  0.00    -0.246 OA
BRANCH  38  40
ATOM     40  C   UNL A   1      44.397  21.845  25.537  1.00  0.00     0.060 A 
ATOM     41  C   UNL A   1      45.332  22.054  26.551  1.00  0.00     0.016 A 
ATOM     42  C   UNL A   1      43.468  22.819  25.147  1.00  0.00     0.016 A 
ATOM     43  C   UNL A   1      45.163  23.148  27.357  1.00  0.00     0.010 A 
ATOM     44  C   UNL A   1      43.298  23.913  25.959  1.00  0.00     0.010 A 
ATOM     45  C   UNL A   1      44.086  24.008  27.102  1.00  0.00    -0.014 A 
BRANCH  45  46
ATOM     46  C   UNL A   1      43.900  25.099  28.023  1.00  0.00     0.031 A 
ATOM     47  C   UNL A   1      42.533  25.641  27.944  1.00  0.00     0.074 A 
ATOM     48  C   UNL A   1      44.857  25.542  28.854  1.00  0.00     0.049 A 
ATOM     49  N   UNL A   1      42.162  26.709  27.321  1.00  0.00    -0.248 NA
ATOM     50  C   UNL A   1      41.431  24.776  28.384  1.00  0.00     0.031 C 
ATOM     51  C   UNL A   1      46.129  24.906  29.199  1.00  0.00     0.029 A 
ATOM     52  N   UNL A   1      44.815  26.624  29.673  1.00  0.00    -0.354 N 
ATOM     53  C   UNL A   1      40.792  26.779  27.531  1.00  0.00     0.074 A 
ATOM     54  C   UNL A   1      40.378  25.465  27.943  1.00  0.00     0.031 C 
ATOM     55  C   UNL A   1      46.608  25.475  30.331  1.00  0.00     0.029 A 
ATOM     56  C   UNL A   1      45.749  26.590  30.699  1.00  0.00     0.049 A 
ATOM     57  H   UNL A   1      44.181  27.366  29.550  1.00  0.00     0.167 HD
ATOM     58  C   UNL A   1      40.174  27.983  27.653  1.00  0.00     0.034 A 
ATOM     59  C   UNL A   1      45.734  27.371  31.808  1.00  0.00     0.034 A 
ATOM     60  C   UNL A   1      41.018  29.056  27.186  1.00  0.00     0.049 A 
ATOM     61  C   UNL A   1      44.889  28.553  31.503  1.00  0.00     0.074 A 
ATOM     62  C   UNL A   1      41.637  29.369  25.992  1.00  0.00     0.029 A 
ATOM     63  N   UNL A   1      41.650  29.799  28.154  1.00  0.00    -0.354 N 
ATOM     64  N   UNL A   1      45.224  29.474  30.644  1.00  0.00    -0.248 NA
ATOM     65  C   UNL A   1      43.473  28.490  31.829  1.00  0.00     0.031 C 
ATOM     66  C   UNL A   1      42.886  29.946  26.362  1.00  0.00     0.029 A 
ATOM     67  C   UNL A   1      42.941  30.010  27.756  1.00  0.00     0.049 A 
ATOM     68  H   UNL A   1      41.244  30.124  28.989  1.00  0.00     0.167 HD
ATOM     69  C   UNL A   1      44.040  29.775  29.983  1.00  0.00     0.074 A 
ATOM     70  C   UNL A   1      42.982  29.233  30.833  1.00  0.00     0.031 C 
ATOM     71  C   UNL A   1      44.050  30.163  28.674  1.00  0.00     0.034 A 
BRANCH  58  72
ATOM     72  C   UNL A   1      39.006  28.249  28.573  1.00  0.00     0.023 A 
ATOM     73  C   UNL A   1      37.876  28.872  28.000  1.00  0.00     0.012 A 
ATOM     74  C   UNL A   1      39.058  28.189  29.985  1.00  0.00     0.148 A 
ATOM     75  C   UNL A   1      36.886  29.462  28.791  1.00  0.00     0.002 A 
ATOM     76  C   UNL A   1      38.029  28.699  30.766  1.00  0.00     0.091 A 
ATOM     77  F   UNL A   1      40.161  27.768  30.605  1.00  0.00    -0.205 F 
ATOM     78  C   UNL A   1      36.959  29.369  30.175  1.00  0.00     0.022 A 
BRANCH  76  79
ATOM     79  S   UNL A   1      38.053  28.559  32.558  1.00  0.00     0.127 S 
ATOM     80  O   UNL A   1      38.244  27.123  32.736  1.00  0.00    -0.237 OA
ATOM     81  O   UNL A   1      39.208  29.388  32.902  1.00  0.00    -0.237 OA
ATOM     82  O   UNL A   1      36.777  29.096  33.014  1.00  0.00    -0.744 OA
ENDBRANCH  76  79
ENDBRANCH  58  72
BRANCH  59  83
ATOM     83  C   UNL A   1      46.149  27.058  33.194  1.00  0.00     0.023 A 
ATOM     84  C   UNL A   1      46.553  28.105  34.048  1.00  0.00     0.012 A 
ATOM     85  C   UNL A   1      45.870  25.799  33.771  1.00  0.00     0.148 A 
ATOM     86  C   UNL A   1      46.635  27.916  35.433  1.00  0.00     0.002 A 
ATOM     87  C   UNL A   1      45.957  25.616  35.147  1.00  0.00     0.091 A 
ATOM     88  F   UNL A   1      45.423  24.812  32.984  1.00  0.00    -0.205 F 
ATOM     89  C   UNL A   1      46.327  26.676  35.984  1.00  0.00     0.022 A 
BRANCH  87  90
ATOM     90  S   UNL A   1      45.540  24.052  35.933  1.00  0.00     0.127 S 
ATOM     91  O   UNL A   1      46.739  23.254  35.673  1.00  0.00    -0.237 OA
ATOM     92  O   UNL A   1      45.362  24.453  37.325  1.00  0.00    -0.237 OA
ATOM     93  O   UNL A   1      44.343  23.572  35.255  1.00  0.00    -0.744 OA
ENDBRANCH  87  90
ENDBRANCH  59  83
BRANCH  71  94
ATOM     94  C   UNL A   1      45.370  30.557  28.061  1.00  0.00     0.023 A 
ATOM     95  C   UNL A   1      45.898  31.860  28.161  1.00  0.00     0.012 A 
ATOM     96  C   UNL A   1      46.170  29.537  27.521  1.00  0.00     0.148 A 
ATOM     97  C   UNL A   1      47.190  32.143  27.707  1.00  0.00     0.002 A 
ATOM     98  C   UNL A   1      47.470  29.809  27.118  1.00  0.00     0.091 A 
ATOM     99  F   UNL A   1      45.650  28.302  27.434  1.00  0.00    -0.205 F 
ATOM    100  C   UNL A   1      47.982  31.114  27.200  1.00  0.00     0.022 A 
BRANCH  98 101
ATOM    101  S   UNL A   1      48.573  28.500  26.583  1.00  0.00     0.127 S 
ATOM    102  O   UNL A   1      48.231  27.417  27.502  1.00  0.00    -0.237 OA
ATOM    103  O   UNL A   1      48.154  28.282  25.196  1.00  0.00    -0.237 OA
ATOM    104  O   UNL A   1      49.923  29.035  26.716  1.00  0.00    -0.744 OA
ENDBRANCH  98 101
ENDBRANCH  71  94
ENDBRANCH  45  46
ENDBRANCH  38  40
ENDBRANCH  37  38
ENDBRANCH  36  37
ENDBRANCH  35  36
ENDBRANCH  34  35
ENDBRANCH   1  34
TORSDOF 22
ENDMDL
MODEL 2
REMARK VINA RESULT:     -11.0      3.480      7.297
REMARK SMILES CCn1ncc(NC(=O)[C@@H]2CCCC[C@@H]2C(=O)OCCOCCOC(=O)c2ccc(-c3c4nc(c(-c5cccc(S(=O)(=O)[O-])c5F)c5ccc([nH]5)c(-c5cccc(S(=O)(=O)[O-])c5F)c5nc(c(-c6cccc(S(=O)(=O)[O-])c6F)c6ccc3[nH]6)C=C5)C=C4)cc2)c1C(=O)Nc1cnn(C)c1C
REMARK SMILES IDX 20 1 19 2 18 3 16 4 17 5 15 6 10 7 11 8 12 9 14 10 13 11
REMARK SMILES IDX 8 12 7 13 9 15 6 16 3 17 4 18 90 19 5 20 2 21 1 22 91 23
REMARK SMILES IDX 92 24 93 25 94 27 95 28 99 29 96 30 97 31 100 32 98 33 21 34
REMARK SMILES IDX 22 35 23 36 24 37 25 38 26 39 27 40 28 41 89 42 29 43 88 44
REMARK SMILES IDX 30 45 31 46 32 47 82 48 33 49 87 50 81 51 83 52 34 53 86 54
REMARK SMILES IDX 80 55 79 56 35 58 67 59 47 60 66 61 48 62 51 63 65 64 84 65
REMARK SMILES IDX 49 66 50 67 64 69 85 70 52 71 36 72 37 73 45 74 38 75 40 76
REMARK SMILES IDX 46 77 39 78 41 79 42 80 43 81 44 82 68 83 69 84 77 85 70 86
REMARK SMILES IDX 72 87 78 88 71 89 73 90 74 91 75 92 76 93 53 94 54 95 62 96
REMARK SMILES IDX 55 97 57 98 63 99 56 100 58 101 59 102 60 103 61 104
REMARK H PARENT 7 14 93 26 83 57 51 68
REMARK Flexibility Score: inf
ROOT
ATOM      1  C   UNL A   1      38.252  20.257  24.990  1.00  0.00     0.202 C 
ENDROOT
BRANCH   1   2
ATOM      2  C   UNL A   1      36.766  19.960  24.791  1.00  0.00     0.261 C 
BRANCH   2   3
ATOM      3  O   UNL A   1      35.914  20.769  25.603  1.00  0.00    -0.463 OA
BRANCH   3   4
ATOM      4  C   UNL A   1      35.113  21.592  24.882  1.00  0.00     0.309 C 
ATOM      5  O   UNL A   1      35.235  21.776  23.676  1.00  0.00    -0.252 OA
BRANCH   4   6
ATOM      6  C   UNL A   1      34.004  22.202  25.736  1.00  0.00     0.111 C 
ATOM      7  C   UNL A   1      33.321  23.344  24.953  1.00  0.00     0.093 C 
ATOM      8  C   UNL A   1      34.401  24.335  24.488  1.00  0.00     0.014 C 
ATOM      9  C   UNL A   1      35.284  24.814  25.645  1.00  0.00     0.001 C 
ATOM     10  C   UNL A   1      34.522  22.796  27.045  1.00  0.00     0.016 C 
ATOM     11  C   UNL A   1      35.596  23.846  26.786  1.00  0.00     0.001 C 
BRANCH   7  12
ATOM     12  C   UNL A   1      32.381  22.779  23.893  1.00  0.00     0.228 C 
ATOM     13  N   UNL A   1      32.008  23.477  22.791  1.00  0.00    -0.322 N 
ATOM     14  H   UNL A   1      31.440  22.955  22.179  1.00  0.00     0.170 HD
ATOM     15  O   UNL A   1      31.898  21.645  24.002  1.00  0.00    -0.274 OA
BRANCH  13  16
ATOM     16  C   UNL A   1      32.250  24.759  22.341  1.00  0.00     0.092 A 
ATOM     17  N   UNL A   1      32.723  26.860  22.015  1.00  0.00    -0.258 N 
ATOM     18  N   UNL A   1      33.158  26.253  20.890  1.00  0.00    -0.178 NA
ATOM     19  C   UNL A   1      31.974  26.037  22.841  1.00  0.00     0.150 A 
ATOM     20  C   UNL A   1      32.870  24.978  21.092  1.00  0.00     0.162 A 
BRANCH  17  21
ATOM     21  C   UNL A   1      33.149  28.232  22.165  1.00  0.00     0.142 C 
ATOM     22  C   UNL A   1      34.629  28.359  22.464  1.00  0.00     0.029 C 
ENDBRANCH  17  21
BRANCH  19  23
ATOM     23  C   UNL A   1      31.017  26.405  23.886  1.00  0.00     0.276 C 
ATOM     24  O   UNL A   1      29.804  26.287  23.719  1.00  0.00    -0.267 OA
ATOM     25  N   UNL A   1      31.478  26.607  25.177  1.00  0.00    -0.318 N 
ATOM     26  H   UNL A   1      31.428  25.855  25.809  1.00  0.00     0.170 HD
BRANCH  25  27
ATOM     27  C   UNL A   1      32.003  27.801  25.630  1.00  0.00     0.082 A 
ATOM     28  C   UNL A   1      33.033  28.015  26.567  1.00  0.00     0.161 A 
ATOM     29  C   UNL A   1      31.583  29.068  25.259  1.00  0.00     0.059 A 
ATOM     30  N   UNL A   1      33.105  29.292  26.939  1.00  0.00    -0.179 NA
ATOM     31  N   UNL A   1      32.141  29.891  26.212  1.00  0.00    -0.271 N 
ATOM     32  C   UNL A   1      30.613  29.568  24.250  1.00  0.00     0.068 C 
ATOM     33  C   UNL A   1      31.610  31.151  26.685  1.00  0.00     0.174 C 
ENDBRANCH  25  27
ENDBRANCH  19  23
ENDBRANCH  13  16
ENDBRANCH   7  12
ENDBRANCH   4   6
ENDBRANCH   3   4
ENDBRANCH   2   3
ENDBRANCH   1   2
BRANCH   1  34
ATOM     34  O   UNL A   1      39.115  19.322  25.628  1.00  0.00    -0.374 OA
BRANCH  34  35
ATOM     35  C   UNL A   1      40.416  19.659  26.097  1.00  0.00     0.202 C 
BRANCH  35  36
ATOM     36  C   UNL A   1      40.970  21.075  25.985  1.00  0.00     0.261 C 
BRANCH  36  37
ATOM     37  O   UNL A   1      40.777  21.868  27.143  1.00  0.00    -0.460 OA
BRANCH  37  38
ATOM     38  C   UNL A   1      39.894  22.864  26.918  1.00  0.00     0.338 C 
ATOM     39  O   UNL A   1      38.750  22.751  26.508  1.00  0.00    -0.246 OA
BRANCH  38  40
ATOM     40  C   UNL A   1      40.551  24.159  27.067  1.00  0.00     0.060 A 
ATOM     41  C   UNL A   1      41.434  24.246  28.143  1.00  0.00     0.016 A 
ATOM     42  C   UNL A   1      39.990  25.286  26.451  1.00  0.00     0.016 A 
ATOM     43  C   UNL A   1      41.549  25.456  28.775  1.00  0.00     0.010 A 
ATOM     44  C   UNL A   1      40.104  26.497  27.089  1.00  0.00     0.010 A 
ATOM     45  C   UNL A   1      40.804  26.539  28.291  1.00  0.00    -0.014 A 
BRANCH  45  46
ATOM     46  C   UNL A   1      40.894  27.769  29.034  1.00  0.00     0.031 A 
ATOM     47  C   UNL A   1      41.985  28.621  28.533  1.00  0.00     0.074 A 
ATOM     48  C   UNL A   1      40.067  28.090  30.042  1.00  0.00     0.049 A 
ATOM     49  N   UNL A   1      43.157  28.757  29.055  1.00  0.00    -0.248 NA
ATOM     50  C   UNL A   1      41.849  29.177  27.181  1.00  0.00     0.031 C 
ATOM     51  C   UNL A   1      38.806  27.452  30.425  1.00  0.00     0.029 A 
ATOM     52  N   UNL A   1      40.137  29.164  30.870  1.00  0.00    -0.354 N 
ATOM     53  C   UNL A   1      43.815  29.645  28.215  1.00  0.00     0.074 A 
ATOM     54  C   UNL A   1      43.079  29.651  26.979  1.00  0.00     0.031 C 
ATOM     55  C   UNL A   1      38.116  28.297  31.228  1.00  0.00     0.029 A 
ATOM     56  C   UNL A   1      38.944  29.457  31.516  1.00  0.00     0.049 A 
ATOM     57  H   UNL A   1      40.960  29.688  31.000  1.00  0.00     0.167 HD
ATOM     58  C   UNL A   1      44.716  30.529  28.715  1.00  0.00     0.034 A 
ATOM     59  C   UNL A   1      38.654  30.621  32.150  1.00  0.00     0.034 A 
ATOM     60  C   UNL A   1      45.122  30.166  30.051  1.00  0.00     0.049 A 
ATOM     61  C   UNL A   1      39.944  31.286  32.461  1.00  0.00     0.074 A 
ATOM     62  C   UNL A   1      45.716  29.063  30.630  1.00  0.00     0.029 A 
ATOM     63  N   UNL A   1      44.546  30.876  31.077  1.00  0.00    -0.354 N 
ATOM     64  N   UNL A   1      40.802  30.824  33.326  1.00  0.00    -0.248 NA
ATOM     65  C   UNL A   1      40.480  32.234  31.496  1.00  0.00     0.031 C 
ATOM     66  C   UNL A   1      45.097  28.936  31.908  1.00  0.00     0.029 A 
ATOM     67  C   UNL A   1      44.202  29.997  32.066  1.00  0.00     0.049 A 
ATOM     68  H   UNL A   1      44.404  31.850  31.097  1.00  0.00     0.167 HD
ATOM     69  C   UNL A   1      42.039  31.043  32.735  1.00  0.00     0.074 A 
ATOM     70  C   UNL A   1      41.787  32.018  31.676  1.00  0.00     0.031 C 
ATOM     71  C   UNL A   1      43.083  30.192  32.962  1.00  0.00     0.034 A 
BRANCH  58  72
ATOM     72  C   UNL A   1      44.908  31.934  28.192  1.00  0.00     0.023 A 
ATOM     73  C   UNL A   1      46.215  32.289  27.793  1.00  0.00     0.012 A 
ATOM     74  C   UNL A   1      43.974  32.986  28.335  1.00  0.00     0.148 A 
ATOM     75  C   UNL A   1      46.587  33.624  27.611  1.00  0.00     0.002 A 
ATOM     76  C   UNL A   1      44.325  34.302  28.068  1.00  0.00     0.091 A 
ATOM     77  F   UNL A   1      42.771  32.756  28.865  1.00  0.00    -0.205 F 
ATOM     78  C   UNL A   1      45.640  34.631  27.742  1.00  0.00     0.022 A 
BRANCH  76  79
ATOM     79  S   UNL A   1      43.122  35.634  28.174  1.00  0.00     0.127 S 
ATOM     80  O   UNL A   1      42.504  35.368  29.469  1.00  0.00    -0.237 OA
ATOM     81  O   UNL A   1      43.987  36.815  28.126  1.00  0.00    -0.237 OA
ATOM     82  O   UNL A   1      42.259  35.482  27.010  1.00  0.00    -0.744 OA
ENDBRANCH  76  79
ENDBRANCH  58  72
BRANCH  59  83
ATOM     83  C   UNL A   1      37.367  31.343  32.264  1.00  0.00     0.023 A 
ATOM     84  C   UNL A   1      36.976  31.865  33.513  1.00  0.00     0.012 A 
ATOM     85  C   UNL A   1      36.672  31.778  31.114  1.00  0.00     0.148 A 
ATOM     86  C   UNL A   1      35.957  32.821  33.610  1.00  0.00     0.002 A 
ATOM     87  C   UNL A   1      35.657  32.724  31.215  1.00  0.00     0.091 A 
ATOM     88  F   UNL A   1      37.073  31.341  29.912  1.00  0.00    -0.205 F 
ATOM     89  C   UNL A   1      35.305  33.258  32.461  1.00  0.00     0.022 A 
BRANCH  87  90
ATOM     90  S   UNL A   1      34.796  33.363  29.770  1.00  0.00     0.127 S 
ATOM     91  O   UNL A   1      34.347  32.132  29.118  1.00  0.00    -0.237 OA
ATOM     92  O   UNL A   1      33.732  34.155  30.380  1.00  0.00    -0.237 OA
ATOM     93  O   UNL A   1      35.789  34.115  29.013  1.00  0.00    -0.744 OA
ENDBRANCH  87  90
ENDBRANCH  59  83
BRANCH  71  94
ATOM     94  C   UNL A   1      42.959  29.206  34.095  1.00  0.00     0.023 A 
ATOM     95  C   UNL A   1      42.291  27.972  33.962  1.00  0.00     0.012 A 
ATOM     96  C   UNL A   1      43.685  29.465  35.270  1.00  0.00     0.148 A 
ATOM     97  C   UNL A   1      42.329  27.026  34.991  1.00  0.00     0.002 A 
ATOM     98  C   UNL A   1      43.763  28.504  36.268  1.00  0.00     0.091 A 
ATOM     99  F   UNL A   1      44.314  30.646  35.378  1.00  0.00    -0.205 F 
ATOM    100  C   UNL A   1      43.078  27.286  36.138  1.00  0.00     0.022 A 
BRANCH  98 101
ATOM    101  S   UNL A   1      44.816  28.733  37.702  1.00  0.00     0.127 S 
ATOM    102  O   UNL A   1      46.137  28.863  37.092  1.00  0.00    -0.237 OA
ATOM    103  O   UNL A   1      44.286  29.967  38.287  1.00  0.00    -0.237 OA
ATOM    104  O   UNL A   1      44.620  27.552  38.534  1.00  0.00    -0.744 OA
ENDBRANCH  98 101
ENDBRANCH  71  94
ENDBRANCH  45  46
ENDBRANCH  38  40
ENDBRANCH  37  38
ENDBRANCH  36  37
ENDBRANCH  35  36
ENDBRANCH  34  35
ENDBRANCH   1  34
TORSDOF 22
ENDMDL
MODEL 3
REMARK VINA RESULT:     -10.8      2.062      6.501
REMARK SMILES CCn1ncc(NC(=O)[C@@H]2CCCC[C@@H]2C(=O)OCCOCCOC(=O)c2ccc(-c3c4nc(c(-c5cccc(S(=O)(=O)[O-])c5F)c5ccc([nH]5)c(-c5cccc(S(=O)(=O)[O-])c5F)c5nc(c(-c6cccc(S(=O)(=O)[O-])c6F)c6ccc3[nH]6)C=C5)C=C4)cc2)c1C(=O)Nc1cnn(C)c1C
REMARK SMILES IDX 20 1 19 2 18 3 16 4 17 5 15 6 10 7 11 8 12 9 14 10 13 11
REMARK SMILES IDX 8 12 7 13 9 15 6 16 3 17 4 18 90 19 5 20 2 21 1 22 91 23
REMARK SMILES IDX 92 24 93 25 94 27 95 28 99 29 96 30 97 31 100 32 98 33 21 34
REMARK SMILES IDX 22 35 23 36 24 37 25 38 26 39 27 40 28 41 89 42 29 43 88 44
REMARK SMILES IDX 30 45 31 46 32 47 82 48 33 49 87 50 81 51 83 52 34 53 86 54
REMARK SMILES IDX 80 55 79 56 35 58 67 59 47 60 66 61 48 62 51 63 65 64 84 65
REMARK SMILES IDX 49 66 50 67 64 69 85 70 52 71 36 72 37 73 45 74 38 75 40 76
REMARK SMILES IDX 46 77 39 78 41 79 42 80 43 81 44 82 68 83 69 84 77 85 70 86
REMARK SMILES IDX 72 87 78 88 71 89 73 90 74 91 75 92 76 93 53 94 54 95 62 96
REMARK SMILES IDX 55 97 57 98 63 99 56 100 58 101 59 102 60 103 61 104
REMARK H PARENT 7 14 93 26 83 57 51 68
REMARK Flexibility Score: inf
ROOT
ATOM      1  C   UNL A   1      39.425  21.324  26.428  1.00  0.00     0.202 C 
ENDROOT
BRANCH   1   2
ATOM      2  C   UNL A   1      38.527  22.276  25.638  1.00  0.00     0.261 C 
BRANCH   2   3
ATOM      3  O   UNL A   1      37.183  21.812  25.512  1.00  0.00    -0.463 OA
BRANCH   3   4
ATOM      4  C   UNL A   1      36.425  22.586  24.697  1.00  0.00     0.309 C 
ATOM      5  O   UNL A   1      36.815  23.635  24.196  1.00  0.00    -0.252 OA
BRANCH   4   6
ATOM      6  C   UNL A   1      35.058  21.961  24.423  1.00  0.00     0.111 C 
ATOM      7  C   UNL A   1      33.979  23.065  24.419  1.00  0.00     0.093 C 
ATOM      8  C   UNL A   1      34.080  23.855  25.735  1.00  0.00     0.014 C 
ATOM      9  C   UNL A   1      34.031  22.941  26.964  1.00  0.00     0.001 C 
ATOM     10  C   UNL A   1      34.653  20.935  25.481  1.00  0.00     0.016 C 
ATOM     11  C   UNL A   1      34.658  21.550  26.875  1.00  0.00     0.001 C 
BRANCH   7  12
ATOM     12  C   UNL A   1      34.029  23.857  23.117  1.00  0.00     0.228 C 
ATOM     13  N   UNL A   1      33.591  25.137  23.015  1.00  0.00    -0.322 N 
ATOM     14  H   UNL A   1      33.739  25.525  22.123  1.00  0.00     0.170 HD
ATOM     15  O   UNL A   1      34.465  23.353  22.075  1.00  0.00    -0.274 OA
BRANCH  13  16
ATOM     16  C   UNL A   1      32.982  26.015  23.890  1.00  0.00     0.092 A 
ATOM     17  N   UNL A   1      31.802  27.079  25.379  1.00  0.00    -0.258 N 
ATOM     18  N   UNL A   1      33.024  27.646  25.471  1.00  0.00    -0.178 NA
ATOM     19  C   UNL A   1      31.660  26.228  24.295  1.00  0.00     0.150 A 
ATOM     20  C   UNL A   1      33.738  26.996  24.566  1.00  0.00     0.162 A 
BRANCH  17  21
ATOM     21  C   UNL A   1      30.890  27.432  26.444  1.00  0.00     0.142 C 
ATOM     22  C   UNL A   1      31.484  28.427  27.420  1.00  0.00     0.029 C 
ENDBRANCH  17  21
BRANCH  19  23
ATOM     23  C   UNL A   1      30.434  25.774  23.635  1.00  0.00     0.276 C 
ATOM     24  O   UNL A   1      30.433  24.804  22.877  1.00  0.00    -0.267 OA
ATOM     25  N   UNL A   1      29.213  26.247  24.087  1.00  0.00    -0.318 N 
ATOM     26  H   UNL A   1      28.716  25.697  24.734  1.00  0.00     0.170 HD
BRANCH  25  27
ATOM     27  C   UNL A   1      28.651  27.442  23.684  1.00  0.00     0.082 A 
ATOM     28  C   UNL A   1      27.338  27.912  23.882  1.00  0.00     0.161 A 
ATOM     29  C   UNL A   1      29.286  28.435  22.956  1.00  0.00     0.059 A 
ATOM     30  N   UNL A   1      27.086  28.995  23.147  1.00  0.00    -0.179 NA
ATOM     31  N   UNL A   1      28.251  29.227  22.510  1.00  0.00    -0.271 N 
ATOM     32  C   UNL A   1      30.687  28.630  22.499  1.00  0.00     0.068 C 
ATOM     33  C   UNL A   1      28.222  30.008  21.292  1.00  0.00     0.174 C 
ENDBRANCH  25  27
ENDBRANCH  19  23
ENDBRANCH  13  16
ENDBRANCH   7  12
ENDBRANCH   4   6
ENDBRANCH   3   4
ENDBRANCH   2   3
ENDBRANCH   1   2
BRANCH   1  34
ATOM     34  O   UNL A   1      39.889  20.103  25.863  1.00  0.00    -0.374 OA
BRANCH  34  35
ATOM     35  C   UNL A   1      41.088  19.459  26.281  1.00  0.00     0.202 C 
BRANCH  35  36
ATOM     36  C   UNL A   1      42.410  20.211  26.386  1.00  0.00     0.261 C 
BRANCH  36  37
ATOM     37  O   UNL A   1      42.901  20.699  25.150  1.00  0.00    -0.460 OA
BRANCH  37  38
ATOM     38  C   UNL A   1      44.246  20.822  25.168  1.00  0.00     0.338 C 
ATOM     39  O   UNL A   1      45.065  19.919  25.230  1.00  0.00    -0.246 OA
BRANCH  38  40
ATOM     40  C   UNL A   1      44.619  22.229  25.279  1.00  0.00     0.060 A 
ATOM     41  C   UNL A   1      45.429  22.534  26.373  1.00  0.00     0.016 A 
ATOM     42  C   UNL A   1      43.860  23.194  24.602  1.00  0.00     0.016 A 
ATOM     43  C   UNL A   1      45.272  23.764  26.957  1.00  0.00     0.010 A 
ATOM     44  C   UNL A   1      43.703  24.424  25.193  1.00  0.00     0.010 A 
ATOM     45  C   UNL A   1      44.338  24.652  26.409  1.00  0.00    -0.014 A 
BRANCH  45  46
ATOM     46  C   UNL A   1      44.150  25.900  27.103  1.00  0.00     0.031 A 
ATOM     47  C   UNL A   1      45.266  26.827  26.853  1.00  0.00     0.074 A 
ATOM     48  C   UNL A   1      43.076  26.173  27.862  1.00  0.00     0.049 A 
ATOM     49  N   UNL A   1      46.258  27.068  27.643  1.00  0.00    -0.248 NA
ATOM     50  C   UNL A   1      45.431  27.343  25.489  1.00  0.00     0.031 C 
ATOM     51  C   UNL A   1      41.810  25.443  27.946  1.00  0.00     0.029 A 
ATOM     52  N   UNL A   1      42.859  27.266  28.638  1.00  0.00    -0.354 N 
ATOM     53  C   UNL A   1      47.037  27.989  26.956  1.00  0.00     0.074 A 
ATOM     54  C   UNL A   1      46.634  27.911  25.578  1.00  0.00     0.031 C 
ATOM     55  C   UNL A   1      40.882  26.245  28.519  1.00  0.00     0.029 A 
ATOM     56  C   UNL A   1      41.525  27.474  28.957  1.00  0.00     0.049 A 
ATOM     57  H   UNL A   1      43.583  27.857  28.946  1.00  0.00     0.167 HD
ATOM     58  C   UNL A   1      47.718  28.953  27.629  1.00  0.00     0.034 A 
ATOM     59  C   UNL A   1      41.002  28.623  29.453  1.00  0.00     0.034 A 
ATOM     60  C   UNL A   1      47.803  28.651  29.036  1.00  0.00     0.049 A 
ATOM     61  C   UNL A   1      42.121  29.397  30.046  1.00  0.00     0.074 A 
ATOM     62  C   UNL A   1      48.314  27.611  29.788  1.00  0.00     0.029 A 
ATOM     63  N   UNL A   1      46.939  29.332  29.859  1.00  0.00    -0.354 N 
ATOM     64  N   UNL A   1      42.767  29.023  31.115  1.00  0.00    -0.248 NA
ATOM     65  C   UNL A   1      42.810  30.365  29.208  1.00  0.00     0.031 C 
ATOM     66  C   UNL A   1      47.406  27.460  30.876  1.00  0.00     0.029 A 
ATOM     67  C   UNL A   1      46.426  28.448  30.767  1.00  0.00     0.049 A 
ATOM     68  H   UNL A   1      46.726  30.292  29.805  1.00  0.00     0.167 HD
ATOM     69  C   UNL A   1      44.094  29.330  30.839  1.00  0.00     0.074 A 
ATOM     70  C   UNL A   1      44.042  30.259  29.713  1.00  0.00     0.031 C 
ATOM     71  C   UNL A   1      45.107  28.570  31.350  1.00  0.00     0.034 A 
BRANCH  58  72
ATOM     72  C   UNL A   1      47.931  30.357  27.114  1.00  0.00     0.023 A 
ATOM     73  C   UNL A   1      49.226  30.899  27.266  1.00  0.00     0.012 A 
ATOM     74  C   UNL A   1      46.897  31.257  26.765  1.00  0.00     0.148 A 
ATOM     75  C   UNL A   1      49.465  32.271  27.141  1.00  0.00     0.002 A 
ATOM     76  C   UNL A   1      47.156  32.606  26.555  1.00  0.00     0.091 A 
ATOM     77  F   UNL A   1      45.624  30.859  26.764  1.00  0.00    -0.205 F 
ATOM     78  C   UNL A   1      48.430  33.124  26.779  1.00  0.00     0.022 A 
BRANCH  76  79
ATOM     79  S   UNL A   1      45.861  33.740  26.037  1.00  0.00     0.127 S 
ATOM     80  O   UNL A   1      46.624  34.725  25.277  1.00  0.00    -0.237 OA
ATOM     81  O   UNL A   1      45.005  32.863  25.237  1.00  0.00    -0.237 OA
ATOM     82  O   UNL A   1      45.240  34.220  27.264  1.00  0.00    -0.744 OA
ENDBRANCH  76  79
ENDBRANCH  58  72
BRANCH  59  83
ATOM     83  C   UNL A   1      39.677  29.241  29.217  1.00  0.00     0.023 A 
ATOM     84  C   UNL A   1      38.873  28.769  28.159  1.00  0.00     0.012 A 
ATOM     85  C   UNL A   1      39.077  30.071  30.190  1.00  0.00     0.148 A 
ATOM     86  C   UNL A   1      37.509  29.078  28.095  1.00  0.00     0.002 A 
ATOM     87  C   UNL A   1      37.722  30.379  30.119  1.00  0.00     0.091 A 
ATOM     88  F   UNL A   1      39.810  30.476  31.235  1.00  0.00    -0.205 F 
ATOM     89  C   UNL A   1      36.931  29.873  29.080  1.00  0.00     0.022 A 
BRANCH  87  90
ATOM     90  S   UNL A   1      36.899  31.370  31.375  1.00  0.00     0.127 S 
ATOM     91  O   UNL A   1      35.509  31.341  30.919  1.00  0.00    -0.237 OA
ATOM     92  O   UNL A   1      37.162  30.599  32.587  1.00  0.00    -0.237 OA
ATOM     93  O   UNL A   1      37.522  32.687  31.316  1.00  0.00    -0.744 OA
ENDBRANCH  87  90
ENDBRANCH  59  83
BRANCH  71  94
ATOM     94  C   UNL A   1      44.777  27.600  32.456  1.00  0.00     0.023 A 
ATOM     95  C   UNL A   1      44.484  26.242  32.216  1.00  0.00     0.012 A 
ATOM     96  C   UNL A   1      44.937  28.040  33.781  1.00  0.00     0.148 A 
ATOM     97  C   UNL A   1      44.331  25.347  33.280  1.00  0.00     0.002 A 
ATOM     98  C   UNL A   1      44.834  27.139  34.832  1.00  0.00     0.091 A 
ATOM     99  F   UNL A   1      45.215  29.336  33.989  1.00  0.00    -0.205 F 
ATOM    100  C   UNL A   1      44.521  25.792  34.587  1.00  0.00     0.022 A 
BRANCH  98 101
ATOM    101  S   UNL A   1      45.198  27.629  36.518  1.00  0.00     0.127 S 
ATOM    102  O   UNL A   1      44.331  28.792  36.692  1.00  0.00    -0.237 OA
ATOM    103  O   UNL A   1      44.798  26.446  37.283  1.00  0.00    -0.237 OA
ATOM    104  O   UNL A   1      46.630  27.901  36.555  1.00  0.00    -0.744 OA
ENDBRANCH  98 101
ENDBRANCH  71  94
ENDBRANCH  45  46
ENDBRANCH  38  40
ENDBRANCH  37  38
ENDBRANCH  36  37
ENDBRANCH  35  36
ENDBRANCH  34  35
ENDBRANCH   1  34
TORSDOF 22
ENDMDL
