MODEL 1
REMARK VINA RESULT:      -8.5      0.000      0.000
REMARK SMILES O=C(COc1ccc(/C=C2\SC(=O)N(Cc3cc4c(cc3Cl)OCO4)C2=O)cc1)OCCOCCOC(=O)c1ccc(-c2c3nc(c(-c4cccc(S(=O)(=O)[O-])c4F)c4ccc([nH]4)c(-c4cccc(S(=O)(=O)[O-])c4F)c4nc(c(-c5cccc(S(=O)(=O)[O-])c5F)c5ccc2[nH]5)C=C4)C=C3)cc1
REMARK SMILES IDX 32 1 31 2 30 3 2 4 1 5 3 6 4 7 5 8 6 9 29 10 7 11 28 12 8 13
REMARK SMILES IDX 9 14 10 15 11 16 26 17 12 18 14 19 27 20 13 21 15 22 16 23
REMARK SMILES IDX 17 24 21 25 18 26 20 27 22 28 19 29 25 30 23 31 24 32 33 33
REMARK SMILES IDX 34 34 35 35 36 36 37 37 38 38 39 39 40 40 101 41 41 42
REMARK SMILES IDX 100 43 42 44 43 45 44 46 94 47 45 48 99 49 93 50 95 51 46 52
REMARK SMILES IDX 98 53 92 54 91 55 47 57 79 58 59 59 78 60 60 61 63 62 77 63
REMARK SMILES IDX 96 64 61 65 62 66 76 68 97 69 64 70 48 71 49 72 57 73 50 74
REMARK SMILES IDX 52 75 58 76 51 77 53 78 54 79 55 80 56 81 80 82 81 83 89 84
REMARK SMILES IDX 82 85 84 86 90 87 83 88 85 89 86 90 87 91 88 92 65 93 66 94
REMARK SMILES IDX 74 95 67 96 69 97 75 98 68 99 70 100 71 101 72 102 73 103
REMARK H PARENT 95 56 63 67
REMARK Flexibility Score: inf
ROOT
ATOM      1  C   UNL A   1      43.325  20.169  25.375  1.00  0.00     0.202 C 
ENDROOT
BRANCH   1   2
ATOM      2  C   UNL A   1      42.046  20.284  26.194  1.00  0.00     0.261 C 
BRANCH   2   3
ATOM      3  O   UNL A   1      41.505  21.614  26.145  1.00  0.00    -0.461 OA
BRANCH   3   4
ATOM      4  C   UNL A   1      40.212  21.915  26.413  1.00  0.00     0.344 C 
ATOM      5  O   UNL A   1      39.330  21.088  26.179  1.00  0.00    -0.248 OA
BRANCH   4   6
ATOM      6  C   UNL A   1      39.866  23.273  27.026  1.00  0.00     0.351 C 
BRANCH   6   7
ATOM      7  O   UNL A   1      40.185  24.506  26.403  1.00  0.00    -0.482 OA
BRANCH   7   8
ATOM      8  C   UNL A   1      40.057  25.619  27.181  1.00  0.00     0.120 A 
ATOM      9  C   UNL A   1      39.525  25.418  28.459  1.00  0.00     0.047 A 
ATOM     10  C   UNL A   1      40.384  26.906  26.770  1.00  0.00     0.047 A 
ATOM     11  C   UNL A   1      39.424  26.484  29.359  1.00  0.00     0.012 A 
ATOM     12  C   UNL A   1      40.279  27.961  27.645  1.00  0.00     0.012 A 
ATOM     13  C   UNL A   1      39.829  27.751  28.947  1.00  0.00    -0.024 A 
BRANCH  13  14
ATOM     14  C   UNL A   1      40.016  28.899  29.807  1.00  0.00     0.029 C 
ATOM     15  C   UNL A   1      39.231  29.977  29.765  1.00  0.00     0.083 C 
ATOM     16  S   UNL A   1      37.592  30.190  29.328  1.00  0.00    -0.022 SA
ATOM     17  C   UNL A   1      39.794  31.270  30.165  1.00  0.00     0.268 C 
ATOM     18  C   UNL A   1      37.528  31.731  30.203  1.00  0.00     0.293 C 
ATOM     19  N   UNL A   1      38.789  32.050  30.643  1.00  0.00    -0.264 N 
ATOM     20  O   UNL A   1      40.968  31.581  30.013  1.00  0.00    -0.268 OA
ATOM     21  O   UNL A   1      36.509  32.354  30.390  1.00  0.00    -0.261 OA
BRANCH  19  22
ATOM     22  C   UNL A   1      39.085  33.153  31.520  1.00  0.00     0.167 C 
BRANCH  22  23
ATOM     23  C   UNL A   1      38.559  32.884  32.925  1.00  0.00    -0.005 A 
ATOM     24  C   UNL A   1      39.116  31.801  33.634  1.00  0.00     0.057 A 
ATOM     25  C   UNL A   1      37.545  33.657  33.565  1.00  0.00     0.050 A 
ATOM     26  C   UNL A   1      38.640  31.529  34.899  1.00  0.00     0.166 A 
ATOM     27  C   UNL A   1      37.164  33.416  34.888  1.00  0.00     0.071 A 
ATOM     28  Cl  UNL A   1      36.602  34.867  32.782  1.00  0.00    -0.084 Cl
ATOM     29  C   UNL A   1      37.708  32.328  35.515  1.00  0.00     0.167 A 
ATOM     30  O   UNL A   1      38.974  30.457  35.667  1.00  0.00    -0.454 OA
ATOM     31  O   UNL A   1      37.359  31.875  36.747  1.00  0.00    -0.454 OA
ATOM     32  C   UNL A   1      37.999  30.585  36.724  1.00  0.00     0.468 C 
ENDBRANCH  22  23
ENDBRANCH  19  22
ENDBRANCH  13  14
ENDBRANCH   7   8
ENDBRANCH   6   7
ENDBRANCH   4   6
ENDBRANCH   3   4
ENDBRANCH   2   3
ENDBRANCH   1   2
BRANCH   1  33
ATOM     33  O   UNL A   1      44.359  21.092  25.727  1.00  0.00    -0.374 OA
BRANCH  33  34
ATOM     34  C   UNL A   1      44.805  21.976  24.690  1.00  0.00     0.202 C 
BRANCH  34  35
ATOM     35  C   UNL A   1      44.383  23.442  24.792  1.00  0.00     0.261 C 
BRANCH  35  36
ATOM     36  O   UNL A   1      45.134  24.137  25.800  1.00  0.00    -0.460 OA
BRANCH  36  37
ATOM     37  C   UNL A   1      45.806  25.222  25.348  1.00  0.00     0.338 C 
ATOM     38  O   UNL A   1      46.558  25.265  24.386  1.00  0.00    -0.246 OA
BRANCH  37  39
ATOM     39  C   UNL A   1      45.358  26.436  26.062  1.00  0.00     0.060 A 
ATOM     40  C   UNL A   1      46.306  27.082  26.865  1.00  0.00     0.016 A 
ATOM     41  C   UNL A   1      44.044  26.908  25.995  1.00  0.00     0.016 A 
ATOM     42  C   UNL A   1      45.924  28.143  27.677  1.00  0.00     0.010 A 
ATOM     43  C   UNL A   1      43.659  27.974  26.815  1.00  0.00     0.010 A 
ATOM     44  C   UNL A   1      44.585  28.555  27.698  1.00  0.00    -0.014 A 
BRANCH  44  45
ATOM     45  C   UNL A   1      44.144  29.467  28.777  1.00  0.00     0.031 A 
ATOM     46  C   UNL A   1      43.815  28.884  30.125  1.00  0.00     0.074 A 
ATOM     47  C   UNL A   1      44.096  30.794  28.574  1.00  0.00     0.049 A 
ATOM     48  N   UNL A   1      43.473  29.493  31.229  1.00  0.00    -0.248 NA
ATOM     49  C   UNL A   1      43.883  27.416  30.247  1.00  0.00     0.031 C 
ATOM     50  C   UNL A   1      44.385  31.466  27.308  1.00  0.00     0.029 A 
ATOM     51  N   UNL A   1      43.773  31.814  29.432  1.00  0.00    -0.354 N 
ATOM     52  C   UNL A   1      43.277  28.490  32.171  1.00  0.00     0.074 A 
ATOM     53  C   UNL A   1      43.512  27.229  31.505  1.00  0.00     0.031 C 
ATOM     54  C   UNL A   1      44.200  32.788  27.465  1.00  0.00     0.029 A 
ATOM     55  C   UNL A   1      43.775  33.053  28.837  1.00  0.00     0.049 A 
ATOM     56  H   UNL A   1      43.559  31.672  30.382  1.00  0.00     0.167 HD
ATOM     57  C   UNL A   1      42.956  28.609  33.481  1.00  0.00     0.034 A 
ATOM     58  C   UNL A   1      43.459  34.259  29.346  1.00  0.00     0.034 A 
ATOM     59  C   UNL A   1      42.738  29.867  34.142  1.00  0.00     0.049 A 
ATOM     60  C   UNL A   1      43.102  34.364  30.806  1.00  0.00     0.074 A 
ATOM     61  C   UNL A   1      42.432  30.100  35.470  1.00  0.00     0.029 A 
ATOM     62  N   UNL A   1      42.798  31.105  33.521  1.00  0.00    -0.354 N 
ATOM     63  N   UNL A   1      43.040  33.417  31.711  1.00  0.00    -0.248 NA
ATOM     64  C   UNL A   1      42.813  35.709  31.324  1.00  0.00     0.031 C 
ATOM     65  C   UNL A   1      42.293  31.482  35.649  1.00  0.00     0.029 A 
ATOM     66  C   UNL A   1      42.532  32.108  34.436  1.00  0.00     0.049 A 
ATOM     67  H   UNL A   1      43.000  31.249  32.567  1.00  0.00     0.167 HD
ATOM     68  C   UNL A   1      42.730  34.053  32.909  1.00  0.00     0.074 A 
ATOM     69  C   UNL A   1      42.654  35.470  32.618  1.00  0.00     0.031 C 
ATOM     70  C   UNL A   1      42.506  33.515  34.134  1.00  0.00     0.034 A 
BRANCH  57  71
ATOM     71  C   UNL A   1      42.870  27.347  34.297  1.00  0.00     0.023 A 
ATOM     72  C   UNL A   1      41.603  26.804  34.596  1.00  0.00     0.012 A 
ATOM     73  C   UNL A   1      44.030  26.668  34.716  1.00  0.00     0.148 A 
ATOM     74  C   UNL A   1      41.492  25.617  35.319  1.00  0.00     0.002 A 
ATOM     75  C   UNL A   1      43.911  25.464  35.402  1.00  0.00     0.091 A 
ATOM     76  F   UNL A   1      45.224  27.213  34.442  1.00  0.00    -0.205 F 
ATOM     77  C   UNL A   1      42.644  24.942  35.712  1.00  0.00     0.022 A 
BRANCH  75  78
ATOM     78  S   UNL A   1      45.333  24.482  35.895  1.00  0.00     0.127 S 
ATOM     79  O   UNL A   1      44.726  23.167  36.097  1.00  0.00    -0.237 OA
ATOM     80  O   UNL A   1      46.197  24.581  34.719  1.00  0.00    -0.237 OA
ATOM     81  O   UNL A   1      45.862  25.112  37.095  1.00  0.00    -0.744 OA
ENDBRANCH  75  78
ENDBRANCH  57  71
BRANCH  58  82
ATOM     82  C   UNL A   1      43.503  35.470  28.477  1.00  0.00     0.023 A 
ATOM     83  C   UNL A   1      42.336  35.904  27.818  1.00  0.00     0.012 A 
ATOM     84  C   UNL A   1      44.695  36.200  28.311  1.00  0.00     0.148 A 
ATOM     85  C   UNL A   1      42.365  37.023  26.986  1.00  0.00     0.002 A 
ATOM     86  C   UNL A   1      44.705  37.345  27.525  1.00  0.00     0.091 A 
ATOM     87  F   UNL A   1      45.803  35.759  28.925  1.00  0.00    -0.205 F 
ATOM     88  C   UNL A   1      43.545  37.750  26.847  1.00  0.00     0.022 A 
BRANCH  86  89
ATOM     89  S   UNL A   1      46.151  38.403  27.407  1.00  0.00     0.127 S 
ATOM     90  O   UNL A   1      47.131  37.506  26.801  1.00  0.00    -0.237 OA
ATOM     91  O   UNL A   1      45.678  39.478  26.535  1.00  0.00    -0.237 OA
ATOM     92  O   UNL A   1      46.429  38.826  28.774  1.00  0.00    -0.744 OA
ENDBRANCH  86  89
ENDBRANCH  58  82
BRANCH  70  93
ATOM     93  C   UNL A   1      42.169  34.465  35.253  1.00  0.00     0.023 A 
ATOM     94  C   UNL A   1      40.827  34.837  35.468  1.00  0.00     0.012 A 
ATOM     95  C   UNL A   1      43.168  34.948  36.119  1.00  0.00     0.148 A 
ATOM     96  C   UNL A   1      40.490  35.710  36.502  1.00  0.00     0.002 A 
ATOM     97  C   UNL A   1      42.818  35.779  37.178  1.00  0.00     0.091 A 
ATOM     98  F   UNL A   1      44.442  34.600  35.888  1.00  0.00    -0.205 F 
ATOM     99  C   UNL A   1      41.483  36.171  37.362  1.00  0.00     0.022 A 
BRANCH  97 100
ATOM    100  S   UNL A   1      44.024  36.344  38.384  1.00  0.00     0.127 S 
ATOM    101  O   UNL A   1      44.689  35.096  38.750  1.00  0.00    -0.237 OA
ATOM    102  O   UNL A   1      44.846  37.265  37.598  1.00  0.00    -0.237 OA
ATOM    103  O   UNL A   1      43.253  36.983  39.441  1.00  0.00    -0.744 OA
ENDBRANCH  97 100
ENDBRANCH  70  93
ENDBRANCH  44  45
ENDBRANCH  37  39
ENDBRANCH  36  37
ENDBRANCH  35  36
ENDBRANCH  34  35
ENDBRANCH  33  34
ENDBRANCH   1  33
TORSDOF 22
ENDMDL
MODEL 2
REMARK VINA RESULT:      -8.2      2.480      7.862
REMARK SMILES O=C(COc1ccc(/C=C2\SC(=O)N(Cc3cc4c(cc3Cl)OCO4)C2=O)cc1)OCCOCCOC(=O)c1ccc(-c2c3nc(c(-c4cccc(S(=O)(=O)[O-])c4F)c4ccc([nH]4)c(-c4cccc(S(=O)(=O)[O-])c4F)c4nc(c(-c5cccc(S(=O)(=O)[O-])c5F)c5ccc2[nH]5)C=C4)C=C3)cc1
REMARK SMILES IDX 32 1 31 2 30 3 2 4 1 5 3 6 4 7 5 8 6 9 29 10 7 11 28 12 8 13
REMARK SMILES IDX 9 14 10 15 11 16 26 17 12 18 14 19 27 20 13 21 15 22 16 23
REMARK SMILES IDX 17 24 21 25 18 26 20 27 22 28 19 29 25 30 23 31 24 32 33 33
REMARK SMILES IDX 34 34 35 35 36 36 37 37 38 38 39 39 40 40 101 41 41 42
REMARK SMILES IDX 100 43 42 44 43 45 44 46 94 47 45 48 99 49 93 50 95 51 46 52
REMARK SMILES IDX 98 53 92 54 91 55 47 57 79 58 59 59 78 60 60 61 63 62 77 63
REMARK SMILES IDX 96 64 61 65 62 66 76 68 97 69 64 70 48 71 49 72 57 73 50 74
REMARK SMILES IDX 52 75 58 76 51 77 53 78 54 79 55 80 56 81 80 82 81 83 89 84
REMARK SMILES IDX 82 85 84 86 90 87 83 88 85 89 86 90 87 91 88 92 65 93 66 94
REMARK SMILES IDX 74 95 67 96 69 97 75 98 68 99 70 100 71 101 72 102 73 103
REMARK H PARENT 95 56 63 67
REMARK Flexibility Score: inf
ROOT
ATOM      1  C   UNL A   1      45.902  22.855  24.343  1.00  0.00     0.202 C 
ENDROOT
BRANCH   1   2
ATOM      2  C   UNL A   1      45.606  22.979  25.832  1.00  0.00     0.261 C 
BRANCH   2   3
ATOM      3  O   UNL A   1      44.217  23.257  26.072  1.00  0.00    -0.461 OA
BRANCH   3   4
ATOM      4  C   UNL A   1      43.745  24.463  26.470  1.00  0.00     0.344 C 
ATOM      5  O   UNL A   1      44.418  25.164  27.227  1.00  0.00    -0.248 OA
BRANCH   4   6
ATOM      6  C   UNL A   1      42.389  24.948  25.956  1.00  0.00     0.351 C 
BRANCH   6   7
ATOM      7  O   UNL A   1      42.106  26.312  25.690  1.00  0.00    -0.482 OA
BRANCH   7   8
ATOM      8  C   UNL A   1      41.303  26.943  26.594  1.00  0.00     0.120 A 
ATOM      9  C   UNL A   1      40.958  28.265  26.293  1.00  0.00     0.047 A 
ATOM     10  C   UNL A   1      40.852  26.370  27.778  1.00  0.00     0.047 A 
ATOM     11  C   UNL A   1      40.078  28.971  27.119  1.00  0.00     0.012 A 
ATOM     12  C   UNL A   1      39.994  27.062  28.600  1.00  0.00     0.012 A 
ATOM     13  C   UNL A   1      39.581  28.348  28.260  1.00  0.00    -0.024 A 
BRANCH  13  14
ATOM     14  C   UNL A   1      38.494  28.834  29.083  1.00  0.00     0.029 C 
ATOM     15  C   UNL A   1      38.670  29.692  30.090  1.00  0.00     0.083 C 
ATOM     16  S   UNL A   1      39.834  30.912  30.371  1.00  0.00    -0.022 SA
ATOM     17  C   UNL A   1      37.724  29.661  31.209  1.00  0.00     0.268 C 
ATOM     18  C   UNL A   1      38.768  31.696  31.553  1.00  0.00     0.293 C 
ATOM     19  N   UNL A   1      37.668  30.901  31.761  1.00  0.00    -0.264 N 
ATOM     20  O   UNL A   1      37.152  28.650  31.594  1.00  0.00    -0.268 OA
ATOM     21  O   UNL A   1      38.995  32.775  32.047  1.00  0.00    -0.261 OA
BRANCH  19  22
ATOM     22  C   UNL A   1      36.521  31.295  32.539  1.00  0.00     0.167 C 
BRANCH  22  23
ATOM     23  C   UNL A   1      35.707  32.355  31.808  1.00  0.00    -0.005 A 
ATOM     24  C   UNL A   1      35.239  32.041  30.516  1.00  0.00     0.057 A 
ATOM     25  C   UNL A   1      35.389  33.637  32.345  1.00  0.00     0.050 A 
ATOM     26  C   UNL A   1      34.517  32.995  29.829  1.00  0.00     0.166 A 
ATOM     27  C   UNL A   1      34.566  34.537  31.662  1.00  0.00     0.071 A 
ATOM     28  Cl  UNL A   1      36.055  34.275  33.801  1.00  0.00    -0.084 Cl
ATOM     29  C   UNL A   1      34.172  34.197  30.397  1.00  0.00     0.167 A 
ATOM     30  O   UNL A   1      34.099  32.907  28.538  1.00  0.00    -0.454 OA
ATOM     31  O   UNL A   1      33.481  34.999  29.547  1.00  0.00    -0.454 OA
ATOM     32  C   UNL A   1      33.643  34.259  28.323  1.00  0.00     0.468 C 
ENDBRANCH  22  23
ENDBRANCH  19  22
ENDBRANCH  13  14
ENDBRANCH   7   8
ENDBRANCH   6   7
ENDBRANCH   4   6
ENDBRANCH   3   4
ENDBRANCH   2   3
ENDBRANCH   1   2
BRANCH   1  33
ATOM     33  O   UNL A   1      46.963  23.684  23.862  1.00  0.00    -0.374 OA
BRANCH  33  34
ATOM     34  C   UNL A   1      47.183  24.912  24.566  1.00  0.00     0.202 C 
BRANCH  34  35
ATOM     35  C   UNL A   1      48.072  25.956  23.890  1.00  0.00     0.261 C 
BRANCH  35  36
ATOM     36  O   UNL A   1      48.162  27.158  24.672  1.00  0.00    -0.460 OA
BRANCH  36  37
ATOM     37  C   UNL A   1      47.041  27.917  24.661  1.00  0.00     0.338 C 
ATOM     38  O   UNL A   1      46.437  28.311  23.676  1.00  0.00    -0.246 OA
BRANCH  37  39
ATOM     39  C   UNL A   1      46.505  28.056  26.031  1.00  0.00     0.060 A 
ATOM     40  C   UNL A   1      45.120  28.225  26.153  1.00  0.00     0.016 A 
ATOM     41  C   UNL A   1      47.324  28.072  27.163  1.00  0.00     0.016 A 
ATOM     42  C   UNL A   1      44.559  28.505  27.394  1.00  0.00     0.010 A 
ATOM     43  C   UNL A   1      46.759  28.356  28.411  1.00  0.00     0.010 A 
ATOM     44  C   UNL A   1      45.385  28.628  28.518  1.00  0.00    -0.014 A 
BRANCH  44  45
ATOM     45  C   UNL A   1      44.817  29.220  29.751  1.00  0.00     0.031 A 
ATOM     46  C   UNL A   1      44.380  30.660  29.726  1.00  0.00     0.074 A 
ATOM     47  C   UNL A   1      44.640  28.469  30.851  1.00  0.00     0.049 A 
ATOM     48  N   UNL A   1      43.799  31.365  30.660  1.00  0.00    -0.248 NA
ATOM     49  C   UNL A   1      44.628  31.406  28.479  1.00  0.00     0.031 C 
ATOM     50  C   UNL A   1      45.033  27.067  30.988  1.00  0.00     0.029 A 
ATOM     51  N   UNL A   1      44.092  28.788  32.066  1.00  0.00    -0.354 N 
ATOM     52  C   UNL A   1      43.621  32.633  30.122  1.00  0.00     0.074 A 
ATOM     53  C   UNL A   1      44.177  32.613  28.788  1.00  0.00     0.031 C 
ATOM     54  C   UNL A   1      44.737  26.653  32.232  1.00  0.00     0.029 A 
ATOM     55  C   UNL A   1      44.141  27.759  32.977  1.00  0.00     0.049 A 
ATOM     56  H   UNL A   1      43.702  29.668  32.268  1.00  0.00     0.167 HD
ATOM     57  C   UNL A   1      43.022  33.713  30.678  1.00  0.00     0.034 A 
ATOM     58  C   UNL A   1      43.756  27.725  34.267  1.00  0.00     0.034 A 
ATOM     59  C   UNL A   1      42.457  33.725  32.000  1.00  0.00     0.049 A 
ATOM     60  C   UNL A   1      43.096  28.941  34.864  1.00  0.00     0.074 A 
ATOM     61  C   UNL A   1      41.808  34.757  32.651  1.00  0.00     0.029 A 
ATOM     62  N   UNL A   1      42.480  32.650  32.876  1.00  0.00    -0.354 N 
ATOM     63  N   UNL A   1      42.825  30.094  34.300  1.00  0.00    -0.248 NA
ATOM     64  C   UNL A   1      42.649  28.836  36.260  1.00  0.00     0.031 C 
ATOM     65  C   UNL A   1      41.449  34.310  33.928  1.00  0.00     0.029 A 
ATOM     66  C   UNL A   1      41.858  32.994  34.064  1.00  0.00     0.049 A 
ATOM     67  H   UNL A   1      42.880  31.771  32.682  1.00  0.00     0.167 HD
ATOM     68  C   UNL A   1      42.156  30.842  35.263  1.00  0.00     0.074 A 
ATOM     69  C   UNL A   1      42.031  29.996  36.433  1.00  0.00     0.031 C 
ATOM     70  C   UNL A   1      41.706  32.120  35.198  1.00  0.00     0.034 A 
BRANCH  57  71
ATOM     71  C   UNL A   1      42.906  34.958  29.839  1.00  0.00     0.023 A 
ATOM     72  C   UNL A   1      41.837  35.078  28.927  1.00  0.00     0.012 A 
ATOM     73  C   UNL A   1      43.808  36.028  29.992  1.00  0.00     0.148 A 
ATOM     74  C   UNL A   1      41.682  36.233  28.163  1.00  0.00     0.002 A 
ATOM     75  C   UNL A   1      43.624  37.192  29.254  1.00  0.00     0.091 A 
ATOM     76  F   UNL A   1      44.831  35.884  30.847  1.00  0.00    -0.205 F 
ATOM     77  C   UNL A   1      42.567  37.294  28.334  1.00  0.00     0.022 A 
BRANCH  75  78
ATOM     78  S   UNL A   1      44.668  38.642  29.448  1.00  0.00     0.127 S 
ATOM     79  O   UNL A   1      44.359  39.392  28.231  1.00  0.00    -0.237 OA
ATOM     80  O   UNL A   1      44.145  39.234  30.679  1.00  0.00    -0.237 OA
ATOM     81  O   UNL A   1      46.033  38.146  29.543  1.00  0.00    -0.744 OA
ENDBRANCH  75  78
ENDBRANCH  57  71
BRANCH  58  82
ATOM     82  C   UNL A   1      43.950  26.485  35.070  1.00  0.00     0.023 A 
ATOM     83  C   UNL A   1      43.008  25.441  34.989  1.00  0.00     0.012 A 
ATOM     84  C   UNL A   1      45.072  26.331  35.906  1.00  0.00     0.148 A 
ATOM     85  C   UNL A   1      43.165  24.281  35.750  1.00  0.00     0.002 A 
ATOM     86  C   UNL A   1      45.252  25.152  36.619  1.00  0.00     0.091 A 
ATOM     87  F   UNL A   1      45.947  27.344  35.992  1.00  0.00    -0.205 F 
ATOM     88  C   UNL A   1      44.290  24.131  36.556  1.00  0.00     0.022 A 
BRANCH  86  89
ATOM     89  S   UNL A   1      46.741  24.836  37.572  1.00  0.00     0.127 S 
ATOM     90  O   UNL A   1      46.733  25.948  38.519  1.00  0.00    -0.237 OA
ATOM     91  O   UNL A   1      46.461  23.525  38.158  1.00  0.00    -0.237 OA
ATOM     92  O   UNL A   1      47.825  24.831  36.598  1.00  0.00    -0.744 OA
ENDBRANCH  86  89
ENDBRANCH  58  82
BRANCH  70  93
ATOM     93  C   UNL A   1      41.025  32.675  36.422  1.00  0.00     0.023 A 
ATOM     94  C   UNL A   1      41.709  33.599  37.238  1.00  0.00     0.012 A 
ATOM     95  C   UNL A   1      39.699  32.323  36.736  1.00  0.00     0.148 A 
ATOM     96  C   UNL A   1      41.096  34.131  38.371  1.00  0.00     0.002 A 
ATOM     97  C   UNL A   1      39.078  32.895  37.840  1.00  0.00     0.091 A 
ATOM     98  F   UNL A   1      39.070  31.428  35.960  1.00  0.00    -0.205 F 
ATOM     99  C   UNL A   1      39.779  33.788  38.666  1.00  0.00     0.022 A 
BRANCH  97 100
ATOM    100  S   UNL A   1      37.355  32.576  38.237  1.00  0.00     0.127 S 
ATOM    101  O   UNL A   1      37.246  33.148  39.577  1.00  0.00    -0.237 OA
ATOM    102  O   UNL A   1      36.649  33.324  37.196  1.00  0.00    -0.237 OA
ATOM    103  O   UNL A   1      37.192  31.131  38.152  1.00  0.00    -0.744 OA
ENDBRANCH  97 100
ENDBRANCH  70  93
ENDBRANCH  44  45
ENDBRANCH  37  39
ENDBRANCH  36  37
ENDBRANCH  35  36
ENDBRANCH  34  35
ENDBRANCH  33  34
ENDBRANCH   1  33
TORSDOF 22
ENDMDL
MODEL 3
REMARK VINA RESULT:      -8.1      4.598     10.557
REMARK SMILES O=C(COc1ccc(/C=C2\SC(=O)N(Cc3cc4c(cc3Cl)OCO4)C2=O)cc1)OCCOCCOC(=O)c1ccc(-c2c3nc(c(-c4cccc(S(=O)(=O)[O-])c4F)c4ccc([nH]4)c(-c4cccc(S(=O)(=O)[O-])c4F)c4nc(c(-c5cccc(S(=O)(=O)[O-])c5F)c5ccc2[nH]5)C=C4)C=C3)cc1
REMARK SMILES IDX 32 1 31 2 30 3 2 4 1 5 3 6 4 7 5 8 6 9 29 10 7 11 28 12 8 13
REMARK SMILES IDX 9 14 10 15 11 16 26 17 12 18 14 19 27 20 13 21 15 22 16 23
REMARK SMILES IDX 17 24 21 25 18 26 20 27 22 28 19 29 25 30 23 31 24 32 33 33
REMARK SMILES IDX 34 34 35 35 36 36 37 37 38 38 39 39 40 40 101 41 41 42
REMARK SMILES IDX 100 43 42 44 43 45 44 46 94 47 45 48 99 49 93 50 95 51 46 52
REMARK SMILES IDX 98 53 92 54 91 55 47 57 79 58 59 59 78 60 60 61 63 62 77 63
REMARK SMILES IDX 96 64 61 65 62 66 76 68 97 69 64 70 48 71 49 72 57 73 50 74
REMARK SMILES IDX 52 75 58 76 51 77 53 78 54 79 55 80 56 81 80 82 81 83 89 84
REMARK SMILES IDX 82 85 84 86 90 87 83 88 85 89 86 90 87 91 88 92 65 93 66 94
REMARK SMILES IDX 74 95 67 96 69 97 75 98 68 99 70 100 71 101 72 102 73 103
REMARK H PARENT 95 56 63 67
REMARK Flexibility Score: inf
ROOT
ATOM      1  C   UNL A   1      32.590  29.452  25.907  1.00  0.00     0.202 C 
ENDROOT
BRANCH   1   2
ATOM      2  C   UNL A   1      31.747  28.190  25.784  1.00  0.00     0.261 C 
BRANCH   2   3
ATOM      3  O   UNL A   1      32.328  27.256  24.860  1.00  0.00    -0.461 OA
BRANCH   3   4
ATOM      4  C   UNL A   1      31.857  26.002  24.656  1.00  0.00     0.344 C 
ATOM      5  O   UNL A   1      31.195  25.446  25.534  1.00  0.00    -0.248 OA
BRANCH   4   6
ATOM      6  C   UNL A   1      32.135  25.299  23.327  1.00  0.00     0.351 C 
BRANCH   6   7
ATOM      7  O   UNL A   1      32.041  23.894  23.160  1.00  0.00    -0.482 OA
BRANCH   7   8
ATOM      8  C   UNL A   1      33.101  23.166  23.613  1.00  0.00     0.120 A 
ATOM      9  C   UNL A   1      34.326  23.405  22.979  1.00  0.00     0.047 A 
ATOM     10  C   UNL A   1      33.023  22.206  24.615  1.00  0.00     0.047 A 
ATOM     11  C   UNL A   1      35.487  22.763  23.422  1.00  0.00     0.012 A 
ATOM     12  C   UNL A   1      34.159  21.564  25.049  1.00  0.00     0.012 A 
ATOM     13  C   UNL A   1      35.395  21.861  24.478  1.00  0.00    -0.024 A 
BRANCH  13  14
ATOM     14  C   UNL A   1      36.511  21.299  25.209  1.00  0.00     0.029 C 
ATOM     15  C   UNL A   1      37.565  22.019  25.596  1.00  0.00     0.083 C 
ATOM     16  S   UNL A   1      37.745  23.672  25.991  1.00  0.00    -0.022 SA
ATOM     17  C   UNL A   1      38.856  21.343  25.752  1.00  0.00     0.268 C 
ATOM     18  C   UNL A   1      39.245  23.328  26.874  1.00  0.00     0.293 C 
ATOM     19  N   UNL A   1      39.584  22.011  26.685  1.00  0.00    -0.264 N 
ATOM     20  O   UNL A   1      39.209  20.381  25.084  1.00  0.00    -0.268 OA
ATOM     21  O   UNL A   1      39.827  24.144  27.549  1.00  0.00    -0.261 OA
BRANCH  19  22
ATOM     22  C   UNL A   1      40.656  21.344  27.377  1.00  0.00     0.167 C 
BRANCH  22  23
ATOM     23  C   UNL A   1      41.916  21.308  26.520  1.00  0.00    -0.005 A 
ATOM     24  C   UNL A   1      42.468  22.542  26.121  1.00  0.00     0.057 A 
ATOM     25  C   UNL A   1      42.568  20.112  26.098  1.00  0.00     0.050 A 
ATOM     26  C   UNL A   1      43.596  22.532  25.328  1.00  0.00     0.166 A 
ATOM     27  C   UNL A   1      43.769  20.143  25.384  1.00  0.00     0.071 A 
ATOM     28  Cl  UNL A   1      41.922  18.528  26.299  1.00  0.00    -0.084 Cl
ATOM     29  C   UNL A   1      44.239  21.366  24.991  1.00  0.00     0.167 A 
ATOM     30  O   UNL A   1      44.183  23.617  24.755  1.00  0.00    -0.454 OA
ATOM     31  O   UNL A   1      45.315  21.573  24.188  1.00  0.00    -0.454 OA
ATOM     32  C   UNL A   1      45.125  22.966  23.877  1.00  0.00     0.468 C 
ENDBRANCH  22  23
ENDBRANCH  19  22
ENDBRANCH  13  14
ENDBRANCH   7   8
ENDBRANCH   6   7
ENDBRANCH   4   6
ENDBRANCH   3   4
ENDBRANCH   2   3
ENDBRANCH   1   2
BRANCH   1  33
ATOM     33  O   UNL A   1      32.016  30.494  26.700  1.00  0.00    -0.374 OA
BRANCH  33  34
ATOM     34  C   UNL A   1      32.920  31.490  27.196  1.00  0.00     0.202 C 
BRANCH  34  35
ATOM     35  C   UNL A   1      32.361  32.899  27.405  1.00  0.00     0.261 C 
BRANCH  35  36
ATOM     36  O   UNL A   1      33.409  33.848  27.656  1.00  0.00    -0.460 OA
BRANCH  36  37
ATOM     37  C   UNL A   1      33.636  34.098  28.967  1.00  0.00     0.338 C 
ATOM     38  O   UNL A   1      32.866  34.631  29.751  1.00  0.00    -0.246 OA
BRANCH  37  39
ATOM     39  C   UNL A   1      34.892  33.451  29.401  1.00  0.00     0.060 A 
ATOM     40  C   UNL A   1      34.777  32.399  30.317  1.00  0.00     0.016 A 
ATOM     41  C   UNL A   1      36.149  33.883  28.970  1.00  0.00     0.016 A 
ATOM     42  C   UNL A   1      35.916  31.837  30.879  1.00  0.00     0.010 A 
ATOM     43  C   UNL A   1      37.297  33.319  29.539  1.00  0.00     0.010 A 
ATOM     44  C   UNL A   1      37.180  32.335  30.535  1.00  0.00    -0.014 A 
BRANCH  44  45
ATOM     45  C   UNL A   1      38.344  31.940  31.359  1.00  0.00     0.031 A 
ATOM     46  C   UNL A   1      39.273  30.879  30.836  1.00  0.00     0.074 A 
ATOM     47  C   UNL A   1      38.599  32.561  32.524  1.00  0.00     0.049 A 
ATOM     48  N   UNL A   1      40.384  30.423  31.352  1.00  0.00    -0.248 NA
ATOM     49  C   UNL A   1      38.902  30.246  29.557  1.00  0.00     0.031 C 
ATOM     50  C   UNL A   1      37.763  33.597  33.129  1.00  0.00     0.029 A 
ATOM     51  N   UNL A   1      39.632  32.399  33.410  1.00  0.00    -0.354 N 
ATOM     52  C   UNL A   1      40.839  29.449  30.471  1.00  0.00     0.074 A 
ATOM     53  C   UNL A   1      39.874  29.359  29.399  1.00  0.00     0.031 C 
ATOM     54  C   UNL A   1      38.304  33.960  34.305  1.00  0.00     0.029 A 
ATOM     55  C   UNL A   1      39.517  33.179  34.536  1.00  0.00     0.049 A 
ATOM     56  H   UNL A   1      40.383  31.782  33.256  1.00  0.00     0.167 HD
ATOM     57  C   UNL A   1      41.975  28.714  30.535  1.00  0.00     0.034 A 
ATOM     58  C   UNL A   1      40.300  33.244  35.629  1.00  0.00     0.034 A 
ATOM     59  C   UNL A   1      42.939  28.819  31.595  1.00  0.00     0.049 A 
ATOM     60  C   UNL A   1      41.556  32.413  35.677  1.00  0.00     0.074 A 
ATOM     61  C   UNL A   1      44.134  28.138  31.744  1.00  0.00     0.029 A 
ATOM     62  N   UNL A   1      42.816  29.656  32.694  1.00  0.00    -0.354 N 
ATOM     63  N   UNL A   1      42.034  31.587  34.777  1.00  0.00    -0.248 NA
ATOM     64  C   UNL A   1      42.403  32.557  36.870  1.00  0.00     0.031 C 
ATOM     65  C   UNL A   1      44.727  28.555  32.941  1.00  0.00     0.029 A 
ATOM     66  C   UNL A   1      43.911  29.509  33.528  1.00  0.00     0.049 A 
ATOM     67  H   UNL A   1      42.059  30.266  32.856  1.00  0.00     0.167 HD
ATOM     68  C   UNL A   1      43.247  31.130  35.284  1.00  0.00     0.074 A 
ATOM     69  C   UNL A   1      43.446  31.803  36.552  1.00  0.00     0.031 C 
ATOM     70  C   UNL A   1      44.109  30.222  34.762  1.00  0.00     0.034 A 
BRANCH  57  71
ATOM     71  C   UNL A   1      42.259  27.766  29.399  1.00  0.00     0.023 A 
ATOM     72  C   UNL A   1      42.149  26.378  29.616  1.00  0.00     0.012 A 
ATOM     73  C   UNL A   1      42.573  28.243  28.113  1.00  0.00     0.148 A 
ATOM     74  C   UNL A   1      42.370  25.477  28.576  1.00  0.00     0.002 A 
ATOM     75  C   UNL A   1      42.754  27.339  27.071  1.00  0.00     0.091 A 
ATOM     76  F   UNL A   1      42.696  29.566  27.933  1.00  0.00    -0.205 F 
ATOM     77  C   UNL A   1      42.661  25.957  27.302  1.00  0.00     0.022 A 
BRANCH  75  78
ATOM     78  S   UNL A   1      43.067  27.856  25.379  1.00  0.00     0.127 S 
ATOM     79  O   UNL A   1      42.677  26.662  24.630  1.00  0.00    -0.237 OA
ATOM     80  O   UNL A   1      42.156  28.993  25.232  1.00  0.00    -0.237 OA
ATOM     81  O   UNL A   1      44.480  28.196  25.316  1.00  0.00    -0.744 OA
ENDBRANCH  75  78
ENDBRANCH  57  71
BRANCH  58  82
ATOM     82  C   UNL A   1      39.940  34.156  36.752  1.00  0.00     0.023 A 
ATOM     83  C   UNL A   1      40.135  35.545  36.618  1.00  0.00     0.012 A 
ATOM     84  C   UNL A   1      39.393  33.653  37.947  1.00  0.00     0.148 A 
ATOM     85  C   UNL A   1      39.821  36.410  37.667  1.00  0.00     0.002 A 
ATOM     86  C   UNL A   1      39.031  34.525  38.967  1.00  0.00     0.091 A 
ATOM     87  F   UNL A   1      39.238  32.326  38.068  1.00  0.00    -0.205 F 
ATOM     88  C   UNL A   1      39.260  35.903  38.836  1.00  0.00     0.022 A 
BRANCH  86  89
ATOM     89  S   UNL A   1      38.183  33.956  40.445  1.00  0.00     0.127 S 
ATOM     90  O   UNL A   1      37.995  35.203  41.181  1.00  0.00    -0.237 OA
ATOM     91  O   UNL A   1      36.959  33.374  39.893  1.00  0.00    -0.237 OA
ATOM     92  O   UNL A   1      39.082  32.983  41.052  1.00  0.00    -0.744 OA
ENDBRANCH  86  89
ENDBRANCH  58  82
BRANCH  70  93
ATOM     93  C   UNL A   1      45.350  29.912  35.557  1.00  0.00     0.023 A 
ATOM     94  C   UNL A   1      46.556  30.572  35.248  1.00  0.00     0.012 A 
ATOM     95  C   UNL A   1      45.312  29.011  36.638  1.00  0.00     0.148 A 
ATOM     96  C   UNL A   1      47.715  30.307  35.975  1.00  0.00     0.002 A 
ATOM     97  C   UNL A   1      46.460  28.788  37.389  1.00  0.00     0.091 A 
ATOM     98  F   UNL A   1      44.161  28.377  36.906  1.00  0.00    -0.205 F 
ATOM     99  C   UNL A   1      47.665  29.424  37.051  1.00  0.00     0.022 A 
BRANCH  97 100
ATOM    100  S   UNL A   1      46.458  27.735  38.845  1.00  0.00     0.127 S 
ATOM    101  O   UNL A   1      46.959  26.474  38.304  1.00  0.00    -0.237 OA
ATOM    102  O   UNL A   1      47.390  28.429  39.735  1.00  0.00    -0.237 OA
ATOM    103  O   UNL A   1      45.080  27.717  39.316  1.00  0.00    -0.744 OA
ENDBRANCH  97 100
ENDBRANCH  70  93
ENDBRANCH  44  45
ENDBRANCH  37  39
ENDBRANCH  36  37
ENDBRANCH  35  36
ENDBRANCH  34  35
ENDBRANCH  33  34
ENDBRANCH   1  33
TORSDOF 22
ENDMDL
