MODEL 1
REMARK VINA RESULT:      -9.8      0.000      0.000
REMARK SMILES O=C(CCc1nnc(CSc2ccccc2)o1)OCCOCCOC(=O)c1ccc(-c2c3nc(c(-c4cccc(S(=O)(=O)[O-])c4F)c4ccc([nH]4)c(-c4cccc(S(=O)(=O)[O-])c4F)c4nc(c(-c5cccc(S(=O)(=O)[O-])c5F)c5ccc2[nH]5)C=C4)C=C3)cc1
REMARK SMILES IDX 20 1 19 2 18 3 2 4 1 5 3 6 4 7 5 8 6 9 17 10 7 11 8 12 9 13
REMARK SMILES IDX 10 14 11 15 12 16 16 17 13 18 15 19 14 20 21 21 22 22 23 23
REMARK SMILES IDX 24 24 25 25 26 26 27 27 28 28 89 29 29 30 88 31 30 32 31 33
REMARK SMILES IDX 32 34 82 35 33 36 87 37 81 38 83 39 34 40 86 41 80 42 79 43
REMARK SMILES IDX 35 45 67 46 47 47 66 48 48 49 51 50 65 51 84 52 49 53 50 54
REMARK SMILES IDX 64 56 85 57 52 58 36 59 37 60 45 61 38 62 40 63 46 64 39 65
REMARK SMILES IDX 41 66 42 67 43 68 44 69 68 70 69 71 77 72 70 73 72 74 78 75
REMARK SMILES IDX 71 76 73 77 74 78 75 79 76 80 53 81 54 82 62 83 55 84 57 85
REMARK SMILES IDX 63 86 56 87 58 88 59 89 60 90 61 91
REMARK H PARENT 83 44 51 55
REMARK Flexibility Score: inf
ROOT
ATOM      1  C   UNL A   1      32.802  35.708  29.234  1.00  0.00     0.202 C 
ENDROOT
BRANCH   1   2
ATOM      2  C   UNL A   1      33.481  37.017  29.641  1.00  0.00     0.261 C 
BRANCH   2   3
ATOM      3  O   UNL A   1      32.867  37.702  30.733  1.00  0.00    -0.463 OA
BRANCH   3   4
ATOM      4  C   UNL A   1      32.884  37.162  31.971  1.00  0.00     0.306 C 
ATOM      5  O   UNL A   1      31.834  36.902  32.553  1.00  0.00    -0.252 OA
BRANCH   4   6
ATOM      6  C   UNL A   1      34.213  37.043  32.679  1.00  0.00     0.132 C 
BRANCH   6   7
ATOM      7  C   UNL A   1      34.156  36.262  33.983  1.00  0.00     0.111 C 
BRANCH   7   8
ATOM      8  C   UNL A   1      34.787  34.915  33.954  1.00  0.00     0.217 A 
ATOM      9  N   UNL A   1      34.245  33.775  33.590  1.00  0.00    -0.113 NA
ATOM     10  O   UNL A   1      36.104  34.772  34.326  1.00  0.00    -0.424 OA
ATOM     11  N   UNL A   1      35.241  32.824  33.650  1.00  0.00    -0.112 NA
ATOM     12  C   UNL A   1      36.332  33.437  34.056  1.00  0.00     0.226 A 
BRANCH  12  13
ATOM     13  C   UNL A   1      37.738  32.950  34.040  1.00  0.00     0.174 C 
BRANCH  13  14
ATOM     14  S   UNL A   1      38.983  34.223  33.669  1.00  0.00    -0.116 SA
BRANCH  14  15
ATOM     15  C   UNL A   1      39.008  34.157  31.889  1.00  0.00     0.008 A 
ATOM     16  C   UNL A   1      40.184  34.432  31.183  1.00  0.00     0.015 A 
ATOM     17  C   UNL A   1      37.831  33.905  31.183  1.00  0.00     0.015 A 
ATOM     18  C   UNL A   1      40.189  34.412  29.785  1.00  0.00     0.001 A 
ATOM     19  C   UNL A   1      37.832  33.901  29.787  1.00  0.00     0.001 A 
ATOM     20  C   UNL A   1      39.013  34.148  29.088  1.00  0.00     0.000 A 
ENDBRANCH  14  15
ENDBRANCH  13  14
ENDBRANCH  12  13
ENDBRANCH   7   8
ENDBRANCH   6   7
ENDBRANCH   4   6
ENDBRANCH   3   4
ENDBRANCH   2   3
ENDBRANCH   1   2
BRANCH   1  21
ATOM     21  O   UNL A   1      33.117  34.551  30.001  1.00  0.00    -0.374 OA
BRANCH  21  22
ATOM     22  C   UNL A   1      34.249  33.813  29.536  1.00  0.00     0.202 C 
BRANCH  22  23
ATOM     23  C   UNL A   1      34.310  33.666  28.011  1.00  0.00     0.261 C 
BRANCH  23  24
ATOM     24  O   UNL A   1      35.277  32.676  27.617  1.00  0.00    -0.460 OA
BRANCH  24  25
ATOM     25  C   UNL A   1      34.870  31.392  27.779  1.00  0.00     0.338 C 
ATOM     26  O   UNL A   1      33.756  30.944  27.555  1.00  0.00    -0.246 OA
BRANCH  25  27
ATOM     27  C   UNL A   1      36.035  30.523  28.075  1.00  0.00     0.060 A 
ATOM     28  C   UNL A   1      36.098  29.966  29.358  1.00  0.00     0.016 A 
ATOM     29  C   UNL A   1      37.041  30.247  27.144  1.00  0.00     0.016 A 
ATOM     30  C   UNL A   1      37.197  29.201  29.745  1.00  0.00     0.010 A 
ATOM     31  C   UNL A   1      38.148  29.482  27.534  1.00  0.00     0.010 A 
ATOM     32  C   UNL A   1      38.255  28.998  28.852  1.00  0.00    -0.014 A 
BRANCH  32  33
ATOM     33  C   UNL A   1      39.538  28.463  29.375  1.00  0.00     0.031 A 
ATOM     34  C   UNL A   1      40.154  29.124  30.581  1.00  0.00     0.074 A 
ATOM     35  C   UNL A   1      40.118  27.375  28.837  1.00  0.00     0.049 A 
ATOM     36  N   UNL A   1      41.241  28.808  31.235  1.00  0.00    -0.248 NA
ATOM     37  C   UNL A   1      39.444  30.294  31.126  1.00  0.00     0.031 C 
ATOM     38  C   UNL A   1      39.621  26.634  27.680  1.00  0.00     0.029 A 
ATOM     39  N   UNL A   1      41.268  26.714  29.193  1.00  0.00    -0.354 N 
ATOM     40  C   UNL A   1      41.351  29.741  32.260  1.00  0.00     0.074 A 
ATOM     41  C   UNL A   1      40.235  30.651  32.125  1.00  0.00     0.031 C 
ATOM     42  C   UNL A   1      40.479  25.636  27.402  1.00  0.00     0.029 A 
ATOM     43  C   UNL A   1      41.591  25.677  28.351  1.00  0.00     0.049 A 
ATOM     44  H   UNL A   1      41.809  26.959  29.978  1.00  0.00     0.167 HD
ATOM     45  C   UNL A   1      42.280  29.823  33.243  1.00  0.00     0.034 A 
ATOM     46  C   UNL A   1      42.670  24.868  28.336  1.00  0.00     0.034 A 
ATOM     47  C   UNL A   1      43.391  28.923  33.383  1.00  0.00     0.049 A 
ATOM     48  C   UNL A   1      43.713  25.004  29.417  1.00  0.00     0.074 A 
ATOM     49  C   UNL A   1      44.382  28.923  34.350  1.00  0.00     0.029 A 
ATOM     50  N   UNL A   1      43.667  27.867  32.531  1.00  0.00    -0.354 N 
ATOM     51  N   UNL A   1      43.745  25.826  30.438  1.00  0.00    -0.248 NA
ATOM     52  C   UNL A   1      44.849  24.071  29.366  1.00  0.00     0.031 C 
ATOM     53  C   UNL A   1      45.270  27.879  34.067  1.00  0.00     0.029 A 
ATOM     54  C   UNL A   1      44.814  27.211  32.943  1.00  0.00     0.049 A 
ATOM     55  H   UNL A   1      43.127  27.619  31.745  1.00  0.00     0.167 HD
ATOM     56  C   UNL A   1      44.883  25.489  31.166  1.00  0.00     0.074 A 
ATOM     57  C   UNL A   1      45.496  24.367  30.485  1.00  0.00     0.031 C 
ATOM     58  C   UNL A   1      45.389  26.065  32.285  1.00  0.00     0.034 A 
BRANCH  45  59
ATOM     59  C   UNL A   1      42.110  30.916  34.265  1.00  0.00     0.023 A 
ATOM     60  C   UNL A   1      41.440  30.636  35.474  1.00  0.00     0.012 A 
ATOM     61  C   UNL A   1      42.645  32.200  34.051  1.00  0.00     0.148 A 
ATOM     62  C   UNL A   1      41.279  31.626  36.442  1.00  0.00     0.002 A 
ATOM     63  C   UNL A   1      42.519  33.169  35.038  1.00  0.00     0.091 A 
ATOM     64  F   UNL A   1      43.257  32.451  32.885  1.00  0.00    -0.205 F 
ATOM     65  C   UNL A   1      41.827  32.888  36.229  1.00  0.00     0.022 A 
BRANCH  63  66
ATOM     66  S   UNL A   1      43.247  34.804  34.892  1.00  0.00     0.127 S 
ATOM     67  O   UNL A   1      44.670  34.485  34.797  1.00  0.00    -0.237 OA
ATOM     68  O   UNL A   1      42.648  35.298  33.652  1.00  0.00    -0.237 OA
ATOM     69  O   UNL A   1      42.849  35.529  36.091  1.00  0.00    -0.744 OA
ENDBRANCH  63  66
ENDBRANCH  45  59
BRANCH  46  70
ATOM     70  C   UNL A   1      42.821  23.842  27.264  1.00  0.00     0.023 A 
ATOM     71  C   UNL A   1      43.587  24.127  26.117  1.00  0.00     0.012 A 
ATOM     72  C   UNL A   1      42.194  22.586  27.374  1.00  0.00     0.148 A 
ATOM     73  C   UNL A   1      43.696  23.194  25.084  1.00  0.00     0.002 A 
ATOM     74  C   UNL A   1      42.353  21.640  26.370  1.00  0.00     0.091 A 
ATOM     75  F   UNL A   1      41.450  22.341  28.462  1.00  0.00    -0.205 F 
ATOM     76  C   UNL A   1      43.087  21.948  25.214  1.00  0.00     0.022 A 
BRANCH  74  77
ATOM     77  S   UNL A   1      41.711  19.968  26.517  1.00  0.00     0.127 S 
ATOM     78  O   UNL A   1      40.270  20.200  26.524  1.00  0.00    -0.237 OA
ATOM     79  O   UNL A   1      42.231  19.337  25.303  1.00  0.00    -0.237 OA
ATOM     80  O   UNL A   1      42.277  19.443  27.753  1.00  0.00    -0.744 OA
ENDBRANCH  74  77
ENDBRANCH  46  70
BRANCH  58  81
ATOM     81  C   UNL A   1      46.649  25.477  32.867  1.00  0.00     0.023 A 
ATOM     82  C   UNL A   1      46.566  24.524  33.904  1.00  0.00     0.012 A 
ATOM     83  C   UNL A   1      47.915  25.828  32.356  1.00  0.00     0.148 A 
ATOM     84  C   UNL A   1      47.721  23.967  34.451  1.00  0.00     0.002 A 
ATOM     85  C   UNL A   1      49.059  25.230  32.872  1.00  0.00     0.091 A 
ATOM     86  F   UNL A   1      47.980  26.748  31.383  1.00  0.00    -0.205 F 
ATOM     87  C   UNL A   1      48.965  24.311  33.929  1.00  0.00     0.022 A 
BRANCH  85  88
ATOM     88  S   UNL A   1      50.694  25.544  32.196  1.00  0.00     0.127 S 
ATOM     89  O   UNL A   1      50.508  25.190  30.790  1.00  0.00    -0.237 OA
ATOM     90  O   UNL A   1      50.866  26.976  32.445  1.00  0.00    -0.237 OA
ATOM     91  O   UNL A   1      51.604  24.689  32.945  1.00  0.00    -0.744 OA
ENDBRANCH  85  88
ENDBRANCH  58  81
ENDBRANCH  32  33
ENDBRANCH  25  27
ENDBRANCH  24  25
ENDBRANCH  23  24
ENDBRANCH  22  23
ENDBRANCH  21  22
ENDBRANCH   1  21
TORSDOF 22
ENDMDL
MODEL 2
REMARK VINA RESULT:      -9.7      1.116      7.872
REMARK SMILES O=C(CCc1nnc(CSc2ccccc2)o1)OCCOCCOC(=O)c1ccc(-c2c3nc(c(-c4cccc(S(=O)(=O)[O-])c4F)c4ccc([nH]4)c(-c4cccc(S(=O)(=O)[O-])c4F)c4nc(c(-c5cccc(S(=O)(=O)[O-])c5F)c5ccc2[nH]5)C=C4)C=C3)cc1
REMARK SMILES IDX 20 1 19 2 18 3 2 4 1 5 3 6 4 7 5 8 6 9 17 10 7 11 8 12 9 13
REMARK SMILES IDX 10 14 11 15 12 16 16 17 13 18 15 19 14 20 21 21 22 22 23 23
REMARK SMILES IDX 24 24 25 25 26 26 27 27 28 28 89 29 29 30 88 31 30 32 31 33
REMARK SMILES IDX 32 34 82 35 33 36 87 37 81 38 83 39 34 40 86 41 80 42 79 43
REMARK SMILES IDX 35 45 67 46 47 47 66 48 48 49 51 50 65 51 84 52 49 53 50 54
REMARK SMILES IDX 64 56 85 57 52 58 36 59 37 60 45 61 38 62 40 63 46 64 39 65
REMARK SMILES IDX 41 66 42 67 43 68 44 69 68 70 69 71 77 72 70 73 72 74 78 75
REMARK SMILES IDX 71 76 73 77 74 78 75 79 76 80 53 81 54 82 62 83 55 84 57 85
REMARK SMILES IDX 63 86 56 87 58 88 59 89 60 90 61 91
REMARK H PARENT 83 44 51 55
REMARK Flexibility Score: inf
ROOT
ATOM      1  C   UNL A   1      32.914  35.103  29.723  1.00  0.00     0.202 C 
ENDROOT
BRANCH   1   2
ATOM      2  C   UNL A   1      33.404  36.553  29.734  1.00  0.00     0.261 C 
BRANCH   2   3
ATOM      3  O   UNL A   1      32.825  37.378  30.746  1.00  0.00    -0.463 OA
BRANCH   3   4
ATOM      4  C   UNL A   1      32.872  36.998  32.042  1.00  0.00     0.306 C 
ATOM      5  O   UNL A   1      31.838  36.869  32.692  1.00  0.00    -0.252 OA
BRANCH   4   6
ATOM      6  C   UNL A   1      34.224  36.902  32.709  1.00  0.00     0.132 C 
BRANCH   6   7
ATOM      7  C   UNL A   1      34.219  36.126  34.016  1.00  0.00     0.111 C 
BRANCH   7   8
ATOM      8  C   UNL A   1      34.924  34.815  33.988  1.00  0.00     0.217 A 
ATOM      9  N   UNL A   1      34.443  33.646  33.629  1.00  0.00    -0.113 NA
ATOM     10  O   UNL A   1      36.247  34.745  34.357  1.00  0.00    -0.424 OA
ATOM     11  N   UNL A   1      35.489  32.751  33.688  1.00  0.00    -0.112 NA
ATOM     12  C   UNL A   1      36.547  33.424  34.090  1.00  0.00     0.226 A 
BRANCH  12  13
ATOM     13  C   UNL A   1      37.978  33.014  34.071  1.00  0.00     0.174 C 
BRANCH  13  14
ATOM     14  S   UNL A   1      39.164  34.390  34.006  1.00  0.00    -0.116 SA
BRANCH  14  15
ATOM     15  C   UNL A   1      39.567  34.402  32.270  1.00  0.00     0.008 A 
ATOM     16  C   UNL A   1      40.898  34.306  31.847  1.00  0.00     0.015 A 
ATOM     17  C   UNL A   1      38.562  34.586  31.321  1.00  0.00     0.015 A 
ATOM     18  C   UNL A   1      41.211  34.350  30.486  1.00  0.00     0.001 A 
ATOM     19  C   UNL A   1      38.876  34.647  29.962  1.00  0.00     0.001 A 
ATOM     20  C   UNL A   1      40.199  34.522  29.544  1.00  0.00     0.000 A 
ENDBRANCH  14  15
ENDBRANCH  13  14
ENDBRANCH  12  13
ENDBRANCH   7   8
ENDBRANCH   6   7
ENDBRANCH   4   6
ENDBRANCH   3   4
ENDBRANCH   2   3
ENDBRANCH   1   2
BRANCH   1  21
ATOM     21  O   UNL A   1      33.716  34.144  30.405  1.00  0.00    -0.374 OA
BRANCH  21  22
ATOM     22  C   UNL A   1      34.707  33.508  29.597  1.00  0.00     0.202 C 
BRANCH  22  23
ATOM     23  C   UNL A   1      34.287  33.318  28.134  1.00  0.00     0.261 C 
BRANCH  23  24
ATOM     24  O   UNL A   1      35.109  32.338  27.475  1.00  0.00    -0.460 OA
BRANCH  24  25
ATOM     25  C   UNL A   1      34.809  31.050  27.780  1.00  0.00     0.338 C 
ATOM     26  O   UNL A   1      33.729  30.498  27.639  1.00  0.00    -0.246 OA
BRANCH  25  27
ATOM     27  C   UNL A   1      36.046  30.309  28.123  1.00  0.00     0.060 A 
ATOM     28  C   UNL A   1      36.092  29.707  29.387  1.00  0.00     0.016 A 
ATOM     29  C   UNL A   1      37.135  30.190  27.255  1.00  0.00     0.016 A 
ATOM     30  C   UNL A   1      37.245  29.056  29.821  1.00  0.00     0.010 A 
ATOM     31  C   UNL A   1      38.297  29.540  27.693  1.00  0.00     0.010 A 
ATOM     32  C   UNL A   1      38.375  29.015  28.996  1.00  0.00    -0.014 A 
BRANCH  32  33
ATOM     33  C   UNL A   1      39.675  28.608  29.586  1.00  0.00     0.031 A 
ATOM     34  C   UNL A   1      40.424  27.462  28.955  1.00  0.00     0.074 A 
ATOM     35  C   UNL A   1      40.219  29.275  30.620  1.00  0.00     0.049 A 
ATOM     36  N   UNL A   1      41.589  26.958  29.269  1.00  0.00    -0.248 NA
ATOM     37  C   UNL A   1      39.772  26.800  27.811  1.00  0.00     0.031 C 
ATOM     38  C   UNL A   1      39.609  30.406  31.314  1.00  0.00     0.029 A 
ATOM     39  N   UNL A   1      41.411  29.080  31.275  1.00  0.00    -0.354 N 
ATOM     40  C   UNL A   1      41.807  25.919  28.371  1.00  0.00     0.074 A 
ATOM     41  C   UNL A   1      40.642  25.846  27.518  1.00  0.00     0.031 C 
ATOM     42  C   UNL A   1      40.417  30.788  32.319  1.00  0.00     0.029 A 
ATOM     43  C   UNL A   1      41.593  29.919  32.348  1.00  0.00     0.049 A 
ATOM     44  H   UNL A   1      42.071  28.404  31.001  1.00  0.00     0.167 HD
ATOM     45  C   UNL A   1      42.888  25.113  28.248  1.00  0.00     0.034 A 
ATOM     46  C   UNL A   1      42.585  29.966  33.261  1.00  0.00     0.034 A 
ATOM     47  C   UNL A   1      44.049  25.179  29.092  1.00  0.00     0.049 A 
ATOM     48  C   UNL A   1      43.760  29.030  33.127  1.00  0.00     0.074 A 
ATOM     49  C   UNL A   1      45.196  24.406  29.040  1.00  0.00     0.029 A 
ATOM     50  N   UNL A   1      44.211  26.062  30.147  1.00  0.00    -0.354 N 
ATOM     51  N   UNL A   1      43.997  28.123  32.209  1.00  0.00    -0.248 NA
ATOM     52  C   UNL A   1      44.826  29.153  34.133  1.00  0.00     0.031 C 
ATOM     53  C   UNL A   1      46.042  24.808  30.079  1.00  0.00     0.029 A 
ATOM     54  C   UNL A   1      45.435  25.852  30.758  1.00  0.00     0.049 A 
ATOM     55  H   UNL A   1      43.551  26.740  30.422  1.00  0.00     0.167 HD
ATOM     56  C   UNL A   1      45.248  27.592  32.509  1.00  0.00     0.074 A 
ATOM     57  C   UNL A   1      45.733  28.301  33.675  1.00  0.00     0.031 C 
ATOM     58  C   UNL A   1      45.928  26.595  31.889  1.00  0.00     0.034 A 
BRANCH  45  59
ATOM     59  C   UNL A   1      42.871  24.103  27.131  1.00  0.00     0.023 A 
ATOM     60  C   UNL A   1      43.505  24.410  25.908  1.00  0.00     0.012 A 
ATOM     61  C   UNL A   1      42.271  22.841  27.301  1.00  0.00     0.148 A 
ATOM     62  C   UNL A   1      43.515  23.489  24.862  1.00  0.00     0.002 A 
ATOM     63  C   UNL A   1      42.322  21.912  26.270  1.00  0.00     0.091 A 
ATOM     64  F   UNL A   1      41.654  22.578  28.461  1.00  0.00    -0.205 F 
ATOM     65  C   UNL A   1      42.933  22.237  25.047  1.00  0.00     0.022 A 
BRANCH  63  66
ATOM     66  S   UNL A   1      41.665  20.248  26.428  1.00  0.00     0.127 S 
ATOM     67  O   UNL A   1      40.234  20.477  26.234  1.00  0.00    -0.237 OA
ATOM     68  O   UNL A   1      42.326  19.550  25.326  1.00  0.00    -0.237 OA
ATOM     69  O   UNL A   1      42.048  19.790  27.756  1.00  0.00    -0.744 OA
ENDBRANCH  63  66
ENDBRANCH  45  59
BRANCH  46  70
ATOM     70  C   UNL A   1      42.523  30.945  34.385  1.00  0.00     0.023 A 
ATOM     71  C   UNL A   1      41.962  30.566  35.619  1.00  0.00     0.012 A 
ATOM     72  C   UNL A   1      43.008  32.257  34.226  1.00  0.00     0.148 A 
ATOM     73  C   UNL A   1      41.851  31.487  36.663  1.00  0.00     0.002 A 
ATOM     74  C   UNL A   1      42.948  33.152  35.287  1.00  0.00     0.091 A 
ATOM     75  F   UNL A   1      43.517  32.607  33.036  1.00  0.00    -0.205 F 
ATOM     76  C   UNL A   1      42.353  32.776  36.500  1.00  0.00     0.022 A 
BRANCH  74  77
ATOM     77  S   UNL A   1      43.686  34.788  35.203  1.00  0.00     0.127 S 
ATOM     78  O   UNL A   1      42.613  35.570  34.597  1.00  0.00    -0.237 OA
ATOM     79  O   UNL A   1      43.941  35.077  36.614  1.00  0.00    -0.237 OA
ATOM     80  O   UNL A   1      44.891  34.630  34.398  1.00  0.00    -0.744 OA
ENDBRANCH  74  77
ENDBRANCH  46  70
BRANCH  58  81
ATOM     81  C   UNL A   1      47.286  26.229  32.435  1.00  0.00     0.023 A 
ATOM     82  C   UNL A   1      48.427  26.944  32.016  1.00  0.00     0.012 A 
ATOM     83  C   UNL A   1      47.427  25.211  33.400  1.00  0.00     0.148 A 
ATOM     84  C   UNL A   1      49.689  26.622  32.514  1.00  0.00     0.002 A 
ATOM     85  C   UNL A   1      48.681  24.930  33.928  1.00  0.00     0.091 A 
ATOM     86  F   UNL A   1      46.336  24.528  33.775  1.00  0.00    -0.205 F 
ATOM     87  C   UNL A   1      49.815  25.623  33.476  1.00  0.00     0.022 A 
BRANCH  85  88
ATOM     88  S   UNL A   1      48.921  23.726  35.241  1.00  0.00     0.127 S 
ATOM     89  O   UNL A   1      48.055  24.255  36.293  1.00  0.00    -0.237 OA
ATOM     90  O   UNL A   1      48.442  22.489  34.622  1.00  0.00    -0.237 OA
ATOM     91  O   UNL A   1      50.347  23.738  35.534  1.00  0.00    -0.744 OA
ENDBRANCH  85  88
ENDBRANCH  58  81
ENDBRANCH  32  33
ENDBRANCH  25  27
ENDBRANCH  24  25
ENDBRANCH  23  24
ENDBRANCH  22  23
ENDBRANCH  21  22
ENDBRANCH   1  21
TORSDOF 22
ENDMDL
MODEL 3
REMARK VINA RESULT:      -9.6      5.582     10.127
REMARK SMILES O=C(CCc1nnc(CSc2ccccc2)o1)OCCOCCOC(=O)c1ccc(-c2c3nc(c(-c4cccc(S(=O)(=O)[O-])c4F)c4ccc([nH]4)c(-c4cccc(S(=O)(=O)[O-])c4F)c4nc(c(-c5cccc(S(=O)(=O)[O-])c5F)c5ccc2[nH]5)C=C4)C=C3)cc1
REMARK SMILES IDX 20 1 19 2 18 3 2 4 1 5 3 6 4 7 5 8 6 9 17 10 7 11 8 12 9 13
REMARK SMILES IDX 10 14 11 15 12 16 16 17 13 18 15 19 14 20 21 21 22 22 23 23
REMARK SMILES IDX 24 24 25 25 26 26 27 27 28 28 89 29 29 30 88 31 30 32 31 33
REMARK SMILES IDX 32 34 82 35 33 36 87 37 81 38 83 39 34 40 86 41 80 42 79 43
REMARK SMILES IDX 35 45 67 46 47 47 66 48 48 49 51 50 65 51 84 52 49 53 50 54
REMARK SMILES IDX 64 56 85 57 52 58 36 59 37 60 45 61 38 62 40 63 46 64 39 65
REMARK SMILES IDX 41 66 42 67 43 68 44 69 68 70 69 71 77 72 70 73 72 74 78 75
REMARK SMILES IDX 71 76 73 77 74 78 75 79 76 80 53 81 54 82 62 83 55 84 57 85
REMARK SMILES IDX 63 86 56 87 58 88 59 89 60 90 61 91
REMARK H PARENT 83 44 51 55
REMARK Flexibility Score: inf
ROOT
ATOM      1  C   UNL A   1      33.518  20.015  25.314  1.00  0.00     0.202 C 
ENDROOT
BRANCH   1   2
ATOM      2  C   UNL A   1      32.148  20.657  25.082  1.00  0.00     0.261 C 
BRANCH   2   3
ATOM      3  O   UNL A   1      32.165  22.077  24.937  1.00  0.00    -0.463 OA
BRANCH   3   4
ATOM      4  C   UNL A   1      32.491  22.864  25.986  1.00  0.00     0.306 C 
ATOM      5  O   UNL A   1      31.900  22.752  27.058  1.00  0.00    -0.252 OA
BRANCH   4   6
ATOM      6  C   UNL A   1      33.474  23.987  25.758  1.00  0.00     0.132 C 
BRANCH   6   7
ATOM      7  C   UNL A   1      34.176  23.935  24.410  1.00  0.00     0.111 C 
BRANCH   7   8
ATOM      8  C   UNL A   1      33.744  24.958  23.420  1.00  0.00     0.217 A 
ATOM      9  N   UNL A   1      34.086  25.055  22.154  1.00  0.00    -0.113 NA
ATOM     10  O   UNL A   1      32.867  25.947  23.800  1.00  0.00    -0.424 OA
ATOM     11  N   UNL A   1      33.369  26.107  21.628  1.00  0.00    -0.112 NA
ATOM     12  C   UNL A   1      32.636  26.599  22.605  1.00  0.00     0.226 A 
BRANCH  12  13
ATOM     13  C   UNL A   1      31.499  27.555  22.529  1.00  0.00     0.174 C 
BRANCH  13  14
ATOM     14  S   UNL A   1      31.572  28.923  23.726  1.00  0.00    -0.116 SA
BRANCH  14  15
ATOM     15  C   UNL A   1      29.936  29.607  23.552  1.00  0.00     0.008 A 
ATOM     16  C   UNL A   1      28.909  28.857  22.968  1.00  0.00     0.015 A 
ATOM     17  C   UNL A   1      29.688  30.928  23.927  1.00  0.00     0.015 A 
ATOM     18  C   UNL A   1      27.636  29.411  22.803  1.00  0.00     0.001 A 
ATOM     19  C   UNL A   1      28.421  31.487  23.747  1.00  0.00     0.001 A 
ATOM     20  C   UNL A   1      27.394  30.727  23.191  1.00  0.00     0.000 A 
ENDBRANCH  14  15
ENDBRANCH  13  14
ENDBRANCH  12  13
ENDBRANCH   7   8
ENDBRANCH   6   7
ENDBRANCH   4   6
ENDBRANCH   3   4
ENDBRANCH   2   3
ENDBRANCH   1   2
BRANCH   1  21
ATOM     21  O   UNL A   1      34.600  20.497  24.523  1.00  0.00    -0.374 OA
BRANCH  21  22
ATOM     22  C   UNL A   1      35.896  20.107  24.980  1.00  0.00     0.202 C 
BRANCH  22  23
ATOM     23  C   UNL A   1      36.693  21.245  25.630  1.00  0.00     0.261 C 
BRANCH  23  24
ATOM     24  O   UNL A   1      38.007  21.361  25.056  1.00  0.00    -0.460 OA
BRANCH  24  25
ATOM     25  C   UNL A   1      39.024  21.056  25.902  1.00  0.00     0.338 C 
ATOM     26  O   UNL A   1      39.554  19.965  26.044  1.00  0.00    -0.246 OA
BRANCH  25  27
ATOM     27  C   UNL A   1      39.572  22.295  26.504  1.00  0.00     0.060 A 
ATOM     28  C   UNL A   1      39.024  23.506  26.064  1.00  0.00     0.016 A 
ATOM     29  C   UNL A   1      40.584  22.296  27.467  1.00  0.00     0.016 A 
ATOM     30  C   UNL A   1      39.533  24.721  26.521  1.00  0.00     0.010 A 
ATOM     31  C   UNL A   1      41.100  23.517  27.923  1.00  0.00     0.010 A 
ATOM     32  C   UNL A   1      40.611  24.734  27.413  1.00  0.00    -0.014 A 
BRANCH  32  33
ATOM     33  C   UNL A   1      41.338  26.010  27.636  1.00  0.00     0.031 A 
ATOM     34  C   UNL A   1      40.636  27.116  28.383  1.00  0.00     0.074 A 
ATOM     35  C   UNL A   1      42.615  26.171  27.245  1.00  0.00     0.049 A 
ATOM     36  N   UNL A   1      41.081  28.295  28.730  1.00  0.00    -0.248 NA
ATOM     37  C   UNL A   1      39.248  26.851  28.799  1.00  0.00     0.031 C 
ATOM     38  C   UNL A   1      43.412  25.180  26.527  1.00  0.00     0.029 A 
ATOM     39  N   UNL A   1      43.459  27.245  27.389  1.00  0.00    -0.354 N 
ATOM     40  C   UNL A   1      40.031  28.916  29.396  1.00  0.00     0.074 A 
ATOM     41  C   UNL A   1      38.916  27.994  29.380  1.00  0.00     0.031 C 
ATOM     42  C   UNL A   1      44.623  25.703  26.265  1.00  0.00     0.029 A 
ATOM     43  C   UNL A   1      44.681  27.070  26.784  1.00  0.00     0.049 A 
ATOM     44  H   UNL A   1      43.213  28.062  27.879  1.00  0.00     0.167 HD
ATOM     45  C   UNL A   1      39.998  30.132  29.991  1.00  0.00     0.034 A 
ATOM     46  C   UNL A   1      45.718  27.922  26.647  1.00  0.00     0.034 A 
ATOM     47  C   UNL A   1      41.101  31.054  30.010  1.00  0.00     0.049 A 
ATOM     48  C   UNL A   1      45.643  29.287  27.283  1.00  0.00     0.074 A 
ATOM     49  C   UNL A   1      41.164  32.308  30.592  1.00  0.00     0.029 A 
ATOM     50  N   UNL A   1      42.331  30.829  29.415  1.00  0.00    -0.354 N 
ATOM     51  N   UNL A   1      44.680  29.817  27.998  1.00  0.00    -0.248 NA
ATOM     52  C   UNL A   1      46.819  30.158  27.128  1.00  0.00     0.031 C 
ATOM     53  C   UNL A   1      42.426  32.850  30.329  1.00  0.00     0.029 A 
ATOM     54  C   UNL A   1      43.160  31.920  29.610  1.00  0.00     0.049 A 
ATOM     55  H   UNL A   1      42.580  30.011  28.924  1.00  0.00     0.167 HD
ATOM     56  C   UNL A   1      45.144  31.065  28.402  1.00  0.00     0.074 A 
ATOM     57  C   UNL A   1      46.488  31.199  27.879  1.00  0.00     0.031 C 
ATOM     58  C   UNL A   1      44.512  32.024  29.125  1.00  0.00     0.034 A 
BRANCH  45  59
ATOM     59  C   UNL A   1      38.727  30.521  30.699  1.00  0.00     0.023 A 
ATOM     60  C   UNL A   1      38.558  30.180  32.057  1.00  0.00     0.012 A 
ATOM     61  C   UNL A   1      37.724  31.256  30.039  1.00  0.00     0.148 A 
ATOM     62  C   UNL A   1      37.396  30.538  32.739  1.00  0.00     0.002 A 
ATOM     63  C   UNL A   1      36.588  31.647  30.737  1.00  0.00     0.091 A 
ATOM     64  F   UNL A   1      37.894  31.549  28.742  1.00  0.00    -0.205 F 
ATOM     65  C   UNL A   1      36.417  31.280  32.083  1.00  0.00     0.022 A 
BRANCH  63  66
ATOM     66  S   UNL A   1      35.300  32.662  30.005  1.00  0.00     0.127 S 
ATOM     67  O   UNL A   1      34.783  31.776  28.964  1.00  0.00    -0.237 OA
ATOM     68  O   UNL A   1      34.394  32.870  31.135  1.00  0.00    -0.237 OA
ATOM     69  O   UNL A   1      35.963  33.867  29.525  1.00  0.00    -0.744 OA
ENDBRANCH  63  66
ENDBRANCH  45  59
BRANCH  46  70
ATOM     70  C   UNL A   1      46.930  27.509  25.882  1.00  0.00     0.023 A 
ATOM     71  C   UNL A   1      46.999  27.734  24.494  1.00  0.00     0.012 A 
ATOM     72  C   UNL A   1      48.011  26.879  26.529  1.00  0.00     0.148 A 
ATOM     73  C   UNL A   1      48.106  27.308  23.758  1.00  0.00     0.002 A 
ATOM     74  C   UNL A   1      49.135  26.509  25.801  1.00  0.00     0.091 A 
ATOM     75  F   UNL A   1      47.918  26.652  27.846  1.00  0.00    -0.205 F 
ATOM     76  C   UNL A   1      49.177  26.705  24.412  1.00  0.00     0.022 A 
BRANCH  74  77
ATOM     77  S   UNL A   1      50.608  25.845  26.585  1.00  0.00     0.127 S 
ATOM     78  O   UNL A   1      51.501  25.668  25.444  1.00  0.00    -0.237 OA
ATOM     79  O   UNL A   1      50.979  26.928  27.498  1.00  0.00    -0.237 OA
ATOM     80  O   UNL A   1      50.177  24.624  27.252  1.00  0.00    -0.744 OA
ENDBRANCH  74  77
ENDBRANCH  46  70
BRANCH  58  81
ATOM     81  C   UNL A   1      45.273  33.291  29.423  1.00  0.00     0.023 A 
ATOM     82  C   UNL A   1      46.073  33.374  30.582  1.00  0.00     0.012 A 
ATOM     83  C   UNL A   1      45.237  34.383  28.533  1.00  0.00     0.148 A 
ATOM     84  C   UNL A   1      46.786  34.537  30.871  1.00  0.00     0.002 A 
ATOM     85  C   UNL A   1      45.990  35.520  28.802  1.00  0.00     0.091 A 
ATOM     86  F   UNL A   1      44.458  34.297  27.444  1.00  0.00    -0.205 F 
ATOM     87  C   UNL A   1      46.753  35.604  29.978  1.00  0.00     0.022 A 
BRANCH  85  88
ATOM     88  S   UNL A   1      46.082  36.903  27.659  1.00  0.00     0.127 S 
ATOM     89  O   UNL A   1      44.686  37.329  27.594  1.00  0.00    -0.237 OA
ATOM     90  O   UNL A   1      46.970  37.831  28.362  1.00  0.00    -0.237 OA
ATOM     91  O   UNL A   1      46.634  36.362  26.425  1.00  0.00    -0.744 OA
ENDBRANCH  85  88
ENDBRANCH  58  81
ENDBRANCH  32  33
ENDBRANCH  25  27
ENDBRANCH  24  25
ENDBRANCH  23  24
ENDBRANCH  22  23
ENDBRANCH  21  22
ENDBRANCH   1  21
TORSDOF 22
ENDMDL
