MODEL 1
REMARK VINA RESULT:      -9.7      0.000      0.000
REMARK SMILES CC(C)n1c([C@H](O)CC(=O)OCCOCCOC(=O)c2ccc(-c3c4nc(c(-c5cccc(S(=O)(=O)[O-])c5F)c5ccc([nH]5)c(-c5cccc(S(=O)(=O)[O-])c5F)c5nc(c(-c6cccc(S(=O)(=O)[O-])c6F)c6ccc3[nH]6)C=C5)C=C4)cc2)nc2cc(Cl)ccc21
REMARK SMILES IDX 14 1 13 2 12 3 11 4 9 5 10 6 8 7 6 8 5 9 4 10 90 11 83 12
REMARK SMILES IDX 84 13 89 14 85 15 88 16 86 17 87 18 2 19 1 20 3 21 7 22
REMARK SMILES IDX 15 24 16 25 17 26 18 27 19 28 20 29 21 30 82 31 22 32 81 33
REMARK SMILES IDX 23 34 24 35 25 36 75 37 26 38 80 39 74 40 76 41 27 42 79 43
REMARK SMILES IDX 73 44 72 45 28 47 60 48 40 49 59 50 41 51 44 52 58 53 77 54
REMARK SMILES IDX 42 55 43 56 57 58 78 59 45 60 29 61 30 62 38 63 31 64 33 65
REMARK SMILES IDX 39 66 32 67 34 68 35 69 36 70 37 71 61 72 62 73 70 74 63 75
REMARK SMILES IDX 65 76 71 77 64 78 66 79 67 80 68 81 69 82 46 83 47 84 55 85
REMARK SMILES IDX 48 86 50 87 56 88 49 89 51 90 52 91 53 92 54 93
REMARK H PARENT 7 23 76 46 44 57
REMARK Flexibility Score: inf
ROOT
ATOM      1  O   UNL A   1      42.215  18.812  26.623  1.00  0.00    -0.374 OA
ENDROOT
BRANCH   1   2
ATOM      2  C   UNL A   1      43.508  18.351  26.235  1.00  0.00     0.202 C 
BRANCH   2   3
ATOM      3  C   UNL A   1      43.943  18.710  24.814  1.00  0.00     0.261 C 
BRANCH   3   4
ATOM      4  O   UNL A   1      44.269  20.099  24.680  1.00  0.00    -0.463 OA
BRANCH   4   5
ATOM      5  C   UNL A   1      45.592  20.306  24.582  1.00  0.00     0.308 C 
ATOM      6  O   UNL A   1      46.389  19.526  24.064  1.00  0.00    -0.252 OA
BRANCH   5   7
ATOM      7  C   UNL A   1      46.045  21.685  24.906  1.00  0.00     0.162 C 
BRANCH   7   8
ATOM      8  C   UNL A   1      45.397  22.995  24.567  1.00  0.00     0.191 C 
BRANCH   8   9
ATOM      9  C   UNL A   1      45.047  23.752  25.856  1.00  0.00     0.139 A 
ATOM     10  N   UNL A   1      44.910  25.130  26.049  1.00  0.00    -0.323 N 
ATOM     11  C   UNL A   1      45.035  25.355  27.415  1.00  0.00     0.069 A 
ATOM     12  N   UNL A   1      44.959  23.122  27.022  1.00  0.00    -0.230 NA
ATOM     13  C   UNL A   1      44.983  24.091  27.987  1.00  0.00     0.090 A 
ATOM     14  C   UNL A   1      45.148  26.525  28.178  1.00  0.00     0.030 A 
ATOM     15  C   UNL A   1      44.985  23.962  29.385  1.00  0.00     0.051 A 
ATOM     16  C   UNL A   1      45.175  26.384  29.567  1.00  0.00     0.023 A 
ATOM     17  C   UNL A   1      45.081  25.124  30.157  1.00  0.00     0.043 A 
ATOM     18  Cl  UNL A   1      45.090  25.002  31.876  1.00  0.00    -0.084 Cl
BRANCH  10  19
ATOM     19  C   UNL A   1      44.511  26.213  25.139  1.00  0.00     0.083 C 
ATOM     20  C   UNL A   1      43.056  26.703  25.223  1.00  0.00     0.031 C 
ATOM     21  C   UNL A   1      45.546  27.338  25.068  1.00  0.00     0.031 C 
ENDBRANCH  10  19
ENDBRANCH   8   9
BRANCH   8  22
ATOM     22  O   UNL A   1      44.153  22.760  23.903  1.00  0.00    -0.385 OA
ATOM     23  H   UNL A   1      44.315  22.592  22.962  1.00  0.00     0.211 HD
ENDBRANCH   8  22
ENDBRANCH   7   8
ENDBRANCH   5   7
ENDBRANCH   4   5
ENDBRANCH   3   4
ENDBRANCH   2   3
ENDBRANCH   1   2
BRANCH   1  24
ATOM     24  C   UNL A   1      42.163  19.899  27.552  1.00  0.00     0.202 C 
BRANCH  24  25
ATOM     25  C   UNL A   1      40.918  20.805  27.514  1.00  0.00     0.261 C 
BRANCH  25  26
ATOM     26  O   UNL A   1      41.242  22.109  27.007  1.00  0.00    -0.460 OA
BRANCH  26  27
ATOM     27  C   UNL A   1      40.185  22.938  26.797  1.00  0.00     0.338 C 
ATOM     28  O   UNL A   1      39.016  22.619  26.647  1.00  0.00    -0.246 OA
BRANCH  27  29
ATOM     29  C   UNL A   1      40.661  24.276  27.197  1.00  0.00     0.060 A 
ATOM     30  C   UNL A   1      41.577  24.423  28.241  1.00  0.00     0.016 A 
ATOM     31  C   UNL A   1      39.903  25.364  26.735  1.00  0.00     0.016 A 
ATOM     32  C   UNL A   1      41.654  25.647  28.896  1.00  0.00     0.010 A 
ATOM     33  C   UNL A   1      39.940  26.566  27.432  1.00  0.00     0.010 A 
ATOM     34  C   UNL A   1      40.785  26.691  28.537  1.00  0.00    -0.014 A 
BRANCH  34  35
ATOM     35  C   UNL A   1      40.889  27.956  29.264  1.00  0.00     0.031 A 
ATOM     36  C   UNL A   1      41.920  28.868  28.707  1.00  0.00     0.074 A 
ATOM     37  C   UNL A   1      40.073  28.378  30.252  1.00  0.00     0.049 A 
ATOM     38  N   UNL A   1      42.997  29.307  29.273  1.00  0.00    -0.248 NA
ATOM     39  C   UNL A   1      41.772  29.244  27.293  1.00  0.00     0.031 C 
ATOM     40  C   UNL A   1      38.817  27.783  30.705  1.00  0.00     0.029 A 
ATOM     41  N   UNL A   1      40.148  29.530  30.988  1.00  0.00    -0.354 N 
ATOM     42  C   UNL A   1      43.573  30.163  28.340  1.00  0.00     0.074 A 
ATOM     43  C   UNL A   1      42.870  29.970  27.097  1.00  0.00     0.031 C 
ATOM     44  C   UNL A   1      38.158  28.661  31.491  1.00  0.00     0.029 A 
ATOM     45  C   UNL A   1      38.963  29.857  31.643  1.00  0.00     0.049 A 
ATOM     46  H   UNL A   1      40.965  30.077  31.050  1.00  0.00     0.167 HD
ATOM     47  C   UNL A   1      44.457  31.139  28.672  1.00  0.00     0.034 A 
ATOM     48  C   UNL A   1      38.630  31.063  32.168  1.00  0.00     0.034 A 
ATOM     49  C   UNL A   1      44.992  31.003  29.991  1.00  0.00     0.049 A 
ATOM     50  C   UNL A   1      39.887  31.819  32.366  1.00  0.00     0.074 A 
ATOM     51  C   UNL A   1      45.741  30.050  30.650  1.00  0.00     0.029 A 
ATOM     52  N   UNL A   1      44.470  31.818  30.965  1.00  0.00    -0.354 N 
ATOM     53  N   UNL A   1      40.788  31.522  33.259  1.00  0.00    -0.248 NA
ATOM     54  C   UNL A   1      40.319  32.730  31.319  1.00  0.00     0.031 C 
ATOM     55  C   UNL A   1      45.268  30.069  31.994  1.00  0.00     0.029 A 
ATOM     56  C   UNL A   1      44.267  31.040  32.073  1.00  0.00     0.049 A 
ATOM     57  H   UNL A   1      44.278  32.780  30.882  1.00  0.00     0.167 HD
ATOM     58  C   UNL A   1      41.994  31.856  32.660  1.00  0.00     0.074 A 
ATOM     59  C   UNL A   1      41.637  32.703  31.529  1.00  0.00     0.031 C 
ATOM     60  C   UNL A   1      43.141  31.185  32.969  1.00  0.00     0.034 A 
BRANCH  47  61
ATOM     61  C   UNL A   1      44.596  32.397  27.871  1.00  0.00     0.023 A 
ATOM     62  C   UNL A   1      45.662  32.516  26.963  1.00  0.00     0.012 A 
ATOM     63  C   UNL A   1      43.823  33.550  28.136  1.00  0.00     0.148 A 
ATOM     64  C   UNL A   1      45.924  33.730  26.317  1.00  0.00     0.002 A 
ATOM     65  C   UNL A   1      44.030  34.725  27.428  1.00  0.00     0.091 A 
ATOM     66  F   UNL A   1      42.952  33.540  29.155  1.00  0.00    -0.205 F 
ATOM     67  C   UNL A   1      45.093  34.827  26.529  1.00  0.00     0.022 A 
BRANCH  65  68
ATOM     68  S   UNL A   1      42.925  36.126  27.617  1.00  0.00     0.127 S 
ATOM     69  O   UNL A   1      42.885  36.656  26.258  1.00  0.00    -0.237 OA
ATOM     70  O   UNL A   1      41.691  35.481  28.070  1.00  0.00    -0.237 OA
ATOM     71  O   UNL A   1      43.557  36.970  28.624  1.00  0.00    -0.744 OA
ENDBRANCH  65  68
ENDBRANCH  47  61
BRANCH  48  72
ATOM     72  C   UNL A   1      37.301  31.721  32.289  1.00  0.00     0.023 A 
ATOM     73  C   UNL A   1      36.869  32.166  33.558  1.00  0.00     0.012 A 
ATOM     74  C   UNL A   1      36.577  32.165  31.161  1.00  0.00     0.148 A 
ATOM     75  C   UNL A   1      35.795  33.057  33.691  1.00  0.00     0.002 A 
ATOM     76  C   UNL A   1      35.495  33.031  31.300  1.00  0.00     0.091 A 
ATOM     77  F   UNL A   1      37.000  31.830  29.936  1.00  0.00    -0.205 F 
ATOM     78  C   UNL A   1      35.112  33.495  32.562  1.00  0.00     0.022 A 
BRANCH  76  79
ATOM     79  S   UNL A   1      34.580  33.622  29.868  1.00  0.00     0.127 S 
ATOM     80  O   UNL A   1      34.147  32.374  29.237  1.00  0.00    -0.237 OA
ATOM     81  O   UNL A   1      33.511  34.398  30.489  1.00  0.00    -0.237 OA
ATOM     82  O   UNL A   1      35.546  34.379  29.079  1.00  0.00    -0.744 OA
ENDBRANCH  76  79
ENDBRANCH  48  72
BRANCH  60  83
ATOM     83  C   UNL A   1      43.121  30.270  34.166  1.00  0.00     0.023 A 
ATOM     84  C   UNL A   1      43.427  30.742  35.460  1.00  0.00     0.012 A 
ATOM     85  C   UNL A   1      42.610  28.971  34.015  1.00  0.00     0.148 A 
ATOM     86  C   UNL A   1      43.240  29.927  36.579  1.00  0.00     0.002 A 
ATOM     87  C   UNL A   1      42.390  28.177  35.133  1.00  0.00     0.091 A 
ATOM     88  F   UNL A   1      42.315  28.548  32.776  1.00  0.00    -0.205 F 
ATOM     89  C   UNL A   1      42.710  28.650  36.418  1.00  0.00     0.022 A 
BRANCH  87  90
ATOM     90  S   UNL A   1      41.603  26.568  35.017  1.00  0.00     0.127 S 
ATOM     91  O   UNL A   1      42.675  25.742  34.464  1.00  0.00    -0.237 OA
ATOM     92  O   UNL A   1      41.269  26.282  36.413  1.00  0.00    -0.237 OA
ATOM     93  O   UNL A   1      40.444  26.746  34.151  1.00  0.00    -0.744 OA
ENDBRANCH  87  90
ENDBRANCH  60  83
ENDBRANCH  34  35
ENDBRANCH  27  29
ENDBRANCH  26  27
ENDBRANCH  25  26
ENDBRANCH  24  25
ENDBRANCH   1  24
TORSDOF 21
ENDMDL
MODEL 2
REMARK VINA RESULT:      -9.3      4.534     10.645
REMARK SMILES CC(C)n1c([C@H](O)CC(=O)OCCOCCOC(=O)c2ccc(-c3c4nc(c(-c5cccc(S(=O)(=O)[O-])c5F)c5ccc([nH]5)c(-c5cccc(S(=O)(=O)[O-])c5F)c5nc(c(-c6cccc(S(=O)(=O)[O-])c6F)c6ccc3[nH]6)C=C5)C=C4)cc2)nc2cc(Cl)ccc21
REMARK SMILES IDX 14 1 13 2 12 3 11 4 9 5 10 6 8 7 6 8 5 9 4 10 90 11 83 12
REMARK SMILES IDX 84 13 89 14 85 15 88 16 86 17 87 18 2 19 1 20 3 21 7 22
REMARK SMILES IDX 15 24 16 25 17 26 18 27 19 28 20 29 21 30 82 31 22 32 81 33
REMARK SMILES IDX 23 34 24 35 25 36 75 37 26 38 80 39 74 40 76 41 27 42 79 43
REMARK SMILES IDX 73 44 72 45 28 47 60 48 40 49 59 50 41 51 44 52 58 53 77 54
REMARK SMILES IDX 42 55 43 56 57 58 78 59 45 60 29 61 30 62 38 63 31 64 33 65
REMARK SMILES IDX 39 66 32 67 34 68 35 69 36 70 37 71 61 72 62 73 70 74 63 75
REMARK SMILES IDX 65 76 71 77 64 78 66 79 67 80 68 81 69 82 46 83 47 84 55 85
REMARK SMILES IDX 48 86 50 87 56 88 49 89 51 90 52 91 53 92 54 93
REMARK H PARENT 7 23 76 46 44 57
REMARK Flexibility Score: inf
ROOT
ATOM      1  O   UNL A   1      33.383  29.762  27.247  1.00  0.00    -0.374 OA
ENDROOT
BRANCH   1   2
ATOM      2  C   UNL A   1      34.288  28.926  26.527  1.00  0.00     0.202 C 
BRANCH   2   3
ATOM      3  C   UNL A   1      33.729  28.273  25.264  1.00  0.00     0.261 C 
BRANCH   3   4
ATOM      4  O   UNL A   1      32.717  29.072  24.641  1.00  0.00    -0.463 OA
BRANCH   4   5
ATOM      5  C   UNL A   1      32.356  28.595  23.439  1.00  0.00     0.308 C 
ATOM      6  O   UNL A   1      31.543  29.127  22.686  1.00  0.00    -0.252 OA
BRANCH   5   7
ATOM      7  C   UNL A   1      33.198  27.487  22.916  1.00  0.00     0.162 C 
BRANCH   7   8
ATOM      8  C   UNL A   1      32.775  26.236  22.204  1.00  0.00     0.191 C 
BRANCH   8   9
ATOM      9  C   UNL A   1      33.320  25.005  22.943  1.00  0.00     0.139 A 
ATOM     10  N   UNL A   1      32.943  24.499  24.190  1.00  0.00    -0.323 N 
ATOM     11  C   UNL A   1      33.984  23.684  24.620  1.00  0.00     0.069 A 
ATOM     12  N   UNL A   1      34.367  24.332  22.480  1.00  0.00    -0.230 NA
ATOM     13  C   UNL A   1      34.803  23.542  23.508  1.00  0.00     0.090 A 
ATOM     14  C   UNL A   1      34.250  23.047  25.840  1.00  0.00     0.030 A 
ATOM     15  C   UNL A   1      35.914  22.687  23.570  1.00  0.00     0.051 A 
ATOM     16  C   UNL A   1      35.372  22.219  25.899  1.00  0.00     0.023 A 
ATOM     17  C   UNL A   1      36.181  22.033  24.777  1.00  0.00     0.043 A 
ATOM     18  Cl  UNL A   1      37.539  20.980  24.890  1.00  0.00    -0.084 Cl
BRANCH  10  19
ATOM     19  C   UNL A   1      31.673  24.554  24.929  1.00  0.00     0.083 C 
ATOM     20  C   UNL A   1      30.928  23.227  25.146  1.00  0.00     0.031 C 
ATOM     21  C   UNL A   1      31.750  25.439  26.175  1.00  0.00     0.031 C 
ENDBRANCH  10  19
ENDBRANCH   8   9
BRANCH   8  22
ATOM     22  O   UNL A   1      33.364  26.200  20.901  1.00  0.00    -0.385 OA
ATOM     23  H   UNL A   1      34.204  26.685  20.912  1.00  0.00     0.211 HD
ENDBRANCH   8  22
ENDBRANCH   7   8
ENDBRANCH   5   7
ENDBRANCH   4   5
ENDBRANCH   3   4
ENDBRANCH   2   3
ENDBRANCH   1   2
BRANCH   1  24
ATOM     24  C   UNL A   1      33.455  31.169  26.994  1.00  0.00     0.202 C 
BRANCH  24  25
ATOM     25  C   UNL A   1      33.906  32.074  28.156  1.00  0.00     0.261 C 
BRANCH  25  26
ATOM     26  O   UNL A   1      34.695  31.342  29.106  1.00  0.00    -0.460 OA
BRANCH  26  27
ATOM     27  C   UNL A   1      35.661  32.056  29.743  1.00  0.00     0.338 C 
ATOM     28  O   UNL A   1      35.519  32.791  30.707  1.00  0.00    -0.246 OA
BRANCH  27  29
ATOM     29  C   UNL A   1      36.935  31.449  29.312  1.00  0.00     0.060 A 
ATOM     30  C   UNL A   1      36.981  30.120  28.883  1.00  0.00     0.016 A 
ATOM     31  C   UNL A   1      38.102  32.134  29.684  1.00  0.00     0.016 A 
ATOM     32  C   UNL A   1      38.195  29.444  28.929  1.00  0.00     0.010 A 
ATOM     33  C   UNL A   1      39.300  31.437  29.787  1.00  0.00     0.010 A 
ATOM     34  C   UNL A   1      39.335  30.083  29.449  1.00  0.00    -0.014 A 
BRANCH  34  35
ATOM     35  C   UNL A   1      40.587  29.328  29.495  1.00  0.00     0.031 A 
ATOM     36  C   UNL A   1      41.029  29.011  30.876  1.00  0.00     0.074 A 
ATOM     37  C   UNL A   1      41.248  28.814  28.437  1.00  0.00     0.049 A 
ATOM     38  N   UNL A   1      42.103  29.398  31.486  1.00  0.00    -0.248 NA
ATOM     39  C   UNL A   1      40.087  28.252  31.712  1.00  0.00     0.031 C 
ATOM     40  C   UNL A   1      40.804  28.729  27.046  1.00  0.00     0.029 A 
ATOM     41  N   UNL A   1      42.438  28.136  28.419  1.00  0.00    -0.354 N 
ATOM     42  C   UNL A   1      42.055  28.779  32.731  1.00  0.00     0.074 A 
ATOM     43  C   UNL A   1      40.735  28.217  32.874  1.00  0.00     0.031 C 
ATOM     44  C   UNL A   1      41.608  27.883  26.367  1.00  0.00     0.029 A 
ATOM     45  C   UNL A   1      42.653  27.409  27.252  1.00  0.00     0.049 A 
ATOM     46  H   UNL A   1      43.081  28.161  29.165  1.00  0.00     0.167 HD
ATOM     47  C   UNL A   1      43.153  28.570  33.501  1.00  0.00     0.034 A 
ATOM     48  C   UNL A   1      43.553  26.409  27.071  1.00  0.00     0.034 A 
ATOM     49  C   UNL A   1      44.295  29.324  33.085  1.00  0.00     0.049 A 
ATOM     50  C   UNL A   1      44.579  26.543  28.130  1.00  0.00     0.074 A 
ATOM     51  C   UNL A   1      44.592  30.665  32.961  1.00  0.00     0.029 A 
ATOM     52  N   UNL A   1      45.263  28.654  32.378  1.00  0.00    -0.354 N 
ATOM     53  N   UNL A   1      45.451  27.507  28.187  1.00  0.00    -0.248 NA
ATOM     54  C   UNL A   1      44.417  25.771  29.350  1.00  0.00     0.031 C 
ATOM     55  C   UNL A   1      45.447  30.755  31.825  1.00  0.00     0.029 A 
ATOM     56  C   UNL A   1      45.628  29.460  31.333  1.00  0.00     0.049 A 
ATOM     57  H   UNL A   1      45.625  27.761  32.583  1.00  0.00     0.167 HD
ATOM     58  C   UNL A   1      45.630  27.735  29.544  1.00  0.00     0.074 A 
ATOM     59  C   UNL A   1      45.068  26.563  30.204  1.00  0.00     0.031 C 
ATOM     60  C   UNL A   1      45.956  28.975  30.012  1.00  0.00     0.034 A 
BRANCH  47  61
ATOM     61  C   UNL A   1      43.247  27.430  34.467  1.00  0.00     0.023 A 
ATOM     62  C   UNL A   1      43.060  27.675  35.837  1.00  0.00     0.012 A 
ATOM     63  C   UNL A   1      43.718  26.153  34.084  1.00  0.00     0.148 A 
ATOM     64  C   UNL A   1      43.298  26.675  36.787  1.00  0.00     0.002 A 
ATOM     65  C   UNL A   1      43.868  25.139  35.018  1.00  0.00     0.091 A 
ATOM     66  F   UNL A   1      44.126  25.952  32.822  1.00  0.00    -0.205 F 
ATOM     67  C   UNL A   1      43.677  25.400  36.376  1.00  0.00     0.022 A 
BRANCH  65  68
ATOM     68  S   UNL A   1      44.272  23.466  34.511  1.00  0.00     0.127 S 
ATOM     69  O   UNL A   1      44.296  22.767  35.792  1.00  0.00    -0.237 OA
ATOM     70  O   UNL A   1      43.145  23.131  33.641  1.00  0.00    -0.237 OA
ATOM     71  O   UNL A   1      45.547  23.582  33.812  1.00  0.00    -0.744 OA
ENDBRANCH  65  68
ENDBRANCH  47  61
BRANCH  48  72
ATOM     72  C   UNL A   1      43.479  25.197  26.211  1.00  0.00     0.023 A 
ATOM     73  C   UNL A   1      44.401  25.049  25.152  1.00  0.00     0.012 A 
ATOM     74  C   UNL A   1      42.711  24.068  26.571  1.00  0.00     0.148 A 
ATOM     75  C   UNL A   1      44.589  23.814  24.516  1.00  0.00     0.002 A 
ATOM     76  C   UNL A   1      42.884  22.848  25.919  1.00  0.00     0.091 A 
ATOM     77  F   UNL A   1      41.882  24.144  27.619  1.00  0.00    -0.205 F 
ATOM     78  C   UNL A   1      43.835  22.711  24.904  1.00  0.00     0.022 A 
BRANCH  76  79
ATOM     79  S   UNL A   1      41.930  21.396  26.385  1.00  0.00     0.127 S 
ATOM     80  O   UNL A   1      42.284  21.229  27.796  1.00  0.00    -0.237 OA
ATOM     81  O   UNL A   1      40.560  21.842  26.148  1.00  0.00    -0.237 OA
ATOM     82  O   UNL A   1      42.413  20.323  25.523  1.00  0.00    -0.744 OA
ENDBRANCH  76  79
ENDBRANCH  48  72
BRANCH  60  83
ATOM     83  C   UNL A   1      46.389  30.014  29.010  1.00  0.00     0.023 A 
ATOM     84  C   UNL A   1      47.726  30.102  28.568  1.00  0.00     0.012 A 
ATOM     85  C   UNL A   1      45.405  30.785  28.369  1.00  0.00     0.148 A 
ATOM     86  C   UNL A   1      48.076  30.953  27.518  1.00  0.00     0.002 A 
ATOM     87  C   UNL A   1      45.751  31.602  27.301  1.00  0.00     0.091 A 
ATOM     88  F   UNL A   1      44.138  30.676  28.797  1.00  0.00    -0.205 F 
ATOM     89  C   UNL A   1      47.088  31.694  26.877  1.00  0.00     0.022 A 
BRANCH  87  90
ATOM     90  S   UNL A   1      44.519  32.497  26.351  1.00  0.00     0.127 S 
ATOM     91  O   UNL A   1      43.636  31.421  25.903  1.00  0.00    -0.237 OA
ATOM     92  O   UNL A   1      43.935  33.388  27.355  1.00  0.00    -0.237 OA
ATOM     93  O   UNL A   1      45.246  33.186  25.292  1.00  0.00    -0.744 OA
ENDBRANCH  87  90
ENDBRANCH  60  83
ENDBRANCH  34  35
ENDBRANCH  27  29
ENDBRANCH  26  27
ENDBRANCH  25  26
ENDBRANCH  24  25
ENDBRANCH   1  24
TORSDOF 21
ENDMDL
MODEL 3
REMARK VINA RESULT:      -9.1      4.971      7.277
REMARK SMILES CC(C)n1c([C@H](O)CC(=O)OCCOCCOC(=O)c2ccc(-c3c4nc(c(-c5cccc(S(=O)(=O)[O-])c5F)c5ccc([nH]5)c(-c5cccc(S(=O)(=O)[O-])c5F)c5nc(c(-c6cccc(S(=O)(=O)[O-])c6F)c6ccc3[nH]6)C=C5)C=C4)cc2)nc2cc(Cl)ccc21
REMARK SMILES IDX 14 1 13 2 12 3 11 4 9 5 10 6 8 7 6 8 5 9 4 10 90 11 83 12
REMARK SMILES IDX 84 13 89 14 85 15 88 16 86 17 87 18 2 19 1 20 3 21 7 22
REMARK SMILES IDX 15 24 16 25 17 26 18 27 19 28 20 29 21 30 82 31 22 32 81 33
REMARK SMILES IDX 23 34 24 35 25 36 75 37 26 38 80 39 74 40 76 41 27 42 79 43
REMARK SMILES IDX 73 44 72 45 28 47 60 48 40 49 59 50 41 51 44 52 58 53 77 54
REMARK SMILES IDX 42 55 43 56 57 58 78 59 45 60 29 61 30 62 38 63 31 64 33 65
REMARK SMILES IDX 39 66 32 67 34 68 35 69 36 70 37 71 61 72 62 73 70 74 63 75
REMARK SMILES IDX 65 76 71 77 64 78 66 79 67 80 68 81 69 82 46 83 47 84 55 85
REMARK SMILES IDX 48 86 50 87 56 88 49 89 51 90 52 91 53 92 54 93
REMARK H PARENT 7 23 76 46 44 57
REMARK Flexibility Score: inf
ROOT
ATOM      1  O   UNL A   1      36.405  22.388  25.878  1.00  0.00    -0.374 OA
ENDROOT
BRANCH   1   2
ATOM      2  C   UNL A   1      36.033  23.764  25.812  1.00  0.00     0.202 C 
BRANCH   2   3
ATOM      3  C   UNL A   1      35.185  24.166  24.605  1.00  0.00     0.261 C 
BRANCH   3   4
ATOM      4  O   UNL A   1      33.918  24.714  24.990  1.00  0.00    -0.463 OA
BRANCH   4   5
ATOM      5  C   UNL A   1      32.902  24.204  24.276  1.00  0.00     0.308 C 
ATOM      6  O   UNL A   1      32.882  24.111  23.050  1.00  0.00    -0.252 OA
BRANCH   5   7
ATOM      7  C   UNL A   1      31.863  23.492  25.066  1.00  0.00     0.162 C 
BRANCH   7   8
ATOM      8  C   UNL A   1      30.855  24.057  26.022  1.00  0.00     0.191 C 
BRANCH   8   9
ATOM      9  C   UNL A   1      30.927  25.590  26.012  1.00  0.00     0.139 A 
ATOM     10  N   UNL A   1      30.716  26.467  24.943  1.00  0.00    -0.323 N 
ATOM     11  C   UNL A   1      31.315  27.671  25.292  1.00  0.00     0.069 A 
ATOM     12  N   UNL A   1      31.353  26.266  27.073  1.00  0.00    -0.230 NA
ATOM     13  C   UNL A   1      31.625  27.535  26.639  1.00  0.00     0.090 A 
ATOM     14  C   UNL A   1      31.571  28.848  24.575  1.00  0.00     0.030 A 
ATOM     15  C   UNL A   1      32.163  28.624  27.341  1.00  0.00     0.051 A 
ATOM     16  C   UNL A   1      32.130  29.918  25.276  1.00  0.00     0.023 A 
ATOM     17  C   UNL A   1      32.407  29.809  26.639  1.00  0.00     0.043 A 
ATOM     18  Cl  UNL A   1      33.071  31.166  27.468  1.00  0.00    -0.084 Cl
BRANCH  10  19
ATOM     19  C   UNL A   1      29.886  26.359  23.735  1.00  0.00     0.083 C 
ATOM     20  C   UNL A   1      28.406  26.757  23.860  1.00  0.00     0.031 C 
ATOM     21  C   UNL A   1      30.579  26.914  22.489  1.00  0.00     0.031 C 
ENDBRANCH  10  19
ENDBRANCH   8   9
BRANCH   8  22
ATOM     22  O   UNL A   1      31.181  23.661  27.357  1.00  0.00    -0.385 OA
ATOM     23  H   UNL A   1      32.062  23.993  27.587  1.00  0.00     0.211 HD
ENDBRANCH   8  22
ENDBRANCH   7   8
ENDBRANCH   5   7
ENDBRANCH   4   5
ENDBRANCH   3   4
ENDBRANCH   2   3
ENDBRANCH   1   2
BRANCH   1  24
ATOM     24  C   UNL A   1      37.617  22.008  25.219  1.00  0.00     0.202 C 
BRANCH  24  25
ATOM     25  C   UNL A   1      38.898  21.948  26.071  1.00  0.00     0.261 C 
BRANCH  25  26
ATOM     26  O   UNL A   1      39.215  23.236  26.620  1.00  0.00    -0.460 OA
BRANCH  26  27
ATOM     27  C   UNL A   1      40.269  23.268  27.478  1.00  0.00     0.338 C 
ATOM     28  O   UNL A   1      40.964  22.327  27.827  1.00  0.00    -0.246 OA
BRANCH  27  29
ATOM     29  C   UNL A   1      40.652  24.691  27.565  1.00  0.00     0.060 A 
ATOM     30  C   UNL A   1      41.699  25.095  28.396  1.00  0.00     0.016 A 
ATOM     31  C   UNL A   1      39.716  25.613  27.072  1.00  0.00     0.016 A 
ATOM     32  C   UNL A   1      41.744  26.419  28.819  1.00  0.00     0.010 A 
ATOM     33  C   UNL A   1      39.729  26.919  27.545  1.00  0.00     0.010 A 
ATOM     34  C   UNL A   1      40.719  27.308  28.451  1.00  0.00    -0.014 A 
BRANCH  34  35
ATOM     35  C   UNL A   1      40.797  28.687  28.932  1.00  0.00     0.031 A 
ATOM     36  C   UNL A   1      42.040  29.384  28.515  1.00  0.00     0.074 A 
ATOM     37  C   UNL A   1      39.820  29.367  29.568  1.00  0.00     0.049 A 
ATOM     38  N   UNL A   1      42.988  29.853  29.260  1.00  0.00    -0.248 NA
ATOM     39  C   UNL A   1      42.298  29.462  27.070  1.00  0.00     0.031 C 
ATOM     40  C   UNL A   1      38.426  28.974  29.767  1.00  0.00     0.029 A 
ATOM     41  N   UNL A   1      39.853  30.640  30.072  1.00  0.00    -0.354 N 
ATOM     42  C   UNL A   1      43.882  30.448  28.375  1.00  0.00     0.074 A 
ATOM     43  C   UNL A   1      43.492  30.048  27.046  1.00  0.00     0.031 C 
ATOM     44  C   UNL A   1      37.708  30.044  30.170  1.00  0.00     0.029 A 
ATOM     45  C   UNL A   1      38.594  31.183  30.310  1.00  0.00     0.049 A 
ATOM     46  H   UNL A   1      40.691  31.126  30.249  1.00  0.00     0.167 HD
ATOM     47  C   UNL A   1      44.770  31.405  28.747  1.00  0.00     0.034 A 
ATOM     48  C   UNL A   1      38.294  32.495  30.493  1.00  0.00     0.034 A 
ATOM     49  C   UNL A   1      44.938  31.512  30.163  1.00  0.00     0.049 A 
ATOM     50  C   UNL A   1      39.547  33.182  30.880  1.00  0.00     0.074 A 
ATOM     51  C   UNL A   1      45.373  30.669  31.164  1.00  0.00     0.029 A 
ATOM     52  N   UNL A   1      44.297  32.550  30.792  1.00  0.00    -0.354 N 
ATOM     53  N   UNL A   1      40.152  33.015  32.021  1.00  0.00    -0.248 NA
ATOM     54  C   UNL A   1      40.337  33.817  29.839  1.00  0.00     0.031 C 
ATOM     55  C   UNL A   1      44.586  31.006  32.303  1.00  0.00     0.029 A 
ATOM     56  C   UNL A   1      43.727  32.041  31.928  1.00  0.00     0.049 A 
ATOM     57  H   UNL A   1      44.254  33.485  30.484  1.00  0.00     0.167 HD
ATOM     58  C   UNL A   1      41.501  33.127  31.719  1.00  0.00     0.074 A 
ATOM     59  C   UNL A   1      41.547  33.739  30.397  1.00  0.00     0.031 C 
ATOM     60  C   UNL A   1      42.441  32.454  32.444  1.00  0.00     0.034 A 
BRANCH  47  61
ATOM     61  C   UNL A   1      45.262  32.451  27.795  1.00  0.00     0.023 A 
ATOM     62  C   UNL A   1      44.331  33.175  27.031  1.00  0.00     0.012 A 
ATOM     63  C   UNL A   1      46.632  32.602  27.481  1.00  0.00     0.148 A 
ATOM     64  C   UNL A   1      44.752  34.043  26.016  1.00  0.00     0.002 A 
ATOM     65  C   UNL A   1      47.049  33.528  26.537  1.00  0.00     0.091 A 
ATOM     66  F   UNL A   1      47.529  31.767  28.025  1.00  0.00    -0.205 F 
ATOM     67  C   UNL A   1      46.112  34.239  25.786  1.00  0.00     0.022 A 
BRANCH  65  68
ATOM     68  S   UNL A   1      48.793  33.865  26.278  1.00  0.00     0.127 S 
ATOM     69  O   UNL A   1      48.758  34.700  25.082  1.00  0.00    -0.237 OA
ATOM     70  O   UNL A   1      49.154  34.563  27.513  1.00  0.00    -0.237 OA
ATOM     71  O   UNL A   1      49.413  32.553  26.136  1.00  0.00    -0.744 OA
ENDBRANCH  65  68
ENDBRANCH  47  61
BRANCH  48  72
ATOM     72  C   UNL A   1      37.071  33.258  30.128  1.00  0.00     0.023 A 
ATOM     73  C   UNL A   1      36.618  33.231  28.791  1.00  0.00     0.012 A 
ATOM     74  C   UNL A   1      36.193  33.781  31.104  1.00  0.00     0.148 A 
ATOM     75  C   UNL A   1      35.327  33.657  28.450  1.00  0.00     0.002 A 
ATOM     76  C   UNL A   1      34.920  34.226  30.756  1.00  0.00     0.091 A 
ATOM     77  F   UNL A   1      36.553  33.754  32.393  1.00  0.00    -0.205 F 
ATOM     78  C   UNL A   1      34.475  34.148  29.433  1.00  0.00     0.022 A 
BRANCH  76  79
ATOM     79  S   UNL A   1      33.785  34.871  31.993  1.00  0.00     0.127 S 
ATOM     80  O   UNL A   1      33.549  33.701  32.841  1.00  0.00    -0.237 OA
ATOM     81  O   UNL A   1      34.578  35.928  32.614  1.00  0.00    -0.237 OA
ATOM     82  O   UNL A   1      32.608  35.308  31.248  1.00  0.00    -0.744 OA
ENDBRANCH  76  79
ENDBRANCH  48  72
BRANCH  60  83
ATOM     83  C   UNL A   1      42.009  31.817  33.739  1.00  0.00     0.023 A 
ATOM     84  C   UNL A   1      41.498  30.502  33.781  1.00  0.00     0.012 A 
ATOM     85  C   UNL A   1      42.292  32.478  34.946  1.00  0.00     0.148 A 
ATOM     86  C   UNL A   1      41.262  29.866  35.001  1.00  0.00     0.002 A 
ATOM     87  C   UNL A   1      42.092  31.829  36.157  1.00  0.00     0.091 A 
ATOM     88  F   UNL A   1      42.788  33.723  34.882  1.00  0.00    -0.205 F 
ATOM     89  C   UNL A   1      41.570  30.524  36.189  1.00  0.00     0.022 A 
BRANCH  87  90
ATOM     90  S   UNL A   1      42.573  32.566  37.721  1.00  0.00     0.127 S 
ATOM     91  O   UNL A   1      41.700  33.736  37.791  1.00  0.00    -0.237 OA
ATOM     92  O   UNL A   1      42.251  31.506  38.678  1.00  0.00    -0.237 OA
ATOM     93  O   UNL A   1      43.997  32.857  37.610  1.00  0.00    -0.744 OA
ENDBRANCH  87  90
ENDBRANCH  60  83
ENDBRANCH  34  35
ENDBRANCH  27  29
ENDBRANCH  26  27
ENDBRANCH  25  26
ENDBRANCH  24  25
ENDBRANCH   1  24
TORSDOF 21
ENDMDL
