MODEL 1
REMARK VINA RESULT:      -8.0      0.000      0.000
REMARK SMILES [NH3+][C@@H](Cc1c[nH]c2ccccc12)C(=O)N[C@@H](CS)C(=O)N[C@@H](CO)C(=O)OCCOCCOC(=O)c1ccc(-c2c3nc(c(-c4cccc(S(=O)(=O)[O-])c4F)c4ccc([nH]4)c(-c4cccc(S(=O)(=O)[O-])c4F)c4nc(c(-c5cccc(S(=O)(=O)[O-])c5F)c5ccc2[nH]5)C=C4)C=C3)cc1
REMARK SMILES IDX 28 1 27 2 25 3 26 4 22 5 21 6 19 7 20 8 16 10 15 11 13 12
REMARK SMILES IDX 14 13 2 15 1 16 3 20 4 21 5 22 12 23 6 24 7 25 11 26 8 28
REMARK SMILES IDX 10 29 9 30 17 31 18 32 23 34 24 35 29 37 30 38 31 39 32 40
REMARK SMILES IDX 33 41 34 42 35 43 36 44 37 45 98 46 38 47 97 48 39 49 40 50
REMARK SMILES IDX 41 51 91 52 42 53 96 54 90 55 92 56 43 57 95 58 89 59 88 60
REMARK SMILES IDX 44 62 76 63 56 64 75 65 57 66 60 67 74 68 93 69 58 70 59 71
REMARK SMILES IDX 73 73 94 74 61 75 45 76 46 77 54 78 47 79 49 80 55 81 48 82
REMARK SMILES IDX 50 83 51 84 52 85 53 86 77 87 78 88 86 89 79 90 81 91 87 92
REMARK SMILES IDX 80 93 82 94 83 95 84 96 85 97 62 98 63 99 71 100 64 101
REMARK SMILES IDX 66 102 72 103 65 104 67 105 68 106 69 107 70 108
REMARK H PARENT 21 9 15 14 1 17 1 18 1 19 6 27 18 33 24 36 92 61 60 72
REMARK Flexibility Score: inf
ROOT
ATOM      1  C   UNL A   1      43.105  29.707  28.619  1.00  0.00     0.261 C 
ENDROOT
BRANCH   1   2
ATOM      2  O   UNL A   1      43.651  28.524  28.023  1.00  0.00    -0.462 OA
BRANCH   2   3
ATOM      3  C   UNL A   1      43.586  28.468  26.664  1.00  0.00     0.331 C 
ATOM      4  O   UNL A   1      42.856  29.161  25.966  1.00  0.00    -0.250 OA
BRANCH   3   5
ATOM      5  C   UNL A   1      44.517  27.400  26.091  1.00  0.00     0.218 C 
BRANCH   5   6
ATOM      6  N   UNL A   1      43.916  26.567  25.032  1.00  0.00    -0.339 N 
ATOM      7  C   UNL A   1      43.650  25.263  25.326  1.00  0.00     0.244 C 
ATOM      8  O   UNL A   1      44.566  24.446  25.218  1.00  0.00    -0.273 OA
ATOM      9  H   UNL A   1      43.713  26.942  24.145  1.00  0.00     0.164 HD
BRANCH   7  10
ATOM     10  C   UNL A   1      42.281  24.882  25.934  1.00  0.00     0.181 C 
BRANCH  10  11
ATOM     11  N   UNL A   1      42.505  24.394  27.286  1.00  0.00    -0.338 N 
ATOM     12  C   UNL A   1      42.246  23.149  27.782  1.00  0.00     0.279 C 
ATOM     13  O   UNL A   1      42.923  22.792  28.754  1.00  0.00    -0.268 OA
ATOM     14  H   UNL A   1      42.892  25.041  27.921  1.00  0.00     0.164 HD
BRANCH  12  15
ATOM     15  C   UNL A   1      41.105  22.235  27.248  1.00  0.00     0.275 C 
BRANCH  15  16
ATOM     16  N   UNL A   1      39.807  22.950  27.263  1.00  0.00    -0.347 N 
ATOM     17  H   UNL A   1      39.906  23.826  27.775  1.00  0.00     0.345 HD
ATOM     18  H   UNL A   1      39.104  22.367  27.720  1.00  0.00     0.345 HD
ATOM     19  H   UNL A   1      39.515  23.145  26.306  1.00  0.00     0.345 HD
ENDBRANCH  15  16
BRANCH  15  20
ATOM     20  C   UNL A   1      41.404  21.363  26.001  1.00  0.00     0.113 C 
BRANCH  20  21
ATOM     21  C   UNL A   1      42.427  20.260  26.118  1.00  0.00    -0.016 A 
ATOM     22  C   UNL A   1      42.268  18.999  26.668  1.00  0.00     0.087 A 
ATOM     23  C   UNL A   1      43.792  20.325  25.665  1.00  0.00     0.003 A 
ATOM     24  N   UNL A   1      43.405  18.270  26.428  1.00  0.00    -0.361 N 
ATOM     25  C   UNL A   1      44.333  19.044  25.776  1.00  0.00     0.046 A 
ATOM     26  C   UNL A   1      44.596  21.341  25.108  1.00  0.00     0.010 A 
ATOM     27  H   UNL A   1      43.537  17.329  26.686  1.00  0.00     0.166 HD
ATOM     28  C   UNL A   1      45.602  18.709  25.285  1.00  0.00     0.026 A 
ATOM     29  C   UNL A   1      45.875  21.030  24.631  1.00  0.00     0.001 A 
ATOM     30  C   UNL A   1      46.360  19.727  24.699  1.00  0.00     0.002 A 
ENDBRANCH  20  21
ENDBRANCH  15  20
ENDBRANCH  12  15
ENDBRANCH  10  11
BRANCH  10  31
ATOM     31  C   UNL A   1      41.078  25.814  25.771  1.00  0.00     0.101 C 
BRANCH  31  32
ATOM     32  S   UNL A   1      40.367  26.545  27.275  1.00  0.00    -0.177 SA
ATOM     33  H   UNL A   1      40.966  26.003  28.368  1.00  0.00     0.102 HD
ENDBRANCH  31  32
ENDBRANCH  10  31
ENDBRANCH   7  10
ENDBRANCH   5   6
BRANCH   5  34
ATOM     34  C   UNL A   1      45.786  28.097  25.581  1.00  0.00     0.193 C 
BRANCH  34  35
ATOM     35  O   UNL A   1      45.675  29.507  25.761  1.00  0.00    -0.394 OA
ATOM     36  H   UNL A   1      44.824  29.714  26.178  1.00  0.00     0.210 HD
ENDBRANCH  34  35
ENDBRANCH   5  34
ENDBRANCH   3   5
ENDBRANCH   2   3
ENDBRANCH   1   2
BRANCH   1  37
ATOM     37  C   UNL A   1      41.624  29.509  28.951  1.00  0.00     0.202 C 
BRANCH  37  38
ATOM     38  O   UNL A   1      40.991  30.517  29.742  1.00  0.00    -0.374 OA
BRANCH  38  39
ATOM     39  C   UNL A   1      39.581  30.419  29.922  1.00  0.00     0.202 C 
BRANCH  39  40
ATOM     40  C   UNL A   1      39.003  29.065  30.359  1.00  0.00     0.261 C 
BRANCH  40  41
ATOM     41  O   UNL A   1      37.786  29.168  31.111  1.00  0.00    -0.460 OA
BRANCH  41  42
ATOM     42  C   UNL A   1      37.902  28.800  32.413  1.00  0.00     0.338 C 
ATOM     43  O   UNL A   1      37.774  27.681  32.877  1.00  0.00    -0.246 OA
BRANCH  42  44
ATOM     44  C   UNL A   1      38.382  29.940  33.215  1.00  0.00     0.060 A 
ATOM     45  C   UNL A   1      39.526  29.746  33.999  1.00  0.00     0.016 A 
ATOM     46  C   UNL A   1      37.676  31.142  33.263  1.00  0.00     0.016 A 
ATOM     47  C   UNL A   1      39.955  30.750  34.863  1.00  0.00     0.010 A 
ATOM     48  C   UNL A   1      38.100  32.143  34.144  1.00  0.00     0.010 A 
ATOM     49  C   UNL A   1      39.221  31.938  34.968  1.00  0.00    -0.014 A 
BRANCH  49  50
ATOM     50  C   UNL A   1      39.550  32.902  36.044  1.00  0.00     0.031 A 
ATOM     51  C   UNL A   1      40.633  33.917  35.806  1.00  0.00     0.074 A 
ATOM     52  C   UNL A   1      38.879  32.881  37.210  1.00  0.00     0.049 A 
ATOM     53  N   UNL A   1      41.103  34.830  36.613  1.00  0.00    -0.248 NA
ATOM     54  C   UNL A   1      41.273  33.900  34.479  1.00  0.00     0.031 C 
ATOM     55  C   UNL A   1      37.798  31.954  37.546  1.00  0.00     0.029 A 
ATOM     56  N   UNL A   1      39.026  33.651  38.335  1.00  0.00    -0.354 N 
ATOM     57  C   UNL A   1      42.109  35.480  35.906  1.00  0.00     0.074 A 
ATOM     58  C   UNL A   1      42.192  34.846  34.608  1.00  0.00     0.031 C 
ATOM     59  C   UNL A   1      37.397  32.192  38.805  1.00  0.00     0.029 A 
ATOM     60  C   UNL A   1      38.208  33.267  39.372  1.00  0.00     0.049 A 
ATOM     61  H   UNL A   1      39.655  34.404  38.395  1.00  0.00     0.167 HD
ATOM     62  C   UNL A   1      42.882  36.520  36.297  1.00  0.00     0.034 A 
ATOM     63  C   UNL A   1      38.142  33.718  40.641  1.00  0.00     0.034 A 
ATOM     64  C   UNL A   1      42.785  37.155  37.584  1.00  0.00     0.049 A 
ATOM     65  C   UNL A   1      39.044  34.849  41.062  1.00  0.00     0.074 A 
ATOM     66  C   UNL A   1      43.502  38.235  38.067  1.00  0.00     0.029 A 
ATOM     67  N   UNL A   1      41.926  36.760  38.597  1.00  0.00    -0.354 N 
ATOM     68  N   UNL A   1      39.918  35.520  40.351  1.00  0.00    -0.248 NA
ATOM     69  C   UNL A   1      38.928  35.308  42.455  1.00  0.00     0.031 C 
ATOM     70  C   UNL A   1      43.095  38.476  39.383  1.00  0.00     0.029 A 
ATOM     71  C   UNL A   1      42.100  37.567  39.708  1.00  0.00     0.049 A 
ATOM     72  H   UNL A   1      41.285  36.014  38.536  1.00  0.00     0.167 HD
ATOM     73  C   UNL A   1      40.425  36.503  41.194  1.00  0.00     0.074 A 
ATOM     74  C   UNL A   1      39.745  36.352  42.465  1.00  0.00     0.031 C 
ATOM     75  C   UNL A   1      41.375  37.439  40.946  1.00  0.00     0.034 A 
BRANCH  62  76
ATOM     76  C   UNL A   1      43.889  37.054  35.313  1.00  0.00     0.023 A 
ATOM     77  C   UNL A   1      45.206  36.551  35.320  1.00  0.00     0.012 A 
ATOM     78  C   UNL A   1      43.519  38.010  34.347  1.00  0.00     0.148 A 
ATOM     79  C   UNL A   1      46.147  37.013  34.399  1.00  0.00     0.002 A 
ATOM     80  C   UNL A   1      44.450  38.433  33.405  1.00  0.00     0.091 A 
ATOM     81  F   UNL A   1      42.269  38.492  34.371  1.00  0.00    -0.205 F 
ATOM     82  C   UNL A   1      45.767  37.944  33.437  1.00  0.00     0.022 A 
BRANCH  80  83
ATOM     83  S   UNL A   1      44.040  39.573  32.079  1.00  0.00     0.127 S 
ATOM     84  O   UNL A   1      45.286  40.328  31.943  1.00  0.00    -0.237 OA
ATOM     85  O   UNL A   1      43.756  38.663  30.969  1.00  0.00    -0.237 OA
ATOM     86  O   UNL A   1      42.895  40.341  32.546  1.00  0.00    -0.744 OA
ENDBRANCH  80  83
ENDBRANCH  62  76
BRANCH  63  87
ATOM     87  C   UNL A   1      37.172  33.119  41.600  1.00  0.00     0.023 A 
ATOM     88  C   UNL A   1      35.805  33.445  41.501  1.00  0.00     0.012 A 
ATOM     89  C   UNL A   1      37.594  32.231  42.608  1.00  0.00     0.148 A 
ATOM     90  C   UNL A   1      34.882  32.926  42.410  1.00  0.00     0.002 A 
ATOM     91  C   UNL A   1      36.661  31.673  43.476  1.00  0.00     0.091 A 
ATOM     92  F   UNL A   1      38.900  31.947  42.698  1.00  0.00    -0.205 F 
ATOM     93  C   UNL A   1      35.308  32.034  43.391  1.00  0.00     0.022 A 
BRANCH  91  94
ATOM     94  S   UNL A   1      37.103  30.424  44.688  1.00  0.00     0.127 S 
ATOM     95  O   UNL A   1      35.792  30.021  45.192  1.00  0.00    -0.237 OA
ATOM     96  O   UNL A   1      37.777  29.425  43.858  1.00  0.00    -0.237 OA
ATOM     97  O   UNL A   1      37.971  31.095  45.646  1.00  0.00    -0.744 OA
ENDBRANCH  91  94
ENDBRANCH  63  87
BRANCH  75  98
ATOM     98  C   UNL A   1      41.707  38.409  42.050  1.00  0.00     0.023 A 
ATOM     99  C   UNL A   1      42.720  38.100  42.978  1.00  0.00     0.012 A 
ATOM    100  C   UNL A   1      41.065  39.662  42.117  1.00  0.00     0.148 A 
ATOM    101  C   UNL A   1      43.066  39.009  43.979  1.00  0.00     0.002 A 
ATOM    102  C   UNL A   1      41.450  40.583  43.084  1.00  0.00     0.091 A 
ATOM    103  F   UNL A   1      40.093  39.932  41.235  1.00  0.00    -0.205 F 
ATOM    104  C   UNL A   1      42.440  40.254  44.023  1.00  0.00     0.022 A 
BRANCH 102 105
ATOM    105  S   UNL A   1      40.772  42.245  43.157  1.00  0.00     0.127 S 
ATOM    106  O   UNL A   1      41.094  42.757  41.827  1.00  0.00    -0.237 OA
ATOM    107  O   UNL A   1      39.350  41.990  43.386  1.00  0.00    -0.237 OA
ATOM    108  O   UNL A   1      41.452  42.909  44.262  1.00  0.00    -0.744 OA
ENDBRANCH 102 105
ENDBRANCH  75  98
ENDBRANCH  49  50
ENDBRANCH  42  44
ENDBRANCH  41  42
ENDBRANCH  40  41
ENDBRANCH  39  40
ENDBRANCH  38  39
ENDBRANCH  37  38
ENDBRANCH   1  37
TORSDOF 28
ENDMDL
MODEL 2
REMARK VINA RESULT:      -8.0      5.561     11.750
REMARK SMILES [NH3+][C@@H](Cc1c[nH]c2ccccc12)C(=O)N[C@@H](CS)C(=O)N[C@@H](CO)C(=O)OCCOCCOC(=O)c1ccc(-c2c3nc(c(-c4cccc(S(=O)(=O)[O-])c4F)c4ccc([nH]4)c(-c4cccc(S(=O)(=O)[O-])c4F)c4nc(c(-c5cccc(S(=O)(=O)[O-])c5F)c5ccc2[nH]5)C=C4)C=C3)cc1
REMARK SMILES IDX 28 1 27 2 25 3 26 4 22 5 21 6 19 7 20 8 16 10 15 11 13 12
REMARK SMILES IDX 14 13 2 15 1 16 3 20 4 21 5 22 12 23 6 24 7 25 11 26 8 28
REMARK SMILES IDX 10 29 9 30 17 31 18 32 23 34 24 35 29 37 30 38 31 39 32 40
REMARK SMILES IDX 33 41 34 42 35 43 36 44 37 45 98 46 38 47 97 48 39 49 40 50
REMARK SMILES IDX 41 51 91 52 42 53 96 54 90 55 92 56 43 57 95 58 89 59 88 60
REMARK SMILES IDX 44 62 76 63 56 64 75 65 57 66 60 67 74 68 93 69 58 70 59 71
REMARK SMILES IDX 73 73 94 74 61 75 45 76 46 77 54 78 47 79 49 80 55 81 48 82
REMARK SMILES IDX 50 83 51 84 52 85 53 86 77 87 78 88 86 89 79 90 81 91 87 92
REMARK SMILES IDX 80 93 82 94 83 95 84 96 85 97 62 98 63 99 71 100 64 101
REMARK SMILES IDX 66 102 72 103 65 104 67 105 68 106 69 107 70 108
REMARK H PARENT 21 9 15 14 1 17 1 18 1 19 6 27 18 33 24 36 92 61 60 72
REMARK Flexibility Score: inf
ROOT
ATOM      1  C   UNL A   1      40.796  23.483  28.034  1.00  0.00     0.261 C 
ENDROOT
BRANCH   1   2
ATOM      2  O   UNL A   1      39.491  24.062  27.912  1.00  0.00    -0.462 OA
BRANCH   2   3
ATOM      3  C   UNL A   1      39.025  24.193  26.639  1.00  0.00     0.331 C 
ATOM      4  O   UNL A   1      39.536  24.890  25.771  1.00  0.00    -0.250 OA
BRANCH   3   5
ATOM      5  C   UNL A   1      37.744  23.389  26.414  1.00  0.00     0.218 C 
BRANCH   5   6
ATOM      6  N   UNL A   1      36.703  24.097  25.646  1.00  0.00    -0.339 N 
ATOM      7  C   UNL A   1      35.954  23.367  24.771  1.00  0.00     0.244 C 
ATOM      8  O   UNL A   1      36.412  23.164  23.645  1.00  0.00    -0.273 OA
ATOM      9  H   UNL A   1      36.553  25.062  25.764  1.00  0.00     0.164 HD
BRANCH   7  10
ATOM     10  C   UNL A   1      34.655  22.688  25.261  1.00  0.00     0.181 C 
BRANCH  10  11
ATOM     11  N   UNL A   1      33.831  23.700  25.906  1.00  0.00    -0.338 N 
ATOM     12  C   UNL A   1      32.846  24.462  25.344  1.00  0.00     0.279 C 
ATOM     13  O   UNL A   1      31.971  24.882  26.111  1.00  0.00    -0.268 OA
ATOM     14  H   UNL A   1      34.003  23.852  26.864  1.00  0.00     0.164 HD
BRANCH  12  15
ATOM     15  C   UNL A   1      32.840  24.885  23.847  1.00  0.00     0.275 C 
BRANCH  15  16
ATOM     16  N   UNL A   1      31.471  24.808  23.283  1.00  0.00    -0.347 N 
ATOM     17  H   UNL A   1      31.402  25.420  22.471  1.00  0.00     0.345 HD
ATOM     18  H   UNL A   1      30.796  25.104  23.990  1.00  0.00     0.345 HD
ATOM     19  H   UNL A   1      31.271  23.848  23.004  1.00  0.00     0.345 HD
ENDBRANCH  15  16
BRANCH  15  20
ATOM     20  C   UNL A   1      33.691  26.116  23.441  1.00  0.00     0.113 C 
BRANCH  20  21
ATOM     21  C   UNL A   1      33.138  27.496  23.702  1.00  0.00    -0.016 A 
ATOM     22  C   UNL A   1      32.494  28.341  22.814  1.00  0.00     0.087 A 
ATOM     23  C   UNL A   1      33.184  28.198  24.957  1.00  0.00     0.003 A 
ATOM     24  N   UNL A   1      32.026  29.428  23.508  1.00  0.00    -0.361 N 
ATOM     25  C   UNL A   1      32.395  29.342  24.828  1.00  0.00     0.046 A 
ATOM     26  C   UNL A   1      33.770  27.932  26.212  1.00  0.00     0.010 A 
ATOM     27  H   UNL A   1      31.502  30.164  23.116  1.00  0.00     0.166 HD
ATOM     28  C   UNL A   1      32.094  30.185  25.906  1.00  0.00     0.026 A 
ATOM     29  C   UNL A   1      33.499  28.777  27.296  1.00  0.00     0.001 A 
ATOM     30  C   UNL A   1      32.654  29.873  27.148  1.00  0.00     0.002 A 
ENDBRANCH  20  21
ENDBRANCH  15  20
ENDBRANCH  12  15
ENDBRANCH  10  11
BRANCH  10  31
ATOM     31  C   UNL A   1      33.898  21.720  24.349  1.00  0.00     0.101 C 
BRANCH  31  32
ATOM     32  S   UNL A   1      33.866  19.966  24.823  1.00  0.00    -0.177 SA
ATOM     33  H   UNL A   1      34.637  19.781  25.927  1.00  0.00     0.102 HD
ENDBRANCH  31  32
ENDBRANCH  10  31
ENDBRANCH   7  10
ENDBRANCH   5   6
BRANCH   5  34
ATOM     34  C   UNL A   1      38.124  22.069  25.728  1.00  0.00     0.193 C 
BRANCH  34  35
ATOM     35  O   UNL A   1      39.532  22.024  25.501  1.00  0.00    -0.394 OA
ATOM     36  H   UNL A   1      39.757  21.211  25.022  1.00  0.00     0.210 HD
ENDBRANCH  34  35
ENDBRANCH   5  34
ENDBRANCH   3   5
ENDBRANCH   2   3
ENDBRANCH   1   2
BRANCH   1  37
ATOM     37  C   UNL A   1      41.830  24.555  28.385  1.00  0.00     0.202 C 
BRANCH  37  38
ATOM     38  O   UNL A   1      43.208  24.180  28.324  1.00  0.00    -0.374 OA
BRANCH  38  39
ATOM     39  C   UNL A   1      43.561  23.129  27.428  1.00  0.00     0.202 C 
BRANCH  39  40
ATOM     40  C   UNL A   1      44.877  23.260  26.647  1.00  0.00     0.261 C 
BRANCH  40  41
ATOM     41  O   UNL A   1      44.747  23.965  25.404  1.00  0.00    -0.460 OA
BRANCH  41  42
ATOM     42  C   UNL A   1      45.655  24.961  25.230  1.00  0.00     0.338 C 
ATOM     43  O   UNL A   1      46.561  24.998  24.417  1.00  0.00    -0.246 OA
BRANCH  42  44
ATOM     44  C   UNL A   1      45.299  26.116  26.073  1.00  0.00     0.060 A 
ATOM     45  C   UNL A   1      46.244  26.551  27.011  1.00  0.00     0.016 A 
ATOM     46  C   UNL A   1      44.034  26.702  26.006  1.00  0.00     0.016 A 
ATOM     47  C   UNL A   1      45.916  27.562  27.910  1.00  0.00     0.010 A 
ATOM     48  C   UNL A   1      43.703  27.706  26.921  1.00  0.00     0.010 A 
ATOM     49  C   UNL A   1      44.631  28.117  27.895  1.00  0.00    -0.014 A 
BRANCH  49  50
ATOM     50  C   UNL A   1      44.218  29.024  28.991  1.00  0.00     0.031 A 
ATOM     51  C   UNL A   1      43.939  28.444  30.350  1.00  0.00     0.074 A 
ATOM     52  C   UNL A   1      44.110  30.348  28.780  1.00  0.00     0.049 A 
ATOM     53  N   UNL A   1      43.538  29.043  31.440  1.00  0.00    -0.248 NA
ATOM     54  C   UNL A   1      44.138  26.992  30.501  1.00  0.00     0.031 C 
ATOM     55  C   UNL A   1      44.372  31.024  27.510  1.00  0.00     0.029 A 
ATOM     56  N   UNL A   1      43.729  31.357  29.628  1.00  0.00    -0.354 N 
ATOM     57  C   UNL A   1      43.411  28.043  32.398  1.00  0.00     0.074 A 
ATOM     58  C   UNL A   1      43.764  26.795  31.757  1.00  0.00     0.031 C 
ATOM     59  C   UNL A   1      44.118  32.336  27.655  1.00  0.00     0.029 A 
ATOM     60  C   UNL A   1      43.651  32.586  29.016  1.00  0.00     0.049 A 
ATOM     61  H   UNL A   1      43.531  31.215  30.581  1.00  0.00     0.167 HD
ATOM     62  C   UNL A   1      43.050  28.157  33.697  1.00  0.00     0.034 A 
ATOM     63  C   UNL A   1      43.226  33.771  29.498  1.00  0.00     0.034 A 
ATOM     64  C   UNL A   1      42.714  29.403  34.332  1.00  0.00     0.049 A 
ATOM     65  C   UNL A   1      42.789  33.862  30.937  1.00  0.00     0.074 A 
ATOM     66  C   UNL A   1      42.364  29.631  35.651  1.00  0.00     0.029 A 
ATOM     67  N   UNL A   1      42.675  30.631  33.691  1.00  0.00    -0.354 N 
ATOM     68  N   UNL A   1      42.773  32.927  31.857  1.00  0.00    -0.248 NA
ATOM     69  C   UNL A   1      42.342  35.179  31.414  1.00  0.00     0.031 C 
ATOM     70  C   UNL A   1      42.086  30.993  35.801  1.00  0.00     0.029 A 
ATOM     71  C   UNL A   1      42.297  31.620  34.583  1.00  0.00     0.049 A 
ATOM     72  H   UNL A   1      42.886  30.780  32.741  1.00  0.00     0.167 HD
ATOM     73  C   UNL A   1      42.354  33.551  33.028  1.00  0.00     0.074 A 
ATOM     74  C   UNL A   1      42.146  34.947  32.705  1.00  0.00     0.031 C 
ATOM     75  C   UNL A   1      42.149  33.015  34.257  1.00  0.00     0.034 A 
BRANCH  62  76
ATOM     76  C   UNL A   1      43.020  26.902  34.529  1.00  0.00     0.023 A 
ATOM     77  C   UNL A   1      41.785  26.287  34.819  1.00  0.00     0.012 A 
ATOM     78  C   UNL A   1      44.213  26.303  34.977  1.00  0.00     0.148 A 
ATOM     79  C   UNL A   1      41.737  25.109  35.565  1.00  0.00     0.002 A 
ATOM     80  C   UNL A   1      44.160  25.106  35.683  1.00  0.00     0.091 A 
ATOM     81  F   UNL A   1      45.375  26.915  34.711  1.00  0.00    -0.205 F 
ATOM     82  C   UNL A   1      42.922  24.515  35.987  1.00  0.00     0.022 A 
BRANCH  80  83
ATOM     83  S   UNL A   1      45.632  24.221  36.206  1.00  0.00     0.127 S 
ATOM     84  O   UNL A   1      45.155  23.538  37.408  1.00  0.00    -0.237 OA
ATOM     85  O   UNL A   1      45.883  23.341  35.065  1.00  0.00    -0.237 OA
ATOM     86  O   UNL A   1      46.654  25.234  36.430  1.00  0.00    -0.744 OA
ENDBRANCH  80  83
ENDBRANCH  62  76
BRANCH  63  87
ATOM     87  C   UNL A   1      43.216  34.976  28.621  1.00  0.00     0.023 A 
ATOM     88  C   UNL A   1      42.011  35.392  28.022  1.00  0.00     0.012 A 
ATOM     89  C   UNL A   1      44.392  35.712  28.376  1.00  0.00     0.148 A 
ATOM     90  C   UNL A   1      41.983  36.495  27.170  1.00  0.00     0.002 A 
ATOM     91  C   UNL A   1      44.348  36.843  27.570  1.00  0.00     0.091 A 
ATOM     92  F   UNL A   1      45.533  35.290  28.939  1.00  0.00    -0.205 F 
ATOM     93  C   UNL A   1      43.148  37.226  26.950  1.00  0.00     0.022 A 
BRANCH  91  94
ATOM     94  S   UNL A   1      45.771  37.911  27.332  1.00  0.00     0.127 S 
ATOM     95  O   UNL A   1      45.209  38.979  26.509  1.00  0.00    -0.237 OA
ATOM     96  O   UNL A   1      46.091  38.297  28.707  1.00  0.00    -0.237 OA
ATOM     97  O   UNL A   1      46.782  37.083  26.690  1.00  0.00    -0.744 OA
ENDBRANCH  91  94
ENDBRANCH  63  87
BRANCH  75  98
ATOM     98  C   UNL A   1      41.721  33.945  35.363  1.00  0.00     0.023 A 
ATOM     99  C   UNL A   1      40.353  34.113  35.653  1.00  0.00     0.012 A 
ATOM    100  C   UNL A   1      42.683  34.593  36.165  1.00  0.00     0.148 A 
ATOM    101  C   UNL A   1      39.947  34.938  36.702  1.00  0.00     0.002 A 
ATOM    102  C   UNL A   1      42.273  35.371  37.240  1.00  0.00     0.091 A 
ATOM    103  F   UNL A   1      43.980  34.433  35.864  1.00  0.00    -0.205 F 
ATOM    104  C   UNL A   1      40.906  35.556  37.502  1.00  0.00     0.022 A 
BRANCH 102 105
ATOM    105  S   UNL A   1      43.435  36.125  38.384  1.00  0.00     0.127 S 
ATOM    106  O   UNL A   1      43.901  37.279  37.618  1.00  0.00    -0.237 OA
ATOM    107  O   UNL A   1      42.579  36.453  39.525  1.00  0.00    -0.237 OA
ATOM    108  O   UNL A   1      44.444  35.110  38.660  1.00  0.00    -0.744 OA
ENDBRANCH 102 105
ENDBRANCH  75  98
ENDBRANCH  49  50
ENDBRANCH  42  44
ENDBRANCH  41  42
ENDBRANCH  40  41
ENDBRANCH  39  40
ENDBRANCH  38  39
ENDBRANCH  37  38
ENDBRANCH   1  37
TORSDOF 28
ENDMDL
MODEL 3
REMARK VINA RESULT:      -7.9      6.771     12.438
REMARK SMILES [NH3+][C@@H](Cc1c[nH]c2ccccc12)C(=O)N[C@@H](CS)C(=O)N[C@@H](CO)C(=O)OCCOCCOC(=O)c1ccc(-c2c3nc(c(-c4cccc(S(=O)(=O)[O-])c4F)c4ccc([nH]4)c(-c4cccc(S(=O)(=O)[O-])c4F)c4nc(c(-c5cccc(S(=O)(=O)[O-])c5F)c5ccc2[nH]5)C=C4)C=C3)cc1
REMARK SMILES IDX 28 1 27 2 25 3 26 4 22 5 21 6 19 7 20 8 16 10 15 11 13 12
REMARK SMILES IDX 14 13 2 15 1 16 3 20 4 21 5 22 12 23 6 24 7 25 11 26 8 28
REMARK SMILES IDX 10 29 9 30 17 31 18 32 23 34 24 35 29 37 30 38 31 39 32 40
REMARK SMILES IDX 33 41 34 42 35 43 36 44 37 45 98 46 38 47 97 48 39 49 40 50
REMARK SMILES IDX 41 51 91 52 42 53 96 54 90 55 92 56 43 57 95 58 89 59 88 60
REMARK SMILES IDX 44 62 76 63 56 64 75 65 57 66 60 67 74 68 93 69 58 70 59 71
REMARK SMILES IDX 73 73 94 74 61 75 45 76 46 77 54 78 47 79 49 80 55 81 48 82
REMARK SMILES IDX 50 83 51 84 52 85 53 86 77 87 78 88 86 89 79 90 81 91 87 92
REMARK SMILES IDX 80 93 82 94 83 95 84 96 85 97 62 98 63 99 71 100 64 101
REMARK SMILES IDX 66 102 72 103 65 104 67 105 68 106 69 107 70 108
REMARK H PARENT 21 9 15 14 1 17 1 18 1 19 6 27 18 33 24 36 92 61 60 72
REMARK Flexibility Score: inf
ROOT
ATOM      1  C   UNL A   1      40.718  29.293  27.787  1.00  0.00     0.261 C 
ENDROOT
BRANCH   1   2
ATOM      2  O   UNL A   1      39.558  29.315  28.630  1.00  0.00    -0.462 OA
BRANCH   2   3
ATOM      3  C   UNL A   1      39.645  30.118  29.725  1.00  0.00     0.331 C 
ATOM      4  O   UNL A   1      40.193  31.214  29.753  1.00  0.00    -0.250 OA
BRANCH   3   5
ATOM      5  C   UNL A   1      39.005  29.477  30.957  1.00  0.00     0.218 C 
BRANCH   5   6
ATOM      6  N   UNL A   1      37.534  29.386  30.905  1.00  0.00    -0.339 N 
ATOM      7  C   UNL A   1      36.828  29.939  31.932  1.00  0.00     0.244 C 
ATOM      8  O   UNL A   1      36.669  29.269  32.954  1.00  0.00    -0.273 OA
ATOM      9  H   UNL A   1      37.078  28.942  30.155  1.00  0.00     0.164 HD
BRANCH   7  10
ATOM     10  C   UNL A   1      36.401  31.422  31.852  1.00  0.00     0.181 C 
BRANCH  10  11
ATOM     11  N   UNL A   1      36.790  32.074  33.093  1.00  0.00    -0.338 N 
ATOM     12  C   UNL A   1      36.027  32.875  33.895  1.00  0.00     0.279 C 
ATOM     13  O   UNL A   1      36.350  32.926  35.088  1.00  0.00    -0.268 OA
ATOM     14  H   UNL A   1      37.716  31.918  33.393  1.00  0.00     0.164 HD
BRANCH  12  15
ATOM     15  C   UNL A   1      34.869  33.766  33.361  1.00  0.00     0.275 C 
BRANCH  15  16
ATOM     16  N   UNL A   1      33.552  33.174  33.696  1.00  0.00    -0.347 N 
ATOM     17  H   UNL A   1      32.881  33.919  33.880  1.00  0.00     0.345 HD
ATOM     18  H   UNL A   1      33.644  32.588  34.526  1.00  0.00     0.345 HD
ATOM     19  H   UNL A   1      33.225  32.607  32.914  1.00  0.00     0.345 HD
ENDBRANCH  15  16
BRANCH  15  20
ATOM     20  C   UNL A   1      35.004  35.301  33.528  1.00  0.00     0.113 C 
BRANCH  20  21
ATOM     21  C   UNL A   1      34.313  36.202  32.534  1.00  0.00    -0.016 A 
ATOM     22  C   UNL A   1      33.962  37.533  32.684  1.00  0.00     0.087 A 
ATOM     23  C   UNL A   1      33.882  35.824  31.213  1.00  0.00     0.003 A 
ATOM     24  N   UNL A   1      33.493  37.999  31.482  1.00  0.00    -0.361 N 
ATOM     25  C   UNL A   1      33.477  36.986  30.555  1.00  0.00     0.046 A 
ATOM     26  C   UNL A   1      33.862  34.611  30.494  1.00  0.00     0.010 A 
ATOM     27  H   UNL A   1      33.208  38.926  31.309  1.00  0.00     0.166 HD
ATOM     28  C   UNL A   1      33.135  37.012  29.197  1.00  0.00     0.026 A 
ATOM     29  C   UNL A   1      33.501  34.613  29.141  1.00  0.00     0.001 A 
ATOM     30  C   UNL A   1      33.165  35.801  28.498  1.00  0.00     0.002 A 
ENDBRANCH  20  21
ENDBRANCH  15  20
ENDBRANCH  12  15
ENDBRANCH  10  11
BRANCH  10  31
ATOM     31  C   UNL A   1      36.666  32.235  30.582  1.00  0.00     0.101 C 
BRANCH  31  32
ATOM     32  S   UNL A   1      37.729  33.701  30.724  1.00  0.00    -0.177 SA
ATOM     33  H   UNL A   1      37.852  34.045  32.034  1.00  0.00     0.102 HD
ENDBRANCH  31  32
ENDBRANCH  10  31
ENDBRANCH   7  10
ENDBRANCH   5   6
BRANCH   5  34
ATOM     34  C   UNL A   1      39.631  28.089  31.152  1.00  0.00     0.193 C 
BRANCH  34  35
ATOM     35  O   UNL A   1      38.980  27.137  30.313  1.00  0.00    -0.394 OA
ATOM     36  H   UNL A   1      38.387  26.586  30.848  1.00  0.00     0.210 HD
ENDBRANCH  34  35
ENDBRANCH   5  34
ENDBRANCH   3   5
ENDBRANCH   2   3
ENDBRANCH   1   2
BRANCH   1  37
ATOM     37  C   UNL A   1      40.521  28.315  26.626  1.00  0.00     0.202 C 
BRANCH  37  38
ATOM     38  O   UNL A   1      40.097  26.990  26.951  1.00  0.00    -0.374 OA
BRANCH  38  39
ATOM     39  C   UNL A   1      40.659  25.919  26.198  1.00  0.00     0.202 C 
BRANCH  39  40
ATOM     40  C   UNL A   1      42.037  26.136  25.555  1.00  0.00     0.261 C 
BRANCH  40  41
ATOM     41  O   UNL A   1      43.137  25.932  26.454  1.00  0.00    -0.460 OA
BRANCH  41  42
ATOM     42  C   UNL A   1      43.928  27.023  26.623  1.00  0.00     0.338 C 
ATOM     43  O   UNL A   1      44.450  27.697  25.753  1.00  0.00    -0.246 OA
BRANCH  42  44
ATOM     44  C   UNL A   1      43.951  27.409  28.045  1.00  0.00     0.060 A 
ATOM     45  C   UNL A   1      45.056  28.138  28.502  1.00  0.00     0.016 A 
ATOM     46  C   UNL A   1      42.955  26.989  28.928  1.00  0.00     0.016 A 
ATOM     47  C   UNL A   1      45.185  28.428  29.858  1.00  0.00     0.010 A 
ATOM     48  C   UNL A   1      43.096  27.268  30.291  1.00  0.00     0.010 A 
ATOM     49  C   UNL A   1      44.226  27.961  30.764  1.00  0.00    -0.014 A 
BRANCH  49  50
ATOM     50  C   UNL A   1      44.483  28.076  32.218  1.00  0.00     0.031 A 
ATOM     51  C   UNL A   1      45.024  26.885  32.959  1.00  0.00     0.074 A 
ATOM     52  C   UNL A   1      44.251  29.233  32.864  1.00  0.00     0.049 A 
ATOM     53  N   UNL A   1      45.293  26.753  34.230  1.00  0.00    -0.248 NA
ATOM     54  C   UNL A   1      45.299  25.680  32.157  1.00  0.00     0.031 C 
ATOM     55  C   UNL A   1      43.743  30.458  32.247  1.00  0.00     0.029 A 
ATOM     56  N   UNL A   1      44.394  29.556  34.190  1.00  0.00    -0.354 N 
ATOM     57  C   UNL A   1      45.743  25.446  34.389  1.00  0.00     0.074 A 
ATOM     58  C   UNL A   1      45.698  24.821  33.085  1.00  0.00     0.031 C 
ATOM     59  C   UNL A   1      43.591  31.394  33.199  1.00  0.00     0.029 A 
ATOM     60  C   UNL A   1      43.964  30.827  34.493  1.00  0.00     0.049 A 
ATOM     61  H   UNL A   1      44.766  28.939  34.859  1.00  0.00     0.167 HD
ATOM     62  C   UNL A   1      46.171  24.830  35.515  1.00  0.00     0.034 A 
ATOM     63  C   UNL A   1      43.861  31.449  35.684  1.00  0.00     0.034 A 
ATOM     64  C   UNL A   1      46.227  25.461  36.806  1.00  0.00     0.049 A 
ATOM     65  C   UNL A   1      44.305  30.725  36.929  1.00  0.00     0.074 A 
ATOM     66  C   UNL A   1      46.673  24.933  38.005  1.00  0.00     0.029 A 
ATOM     67  N   UNL A   1      45.813  26.758  37.070  1.00  0.00    -0.354 N 
ATOM     68  N   UNL A   1      44.824  29.526  37.047  1.00  0.00    -0.248 NA
ATOM     69  C   UNL A   1      44.179  31.451  38.201  1.00  0.00     0.031 C 
ATOM     70  C   UNL A   1      46.502  25.901  38.999  1.00  0.00     0.029 A 
ATOM     71  C   UNL A   1      45.983  27.045  38.413  1.00  0.00     0.049 A 
ATOM     72  H   UNL A   1      45.451  27.383  36.401  1.00  0.00     0.167 HD
ATOM     73  C   UNL A   1      45.124  29.370  38.397  1.00  0.00     0.074 A 
ATOM     74  C   UNL A   1      44.745  30.606  39.052  1.00  0.00     0.031 C 
ATOM     75  C   UNL A   1      45.652  28.300  39.039  1.00  0.00     0.034 A 
BRANCH  62  76
ATOM     76  C   UNL A   1      46.635  23.402  35.400  1.00  0.00     0.023 A 
ATOM     77  C   UNL A   1      45.706  22.352  35.550  1.00  0.00     0.012 A 
ATOM     78  C   UNL A   1      47.975  23.099  35.089  1.00  0.00     0.148 A 
ATOM     79  C   UNL A   1      46.110  21.022  35.420  1.00  0.00     0.002 A 
ATOM     80  C   UNL A   1      48.361  21.775  34.918  1.00  0.00     0.091 A 
ATOM     81  F   UNL A   1      48.847  24.111  34.973  1.00  0.00    -0.205 F 
ATOM     82  C   UNL A   1      47.432  20.736  35.094  1.00  0.00     0.022 A 
BRANCH  80  83
ATOM     83  S   UNL A   1      50.022  21.303  34.424  1.00  0.00     0.127 S 
ATOM     84  O   UNL A   1      50.804  21.718  35.588  1.00  0.00    -0.237 OA
ATOM     85  O   UNL A   1      49.895  19.856  34.260  1.00  0.00    -0.237 OA
ATOM     86  O   UNL A   1      50.300  22.034  33.195  1.00  0.00    -0.744 OA
ENDBRANCH  80  83
ENDBRANCH  62  76
BRANCH  63  87
ATOM     87  C   UNL A   1      43.340  32.843  35.759  1.00  0.00     0.023 A 
ATOM     88  C   UNL A   1      44.243  33.922  35.823  1.00  0.00     0.012 A 
ATOM     89  C   UNL A   1      41.956  33.107  35.769  1.00  0.00     0.148 A 
ATOM     90  C   UNL A   1      43.779  35.233  35.930  1.00  0.00     0.002 A 
ATOM     91  C   UNL A   1      41.500  34.419  35.820  1.00  0.00     0.091 A 
ATOM     92  F   UNL A   1      41.112  32.066  35.726  1.00  0.00    -0.205 F 
ATOM     93  C   UNL A   1      42.409  35.483  35.919  1.00  0.00     0.022 A 
BRANCH  91  94
ATOM     94  S   UNL A   1      39.759  34.838  35.687  1.00  0.00     0.127 S 
ATOM     95  O   UNL A   1      39.790  36.292  35.824  1.00  0.00    -0.237 OA
ATOM     96  O   UNL A   1      39.434  34.352  34.345  1.00  0.00    -0.237 OA
ATOM     97  O   UNL A   1      39.097  34.114  36.764  1.00  0.00    -0.744 OA
ENDBRANCH  91  94
ENDBRANCH  63  87
BRANCH  75  98
ATOM     98  C   UNL A   1      45.902  28.425  40.520  1.00  0.00     0.023 A 
ATOM     99  C   UNL A   1      44.987  27.873  41.438  1.00  0.00     0.012 A 
ATOM    100  C   UNL A   1      47.086  29.022  40.997  1.00  0.00     0.148 A 
ATOM    101  C   UNL A   1      45.229  27.945  42.810  1.00  0.00     0.002 A 
ATOM    102  C   UNL A   1      47.346  29.045  42.362  1.00  0.00     0.091 A 
ATOM    103  F   UNL A   1      47.937  29.556  40.109  1.00  0.00    -0.205 F 
ATOM    104  C   UNL A   1      46.413  28.519  43.270  1.00  0.00     0.022 A 
BRANCH 102 105
ATOM    105  S   UNL A   1      48.886  29.672  43.041  1.00  0.00     0.127 S 
ATOM    106  O   UNL A   1      49.595  28.436  43.362  1.00  0.00    -0.237 OA
ATOM    107  O   UNL A   1      49.440  30.420  41.912  1.00  0.00    -0.237 OA
ATOM    108  O   UNL A   1      48.516  30.494  44.186  1.00  0.00    -0.744 OA
ENDBRANCH 102 105
ENDBRANCH  75  98
ENDBRANCH  49  50
ENDBRANCH  42  44
ENDBRANCH  41  42
ENDBRANCH  40  41
ENDBRANCH  39  40
ENDBRANCH  38  39
ENDBRANCH  37  38
ENDBRANCH   1  37
TORSDOF 28
ENDMDL
