MODEL 1
REMARK VINA RESULT:     -10.9      0.000      0.000
REMARK SMILES C[C@@H](C(=O)OCCOCCOC(=O)c1ccc(-c2c3nc(c(-c4cccc(S(=O)(=O)[O-])c4F)c4ccc([nH]4)c(-c4cccc(S(=O)(=O)[O-])c4F)c4nc(c(-c5cccc(S(=O)(=O)[O-])c5F)c5ccc2[nH]5)C=C4)C=C3)cc1)c1ccc(C[C@@H]2CCC[C@@H]2O)cc1
REMARK SMILES IDX 7 1 6 2 5 3 3 4 4 5 2 6 1 7 77 8 78 9 89 10 79 11 88 12
REMARK SMILES IDX 80 13 81 14 82 15 83 16 86 17 84 18 85 19 87 20 8 22 9 23
REMARK SMILES IDX 10 24 11 25 12 26 13 27 14 28 15 29 76 30 16 31 75 32 17 33
REMARK SMILES IDX 18 34 19 35 69 36 20 37 74 38 68 39 70 40 21 41 73 42 67 43
REMARK SMILES IDX 66 44 22 46 54 47 34 48 53 49 35 50 38 51 52 52 71 53 36 54
REMARK SMILES IDX 37 55 51 57 72 58 39 59 23 60 24 61 32 62 25 63 27 64 33 65
REMARK SMILES IDX 26 66 28 67 29 68 30 69 31 70 55 71 56 72 64 73 57 74 59 75
REMARK SMILES IDX 65 76 58 77 60 78 61 79 62 80 63 81 40 82 41 83 49 84 42 85
REMARK SMILES IDX 44 86 50 87 43 88 45 89 46 90 47 91 48 92
REMARK H PARENT 87 21 70 45 38 56
REMARK Flexibility Score: inf
ROOT
ATOM      1  C   UNL A   1      35.968  23.500  24.161  1.00  0.00     0.202 C 
ENDROOT
BRANCH   1   2
ATOM      2  C   UNL A   1      34.903  23.740  25.237  1.00  0.00     0.261 C 
BRANCH   2   3
ATOM      3  O   UNL A   1      33.640  24.046  24.635  1.00  0.00    -0.463 OA
BRANCH   3   4
ATOM      4  C   UNL A   1      32.594  23.268  25.026  1.00  0.00     0.313 C 
ATOM      5  O   UNL A   1      32.483  22.077  24.760  1.00  0.00    -0.252 OA
BRANCH   4   6
ATOM      6  C   UNL A   1      31.645  24.014  25.968  1.00  0.00     0.126 C 
ATOM      7  C   UNL A   1      30.542  23.099  26.522  1.00  0.00     0.025 C 
BRANCH   6   8
ATOM      8  C   UNL A   1      31.108  25.334  25.397  1.00  0.00    -0.034 A 
ATOM      9  C   UNL A   1      30.339  25.391  24.223  1.00  0.00     0.005 A 
ATOM     10  C   UNL A   1      31.470  26.554  25.989  1.00  0.00     0.005 A 
ATOM     11  C   UNL A   1      30.005  26.613  23.627  1.00  0.00     0.004 A 
ATOM     12  C   UNL A   1      31.143  27.775  25.390  1.00  0.00     0.004 A 
ATOM     13  C   UNL A   1      30.459  27.815  24.171  1.00  0.00    -0.048 A 
BRANCH  13  14
ATOM     14  C   UNL A   1      30.299  29.117  23.428  1.00  0.00     0.041 C 
BRANCH  14  15
ATOM     15  C   UNL A   1      28.908  29.798  23.478  1.00  0.00     0.022 C 
ATOM     16  C   UNL A   1      28.016  29.539  22.257  1.00  0.00     0.007 C 
ATOM     17  C   UNL A   1      28.864  31.327  23.595  1.00  0.00     0.117 C 
ATOM     18  C   UNL A   1      28.127  30.775  21.359  1.00  0.00     0.003 C 
ATOM     19  C   UNL A   1      28.879  31.834  22.159  1.00  0.00     0.032 C 
BRANCH  17  20
ATOM     20  O   UNL A   1      29.905  31.881  24.372  1.00  0.00    -0.393 OA
ATOM     21  H   UNL A   1      30.702  31.972  23.827  1.00  0.00     0.210 HD
ENDBRANCH  17  20
ENDBRANCH  14  15
ENDBRANCH  13  14
ENDBRANCH   6   8
ENDBRANCH   4   6
ENDBRANCH   3   4
ENDBRANCH   2   3
ENDBRANCH   1   2
BRANCH   1  22
ATOM     22  O   UNL A   1      36.303  22.138  23.888  1.00  0.00    -0.374 OA
BRANCH  22  23
ATOM     23  C   UNL A   1      36.369  21.236  24.996  1.00  0.00     0.202 C 
BRANCH  23  24
ATOM     24  C   UNL A   1      37.557  20.266  25.047  1.00  0.00     0.261 C 
BRANCH  24  25
ATOM     25  O   UNL A   1      38.831  20.937  25.072  1.00  0.00    -0.460 OA
BRANCH  25  26
ATOM     26  C   UNL A   1      39.536  20.773  26.217  1.00  0.00     0.338 C 
ATOM     27  O   UNL A   1      39.984  19.721  26.663  1.00  0.00    -0.246 OA
BRANCH  26  28
ATOM     28  C   UNL A   1      39.876  22.077  26.810  1.00  0.00     0.060 A 
ATOM     29  C   UNL A   1      39.296  23.218  26.239  1.00  0.00     0.016 A 
ATOM     30  C   UNL A   1      40.819  22.197  27.832  1.00  0.00     0.016 A 
ATOM     31  C   UNL A   1      39.694  24.487  26.654  1.00  0.00     0.010 A 
ATOM     32  C   UNL A   1      41.223  23.475  28.241  1.00  0.00     0.010 A 
ATOM     33  C   UNL A   1      40.691  24.624  27.628  1.00  0.00    -0.014 A 
BRANCH  33  34
ATOM     34  C   UNL A   1      41.267  25.965  27.899  1.00  0.00     0.031 A 
ATOM     35  C   UNL A   1      42.664  26.271  27.431  1.00  0.00     0.074 A 
ATOM     36  C   UNL A   1      40.549  26.904  28.538  1.00  0.00     0.049 A 
ATOM     37  N   UNL A   1      43.360  27.370  27.567  1.00  0.00    -0.248 NA
ATOM     38  C   UNL A   1      43.371  25.196  26.715  1.00  0.00     0.031 C 
ATOM     39  C   UNL A   1      39.186  26.730  29.038  1.00  0.00     0.029 A 
ATOM     40  N   UNL A   1      40.879  28.188  28.898  1.00  0.00    -0.354 N 
ATOM     41  C   UNL A   1      44.592  27.115  26.976  1.00  0.00     0.074 A 
ATOM     42  C   UNL A   1      44.555  25.751  26.493  1.00  0.00     0.031 C 
ATOM     43  C   UNL A   1      38.806  27.855  29.667  1.00  0.00     0.029 A 
ATOM     44  C   UNL A   1      39.904  28.820  29.633  1.00  0.00     0.049 A 
ATOM     45  H   UNL A   1      41.732  28.614  28.653  1.00  0.00     0.167 HD
ATOM     46  C   UNL A   1      45.652  27.945  26.831  1.00  0.00     0.034 A 
ATOM     47  C   UNL A   1      39.906  30.031  30.226  1.00  0.00     0.034 A 
ATOM     48  C   UNL A   1      45.682  29.306  27.294  1.00  0.00     0.049 A 
ATOM     49  C   UNL A   1      41.105  30.928  30.067  1.00  0.00     0.074 A 
ATOM     50  C   UNL A   1      46.695  30.239  27.156  1.00  0.00     0.029 A 
ATOM     51  N   UNL A   1      44.659  29.928  27.992  1.00  0.00    -0.354 N 
ATOM     52  N   UNL A   1      42.214  30.716  29.401  1.00  0.00    -0.248 NA
ATOM     53  C   UNL A   1      41.039  32.248  30.712  1.00  0.00     0.031 C 
ATOM     54  C   UNL A   1      46.292  31.419  27.790  1.00  0.00     0.029 A 
ATOM     55  C   UNL A   1      45.018  31.229  28.302  1.00  0.00     0.049 A 
ATOM     56  H   UNL A   1      43.803  29.507  28.232  1.00  0.00     0.167 HD
ATOM     57  C   UNL A   1      42.962  31.883  29.518  1.00  0.00     0.074 A 
ATOM     58  C   UNL A   1      42.170  32.808  30.301  1.00  0.00     0.031 C 
ATOM     59  C   UNL A   1      44.199  32.159  29.034  1.00  0.00     0.034 A 
BRANCH  46  60
ATOM     60  C   UNL A   1      46.861  27.412  26.109  1.00  0.00     0.023 A 
ATOM     61  C   UNL A   1      46.975  27.597  24.716  1.00  0.00     0.012 A 
ATOM     62  C   UNL A   1      47.908  26.782  26.810  1.00  0.00     0.148 A 
ATOM     63  C   UNL A   1      48.098  27.139  24.028  1.00  0.00     0.002 A 
ATOM     64  C   UNL A   1      49.042  26.364  26.124  1.00  0.00     0.091 A 
ATOM     65  F   UNL A   1      47.769  26.594  28.131  1.00  0.00    -0.205 F 
ATOM     66  C   UNL A   1      49.134  26.532  24.733  1.00  0.00     0.022 A 
BRANCH  64  67
ATOM     67  S   UNL A   1      50.460  25.637  26.953  1.00  0.00     0.127 S 
ATOM     68  O   UNL A   1      49.878  24.426  27.528  1.00  0.00    -0.237 OA
ATOM     69  O   UNL A   1      51.380  25.401  25.840  1.00  0.00    -0.237 OA
ATOM     70  O   UNL A   1      50.915  26.631  27.915  1.00  0.00    -0.744 OA
ENDBRANCH  64  67
ENDBRANCH  46  60
BRANCH  47  71
ATOM     71  C   UNL A   1      38.714  30.478  31.001  1.00  0.00     0.023 A 
ATOM     72  C   UNL A   1      38.643  30.217  32.383  1.00  0.00     0.012 A 
ATOM     73  C   UNL A   1      37.662  31.177  30.379  1.00  0.00     0.148 A 
ATOM     74  C   UNL A   1      37.533  30.619  33.126  1.00  0.00     0.002 A 
ATOM     75  C   UNL A   1      36.585  31.623  31.135  1.00  0.00     0.091 A 
ATOM     76  F   UNL A   1      37.738  31.398  29.059  1.00  0.00    -0.205 F 
ATOM     77  C   UNL A   1      36.509  31.332  32.505  1.00  0.00     0.022 A 
BRANCH  75  78
ATOM     78  S   UNL A   1      35.288  32.657  30.442  1.00  0.00     0.127 S 
ATOM     79  O   UNL A   1      36.024  33.872  30.102  1.00  0.00    -0.237 OA
ATOM     80  O   UNL A   1      34.848  31.862  29.296  1.00  0.00    -0.237 OA
ATOM     81  O   UNL A   1      34.292  32.792  31.495  1.00  0.00    -0.744 OA
ENDBRANCH  75  78
ENDBRANCH  47  71
BRANCH  59  82
ATOM     82  C   UNL A   1      44.769  33.527  29.305  1.00  0.00     0.023 A 
ATOM     83  C   UNL A   1      45.498  33.759  30.488  1.00  0.00     0.012 A 
ATOM     84  C   UNL A   1      44.652  34.558  28.351  1.00  0.00     0.148 A 
ATOM     85  C   UNL A   1      46.076  35.006  30.731  1.00  0.00     0.002 A 
ATOM     86  C   UNL A   1      45.270  35.782  28.579  1.00  0.00     0.091 A 
ATOM     87  F   UNL A   1      43.939  34.324  27.240  1.00  0.00    -0.205 F 
ATOM     88  C   UNL A   1      45.972  36.012  29.773  1.00  0.00     0.022 A 
BRANCH  86  89
ATOM     89  S   UNL A   1      45.269  37.103  27.361  1.00  0.00     0.127 S 
ATOM     90  O   UNL A   1      45.774  38.230  28.142  1.00  0.00    -0.237 OA
ATOM     91  O   UNL A   1      46.198  36.596  26.349  1.00  0.00    -0.237 OA
ATOM     92  O   UNL A   1      43.890  37.224  26.905  1.00  0.00    -0.744 OA
ENDBRANCH  86  89
ENDBRANCH  59  82
ENDBRANCH  33  34
ENDBRANCH  26  28
ENDBRANCH  25  26
ENDBRANCH  24  25
ENDBRANCH  23  24
ENDBRANCH  22  23
ENDBRANCH   1  22
TORSDOF 21
ENDMDL
MODEL 2
REMARK VINA RESULT:     -10.7      1.500      1.863
REMARK SMILES C[C@@H](C(=O)OCCOCCOC(=O)c1ccc(-c2c3nc(c(-c4cccc(S(=O)(=O)[O-])c4F)c4ccc([nH]4)c(-c4cccc(S(=O)(=O)[O-])c4F)c4nc(c(-c5cccc(S(=O)(=O)[O-])c5F)c5ccc2[nH]5)C=C4)C=C3)cc1)c1ccc(C[C@@H]2CCC[C@@H]2O)cc1
REMARK SMILES IDX 7 1 6 2 5 3 3 4 4 5 2 6 1 7 77 8 78 9 89 10 79 11 88 12
REMARK SMILES IDX 80 13 81 14 82 15 83 16 86 17 84 18 85 19 87 20 8 22 9 23
REMARK SMILES IDX 10 24 11 25 12 26 13 27 14 28 15 29 76 30 16 31 75 32 17 33
REMARK SMILES IDX 18 34 19 35 69 36 20 37 74 38 68 39 70 40 21 41 73 42 67 43
REMARK SMILES IDX 66 44 22 46 54 47 34 48 53 49 35 50 38 51 52 52 71 53 36 54
REMARK SMILES IDX 37 55 51 57 72 58 39 59 23 60 24 61 32 62 25 63 27 64 33 65
REMARK SMILES IDX 26 66 28 67 29 68 30 69 31 70 55 71 56 72 64 73 57 74 59 75
REMARK SMILES IDX 65 76 58 77 60 78 61 79 62 80 63 81 40 82 41 83 49 84 42 85
REMARK SMILES IDX 44 86 50 87 43 88 45 89 46 90 47 91 48 92
REMARK H PARENT 87 21 70 45 38 56
REMARK Flexibility Score: inf
ROOT
ATOM      1  C   UNL A   1      34.964  22.092  26.481  1.00  0.00     0.202 C 
ENDROOT
BRANCH   1   2
ATOM      2  C   UNL A   1      33.866  22.675  27.377  1.00  0.00     0.261 C 
BRANCH   2   3
ATOM      3  O   UNL A   1      32.700  22.989  26.605  1.00  0.00    -0.463 OA
BRANCH   3   4
ATOM      4  C   UNL A   1      32.701  24.209  26.003  1.00  0.00     0.313 C 
ATOM      5  O   UNL A   1      33.484  25.113  26.277  1.00  0.00    -0.252 OA
BRANCH   4   6
ATOM      6  C   UNL A   1      31.711  24.275  24.838  1.00  0.00     0.126 C 
ATOM      7  C   UNL A   1      31.989  23.197  23.780  1.00  0.00     0.025 C 
BRANCH   6   8
ATOM      8  C   UNL A   1      31.541  25.680  24.242  1.00  0.00    -0.034 A 
ATOM      9  C   UNL A   1      31.028  26.757  24.984  1.00  0.00     0.005 A 
ATOM     10  C   UNL A   1      31.802  25.903  22.881  1.00  0.00     0.005 A 
ATOM     11  C   UNL A   1      30.722  27.981  24.376  1.00  0.00     0.004 A 
ATOM     12  C   UNL A   1      31.490  27.123  22.273  1.00  0.00     0.004 A 
ATOM     13  C   UNL A   1      30.890  28.154  23.002  1.00  0.00    -0.048 A 
BRANCH  13  14
ATOM     14  C   UNL A   1      30.362  29.379  22.300  1.00  0.00     0.041 C 
BRANCH  14  15
ATOM     15  C   UNL A   1      28.970  29.903  22.734  1.00  0.00     0.022 C 
ATOM     16  C   UNL A   1      27.982  30.143  21.586  1.00  0.00     0.007 C 
ATOM     17  C   UNL A   1      28.911  31.232  23.497  1.00  0.00     0.117 C 
ATOM     18  C   UNL A   1      27.997  31.647  21.298  1.00  0.00     0.003 C 
ATOM     19  C   UNL A   1      28.797  32.302  22.420  1.00  0.00     0.032 C 
BRANCH  17  20
ATOM     20  O   UNL A   1      30.006  31.454  24.362  1.00  0.00    -0.393 OA
ATOM     21  H   UNL A   1      30.806  31.609  23.838  1.00  0.00     0.210 HD
ENDBRANCH  17  20
ENDBRANCH  14  15
ENDBRANCH  13  14
ENDBRANCH   6   8
ENDBRANCH   4   6
ENDBRANCH   3   4
ENDBRANCH   2   3
ENDBRANCH   1   2
BRANCH   1  22
ATOM     22  O   UNL A   1      34.617  20.932  25.722  1.00  0.00    -0.374 OA
BRANCH  22  23
ATOM     23  C   UNL A   1      35.525  20.511  24.701  1.00  0.00     0.202 C 
BRANCH  23  24
ATOM     24  C   UNL A   1      36.967  20.196  25.124  1.00  0.00     0.261 C 
BRANCH  24  25
ATOM     25  O   UNL A   1      37.773  21.376  25.298  1.00  0.00    -0.460 OA
BRANCH  25  26
ATOM     26  C   UNL A   1      38.945  21.172  25.946  1.00  0.00     0.338 C 
ATOM     27  O   UNL A   1      39.649  20.167  25.898  1.00  0.00    -0.246 OA
BRANCH  26  28
ATOM     28  C   UNL A   1      39.397  22.408  26.606  1.00  0.00     0.060 A 
ATOM     29  C   UNL A   1      38.778  23.606  26.228  1.00  0.00     0.016 A 
ATOM     30  C   UNL A   1      40.472  22.415  27.497  1.00  0.00     0.016 A 
ATOM     31  C   UNL A   1      39.262  24.824  26.702  1.00  0.00     0.010 A 
ATOM     32  C   UNL A   1      40.962  23.641  27.965  1.00  0.00     0.010 A 
ATOM     33  C   UNL A   1      40.384  24.852  27.540  1.00  0.00    -0.014 A 
BRANCH  33  34
ATOM     34  C   UNL A   1      41.028  26.151  27.853  1.00  0.00     0.031 A 
ATOM     35  C   UNL A   1      42.443  26.397  27.402  1.00  0.00     0.074 A 
ATOM     36  C   UNL A   1      40.356  27.108  28.518  1.00  0.00     0.049 A 
ATOM     37  N   UNL A   1      43.195  27.453  27.575  1.00  0.00    -0.248 NA
ATOM     38  C   UNL A   1      43.097  25.308  26.658  1.00  0.00     0.031 C 
ATOM     39  C   UNL A   1      38.983  26.991  29.005  1.00  0.00     0.029 A 
ATOM     40  N   UNL A   1      40.751  28.361  28.918  1.00  0.00    -0.354 N 
ATOM     41  C   UNL A   1      44.415  27.152  26.983  1.00  0.00     0.074 A 
ATOM     42  C   UNL A   1      44.310  25.807  26.459  1.00  0.00     0.031 C 
ATOM     43  C   UNL A   1      38.659  28.116  29.666  1.00  0.00     0.029 A 
ATOM     44  C   UNL A   1      39.805  29.022  29.666  1.00  0.00     0.049 A 
ATOM     45  H   UNL A   1      41.627  28.749  28.690  1.00  0.00     0.167 HD
ATOM     46  C   UNL A   1      45.519  27.929  26.868  1.00  0.00     0.034 A 
ATOM     47  C   UNL A   1      39.867  30.213  30.295  1.00  0.00     0.034 A 
ATOM     48  C   UNL A   1      45.617  29.272  27.371  1.00  0.00     0.049 A 
ATOM     49  C   UNL A   1      41.112  31.050  30.169  1.00  0.00     0.074 A 
ATOM     50  C   UNL A   1      46.678  30.154  27.267  1.00  0.00     0.029 A 
ATOM     51  N   UNL A   1      44.623  29.926  28.083  1.00  0.00    -0.354 N 
ATOM     52  N   UNL A   1      42.213  30.799  29.503  1.00  0.00    -0.248 NA
ATOM     53  C   UNL A   1      41.112  32.352  30.854  1.00  0.00     0.031 C 
ATOM     54  C   UNL A   1      46.333  31.334  27.934  1.00  0.00     0.029 A 
ATOM     55  C   UNL A   1      45.048  31.196  28.434  1.00  0.00     0.049 A 
ATOM     56  H   UNL A   1      43.744  29.543  28.306  1.00  0.00     0.167 HD
ATOM     57  C   UNL A   1      43.021  31.922  29.659  1.00  0.00     0.074 A 
ATOM     58  C   UNL A   1      42.273  32.863  30.465  1.00  0.00     0.031 C 
ATOM     59  C   UNL A   1      44.274  32.145  29.189  1.00  0.00     0.034 A 
BRANCH  46  60
ATOM     60  C   UNL A   1      46.703  27.355  26.137  1.00  0.00     0.023 A 
ATOM     61  C   UNL A   1      47.500  26.377  26.766  1.00  0.00     0.012 A 
ATOM     62  C   UNL A   1      46.995  27.737  24.813  1.00  0.00     0.148 A 
ATOM     63  C   UNL A   1      48.585  25.809  26.100  1.00  0.00     0.002 A 
ATOM     64  C   UNL A   1      48.053  27.137  24.141  1.00  0.00     0.091 A 
ATOM     65  F   UNL A   1      46.239  28.686  24.241  1.00  0.00    -0.205 F 
ATOM     66  C   UNL A   1      48.855  26.181  24.786  1.00  0.00     0.022 A 
BRANCH  64  67
ATOM     67  S   UNL A   1      48.436  27.496  22.423  1.00  0.00     0.127 S 
ATOM     68  O   UNL A   1      49.651  28.300  22.553  1.00  0.00    -0.237 OA
ATOM     69  O   UNL A   1      48.648  26.160  21.869  1.00  0.00    -0.237 OA
ATOM     70  O   UNL A   1      47.276  28.197  21.892  1.00  0.00    -0.744 OA
ENDBRANCH  64  67
ENDBRANCH  46  60
BRANCH  47  71
ATOM     71  C   UNL A   1      38.696  30.699  31.078  1.00  0.00     0.023 A 
ATOM     72  C   UNL A   1      38.654  30.495  32.470  1.00  0.00     0.012 A 
ATOM     73  C   UNL A   1      37.633  31.378  30.451  1.00  0.00     0.148 A 
ATOM     74  C   UNL A   1      37.563  30.934  33.220  1.00  0.00     0.002 A 
ATOM     75  C   UNL A   1      36.576  31.861  31.211  1.00  0.00     0.091 A 
ATOM     76  F   UNL A   1      37.681  31.543  29.121  1.00  0.00    -0.205 F 
ATOM     77  C   UNL A   1      36.529  31.627  32.594  1.00  0.00     0.022 A 
BRANCH  75  78
ATOM     78  S   UNL A   1      35.270  32.874  30.505  1.00  0.00     0.127 S 
ATOM     79  O   UNL A   1      36.011  34.051  30.061  1.00  0.00    -0.237 OA
ATOM     80  O   UNL A   1      34.771  32.016  29.430  1.00  0.00    -0.237 OA
ATOM     81  O   UNL A   1      34.318  33.093  31.586  1.00  0.00    -0.744 OA
ENDBRANCH  75  78
ENDBRANCH  47  71
BRANCH  59  82
ATOM     82  C   UNL A   1      44.914  33.473  29.504  1.00  0.00     0.023 A 
ATOM     83  C   UNL A   1      45.772  33.590  30.615  1.00  0.00     0.012 A 
ATOM     84  C   UNL A   1      44.728  34.582  28.654  1.00  0.00     0.148 A 
ATOM     85  C   UNL A   1      46.412  34.798  30.892  1.00  0.00     0.002 A 
ATOM     86  C   UNL A   1      45.406  35.768  28.910  1.00  0.00     0.091 A 
ATOM     87  F   UNL A   1      43.893  34.458  27.613  1.00  0.00    -0.205 F 
ATOM     88  C   UNL A   1      46.239  35.882  30.034  1.00  0.00     0.022 A 
BRANCH  86  89
ATOM     89  S   UNL A   1      45.316  37.185  27.808  1.00  0.00     0.127 S 
ATOM     90  O   UNL A   1      45.649  36.583  26.518  1.00  0.00    -0.237 OA
ATOM     91  O   UNL A   1      43.919  37.599  27.945  1.00  0.00    -0.237 OA
ATOM     92  O   UNL A   1      46.283  38.149  28.318  1.00  0.00    -0.744 OA
ENDBRANCH  86  89
ENDBRANCH  59  82
ENDBRANCH  33  34
ENDBRANCH  26  28
ENDBRANCH  25  26
ENDBRANCH  24  25
ENDBRANCH  23  24
ENDBRANCH  22  23
ENDBRANCH   1  22
TORSDOF 21
ENDMDL
MODEL 3
REMARK VINA RESULT:     -10.6      4.901      8.663
REMARK SMILES C[C@@H](C(=O)OCCOCCOC(=O)c1ccc(-c2c3nc(c(-c4cccc(S(=O)(=O)[O-])c4F)c4ccc([nH]4)c(-c4cccc(S(=O)(=O)[O-])c4F)c4nc(c(-c5cccc(S(=O)(=O)[O-])c5F)c5ccc2[nH]5)C=C4)C=C3)cc1)c1ccc(C[C@@H]2CCC[C@@H]2O)cc1
REMARK SMILES IDX 7 1 6 2 5 3 3 4 4 5 2 6 1 7 77 8 78 9 89 10 79 11 88 12
REMARK SMILES IDX 80 13 81 14 82 15 83 16 86 17 84 18 85 19 87 20 8 22 9 23
REMARK SMILES IDX 10 24 11 25 12 26 13 27 14 28 15 29 76 30 16 31 75 32 17 33
REMARK SMILES IDX 18 34 19 35 69 36 20 37 74 38 68 39 70 40 21 41 73 42 67 43
REMARK SMILES IDX 66 44 22 46 54 47 34 48 53 49 35 50 38 51 52 52 71 53 36 54
REMARK SMILES IDX 37 55 51 57 72 58 39 59 23 60 24 61 32 62 25 63 27 64 33 65
REMARK SMILES IDX 26 66 28 67 29 68 30 69 31 70 55 71 56 72 64 73 57 74 59 75
REMARK SMILES IDX 65 76 58 77 60 78 61 79 62 80 63 81 40 82 41 83 49 84 42 85
REMARK SMILES IDX 44 86 50 87 43 88 45 89 46 90 47 91 48 92
REMARK H PARENT 87 21 70 45 38 56
REMARK Flexibility Score: inf
ROOT
ATOM      1  C   UNL A   1      32.414  28.989  24.559  1.00  0.00     0.202 C 
ENDROOT
BRANCH   1   2
ATOM      2  C   UNL A   1      31.892  28.235  23.330  1.00  0.00     0.261 C 
BRANCH   2   3
ATOM      3  O   UNL A   1      31.547  26.888  23.676  1.00  0.00    -0.463 OA
BRANCH   3   4
ATOM      4  C   UNL A   1      32.566  25.987  23.630  1.00  0.00     0.313 C 
ATOM      5  O   UNL A   1      33.315  25.841  22.670  1.00  0.00    -0.252 OA
BRANCH   4   6
ATOM      6  C   UNL A   1      32.769  25.280  24.973  1.00  0.00     0.126 C 
ATOM      7  C   UNL A   1      33.900  25.914  25.796  1.00  0.00     0.025 C 
BRANCH   6   8
ATOM      8  C   UNL A   1      32.881  23.753  24.863  1.00  0.00    -0.034 A 
ATOM      9  C   UNL A   1      33.989  23.117  24.278  1.00  0.00     0.005 A 
ATOM     10  C   UNL A   1      31.808  22.939  25.260  1.00  0.00     0.005 A 
ATOM     11  C   UNL A   1      33.994  21.739  24.034  1.00  0.00     0.004 A 
ATOM     12  C   UNL A   1      31.811  21.563  25.010  1.00  0.00     0.004 A 
ATOM     13  C   UNL A   1      32.878  20.959  24.340  1.00  0.00    -0.048 A 
BRANCH  13  14
ATOM     14  C   UNL A   1      32.781  19.525  23.885  1.00  0.00     0.041 C 
BRANCH  14  15
ATOM     15  C   UNL A   1      33.790  18.517  24.491  1.00  0.00     0.022 C 
ATOM     16  C   UNL A   1      34.247  17.406  23.538  1.00  0.00     0.007 C 
ATOM     17  C   UNL A   1      33.352  17.723  25.729  1.00  0.00     0.117 C 
ATOM     18  C   UNL A   1      33.428  16.159  23.886  1.00  0.00     0.003 C 
ATOM     19  C   UNL A   1      32.681  16.471  25.179  1.00  0.00     0.032 C 
BRANCH  17  20
ATOM     20  O   UNL A   1      32.514  18.439  26.612  1.00  0.00    -0.393 OA
ATOM     21  H   UNL A   1      31.923  19.014  26.102  1.00  0.00     0.210 HD
ENDBRANCH  17  20
ENDBRANCH  14  15
ENDBRANCH  13  14
ENDBRANCH   6   8
ENDBRANCH   4   6
ENDBRANCH   3   4
ENDBRANCH   2   3
ENDBRANCH   1   2
BRANCH   1  22
ATOM     22  O   UNL A   1      31.432  29.430  25.499  1.00  0.00    -0.374 OA
BRANCH  22  23
ATOM     23  C   UNL A   1      30.942  30.766  25.369  1.00  0.00     0.202 C 
BRANCH  23  24
ATOM     24  C   UNL A   1      31.324  31.769  26.466  1.00  0.00     0.261 C 
BRANCH  24  25
ATOM     25  O   UNL A   1      32.547  31.424  27.142  1.00  0.00    -0.460 OA
BRANCH  25  26
ATOM     26  C   UNL A   1      33.357  32.474  27.422  1.00  0.00     0.338 C 
ATOM     27  O   UNL A   1      33.038  33.659  27.471  1.00  0.00    -0.246 OA
BRANCH  26  28
ATOM     28  C   UNL A   1      34.684  32.007  27.854  1.00  0.00     0.060 A 
ATOM     29  C   UNL A   1      34.806  30.662  28.228  1.00  0.00     0.016 A 
ATOM     30  C   UNL A   1      35.763  32.882  27.992  1.00  0.00     0.016 A 
ATOM     31  C   UNL A   1      35.994  30.197  28.788  1.00  0.00     0.010 A 
ATOM     32  C   UNL A   1      36.953  32.414  28.564  1.00  0.00     0.010 A 
ATOM     33  C   UNL A   1      37.061  31.080  28.999  1.00  0.00    -0.014 A 
BRANCH  33  34
ATOM     34  C   UNL A   1      38.229  30.635  29.798  1.00  0.00     0.031 A 
ATOM     35  C   UNL A   1      39.168  29.610  29.218  1.00  0.00     0.074 A 
ATOM     36  C   UNL A   1      38.462  31.147  31.019  1.00  0.00     0.049 A 
ATOM     37  N   UNL A   1      40.240  29.079  29.745  1.00  0.00    -0.248 NA
ATOM     38  C   UNL A   1      38.855  29.120  27.866  1.00  0.00     0.031 C 
ATOM     39  C   UNL A   1      37.628  32.145  31.688  1.00  0.00     0.029 A 
ATOM     40  N   UNL A   1      39.459  30.879  31.924  1.00  0.00    -0.354 N 
ATOM     41  C   UNL A   1      40.719  28.178  28.802  1.00  0.00     0.074 A 
ATOM     42  C   UNL A   1      39.812  28.222  27.676  1.00  0.00     0.031 C 
ATOM     43  C   UNL A   1      38.133  32.383  32.911  1.00  0.00     0.029 A 
ATOM     44  C   UNL A   1      39.309  31.542  33.119  1.00  0.00     0.049 A 
ATOM     45  H   UNL A   1      40.209  30.270  31.735  1.00  0.00     0.167 HD
ATOM     46  C   UNL A   1      41.825  27.397  28.859  1.00  0.00     0.034 A 
ATOM     47  C   UNL A   1      40.029  31.463  34.257  1.00  0.00     0.034 A 
ATOM     48  C   UNL A   1      42.737  27.367  29.969  1.00  0.00     0.049 A 
ATOM     49  C   UNL A   1      41.242  30.572  34.302  1.00  0.00     0.074 A 
ATOM     50  C   UNL A   1      43.907  26.640  30.102  1.00  0.00     0.029 A 
ATOM     51  N   UNL A   1      42.579  28.088  31.143  1.00  0.00    -0.354 N 
ATOM     52  N   UNL A   1      41.750  29.818  33.357  1.00  0.00    -0.248 NA
ATOM     53  C   UNL A   1      42.004  30.548  35.560  1.00  0.00     0.031 C 
ATOM     54  C   UNL A   1      44.446  26.905  31.366  1.00  0.00     0.029 A 
ATOM     55  C   UNL A   1      43.624  27.816  32.011  1.00  0.00     0.049 A 
ATOM     56  H   UNL A   1      41.834  28.702  31.332  1.00  0.00     0.167 HD
ATOM     57  C   UNL A   1      42.905  29.258  33.893  1.00  0.00     0.074 A 
ATOM     58  C   UNL A   1      43.034  29.776  35.238  1.00  0.00     0.031 C 
ATOM     59  C   UNL A   1      43.772  28.380  33.326  1.00  0.00     0.034 A 
BRANCH  46  60
ATOM     60  C   UNL A   1      42.129  26.532  27.665  1.00  0.00     0.023 A 
ATOM     61  C   UNL A   1      42.879  27.063  26.595  1.00  0.00     0.012 A 
ATOM     62  C   UNL A   1      41.727  25.183  27.623  1.00  0.00     0.148 A 
ATOM     63  C   UNL A   1      43.198  26.275  25.491  1.00  0.00     0.002 A 
ATOM     64  C   UNL A   1      42.084  24.391  26.537  1.00  0.00     0.091 A 
ATOM     65  F   UNL A   1      40.995  24.703  28.639  1.00  0.00    -0.205 F 
ATOM     66  C   UNL A   1      42.810  24.938  25.467  1.00  0.00     0.022 A 
BRANCH  64  67
ATOM     67  S   UNL A   1      41.694  22.640  26.447  1.00  0.00     0.127 S 
ATOM     68  O   UNL A   1      42.306  22.266  25.173  1.00  0.00    -0.237 OA
ATOM     69  O   UNL A   1      42.376  22.112  27.629  1.00  0.00    -0.237 OA
ATOM     70  O   UNL A   1      40.241  22.550  26.494  1.00  0.00    -0.744 OA
ENDBRANCH  64  67
ENDBRANCH  46  60
BRANCH  47  71
ATOM     71  C   UNL A   1      39.636  32.279  35.440  1.00  0.00     0.023 A 
ATOM     72  C   UNL A   1      38.842  31.703  36.451  1.00  0.00     0.012 A 
ATOM     73  C   UNL A   1      40.060  33.615  35.576  1.00  0.00     0.148 A 
ATOM     74  C   UNL A   1      38.456  32.452  37.563  1.00  0.00     0.002 A 
ATOM     75  C   UNL A   1      39.717  34.337  36.713  1.00  0.00     0.091 A 
ATOM     76  F   UNL A   1      40.796  34.151  34.593  1.00  0.00    -0.205 F 
ATOM     77  C   UNL A   1      38.902  33.765  37.700  1.00  0.00     0.022 A 
BRANCH  75  78
ATOM     78  S   UNL A   1      40.355  35.988  37.029  1.00  0.00     0.127 S 
ATOM     79  O   UNL A   1      39.726  36.761  35.963  1.00  0.00    -0.237 OA
ATOM     80  O   UNL A   1      39.842  36.257  38.372  1.00  0.00    -0.237 OA
ATOM     81  O   UNL A   1      41.805  35.866  36.955  1.00  0.00    -0.744 OA
ENDBRANCH  75  78
ENDBRANCH  47  71
BRANCH  59  82
ATOM     82  C   UNL A   1      44.961  27.944  34.143  1.00  0.00     0.023 A 
ATOM     83  C   UNL A   1      46.197  28.600  33.984  1.00  0.00     0.012 A 
ATOM     84  C   UNL A   1      44.833  26.938  35.122  1.00  0.00     0.148 A 
ATOM     85  C   UNL A   1      47.295  28.242  34.766  1.00  0.00     0.002 A 
ATOM     86  C   UNL A   1      45.918  26.619  35.930  1.00  0.00     0.091 A 
ATOM     87  F   UNL A   1      43.654  26.311  35.245  1.00  0.00    -0.205 F 
ATOM     88  C   UNL A   1      47.153  27.261  35.746  1.00  0.00     0.022 A 
BRANCH  86  89
ATOM     89  S   UNL A   1      45.800  25.437  37.278  1.00  0.00     0.127 S 
ATOM     90  O   UNL A   1      45.890  24.163  36.567  1.00  0.00    -0.237 OA
ATOM     91  O   UNL A   1      46.975  25.768  38.087  1.00  0.00    -0.237 OA
ATOM     92  O   UNL A   1      44.525  25.702  37.931  1.00  0.00    -0.744 OA
ENDBRANCH  86  89
ENDBRANCH  59  82
ENDBRANCH  33  34
ENDBRANCH  26  28
ENDBRANCH  25  26
ENDBRANCH  24  25
ENDBRANCH  23  24
ENDBRANCH  22  23
ENDBRANCH   1  22
TORSDOF 21
ENDMDL
