MODEL 1
REMARK VINA RESULT:     -11.4      0.000      0.000
REMARK SMILES Cc1ccccc1CCNc1ccc(C(=O)OCCOCCOC(=O)c2ccc(-c3c4nc(c(-c5cccc(S(=O)(=O)[O-])c5F)c5ccc([nH]5)c(-c5cccc(S(=O)(=O)[O-])c5F)c5nc(c(-c6cccc(S(=O)(=O)[O-])c6F)c6ccc3[nH]6)C=C5)C=C4)cc2)cc1N
REMARK SMILES IDX 19 1 18 2 17 3 15 4 16 5 14 6 11 7 12 8 90 9 13 10 89 11
REMARK SMILES IDX 10 12 9 14 8 15 7 16 1 17 2 18 3 19 4 20 6 21 5 22 91 23
REMARK SMILES IDX 20 26 21 27 22 28 23 29 24 30 25 31 26 32 27 33 88 34 28 35
REMARK SMILES IDX 87 36 29 37 30 38 31 39 81 40 32 41 86 42 80 43 82 44 33 45
REMARK SMILES IDX 85 46 79 47 78 48 34 50 66 51 46 52 65 53 47 54 50 55 64 56
REMARK SMILES IDX 83 57 48 58 49 59 63 61 84 62 51 63 35 64 36 65 44 66 37 67
REMARK SMILES IDX 39 68 45 69 38 70 40 71 41 72 42 73 43 74 67 75 68 76 76 77
REMARK SMILES IDX 69 78 71 79 77 80 70 81 72 82 73 83 74 84 75 85 52 86 53 87
REMARK SMILES IDX 61 88 54 89 56 90 62 91 55 92 57 93 58 94 59 95 60 96
REMARK H PARENT 10 13 91 24 91 25 82 49 50 60
REMARK Flexibility Score: inf
ROOT
ATOM      1  C   UNL A   1      33.110  28.889  26.409  1.00  0.00     0.202 C 
ENDROOT
BRANCH   1   2
ATOM      2  C   UNL A   1      32.314  29.812  25.536  1.00  0.00     0.261 C 
BRANCH   2   3
ATOM      3  O   UNL A   1      32.052  29.196  24.255  1.00  0.00    -0.460 OA
BRANCH   3   4
ATOM      4  C   UNL A   1      30.796  28.827  23.862  1.00  0.00     0.338 C 
ATOM      5  O   UNL A   1      29.796  29.478  23.692  1.00  0.00    -0.246 OA
BRANCH   4   6
ATOM      6  C   UNL A   1      30.879  27.424  23.447  1.00  0.00     0.062 A 
ATOM      7  C   UNL A   1      31.505  24.829  22.731  1.00  0.00     0.057 A 
ATOM      8  C   UNL A   1      31.114  25.136  24.042  1.00  0.00     0.029 A 
ATOM      9  C   UNL A   1      31.550  25.846  21.747  1.00  0.00     0.056 A 
ATOM     10  C   UNL A   1      30.767  26.417  24.395  1.00  0.00     0.018 A 
ATOM     11  C   UNL A   1      31.247  27.150  22.126  1.00  0.00     0.043 A 
BRANCH   7  12
ATOM     12  N   UNL A   1      31.709  23.485  22.433  1.00  0.00    -0.383 N 
ATOM     13  H   UNL A   1      31.039  22.958  21.939  1.00  0.00     0.160 HD
BRANCH  12  14
ATOM     14  C   UNL A   1      32.970  22.893  22.887  1.00  0.00     0.117 C 
BRANCH  14  15
ATOM     15  C   UNL A   1      34.106  23.924  22.890  1.00  0.00     0.057 C 
BRANCH  15  16
ATOM     16  C   UNL A   1      35.132  23.546  23.936  1.00  0.00    -0.043 A 
ATOM     17  C   UNL A   1      34.388  25.321  25.633  1.00  0.00     0.044 C 
ATOM     18  C   UNL A   1      35.336  24.272  25.120  1.00  0.00    -0.048 A 
ATOM     19  C   UNL A   1      36.472  23.984  25.897  1.00  0.00     0.004 A 
ATOM     20  C   UNL A   1      37.399  23.017  25.500  1.00  0.00     0.000 A 
ATOM     21  C   UNL A   1      36.022  22.507  23.612  1.00  0.00     0.004 A 
ATOM     22  C   UNL A   1      37.169  22.269  24.357  1.00  0.00     0.000 A 
ENDBRANCH  15  16
ENDBRANCH  14  15
ENDBRANCH  12  14
ENDBRANCH   7  12
BRANCH   9  23
ATOM     23  N   UNL A   1      32.030  25.633  20.456  1.00  0.00    -0.397 N 
ATOM     24  H   UNL A   1      31.540  25.040  19.840  1.00  0.00     0.156 HD
ATOM     25  H   UNL A   1      32.857  26.076  20.160  1.00  0.00     0.156 HD
ENDBRANCH   9  23
ENDBRANCH   4   6
ENDBRANCH   3   4
ENDBRANCH   2   3
ENDBRANCH   1   2
BRANCH   1  26
ATOM     26  O   UNL A   1      33.686  29.713  27.401  1.00  0.00    -0.374 OA
BRANCH  26  27
ATOM     27  C   UNL A   1      33.378  31.082  27.369  1.00  0.00     0.202 C 
BRANCH  27  28
ATOM     28  C   UNL A   1      34.558  31.902  27.877  1.00  0.00     0.261 C 
BRANCH  28  29
ATOM     29  O   UNL A   1      34.200  33.303  27.911  1.00  0.00    -0.460 OA
BRANCH  29  30
ATOM     30  C   UNL A   1      34.081  33.846  29.162  1.00  0.00     0.338 C 
ATOM     31  O   UNL A   1      33.107  34.481  29.532  1.00  0.00    -0.246 OA
BRANCH  30  32
ATOM     32  C   UNL A   1      35.380  33.753  29.903  1.00  0.00     0.060 A 
ATOM     33  C   UNL A   1      36.595  33.962  29.226  1.00  0.00     0.016 A 
ATOM     34  C   UNL A   1      35.393  33.137  31.150  1.00  0.00     0.016 A 
ATOM     35  C   UNL A   1      37.780  33.363  29.690  1.00  0.00     0.010 A 
ATOM     36  C   UNL A   1      36.538  32.465  31.538  1.00  0.00     0.010 A 
ATOM     37  C   UNL A   1      37.724  32.507  30.775  1.00  0.00    -0.014 A 
BRANCH  37  38
ATOM     38  C   UNL A   1      38.815  31.655  31.281  1.00  0.00     0.031 A 
ATOM     39  C   UNL A   1      38.998  30.376  30.558  1.00  0.00     0.074 A 
ATOM     40  C   UNL A   1      39.838  32.108  32.058  1.00  0.00     0.049 A 
ATOM     41  N   UNL A   1      39.978  29.569  30.752  1.00  0.00    -0.248 NA
ATOM     42  C   UNL A   1      38.051  29.882  29.555  1.00  0.00     0.031 C 
ATOM     43  C   UNL A   1      41.264  31.794  31.876  1.00  0.00     0.029 A 
ATOM     44  N   UNL A   1      39.870  33.016  33.117  1.00  0.00    -0.354 N 
ATOM     45  C   UNL A   1      40.005  28.710  29.684  1.00  0.00     0.074 A 
ATOM     46  C   UNL A   1      38.713  28.831  29.065  1.00  0.00     0.031 C 
ATOM     47  C   UNL A   1      41.991  32.333  32.869  1.00  0.00     0.029 A 
ATOM     48  C   UNL A   1      41.060  32.859  33.843  1.00  0.00     0.049 A 
ATOM     49  H   UNL A   1      39.163  33.670  33.325  1.00  0.00     0.167 HD
ATOM     50  C   UNL A   1      41.191  28.125  29.373  1.00  0.00     0.034 A 
ATOM     51  C   UNL A   1      41.041  32.619  35.183  1.00  0.00     0.034 A 
ATOM     52  C   UNL A   1      42.170  28.334  30.461  1.00  0.00     0.049 A 
ATOM     53  C   UNL A   1      41.579  31.238  35.451  1.00  0.00     0.074 A 
ATOM     54  C   UNL A   1      43.312  29.102  30.597  1.00  0.00     0.029 A 
ATOM     55  N   UNL A   1      41.835  27.914  31.753  1.00  0.00    -0.354 N 
ATOM     56  N   UNL A   1      41.882  30.412  34.489  1.00  0.00    -0.248 NA
ATOM     57  C   UNL A   1      41.876  30.673  36.760  1.00  0.00     0.031 C 
ATOM     58  C   UNL A   1      43.602  29.212  31.992  1.00  0.00     0.029 A 
ATOM     59  C   UNL A   1      42.675  28.467  32.708  1.00  0.00     0.049 A 
ATOM     60  H   UNL A   1      41.093  27.301  31.960  1.00  0.00     0.167 HD
ATOM     61  C   UNL A   1      42.294  29.219  34.975  1.00  0.00     0.074 A 
ATOM     62  C   UNL A   1      42.330  29.450  36.414  1.00  0.00     0.031 C 
ATOM     63  C   UNL A   1      42.505  28.157  34.138  1.00  0.00     0.034 A 
BRANCH  50  64
ATOM     64  C   UNL A   1      41.528  27.489  28.036  1.00  0.00     0.023 A 
ATOM     65  C   UNL A   1      41.476  28.328  26.904  1.00  0.00     0.012 A 
ATOM     66  C   UNL A   1      41.816  26.120  27.780  1.00  0.00     0.148 A 
ATOM     67  C   UNL A   1      41.709  27.856  25.606  1.00  0.00     0.002 A 
ATOM     68  C   UNL A   1      42.125  25.663  26.493  1.00  0.00     0.091 A 
ATOM     69  F   UNL A   1      41.701  25.211  28.751  1.00  0.00    -0.205 F 
ATOM     70  C   UNL A   1      42.059  26.528  25.401  1.00  0.00     0.022 A 
BRANCH  68  71
ATOM     71  S   UNL A   1      42.645  23.966  26.154  1.00  0.00     0.127 S 
ATOM     72  O   UNL A   1      41.398  23.220  26.330  1.00  0.00    -0.237 OA
ATOM     73  O   UNL A   1      43.108  24.052  24.769  1.00  0.00    -0.237 OA
ATOM     74  O   UNL A   1      43.692  23.656  27.119  1.00  0.00    -0.744 OA
ENDBRANCH  68  71
ENDBRANCH  50  64
BRANCH  51  75
ATOM     75  C   UNL A   1      39.931  33.366  35.858  1.00  0.00     0.023 A 
ATOM     76  C   UNL A   1      38.786  32.593  36.190  1.00  0.00     0.012 A 
ATOM     77  C   UNL A   1      40.215  34.510  36.629  1.00  0.00     0.148 A 
ATOM     78  C   UNL A   1      38.048  32.854  37.348  1.00  0.00     0.002 A 
ATOM     79  C   UNL A   1      39.502  34.735  37.809  1.00  0.00     0.091 A 
ATOM     80  F   UNL A   1      41.240  35.288  36.259  1.00  0.00    -0.205 F 
ATOM     81  C   UNL A   1      38.441  33.893  38.184  1.00  0.00     0.022 A 
BRANCH  79  82
ATOM     82  S   UNL A   1      40.021  35.963  39.018  1.00  0.00     0.127 S 
ATOM     83  O   UNL A   1      41.403  35.565  39.269  1.00  0.00    -0.237 OA
ATOM     84  O   UNL A   1      39.875  37.214  38.270  1.00  0.00    -0.237 OA
ATOM     85  O   UNL A   1      39.105  35.821  40.139  1.00  0.00    -0.744 OA
ENDBRANCH  79  82
ENDBRANCH  51  75
BRANCH  63  86
ATOM     86  C   UNL A   1      42.572  26.721  34.612  1.00  0.00     0.023 A 
ATOM     87  C   UNL A   1      41.522  26.125  35.337  1.00  0.00     0.012 A 
ATOM     88  C   UNL A   1      43.634  25.868  34.221  1.00  0.00     0.148 A 
ATOM     89  C   UNL A   1      41.559  24.790  35.743  1.00  0.00     0.002 A 
ATOM     90  C   UNL A   1      43.598  24.508  34.506  1.00  0.00     0.091 A 
ATOM     91  F   UNL A   1      44.702  26.366  33.585  1.00  0.00    -0.205 F 
ATOM     92  C   UNL A   1      42.588  23.974  35.306  1.00  0.00     0.022 A 
BRANCH  90  93
ATOM     93  S   UNL A   1      44.744  23.359  33.735  1.00  0.00     0.127 S 
ATOM     94  O   UNL A   1      44.452  23.554  32.317  1.00  0.00    -0.237 OA
ATOM     95  O   UNL A   1      46.041  23.885  34.169  1.00  0.00    -0.237 OA
ATOM     96  O   UNL A   1      44.416  22.051  34.283  1.00  0.00    -0.744 OA
ENDBRANCH  90  93
ENDBRANCH  63  86
ENDBRANCH  37  38
ENDBRANCH  30  32
ENDBRANCH  29  30
ENDBRANCH  28  29
ENDBRANCH  27  28
ENDBRANCH  26  27
ENDBRANCH   1  26
TORSDOF 22
ENDMDL
MODEL 2
REMARK VINA RESULT:     -10.7      1.829      2.396
REMARK SMILES Cc1ccccc1CCNc1ccc(C(=O)OCCOCCOC(=O)c2ccc(-c3c4nc(c(-c5cccc(S(=O)(=O)[O-])c5F)c5ccc([nH]5)c(-c5cccc(S(=O)(=O)[O-])c5F)c5nc(c(-c6cccc(S(=O)(=O)[O-])c6F)c6ccc3[nH]6)C=C5)C=C4)cc2)cc1N
REMARK SMILES IDX 19 1 18 2 17 3 15 4 16 5 14 6 11 7 12 8 90 9 13 10 89 11
REMARK SMILES IDX 10 12 9 14 8 15 7 16 1 17 2 18 3 19 4 20 6 21 5 22 91 23
REMARK SMILES IDX 20 26 21 27 22 28 23 29 24 30 25 31 26 32 27 33 88 34 28 35
REMARK SMILES IDX 87 36 29 37 30 38 31 39 81 40 32 41 86 42 80 43 82 44 33 45
REMARK SMILES IDX 85 46 79 47 78 48 34 50 66 51 46 52 65 53 47 54 50 55 64 56
REMARK SMILES IDX 83 57 48 58 49 59 63 61 84 62 51 63 35 64 36 65 44 66 37 67
REMARK SMILES IDX 39 68 45 69 38 70 40 71 41 72 42 73 43 74 67 75 68 76 76 77
REMARK SMILES IDX 69 78 71 79 77 80 70 81 72 82 73 83 74 84 75 85 52 86 53 87
REMARK SMILES IDX 61 88 54 89 56 90 62 91 55 92 57 93 58 94 59 95 60 96
REMARK H PARENT 10 13 91 24 91 25 82 49 50 60
REMARK Flexibility Score: inf
ROOT
ATOM      1  C   UNL A   1      31.860  30.451  26.658  1.00  0.00     0.202 C 
ENDROOT
BRANCH   1   2
ATOM      2  C   UNL A   1      32.218  29.933  25.297  1.00  0.00     0.261 C 
BRANCH   2   3
ATOM      3  O   UNL A   1      31.046  29.417  24.628  1.00  0.00    -0.460 OA
BRANCH   3   4
ATOM      4  C   UNL A   1      31.102  28.368  23.754  1.00  0.00     0.338 C 
ATOM      5  O   UNL A   1      31.144  28.343  22.550  1.00  0.00    -0.246 OA
BRANCH   4   6
ATOM      6  C   UNL A   1      31.320  27.161  24.556  1.00  0.00     0.062 A 
ATOM      7  C   UNL A   1      31.533  24.655  25.700  1.00  0.00     0.057 A 
ATOM      8  C   UNL A   1      32.606  25.211  24.991  1.00  0.00     0.029 A 
ATOM      9  C   UNL A   1      30.335  25.389  25.868  1.00  0.00     0.056 A 
ATOM     10  C   UNL A   1      32.520  26.471  24.450  1.00  0.00     0.018 A 
ATOM     11  C   UNL A   1      30.237  26.643  25.272  1.00  0.00     0.043 A 
BRANCH   7  12
ATOM     12  N   UNL A   1      31.757  23.431  26.324  1.00  0.00    -0.383 N 
ATOM     13  H   UNL A   1      32.293  23.362  27.148  1.00  0.00     0.160 HD
BRANCH  12  14
ATOM     14  C   UNL A   1      31.157  22.251  25.697  1.00  0.00     0.117 C 
BRANCH  14  15
ATOM     15  C   UNL A   1      32.219  21.205  25.332  1.00  0.00     0.057 C 
BRANCH  15  16
ATOM     16  C   UNL A   1      33.168  21.783  24.305  1.00  0.00    -0.043 A 
ATOM     17  C   UNL A   1      35.253  21.580  25.786  1.00  0.00     0.044 C 
ATOM     18  C   UNL A   1      34.517  22.071  24.571  1.00  0.00    -0.048 A 
ATOM     19  C   UNL A   1      35.238  22.831  23.633  1.00  0.00     0.004 A 
ATOM     20  C   UNL A   1      34.634  23.317  22.471  1.00  0.00     0.000 A 
ATOM     21  C   UNL A   1      32.612  22.194  23.081  1.00  0.00     0.004 A 
ATOM     22  C   UNL A   1      33.318  22.990  22.189  1.00  0.00     0.000 A 
ENDBRANCH  15  16
ENDBRANCH  14  15
ENDBRANCH  12  14
ENDBRANCH   7  12
BRANCH   9  23
ATOM     23  N   UNL A   1      29.194  24.858  26.467  1.00  0.00    -0.397 N 
ATOM     24  H   UNL A   1      28.537  25.456  26.891  1.00  0.00     0.156 HD
ATOM     25  H   UNL A   1      29.046  23.885  26.466  1.00  0.00     0.156 HD
ENDBRANCH   9  23
ENDBRANCH   4   6
ENDBRANCH   3   4
ENDBRANCH   2   3
ENDBRANCH   1   2
BRANCH   1  26
ATOM     26  O   UNL A   1      33.091  30.661  27.316  1.00  0.00    -0.374 OA
BRANCH  26  27
ATOM     27  C   UNL A   1      33.470  31.986  27.583  1.00  0.00     0.202 C 
BRANCH  27  28
ATOM     28  C   UNL A   1      34.476  32.029  28.727  1.00  0.00     0.261 C 
BRANCH  28  29
ATOM     29  O   UNL A   1      34.230  33.194  29.549  1.00  0.00    -0.460 OA
BRANCH  29  30
ATOM     30  C   UNL A   1      35.041  34.268  29.298  1.00  0.00     0.338 C 
ATOM     31  O   UNL A   1      34.750  35.167  28.525  1.00  0.00    -0.246 OA
BRANCH  30  32
ATOM     32  C   UNL A   1      36.393  34.062  29.907  1.00  0.00     0.060 A 
ATOM     33  C   UNL A   1      37.532  33.972  29.086  1.00  0.00     0.016 A 
ATOM     34  C   UNL A   1      36.471  33.629  31.227  1.00  0.00     0.016 A 
ATOM     35  C   UNL A   1      38.662  33.253  29.514  1.00  0.00     0.010 A 
ATOM     36  C   UNL A   1      37.542  32.835  31.595  1.00  0.00     0.010 A 
ATOM     37  C   UNL A   1      38.616  32.575  30.718  1.00  0.00    -0.014 A 
BRANCH  37  38
ATOM     38  C   UNL A   1      39.622  31.630  31.236  1.00  0.00     0.031 A 
ATOM     39  C   UNL A   1      39.627  30.301  30.584  1.00  0.00     0.074 A 
ATOM     40  C   UNL A   1      40.721  32.004  31.949  1.00  0.00     0.049 A 
ATOM     41  N   UNL A   1      40.516  29.398  30.792  1.00  0.00    -0.248 NA
ATOM     42  C   UNL A   1      38.589  29.866  29.646  1.00  0.00     0.031 C 
ATOM     43  C   UNL A   1      42.093  31.516  31.737  1.00  0.00     0.029 A 
ATOM     44  N   UNL A   1      40.900  32.959  32.951  1.00  0.00    -0.354 N 
ATOM     45  C   UNL A   1      40.400  28.484  29.777  1.00  0.00     0.074 A 
ATOM     46  C   UNL A   1      39.106  28.720  29.197  1.00  0.00     0.031 C 
ATOM     47  C   UNL A   1      42.917  32.021  32.670  1.00  0.00     0.029 A 
ATOM     48  C   UNL A   1      42.093  32.704  33.643  1.00  0.00     0.049 A 
ATOM     49  H   UNL A   1      40.282  33.701  33.143  1.00  0.00     0.167 HD
ATOM     50  C   UNL A   1      41.497  27.749  29.461  1.00  0.00     0.034 A 
ATOM     51  C   UNL A   1      42.102  32.543  34.994  1.00  0.00     0.034 A 
ATOM     52  C   UNL A   1      42.538  27.901  30.500  1.00  0.00     0.049 A 
ATOM     53  C   UNL A   1      42.489  31.126  35.326  1.00  0.00     0.074 A 
ATOM     54  C   UNL A   1      43.766  28.537  30.550  1.00  0.00     0.029 A 
ATOM     55  N   UNL A   1      42.211  27.595  31.826  1.00  0.00    -0.354 N 
ATOM     56  N   UNL A   1      42.656  30.218  34.404  1.00  0.00    -0.248 NA
ATOM     57  C   UNL A   1      42.773  30.602  36.654  1.00  0.00     0.031 C 
ATOM     58  C   UNL A   1      44.124  28.689  31.925  1.00  0.00     0.029 A 
ATOM     59  C   UNL A   1      43.148  28.099  32.716  1.00  0.00     0.049 A 
ATOM     60  H   UNL A   1      41.413  27.085  32.094  1.00  0.00     0.167 HD
ATOM     61  C   UNL A   1      42.948  29.014  34.947  1.00  0.00     0.074 A 
ATOM     62  C   UNL A   1      43.070  29.318  36.367  1.00  0.00     0.031 C 
ATOM     63  C   UNL A   1      43.002  27.890  34.167  1.00  0.00     0.034 A 
BRANCH  50  64
ATOM     64  C   UNL A   1      41.704  27.004  28.153  1.00  0.00     0.023 A 
ATOM     65  C   UNL A   1      41.525  27.746  26.967  1.00  0.00     0.012 A 
ATOM     66  C   UNL A   1      41.983  25.620  27.982  1.00  0.00     0.148 A 
ATOM     67  C   UNL A   1      41.630  27.168  25.696  1.00  0.00     0.002 A 
ATOM     68  C   UNL A   1      42.165  25.058  26.713  1.00  0.00     0.091 A 
ATOM     69  F   UNL A   1      41.980  24.794  29.032  1.00  0.00    -0.205 F 
ATOM     70  C   UNL A   1      41.975  25.830  25.566  1.00  0.00     0.022 A 
BRANCH  68  71
ATOM     71  S   UNL A   1      42.669  23.342  26.464  1.00  0.00     0.127 S 
ATOM     72  O   UNL A   1      43.839  23.234  27.336  1.00  0.00    -0.237 OA
ATOM     73  O   UNL A   1      41.496  22.600  26.929  1.00  0.00    -0.237 OA
ATOM     74  O   UNL A   1      42.943  23.197  25.039  1.00  0.00    -0.744 OA
ENDBRANCH  68  71
ENDBRANCH  50  64
BRANCH  51  75
ATOM     75  C   UNL A   1      41.114  33.450  35.662  1.00  0.00     0.023 A 
ATOM     76  C   UNL A   1      41.385  34.841  35.546  1.00  0.00     0.012 A 
ATOM     77  C   UNL A   1      39.778  33.039  35.833  1.00  0.00     0.148 A 
ATOM     78  C   UNL A   1      40.348  35.772  35.436  1.00  0.00     0.002 A 
ATOM     79  C   UNL A   1      38.749  33.969  35.674  1.00  0.00     0.091 A 
ATOM     80  F   UNL A   1      39.534  31.737  36.034  1.00  0.00    -0.205 F 
ATOM     81  C   UNL A   1      39.032  35.327  35.446  1.00  0.00     0.022 A 
BRANCH  79  82
ATOM     82  S   UNL A   1      37.025  33.472  35.534  1.00  0.00     0.127 S 
ATOM     83  O   UNL A   1      36.482  34.525  34.682  1.00  0.00    -0.237 OA
ATOM     84  O   UNL A   1      37.134  32.162  34.887  1.00  0.00    -0.237 OA
ATOM     85  O   UNL A   1      36.518  33.430  36.896  1.00  0.00    -0.744 OA
ENDBRANCH  79  82
ENDBRANCH  51  75
BRANCH  63  86
ATOM     86  C   UNL A   1      42.924  26.484  34.723  1.00  0.00     0.023 A 
ATOM     87  C   UNL A   1      41.705  25.911  35.134  1.00  0.00     0.012 A 
ATOM     88  C   UNL A   1      44.054  25.629  34.720  1.00  0.00     0.148 A 
ATOM     89  C   UNL A   1      41.618  24.602  35.610  1.00  0.00     0.002 A 
ATOM     90  C   UNL A   1      43.935  24.287  35.060  1.00  0.00     0.091 A 
ATOM     91  F   UNL A   1      45.263  26.110  34.405  1.00  0.00    -0.205 F 
ATOM     92  C   UNL A   1      42.731  23.781  35.551  1.00  0.00     0.022 A 
BRANCH  90  93
ATOM     93  S   UNL A   1      45.260  23.118  34.737  1.00  0.00     0.127 S 
ATOM     94  O   UNL A   1      46.156  23.366  35.864  1.00  0.00    -0.237 OA
ATOM     95  O   UNL A   1      44.554  21.835  34.789  1.00  0.00    -0.237 OA
ATOM     96  O   UNL A   1      45.775  23.464  33.420  1.00  0.00    -0.744 OA
ENDBRANCH  90  93
ENDBRANCH  63  86
ENDBRANCH  37  38
ENDBRANCH  30  32
ENDBRANCH  29  30
ENDBRANCH  28  29
ENDBRANCH  27  28
ENDBRANCH  26  27
ENDBRANCH   1  26
TORSDOF 22
ENDMDL
MODEL 3
REMARK VINA RESULT:     -10.6      1.582      2.364
REMARK SMILES Cc1ccccc1CCNc1ccc(C(=O)OCCOCCOC(=O)c2ccc(-c3c4nc(c(-c5cccc(S(=O)(=O)[O-])c5F)c5ccc([nH]5)c(-c5cccc(S(=O)(=O)[O-])c5F)c5nc(c(-c6cccc(S(=O)(=O)[O-])c6F)c6ccc3[nH]6)C=C5)C=C4)cc2)cc1N
REMARK SMILES IDX 19 1 18 2 17 3 15 4 16 5 14 6 11 7 12 8 90 9 13 10 89 11
REMARK SMILES IDX 10 12 9 14 8 15 7 16 1 17 2 18 3 19 4 20 6 21 5 22 91 23
REMARK SMILES IDX 20 26 21 27 22 28 23 29 24 30 25 31 26 32 27 33 88 34 28 35
REMARK SMILES IDX 87 36 29 37 30 38 31 39 81 40 32 41 86 42 80 43 82 44 33 45
REMARK SMILES IDX 85 46 79 47 78 48 34 50 66 51 46 52 65 53 47 54 50 55 64 56
REMARK SMILES IDX 83 57 48 58 49 59 63 61 84 62 51 63 35 64 36 65 44 66 37 67
REMARK SMILES IDX 39 68 45 69 38 70 40 71 41 72 42 73 43 74 67 75 68 76 76 77
REMARK SMILES IDX 69 78 71 79 77 80 70 81 72 82 73 83 74 84 75 85 52 86 53 87
REMARK SMILES IDX 61 88 54 89 56 90 62 91 55 92 57 93 58 94 59 95 60 96
REMARK H PARENT 10 13 91 24 91 25 82 49 50 60
REMARK Flexibility Score: inf
ROOT
ATOM      1  C   UNL A   1      32.313  28.989  26.492  1.00  0.00     0.202 C 
ENDROOT
BRANCH   1   2
ATOM      2  C   UNL A   1      32.819  29.096  25.085  1.00  0.00     0.261 C 
BRANCH   2   3
ATOM      3  O   UNL A   1      33.371  27.834  24.649  1.00  0.00    -0.460 OA
BRANCH   3   4
ATOM      4  C   UNL A   1      32.587  26.771  24.300  1.00  0.00     0.338 C 
ATOM      5  O   UNL A   1      31.900  26.578  23.328  1.00  0.00    -0.246 OA
BRANCH   4   6
ATOM      6  C   UNL A   1      32.865  25.705  25.267  1.00  0.00     0.062 A 
ATOM      7  C   UNL A   1      33.296  23.400  26.728  1.00  0.00     0.057 A 
ATOM      8  C   UNL A   1      34.365  24.072  26.121  1.00  0.00     0.029 A 
ATOM      9  C   UNL A   1      31.982  23.916  26.627  1.00  0.00     0.056 A 
ATOM     10  C   UNL A   1      34.163  25.238  25.423  1.00  0.00     0.018 A 
ATOM     11  C   UNL A   1      31.779  25.069  25.874  1.00  0.00     0.043 A 
BRANCH   7  12
ATOM     12  N   UNL A   1      33.612  22.302  27.523  1.00  0.00    -0.383 N 
ATOM     13  H   UNL A   1      33.797  22.398  28.486  1.00  0.00     0.160 HD
BRANCH  12  14
ATOM     14  C   UNL A   1      33.655  20.997  26.859  1.00  0.00     0.117 C 
BRANCH  14  15
ATOM     15  C   UNL A   1      34.480  21.050  25.567  1.00  0.00     0.057 C 
BRANCH  15  16
ATOM     16  C   UNL A   1      33.848  20.155  24.523  1.00  0.00    -0.043 A 
ATOM     17  C   UNL A   1      32.427  22.012  23.467  1.00  0.00     0.044 C 
ATOM     18  C   UNL A   1      32.820  20.574  23.663  1.00  0.00    -0.048 A 
ATOM     19  C   UNL A   1      32.138  19.602  22.910  1.00  0.00     0.004 A 
ATOM     20  C   UNL A   1      32.446  18.245  23.023  1.00  0.00     0.000 A 
ATOM     21  C   UNL A   1      34.210  18.797  24.541  1.00  0.00     0.004 A 
ATOM     22  C   UNL A   1      33.494  17.841  23.835  1.00  0.00     0.000 A 
ENDBRANCH  15  16
ENDBRANCH  14  15
ENDBRANCH  12  14
ENDBRANCH   7  12
BRANCH   9  23
ATOM     23  N   UNL A   1      30.861  23.245  27.113  1.00  0.00    -0.397 N 
ATOM     24  H   UNL A   1      30.973  22.478  27.721  1.00  0.00     0.156 HD
ATOM     25  H   UNL A   1      29.960  23.537  26.848  1.00  0.00     0.156 HD
ENDBRANCH   9  23
ENDBRANCH   4   6
ENDBRANCH   3   4
ENDBRANCH   2   3
ENDBRANCH   1   2
BRANCH   1  26
ATOM     26  O   UNL A   1      32.190  30.318  26.950  1.00  0.00    -0.374 OA
BRANCH  26  27
ATOM     27  C   UNL A   1      33.336  31.127  26.919  1.00  0.00     0.202 C 
BRANCH  27  28
ATOM     28  C   UNL A   1      33.041  32.489  27.537  1.00  0.00     0.261 C 
BRANCH  28  29
ATOM     29  O   UNL A   1      33.704  32.597  28.818  1.00  0.00    -0.460 OA
BRANCH  29  30
ATOM     30  C   UNL A   1      34.195  33.838  29.119  1.00  0.00     0.338 C 
ATOM     31  O   UNL A   1      33.632  34.878  28.818  1.00  0.00    -0.246 OA
BRANCH  30  32
ATOM     32  C   UNL A   1      35.595  33.739  29.643  1.00  0.00     0.060 A 
ATOM     33  C   UNL A   1      36.671  33.563  28.754  1.00  0.00     0.016 A 
ATOM     34  C   UNL A   1      35.783  33.483  30.997  1.00  0.00     0.016 A 
ATOM     35  C   UNL A   1      37.850  32.928  29.181  1.00  0.00     0.010 A 
ATOM     36  C   UNL A   1      36.901  32.764  31.381  1.00  0.00     0.010 A 
ATOM     37  C   UNL A   1      37.913  32.411  30.463  1.00  0.00    -0.014 A 
BRANCH  37  38
ATOM     38  C   UNL A   1      38.982  31.561  31.018  1.00  0.00     0.031 A 
ATOM     39  C   UNL A   1      39.162  30.258  30.338  1.00  0.00     0.074 A 
ATOM     40  C   UNL A   1      39.994  32.025  31.803  1.00  0.00     0.049 A 
ATOM     41  N   UNL A   1      40.127  29.445  30.578  1.00  0.00    -0.248 NA
ATOM     42  C   UNL A   1      38.230  29.745  29.332  1.00  0.00     0.031 C 
ATOM     43  C   UNL A   1      41.419  31.687  31.661  1.00  0.00     0.029 A 
ATOM     44  N   UNL A   1      40.016  32.965  32.834  1.00  0.00    -0.354 N 
ATOM     45  C   UNL A   1      40.164  28.554  29.538  1.00  0.00     0.074 A 
ATOM     46  C   UNL A   1      38.888  28.671  28.889  1.00  0.00     0.031 C 
ATOM     47  C   UNL A   1      42.132  32.247  32.652  1.00  0.00     0.029 A 
ATOM     48  C   UNL A   1      41.188  32.815  33.589  1.00  0.00     0.049 A 
ATOM     49  H   UNL A   1      39.314  33.634  33.006  1.00  0.00     0.167 HD
ATOM     50  C   UNL A   1      41.349  27.944  29.271  1.00  0.00     0.034 A 
ATOM     51  C   UNL A   1      41.138  32.617  34.935  1.00  0.00     0.034 A 
ATOM     52  C   UNL A   1      42.308  28.173  30.373  1.00  0.00     0.049 A 
ATOM     53  C   UNL A   1      41.651  31.239  35.257  1.00  0.00     0.074 A 
ATOM     54  C   UNL A   1      43.457  28.931  30.509  1.00  0.00     0.029 A 
ATOM     55  N   UNL A   1      41.940  27.798  31.669  1.00  0.00    -0.354 N 
ATOM     56  N   UNL A   1      41.964  30.379  34.327  1.00  0.00    -0.248 NA
ATOM     57  C   UNL A   1      41.913  30.710  36.588  1.00  0.00     0.031 C 
ATOM     58  C   UNL A   1      43.720  29.080  31.906  1.00  0.00     0.029 A 
ATOM     59  C   UNL A   1      42.768  28.370  32.624  1.00  0.00     0.049 A 
ATOM     60  H   UNL A   1      41.186  27.201  31.879  1.00  0.00     0.167 HD
ATOM     61  C   UNL A   1      42.349  29.197  34.859  1.00  0.00     0.074 A 
ATOM     62  C   UNL A   1      42.358  29.472  36.291  1.00  0.00     0.031 C 
ATOM     63  C   UNL A   1      42.564  28.107  34.059  1.00  0.00     0.034 A 
BRANCH  50  64
ATOM     64  C   UNL A   1      41.705  27.262  27.961  1.00  0.00     0.023 A 
ATOM     65  C   UNL A   1      41.784  28.086  26.819  1.00  0.00     0.012 A 
ATOM     66  C   UNL A   1      41.893  25.870  27.736  1.00  0.00     0.148 A 
ATOM     67  C   UNL A   1      42.048  27.576  25.541  1.00  0.00     0.002 A 
ATOM     68  C   UNL A   1      42.234  25.370  26.474  1.00  0.00     0.091 A 
ATOM     69  F   UNL A   1      41.651  24.988  28.709  1.00  0.00    -0.205 F 
ATOM     70  C   UNL A   1      42.299  26.222  25.370  1.00  0.00     0.022 A 
BRANCH  68  71
ATOM     71  S   UNL A   1      42.631  23.632  26.182  1.00  0.00     0.127 S 
ATOM     72  O   UNL A   1      41.327  22.987  26.340  1.00  0.00    -0.237 OA
ATOM     73  O   UNL A   1      43.133  23.652  24.808  1.00  0.00    -0.237 OA
ATOM     74  O   UNL A   1      43.628  23.265  27.180  1.00  0.00    -0.744 OA
ENDBRANCH  68  71
ENDBRANCH  50  64
BRANCH  51  75
ATOM     75  C   UNL A   1      40.025  33.399  35.563  1.00  0.00     0.023 A 
ATOM     76  C   UNL A   1      38.814  32.683  35.768  1.00  0.00     0.012 A 
ATOM     77  C   UNL A   1      40.314  34.486  36.411  1.00  0.00     0.148 A 
ATOM     78  C   UNL A   1      38.005  32.935  36.881  1.00  0.00     0.002 A 
ATOM     79  C   UNL A   1      39.526  34.699  37.545  1.00  0.00     0.091 A 
ATOM     80  F   UNL A   1      41.408  35.215  36.160  1.00  0.00    -0.205 F 
ATOM     81  C   UNL A   1      38.392  33.907  37.795  1.00  0.00     0.022 A 
BRANCH  79  82
ATOM     82  S   UNL A   1      40.020  35.834  38.851  1.00  0.00     0.127 S 
ATOM     83  O   UNL A   1      39.882  37.127  38.187  1.00  0.00    -0.237 OA
ATOM     84  O   UNL A   1      39.016  35.571  39.884  1.00  0.00    -0.237 OA
ATOM     85  O   UNL A   1      41.374  35.447  39.215  1.00  0.00    -0.744 OA
ENDBRANCH  79  82
ENDBRANCH  51  75
BRANCH  63  86
ATOM     86  C   UNL A   1      42.601  26.685  34.579  1.00  0.00     0.023 A 
ATOM     87  C   UNL A   1      41.534  26.130  35.309  1.00  0.00     0.012 A 
ATOM     88  C   UNL A   1      43.653  25.803  34.227  1.00  0.00     0.148 A 
ATOM     89  C   UNL A   1      41.543  24.807  35.757  1.00  0.00     0.002 A 
ATOM     90  C   UNL A   1      43.591  24.453  34.553  1.00  0.00     0.091 A 
ATOM     91  F   UNL A   1      44.736  26.263  33.589  1.00  0.00    -0.205 F 
ATOM     92  C   UNL A   1      42.563  23.961  35.358  1.00  0.00     0.022 A 
BRANCH  90  93
ATOM     93  S   UNL A   1      44.727  23.263  33.832  1.00  0.00     0.127 S 
ATOM     94  O   UNL A   1      46.017  23.756  34.308  1.00  0.00    -0.237 OA
ATOM     95  O   UNL A   1      44.287  22.009  34.449  1.00  0.00    -0.237 OA
ATOM     96  O   UNL A   1      44.505  23.331  32.395  1.00  0.00    -0.744 OA
ENDBRANCH  90  93
ENDBRANCH  63  86
ENDBRANCH  37  38
ENDBRANCH  30  32
ENDBRANCH  29  30
ENDBRANCH  28  29
ENDBRANCH  27  28
ENDBRANCH  26  27
ENDBRANCH   1  26
TORSDOF 22
ENDMDL
