MODEL 1
REMARK VINA RESULT:     -11.2      0.000      0.000
REMARK SMILES CC1=C(CC(=O)OCCOCCOC(=O)c2ccc(-c3c4nc(c(-c5cccc(S(=O)(=O)[O-])c5F)c5ccc([nH]5)c(-c5cccc(S(=O)(=O)[O-])c5F)c5nc(c(-c6cccc(S(=O)(=O)[O-])c6F)c6ccc3[nH]6)C=C5)C=C4)cc2)c2cc(F)ccc2/C1=C\c1ccc([S@@+](C)[O-])cc1
REMARK SMILES IDX 10 1 9 2 8 3 7 4 5 5 6 6 4 7 3 8 1 9 2 10 86 11 79 12 85 13
REMARK SMILES IDX 87 14 80 15 84 16 81 17 83 18 82 19 88 20 89 21 96 22 90 23
REMARK SMILES IDX 95 24 91 25 92 26 93 27 94 28 11 29 12 30 13 31 14 32 15 33
REMARK SMILES IDX 16 34 17 35 78 36 18 37 77 38 19 39 20 40 21 41 71 42 22 43
REMARK SMILES IDX 76 44 70 45 72 46 23 47 75 48 69 49 68 50 24 52 56 53 36 54
REMARK SMILES IDX 55 55 37 56 40 57 54 58 73 59 38 60 39 61 53 63 74 64 41 65
REMARK SMILES IDX 25 66 26 67 34 68 27 69 29 70 35 71 28 72 30 73 31 74 32 75
REMARK SMILES IDX 33 76 57 77 58 78 66 79 59 80 61 81 67 82 60 83 62 84 63 85
REMARK SMILES IDX 64 86 65 87 42 88 43 89 51 90 44 91 46 92 52 93 45 94 47 95
REMARK SMILES IDX 48 96 49 97 50 98
REMARK H PARENT 72 51 40 62
REMARK Flexibility Score: inf
ROOT
ATOM      1  O   UNL A   1      37.295  21.797  24.989  1.00  0.00    -0.374 OA
ENDROOT
BRANCH   1   2
ATOM      2  C   UNL A   1      36.075  21.507  25.666  1.00  0.00     0.202 C 
BRANCH   2   3
ATOM      3  C   UNL A   1      34.870  21.034  24.839  1.00  0.00     0.261 C 
BRANCH   3   4
ATOM      4  O   UNL A   1      33.961  22.081  24.435  1.00  0.00    -0.463 OA
BRANCH   4   5
ATOM      5  C   UNL A   1      32.699  21.671  24.136  1.00  0.00     0.310 C 
ATOM      6  O   UNL A   1      32.381  20.501  23.927  1.00  0.00    -0.252 OA
BRANCH   5   7
ATOM      7  C   UNL A   1      31.640  22.770  24.097  1.00  0.00     0.159 C 
BRANCH   7   8
ATOM      8  C   UNL A   1      31.964  24.158  24.550  1.00  0.00    -0.025 C 
ATOM      9  C   UNL A   1      31.738  23.914  27.080  1.00  0.00     0.045 C 
ATOM     10  C   UNL A   1      32.019  24.649  25.812  1.00  0.00    -0.039 C 
ATOM     11  C   UNL A   1      32.455  26.058  25.787  1.00  0.00    -0.014 C 
ATOM     12  C   UNL A   1      32.454  25.215  23.645  1.00  0.00    -0.011 A 
ATOM     13  C   UNL A   1      32.710  26.393  24.370  1.00  0.00    -0.010 A 
ATOM     14  C   UNL A   1      32.603  26.834  26.881  1.00  0.00     0.017 C 
ATOM     15  C   UNL A   1      32.693  25.167  22.276  1.00  0.00     0.048 A 
ATOM     16  C   UNL A   1      33.136  27.545  23.717  1.00  0.00     0.012 A 
ATOM     17  C   UNL A   1      33.099  26.334  21.632  1.00  0.00     0.123 A 
ATOM     18  C   UNL A   1      33.303  27.521  22.332  1.00  0.00     0.040 A 
ATOM     19  F   UNL A   1      33.251  26.328  20.300  1.00  0.00    -0.207 F 
BRANCH  14  20
ATOM     20  C   UNL A   1      33.040  28.233  26.874  1.00  0.00    -0.025 A 
ATOM     21  C   UNL A   1      34.405  28.540  26.853  1.00  0.00     0.013 A 
ATOM     22  C   UNL A   1      32.108  29.264  27.019  1.00  0.00     0.013 A 
ATOM     23  C   UNL A   1      34.839  29.846  27.111  1.00  0.00     0.061 A 
ATOM     24  C   UNL A   1      32.542  30.574  27.252  1.00  0.00     0.061 A 
ATOM     25  C   UNL A   1      33.910  30.866  27.345  1.00  0.00     0.152 A 
BRANCH  25  26
ATOM     26  S   UNL A   1      34.439  32.483  27.965  1.00  0.00    -0.018 S 
ATOM     27  C   UNL A   1      34.450  32.155  29.737  1.00  0.00     0.346 C 
ATOM     28  O   UNL A   1      35.923  32.700  27.495  1.00  0.00    -0.612 OA
ENDBRANCH  25  26
ENDBRANCH  14  20
ENDBRANCH   7   8
ENDBRANCH   5   7
ENDBRANCH   4   5
ENDBRANCH   3   4
ENDBRANCH   2   3
ENDBRANCH   1   2
BRANCH   1  29
ATOM     29  C   UNL A   1      38.513  21.617  25.702  1.00  0.00     0.202 C 
BRANCH  29  30
ATOM     30  C   UNL A   1      39.154  20.223  25.720  1.00  0.00     0.261 C 
BRANCH  30  31
ATOM     31  O   UNL A   1      40.082  20.020  26.785  1.00  0.00    -0.460 OA
BRANCH  31  32
ATOM     32  C   UNL A   1      41.355  19.814  26.371  1.00  0.00     0.338 C 
ATOM     33  O   UNL A   1      41.792  18.857  25.749  1.00  0.00    -0.246 OA
BRANCH  32  34
ATOM     34  C   UNL A   1      42.140  21.023  26.643  1.00  0.00     0.060 A 
ATOM     35  C   UNL A   1      42.615  21.820  25.601  1.00  0.00     0.016 A 
ATOM     36  C   UNL A   1      42.355  21.373  27.981  1.00  0.00     0.016 A 
ATOM     37  C   UNL A   1      43.277  23.006  25.909  1.00  0.00     0.010 A 
ATOM     38  C   UNL A   1      43.008  22.561  28.286  1.00  0.00     0.010 A 
ATOM     39  C   UNL A   1      43.446  23.398  27.250  1.00  0.00    -0.014 A 
BRANCH  39  40
ATOM     40  C   UNL A   1      43.920  24.765  27.562  1.00  0.00     0.031 A 
ATOM     41  C   UNL A   1      45.365  25.135  27.465  1.00  0.00     0.074 A 
ATOM     42  C   UNL A   1      43.004  25.659  27.985  1.00  0.00     0.049 A 
ATOM     43  N   UNL A   1      45.913  26.309  27.631  1.00  0.00    -0.248 NA
ATOM     44  C   UNL A   1      46.322  24.061  27.154  1.00  0.00     0.031 C 
ATOM     45  C   UNL A   1      41.584  25.365  28.201  1.00  0.00     0.029 A 
ATOM     46  N   UNL A   1      43.122  26.983  28.310  1.00  0.00    -0.354 N 
ATOM     47  C   UNL A   1      47.277  26.120  27.455  1.00  0.00     0.074 A 
ATOM     48  C   UNL A   1      47.479  24.713  27.188  1.00  0.00     0.031 C 
ATOM     49  C   UNL A   1      40.957  26.484  28.588  1.00  0.00     0.029 A 
ATOM     50  C   UNL A   1      41.931  27.567  28.673  1.00  0.00     0.049 A 
ATOM     51  H   UNL A   1      43.977  27.471  28.286  1.00  0.00     0.167 HD
ATOM     52  C   UNL A   1      48.260  27.048  27.492  1.00  0.00     0.034 A 
ATOM     53  C   UNL A   1      41.650  28.835  29.027  1.00  0.00     0.034 A 
ATOM     54  C   UNL A   1      48.036  28.445  27.744  1.00  0.00     0.049 A 
ATOM     55  C   UNL A   1      42.756  29.849  29.030  1.00  0.00     0.074 A 
ATOM     56  C   UNL A   1      48.960  29.474  27.726  1.00  0.00     0.029 A 
ATOM     57  N   UNL A   1      46.813  29.006  28.072  1.00  0.00    -0.354 N 
ATOM     58  N   UNL A   1      44.017  29.680  28.717  1.00  0.00    -0.248 NA
ATOM     59  C   UNL A   1      42.405  31.226  29.404  1.00  0.00     0.031 C 
ATOM     60  C   UNL A   1      48.299  30.656  28.066  1.00  0.00     0.029 A 
ATOM     61  C   UNL A   1      46.958  30.366  28.268  1.00  0.00     0.049 A 
ATOM     62  H   UNL A   1      45.966  28.510  28.152  1.00  0.00     0.167 HD
ATOM     63  C   UNL A   1      44.608  30.930  28.832  1.00  0.00     0.074 A 
ATOM     64  C   UNL A   1      43.565  31.850  29.239  1.00  0.00     0.031 C 
ATOM     65  C   UNL A   1      45.899  31.276  28.627  1.00  0.00     0.034 A 
BRANCH  52  66
ATOM     66  C   UNL A   1      49.666  26.613  27.192  1.00  0.00     0.023 A 
ATOM     67  C   UNL A   1      50.004  26.256  25.871  1.00  0.00     0.012 A 
ATOM     68  C   UNL A   1      50.674  26.687  28.172  1.00  0.00     0.148 A 
ATOM     69  C   UNL A   1      51.325  25.976  25.530  1.00  0.00     0.002 A 
ATOM     70  C   UNL A   1      51.993  26.433  27.819  1.00  0.00     0.091 A 
ATOM     71  F   UNL A   1      50.324  27.023  29.422  1.00  0.00    -0.205 F 
ATOM     72  C   UNL A   1      52.320  26.076  26.500  1.00  0.00     0.022 A 
BRANCH  70  73
ATOM     73  S   UNL A   1      53.359  26.581  28.976  1.00  0.00     0.127 S 
ATOM     74  O   UNL A   1      52.836  25.863  30.139  1.00  0.00    -0.237 OA
ATOM     75  O   UNL A   1      54.436  25.892  28.267  1.00  0.00    -0.237 OA
ATOM     76  O   UNL A   1      53.568  28.008  29.176  1.00  0.00    -0.744 OA
ENDBRANCH  70  73
ENDBRANCH  52  66
BRANCH  53  77
ATOM     77  C   UNL A   1      40.242  29.207  29.321  1.00  0.00     0.023 A 
ATOM     78  C   UNL A   1      39.366  29.482  28.254  1.00  0.00     0.012 A 
ATOM     79  C   UNL A   1      39.744  29.188  30.638  1.00  0.00     0.148 A 
ATOM     80  C   UNL A   1      38.016  29.736  28.494  1.00  0.00     0.002 A 
ATOM     81  C   UNL A   1      38.391  29.405  30.867  1.00  0.00     0.091 A 
ATOM     82  F   UNL A   1      40.600  28.914  31.632  1.00  0.00    -0.205 F 
ATOM     83  C   UNL A   1      37.527  29.687  29.797  1.00  0.00     0.022 A 
BRANCH  81  84
ATOM     84  S   UNL A   1      37.648  29.263  32.495  1.00  0.00     0.127 S 
ATOM     85  O   UNL A   1      38.472  30.181  33.279  1.00  0.00    -0.237 OA
ATOM     86  O   UNL A   1      36.284  29.723  32.240  1.00  0.00    -0.237 OA
ATOM     87  O   UNL A   1      37.758  27.858  32.862  1.00  0.00    -0.744 OA
ENDBRANCH  81  84
ENDBRANCH  53  77
BRANCH  65  88
ATOM     88  C   UNL A   1      46.293  32.714  28.808  1.00  0.00     0.023 A 
ATOM     89  C   UNL A   1      46.751  33.151  30.064  1.00  0.00     0.012 A 
ATOM     90  C   UNL A   1      46.389  33.565  27.690  1.00  0.00     0.148 A 
ATOM     91  C   UNL A   1      47.314  34.419  30.203  1.00  0.00     0.002 A 
ATOM     92  C   UNL A   1      46.982  34.812  27.828  1.00  0.00     0.091 A 
ATOM     93  F   UNL A   1      45.943  33.116  26.508  1.00  0.00    -0.205 F 
ATOM     94  C   UNL A   1      47.444  35.241  29.084  1.00  0.00     0.022 A 
BRANCH  92  95
ATOM     95  S   UNL A   1      47.268  35.909  26.436  1.00  0.00     0.127 S 
ATOM     96  O   UNL A   1      46.004  36.642  26.369  1.00  0.00    -0.237 OA
ATOM     97  O   UNL A   1      48.409  36.698  26.896  1.00  0.00    -0.237 OA
ATOM     98  O   UNL A   1      47.538  35.050  25.290  1.00  0.00    -0.744 OA
ENDBRANCH  92  95
ENDBRANCH  65  88
ENDBRANCH  39  40
ENDBRANCH  32  34
ENDBRANCH  31  32
ENDBRANCH  30  31
ENDBRANCH  29  30
ENDBRANCH   1  29
TORSDOF 20
ENDMDL
MODEL 2
REMARK VINA RESULT:     -11.1      2.062      7.545
REMARK SMILES CC1=C(CC(=O)OCCOCCOC(=O)c2ccc(-c3c4nc(c(-c5cccc(S(=O)(=O)[O-])c5F)c5ccc([nH]5)c(-c5cccc(S(=O)(=O)[O-])c5F)c5nc(c(-c6cccc(S(=O)(=O)[O-])c6F)c6ccc3[nH]6)C=C5)C=C4)cc2)c2cc(F)ccc2/C1=C\c1ccc([S@@+](C)[O-])cc1
REMARK SMILES IDX 10 1 9 2 8 3 7 4 5 5 6 6 4 7 3 8 1 9 2 10 86 11 79 12 85 13
REMARK SMILES IDX 87 14 80 15 84 16 81 17 83 18 82 19 88 20 89 21 96 22 90 23
REMARK SMILES IDX 95 24 91 25 92 26 93 27 94 28 11 29 12 30 13 31 14 32 15 33
REMARK SMILES IDX 16 34 17 35 78 36 18 37 77 38 19 39 20 40 21 41 71 42 22 43
REMARK SMILES IDX 76 44 70 45 72 46 23 47 75 48 69 49 68 50 24 52 56 53 36 54
REMARK SMILES IDX 55 55 37 56 40 57 54 58 73 59 38 60 39 61 53 63 74 64 41 65
REMARK SMILES IDX 25 66 26 67 34 68 27 69 29 70 35 71 28 72 30 73 31 74 32 75
REMARK SMILES IDX 33 76 57 77 58 78 66 79 59 80 61 81 67 82 60 83 62 84 63 85
REMARK SMILES IDX 64 86 65 87 42 88 43 89 51 90 44 91 46 92 52 93 45 94 47 95
REMARK SMILES IDX 48 96 49 97 50 98
REMARK H PARENT 72 51 40 62
REMARK Flexibility Score: inf
ROOT
ATOM      1  O   UNL A   1      37.374  21.895  25.184  1.00  0.00    -0.374 OA
ENDROOT
BRANCH   1   2
ATOM      2  C   UNL A   1      36.253  21.221  25.751  1.00  0.00     0.202 C 
BRANCH   2   3
ATOM      3  C   UNL A   1      35.110  20.785  24.822  1.00  0.00     0.261 C 
BRANCH   3   4
ATOM      4  O   UNL A   1      34.125  21.805  24.550  1.00  0.00    -0.463 OA
BRANCH   4   5
ATOM      5  C   UNL A   1      32.905  21.344  24.164  1.00  0.00     0.310 C 
ATOM      6  O   UNL A   1      32.677  20.184  23.824  1.00  0.00    -0.252 OA
BRANCH   5   7
ATOM      7  C   UNL A   1      31.772  22.367  24.200  1.00  0.00     0.159 C 
BRANCH   7   8
ATOM      8  C   UNL A   1      32.032  23.779  24.617  1.00  0.00    -0.025 C 
ATOM      9  C   UNL A   1      31.929  23.568  27.158  1.00  0.00     0.045 C 
ATOM     10  C   UNL A   1      32.111  24.296  25.868  1.00  0.00    -0.039 C 
ATOM     11  C   UNL A   1      32.462  25.727  25.802  1.00  0.00    -0.014 C 
ATOM     12  C   UNL A   1      32.420  24.847  23.676  1.00  0.00    -0.011 A 
ATOM     13  C   UNL A   1      32.637  26.051  24.371  1.00  0.00    -0.010 A 
ATOM     14  C   UNL A   1      32.610  26.529  26.877  1.00  0.00     0.017 C 
ATOM     15  C   UNL A   1      32.602  24.788  22.299  1.00  0.00     0.048 A 
ATOM     16  C   UNL A   1      32.965  27.213  23.682  1.00  0.00     0.012 A 
ATOM     17  C   UNL A   1      32.912  25.965  21.619  1.00  0.00     0.123 A 
ATOM     18  C   UNL A   1      33.074  27.175  22.291  1.00  0.00     0.040 A 
ATOM     19  F   UNL A   1      33.006  25.944  20.283  1.00  0.00    -0.207 F 
BRANCH  14  20
ATOM     20  C   UNL A   1      32.963  27.951  26.829  1.00  0.00    -0.025 A 
ATOM     21  C   UNL A   1      34.308  28.338  26.812  1.00  0.00     0.013 A 
ATOM     22  C   UNL A   1      31.969  28.929  26.932  1.00  0.00     0.013 A 
ATOM     23  C   UNL A   1      34.660  29.675  27.032  1.00  0.00     0.061 A 
ATOM     24  C   UNL A   1      32.322  30.268  27.127  1.00  0.00     0.061 A 
ATOM     25  C   UNL A   1      33.669  30.645  27.224  1.00  0.00     0.152 A 
BRANCH  25  26
ATOM     26  S   UNL A   1      34.094  32.309  27.797  1.00  0.00    -0.018 S 
ATOM     27  C   UNL A   1      32.524  33.151  27.517  1.00  0.00     0.346 C 
ATOM     28  O   UNL A   1      34.336  32.222  29.347  1.00  0.00    -0.612 OA
ENDBRANCH  25  26
ENDBRANCH  14  20
ENDBRANCH   7   8
ENDBRANCH   5   7
ENDBRANCH   4   5
ENDBRANCH   3   4
ENDBRANCH   2   3
ENDBRANCH   1   2
BRANCH   1  29
ATOM     29  C   UNL A   1      38.656  21.650  25.749  1.00  0.00     0.202 C 
BRANCH  29  30
ATOM     30  C   UNL A   1      39.225  20.227  25.690  1.00  0.00     0.261 C 
BRANCH  30  31
ATOM     31  O   UNL A   1      40.147  19.921  26.735  1.00  0.00    -0.460 OA
BRANCH  31  32
ATOM     32  C   UNL A   1      41.421  19.751  26.309  1.00  0.00     0.338 C 
ATOM     33  O   UNL A   1      41.895  18.779  25.741  1.00  0.00    -0.246 OA
BRANCH  32  34
ATOM     34  C   UNL A   1      42.149  21.012  26.489  1.00  0.00     0.060 A 
ATOM     35  C   UNL A   1      42.518  21.791  25.390  1.00  0.00     0.016 A 
ATOM     36  C   UNL A   1      42.420  21.428  27.797  1.00  0.00     0.016 A 
ATOM     37  C   UNL A   1      43.126  23.023  25.613  1.00  0.00     0.010 A 
ATOM     38  C   UNL A   1      43.020  22.662  28.017  1.00  0.00     0.010 A 
ATOM     39  C   UNL A   1      43.349  23.478  26.927  1.00  0.00    -0.014 A 
BRANCH  39  40
ATOM     40  C   UNL A   1      43.760  24.881  27.157  1.00  0.00     0.031 A 
ATOM     41  C   UNL A   1      42.790  25.913  27.638  1.00  0.00     0.074 A 
ATOM     42  C   UNL A   1      45.035  25.210  26.873  1.00  0.00     0.049 A 
ATOM     43  N   UNL A   1      43.025  27.158  27.958  1.00  0.00    -0.248 NA
ATOM     44  C   UNL A   1      41.381  25.512  27.770  1.00  0.00     0.031 C 
ATOM     45  C   UNL A   1      46.032  24.293  26.311  1.00  0.00     0.029 A 
ATOM     46  N   UNL A   1      45.712  26.393  27.011  1.00  0.00    -0.354 N 
ATOM     47  C   UNL A   1      41.797  27.695  28.320  1.00  0.00     0.074 A 
ATOM     48  C   UNL A   1      40.812  26.646  28.163  1.00  0.00     0.031 C 
ATOM     49  C   UNL A   1      47.200  24.938  26.186  1.00  0.00     0.029 A 
ATOM     50  C   UNL A   1      47.031  26.316  26.632  1.00  0.00     0.049 A 
ATOM     51  H   UNL A   1      45.295  27.218  27.349  1.00  0.00     0.167 HD
ATOM     52  C   UNL A   1      41.530  28.943  28.764  1.00  0.00     0.034 A 
ATOM     53  C   UNL A   1      48.003  27.248  26.651  1.00  0.00     0.034 A 
ATOM     54  C   UNL A   1      42.526  29.967  28.929  1.00  0.00     0.049 A 
ATOM     55  C   UNL A   1      47.685  28.616  27.177  1.00  0.00     0.074 A 
ATOM     56  C   UNL A   1      42.365  31.240  29.445  1.00  0.00     0.029 A 
ATOM     57  N   UNL A   1      43.858  29.842  28.569  1.00  0.00    -0.354 N 
ATOM     58  N   UNL A   1      46.548  29.062  27.653  1.00  0.00    -0.248 NA
ATOM     59  C   UNL A   1      48.776  29.600  27.197  1.00  0.00     0.031 C 
ATOM     60  C   UNL A   1      43.596  31.895  29.377  1.00  0.00     0.029 A 
ATOM     61  C   UNL A   1      44.529  31.019  28.844  1.00  0.00     0.049 A 
ATOM     62  H   UNL A   1      44.265  29.037  28.178  1.00  0.00     0.167 HD
ATOM     63  C   UNL A   1      46.790  30.369  28.052  1.00  0.00     0.074 A 
ATOM     64  C   UNL A   1      48.184  30.643  27.767  1.00  0.00     0.031 C 
ATOM     65  C   UNL A   1      45.929  31.259  28.596  1.00  0.00     0.034 A 
BRANCH  52  66
ATOM     66  C   UNL A   1      40.123  29.273  29.173  1.00  0.00     0.023 A 
ATOM     67  C   UNL A   1      39.157  29.506  28.172  1.00  0.00     0.012 A 
ATOM     68  C   UNL A   1      39.726  29.218  30.522  1.00  0.00     0.148 A 
ATOM     69  C   UNL A   1      37.817  29.683  28.510  1.00  0.00     0.002 A 
ATOM     70  C   UNL A   1      38.384  29.368  30.849  1.00  0.00     0.091 A 
ATOM     71  F   UNL A   1      40.665  29.000  31.454  1.00  0.00    -0.205 F 
ATOM     72  C   UNL A   1      37.429  29.603  29.845  1.00  0.00     0.022 A 
BRANCH  70  73
ATOM     73  S   UNL A   1      37.769  29.234  32.531  1.00  0.00     0.127 S 
ATOM     74  O   UNL A   1      38.705  30.093  33.255  1.00  0.00    -0.237 OA
ATOM     75  O   UNL A   1      36.416  29.774  32.405  1.00  0.00    -0.237 OA
ATOM     76  O   UNL A   1      37.837  27.821  32.876  1.00  0.00    -0.744 OA
ENDBRANCH  70  73
ENDBRANCH  52  66
BRANCH  53  77
ATOM     77  C   UNL A   1      49.376  26.868  26.228  1.00  0.00     0.023 A 
ATOM     78  C   UNL A   1      50.144  26.030  27.058  1.00  0.00     0.012 A 
ATOM     79  C   UNL A   1      49.880  27.246  24.968  1.00  0.00     0.148 A 
ATOM     80  C   UNL A   1      51.396  25.577  26.642  1.00  0.00     0.002 A 
ATOM     81  C   UNL A   1      51.111  26.760  24.544  1.00  0.00     0.091 A 
ATOM     82  F   UNL A   1      49.122  28.037  24.196  1.00  0.00    -0.205 F 
ATOM     83  C   UNL A   1      51.874  25.932  25.383  1.00  0.00     0.022 A 
BRANCH  81  84
ATOM     84  S   UNL A   1      51.766  27.078  22.904  1.00  0.00     0.127 S 
ATOM     85  O   UNL A   1      52.061  28.507  22.973  1.00  0.00    -0.237 OA
ATOM     86  O   UNL A   1      52.940  26.207  22.879  1.00  0.00    -0.237 OA
ATOM     87  O   UNL A   1      50.710  26.703  21.974  1.00  0.00    -0.744 OA
ENDBRANCH  81  84
ENDBRANCH  53  77
BRANCH  65  88
ATOM     88  C   UNL A   1      46.441  32.624  28.956  1.00  0.00     0.023 A 
ATOM     89  C   UNL A   1      46.378  33.657  28.005  1.00  0.00     0.012 A 
ATOM     90  C   UNL A   1      46.799  32.914  30.287  1.00  0.00     0.148 A 
ATOM     91  C   UNL A   1      46.653  34.972  28.379  1.00  0.00     0.002 A 
ATOM     92  C   UNL A   1      47.038  34.230  30.660  1.00  0.00     0.091 A 
ATOM     93  F   UNL A   1      46.850  31.904  31.168  1.00  0.00    -0.205 F 
ATOM     94  C   UNL A   1      46.967  35.260  29.706  1.00  0.00     0.022 A 
BRANCH  92  95
ATOM     95  S   UNL A   1      47.369  34.711  32.358  1.00  0.00     0.127 S 
ATOM     96  O   UNL A   1      48.594  33.967  32.645  1.00  0.00    -0.237 OA
ATOM     97  O   UNL A   1      47.546  36.157  32.237  1.00  0.00    -0.237 OA
ATOM     98  O   UNL A   1      46.205  34.298  33.132  1.00  0.00    -0.744 OA
ENDBRANCH  92  95
ENDBRANCH  65  88
ENDBRANCH  39  40
ENDBRANCH  32  34
ENDBRANCH  31  32
ENDBRANCH  30  31
ENDBRANCH  29  30
ENDBRANCH   1  29
TORSDOF 20
ENDMDL
MODEL 3
REMARK VINA RESULT:     -10.8      2.444      3.189
REMARK SMILES CC1=C(CC(=O)OCCOCCOC(=O)c2ccc(-c3c4nc(c(-c5cccc(S(=O)(=O)[O-])c5F)c5ccc([nH]5)c(-c5cccc(S(=O)(=O)[O-])c5F)c5nc(c(-c6cccc(S(=O)(=O)[O-])c6F)c6ccc3[nH]6)C=C5)C=C4)cc2)c2cc(F)ccc2/C1=C\c1ccc([S@@+](C)[O-])cc1
REMARK SMILES IDX 10 1 9 2 8 3 7 4 5 5 6 6 4 7 3 8 1 9 2 10 86 11 79 12 85 13
REMARK SMILES IDX 87 14 80 15 84 16 81 17 83 18 82 19 88 20 89 21 96 22 90 23
REMARK SMILES IDX 95 24 91 25 92 26 93 27 94 28 11 29 12 30 13 31 14 32 15 33
REMARK SMILES IDX 16 34 17 35 78 36 18 37 77 38 19 39 20 40 21 41 71 42 22 43
REMARK SMILES IDX 76 44 70 45 72 46 23 47 75 48 69 49 68 50 24 52 56 53 36 54
REMARK SMILES IDX 55 55 37 56 40 57 54 58 73 59 38 60 39 61 53 63 74 64 41 65
REMARK SMILES IDX 25 66 26 67 34 68 27 69 29 70 35 71 28 72 30 73 31 74 32 75
REMARK SMILES IDX 33 76 57 77 58 78 66 79 59 80 61 81 67 82 60 83 62 84 63 85
REMARK SMILES IDX 64 86 65 87 42 88 43 89 51 90 44 91 46 92 52 93 45 94 47 95
REMARK SMILES IDX 48 96 49 97 50 98
REMARK H PARENT 72 51 40 62
REMARK Flexibility Score: inf
ROOT
ATOM      1  O   UNL A   1      38.009  22.860  25.821  1.00  0.00    -0.374 OA
ENDROOT
BRANCH   1   2
ATOM      2  C   UNL A   1      37.025  22.109  25.115  1.00  0.00     0.202 C 
BRANCH   2   3
ATOM      3  C   UNL A   1      35.613  22.697  24.973  1.00  0.00     0.261 C 
BRANCH   3   4
ATOM      4  O   UNL A   1      34.606  22.063  25.791  1.00  0.00    -0.463 OA
BRANCH   4   5
ATOM      5  C   UNL A   1      33.898  21.076  25.177  1.00  0.00     0.310 C 
ATOM      6  O   UNL A   1      34.382  20.017  24.785  1.00  0.00    -0.252 OA
BRANCH   5   7
ATOM      7  C   UNL A   1      32.403  21.341  25.015  1.00  0.00     0.159 C 
BRANCH   7   8
ATOM      8  C   UNL A   1      31.904  22.700  24.639  1.00  0.00    -0.025 C 
ATOM      9  C   UNL A   1      30.817  23.446  26.823  1.00  0.00     0.045 C 
ATOM     10  C   UNL A   1      31.242  23.603  25.401  1.00  0.00    -0.039 C 
ATOM     11  C   UNL A   1      31.016  24.843  24.634  1.00  0.00    -0.014 C 
ATOM     12  C   UNL A   1      32.221  23.356  23.356  1.00  0.00    -0.011 A 
ATOM     13  C   UNL A   1      31.647  24.640  23.314  1.00  0.00    -0.010 A 
ATOM     14  C   UNL A   1      30.376  25.932  25.110  1.00  0.00     0.017 C 
ATOM     15  C   UNL A   1      32.980  22.890  22.288  1.00  0.00     0.048 A 
ATOM     16  C   UNL A   1      31.771  25.431  22.176  1.00  0.00     0.012 A 
ATOM     17  C   UNL A   1      33.079  23.685  21.147  1.00  0.00     0.123 A 
ATOM     18  C   UNL A   1      32.468  24.935  21.073  1.00  0.00     0.040 A 
ATOM     19  F   UNL A   1      33.734  23.215  20.077  1.00  0.00    -0.207 F 
BRANCH  14  20
ATOM     20  C   UNL A   1      30.149  27.173  24.363  1.00  0.00    -0.025 A 
ATOM     21  C   UNL A   1      30.842  28.337  24.712  1.00  0.00     0.013 A 
ATOM     22  C   UNL A   1      29.149  27.237  23.388  1.00  0.00     0.013 A 
ATOM     23  C   UNL A   1      30.449  29.576  24.192  1.00  0.00     0.061 A 
ATOM     24  C   UNL A   1      28.774  28.472  22.850  1.00  0.00     0.061 A 
ATOM     25  C   UNL A   1      29.389  29.655  23.281  1.00  0.00     0.152 A 
BRANCH  25  26
ATOM     26  S   UNL A   1      28.674  31.254  22.822  1.00  0.00    -0.018 S 
ATOM     27  C   UNL A   1      28.065  30.867  21.170  1.00  0.00     0.346 C 
ATOM     28  O   UNL A   1      27.436  31.498  23.758  1.00  0.00    -0.612 OA
ENDBRANCH  25  26
ENDBRANCH  14  20
ENDBRANCH   7   8
ENDBRANCH   5   7
ENDBRANCH   4   5
ENDBRANCH   3   4
ENDBRANCH   2   3
ENDBRANCH   1   2
BRANCH   1  29
ATOM     29  C   UNL A   1      39.170  22.176  26.278  1.00  0.00     0.202 C 
BRANCH  29  30
ATOM     30  C   UNL A   1      39.421  20.745  25.785  1.00  0.00     0.261 C 
BRANCH  30  31
ATOM     31  O   UNL A   1      40.355  20.009  26.574  1.00  0.00    -0.460 OA
BRANCH  31  32
ATOM     32  C   UNL A   1      41.625  20.062  26.109  1.00  0.00     0.338 C 
ATOM     33  O   UNL A   1      42.171  19.287  25.337  1.00  0.00    -0.246 OA
BRANCH  32  34
ATOM     34  C   UNL A   1      42.238  21.319  26.553  1.00  0.00     0.060 A 
ATOM     35  C   UNL A   1      42.902  22.152  25.651  1.00  0.00     0.016 A 
ATOM     36  C   UNL A   1      42.093  21.674  27.899  1.00  0.00     0.016 A 
ATOM     37  C   UNL A   1      43.388  23.377  26.100  1.00  0.00     0.010 A 
ATOM     38  C   UNL A   1      42.571  22.902  28.342  1.00  0.00     0.010 A 
ATOM     39  C   UNL A   1      43.195  23.772  27.437  1.00  0.00    -0.014 A 
BRANCH  39  40
ATOM     40  C   UNL A   1      43.485  25.165  27.841  1.00  0.00     0.031 A 
ATOM     41  C   UNL A   1      44.871  25.725  27.785  1.00  0.00     0.074 A 
ATOM     42  C   UNL A   1      42.460  25.905  28.308  1.00  0.00     0.049 A 
ATOM     43  N   UNL A   1      45.261  26.947  28.032  1.00  0.00    -0.248 NA
ATOM     44  C   UNL A   1      45.960  24.807  27.417  1.00  0.00     0.031 C 
ATOM     45  C   UNL A   1      41.089  25.416  28.488  1.00  0.00     0.029 A 
ATOM     46  N   UNL A   1      42.404  27.210  28.718  1.00  0.00    -0.354 N 
ATOM     47  C   UNL A   1      46.638  26.948  27.860  1.00  0.00     0.074 A 
ATOM     48  C   UNL A   1      47.023  25.599  27.507  1.00  0.00     0.031 C 
ATOM     49  C   UNL A   1      40.321  26.418  28.938  1.00  0.00     0.029 A 
ATOM     50  C   UNL A   1      41.146  27.610  29.103  1.00  0.00     0.049 A 
ATOM     51  H   UNL A   1      43.188  27.805  28.736  1.00  0.00     0.167 HD
ATOM     52  C   UNL A   1      47.493  27.990  27.968  1.00  0.00     0.034 A 
ATOM     53  C   UNL A   1      40.701  28.806  29.533  1.00  0.00     0.034 A 
ATOM     54  C   UNL A   1      47.088  29.328  28.305  1.00  0.00     0.049 A 
ATOM     55  C   UNL A   1      41.666  29.951  29.614  1.00  0.00     0.074 A 
ATOM     56  C   UNL A   1      47.871  30.467  28.365  1.00  0.00     0.029 A 
ATOM     57  N   UNL A   1      45.801  29.703  28.653  1.00  0.00    -0.354 N 
ATOM     58  N   UNL A   1      42.939  29.967  29.306  1.00  0.00    -0.248 NA
ATOM     59  C   UNL A   1      41.138  31.244  30.070  1.00  0.00     0.031 C 
ATOM     60  C   UNL A   1      47.061  31.529  28.771  1.00  0.00     0.029 A 
ATOM     61  C   UNL A   1      45.769  31.056  28.937  1.00  0.00     0.049 A 
ATOM     62  H   UNL A   1      45.026  29.098  28.692  1.00  0.00     0.167 HD
ATOM     63  C   UNL A   1      43.363  31.273  29.508  1.00  0.00     0.074 A 
ATOM     64  C   UNL A   1      42.208  32.023  29.959  1.00  0.00     0.031 C 
ATOM     65  C   UNL A   1      44.599  31.795  29.341  1.00  0.00     0.034 A 
BRANCH  52  66
ATOM     66  C   UNL A   1      48.945  27.761  27.658  1.00  0.00     0.023 A 
ATOM     67  C   UNL A   1      49.780  27.222  28.657  1.00  0.00     0.012 A 
ATOM     68  C   UNL A   1      49.447  27.947  26.356  1.00  0.00     0.148 A 
ATOM     69  C   UNL A   1      51.097  26.874  28.365  1.00  0.00     0.002 A 
ATOM     70  C   UNL A   1      50.753  27.572  26.065  1.00  0.00     0.091 A 
ATOM     71  F   UNL A   1      48.632  28.467  25.427  1.00  0.00    -0.205 F 
ATOM     72  C   UNL A   1      51.580  27.038  27.068  1.00  0.00     0.022 A 
BRANCH  70  73
ATOM     73  S   UNL A   1      51.459  27.694  24.418  1.00  0.00     0.127 S 
ATOM     74  O   UNL A   1      51.332  29.126  24.150  1.00  0.00    -0.237 OA
ATOM     75  O   UNL A   1      52.830  27.233  24.639  1.00  0.00    -0.237 OA
ATOM     76  O   UNL A   1      50.652  26.833  23.567  1.00  0.00    -0.744 OA
ENDBRANCH  70  73
ENDBRANCH  52  66
BRANCH  53  77
ATOM     77  C   UNL A   1      39.255  28.973  29.833  1.00  0.00     0.023 A 
ATOM     78  C   UNL A   1      38.783  28.673  31.125  1.00  0.00     0.012 A 
ATOM     79  C   UNL A   1      38.374  29.522  28.882  1.00  0.00     0.148 A 
ATOM     80  C   UNL A   1      37.451  28.914  31.464  1.00  0.00     0.002 A 
ATOM     81  C   UNL A   1      37.058  29.794  29.238  1.00  0.00     0.091 A 
ATOM     82  F   UNL A   1      38.855  29.805  27.664  1.00  0.00    -0.205 F 
ATOM     83  C   UNL A   1      36.593  29.484  30.526  1.00  0.00     0.022 A 
BRANCH  81  84
ATOM     84  S   UNL A   1      35.906  30.618  28.135  1.00  0.00     0.127 S 
ATOM     85  O   UNL A   1      35.712  29.606  27.099  1.00  0.00    -0.237 OA
ATOM     86  O   UNL A   1      34.756  30.831  29.013  1.00  0.00    -0.237 OA
ATOM     87  O   UNL A   1      36.573  31.837  27.701  1.00  0.00    -0.744 OA
ENDBRANCH  81  84
ENDBRANCH  53  77
BRANCH  65  88
ATOM     88  C   UNL A   1      44.803  33.257  29.617  1.00  0.00     0.023 A 
ATOM     89  C   UNL A   1      45.278  33.662  30.878  1.00  0.00     0.012 A 
ATOM     90  C   UNL A   1      44.706  34.194  28.570  1.00  0.00     0.148 A 
ATOM     91  C   UNL A   1      45.669  34.983  31.089  1.00  0.00     0.002 A 
ATOM     92  C   UNL A   1      45.129  35.499  28.777  1.00  0.00     0.091 A 
ATOM     93  F   UNL A   1      44.249  33.774  27.381  1.00  0.00    -0.205 F 
ATOM     94  C   UNL A   1      45.610  35.896  30.037  1.00  0.00     0.022 A 
BRANCH  92  95
ATOM     95  S   UNL A   1      45.169  36.725  27.466  1.00  0.00     0.127 S 
ATOM     96  O   UNL A   1      43.750  36.854  27.136  1.00  0.00    -0.237 OA
ATOM     97  O   UNL A   1      45.746  37.883  28.146  1.00  0.00    -0.237 OA
ATOM     98  O   UNL A   1      45.995  36.161  26.407  1.00  0.00    -0.744 OA
ENDBRANCH  92  95
ENDBRANCH  65  88
ENDBRANCH  39  40
ENDBRANCH  32  34
ENDBRANCH  31  32
ENDBRANCH  30  31
ENDBRANCH  29  30
ENDBRANCH   1  29
TORSDOF 20
ENDMDL
