MODEL 1
REMARK VINA RESULT:     -10.4      0.000      0.000
REMARK SMILES COc1ccccc1C[N@@H+](C)[C@@H](C)c1ccc(C(=O)OCCOCCOC(=O)c2ccc(-c3c4nc(c(-c5cccc(S(=O)(=O)[O-])c5F)c5ccc([nH]5)c(-c5cccc(S(=O)(=O)[O-])c5F)c5nc(c(-c6cccc(S(=O)(=O)[O-])c6F)c6ccc3[nH]6)C=C5)C=C4)cc2)o1
REMARK SMILES IDX 22 1 21 2 20 3 18 4 19 5 17 6 14 7 15 8 92 9 16 10 12 11
REMARK SMILES IDX 13 12 10 13 11 14 9 16 8 17 3 18 4 19 5 20 7 21 6 22 2 23
REMARK SMILES IDX 1 24 23 25 24 26 25 27 26 28 27 29 28 30 29 31 30 32 91 33
REMARK SMILES IDX 31 34 90 35 32 36 33 37 34 38 84 39 35 40 89 41 83 42 85 43
REMARK SMILES IDX 36 44 88 45 82 46 81 47 37 49 69 50 49 51 68 52 50 53 53 54
REMARK SMILES IDX 67 55 86 56 51 57 52 58 66 60 87 61 54 62 38 63 39 64 47 65
REMARK SMILES IDX 40 66 42 67 48 68 41 69 43 70 44 71 45 72 46 73 70 74 71 75
REMARK SMILES IDX 79 76 72 77 74 78 80 79 73 80 75 81 76 82 77 83 78 84 55 85
REMARK SMILES IDX 56 86 64 87 57 88 59 89 65 90 58 91 60 92 61 93 62 94 63 95
REMARK H PARENT 10 15 85 48 53 59
REMARK Flexibility Score: inf
ROOT
ATOM      1  C   UNL A   1      32.340  28.966  24.280  1.00  0.00     0.202 C 
ENDROOT
BRANCH   1   2
ATOM      2  C   UNL A   1      32.834  28.224  23.033  1.00  0.00     0.261 C 
BRANCH   2   3
ATOM      3  O   UNL A   1      31.693  27.788  22.279  1.00  0.00    -0.457 OA
BRANCH   3   4
ATOM      4  C   UNL A   1      31.589  26.451  22.049  1.00  0.00     0.374 C 
ATOM      5  O   UNL A   1      32.060  25.875  21.068  1.00  0.00    -0.242 OA
BRANCH   4   6
ATOM      6  C   UNL A   1      30.998  25.829  23.208  1.00  0.00     0.212 A 
ATOM      7  C   UNL A   1      30.840  24.297  24.784  1.00  0.00     0.162 A 
ATOM      8  C   UNL A   1      29.924  25.279  25.104  1.00  0.00     0.053 A 
ATOM      9  O   UNL A   1      31.531  24.656  23.665  1.00  0.00    -0.448 OA
ATOM     10  C   UNL A   1      29.990  26.236  24.069  1.00  0.00     0.059 A 
BRANCH   7  11
ATOM     11  C   UNL A   1      31.153  22.964  25.402  1.00  0.00     0.248 C 
ATOM     12  C   UNL A   1      30.994  22.964  26.932  1.00  0.00     0.084 C 
BRANCH  11  13
ATOM     13  N   UNL A   1      32.437  22.416  24.885  1.00  0.00    -0.325 N 
ATOM     14  C   UNL A   1      32.191  21.277  23.997  1.00  0.00     0.333 C 
ATOM     15  H   UNL A   1      32.861  23.194  24.378  1.00  0.00     0.348 HD
BRANCH  13  16
ATOM     16  C   UNL A   1      33.417  22.020  25.922  1.00  0.00     0.303 C 
BRANCH  16  17
ATOM     17  C   UNL A   1      34.859  22.407  25.669  1.00  0.00     0.048 A 
ATOM     18  C   UNL A   1      35.832  21.487  25.241  1.00  0.00     0.127 A 
ATOM     19  C   UNL A   1      37.174  21.864  25.123  1.00  0.00     0.047 A 
ATOM     20  C   UNL A   1      37.561  23.175  25.388  1.00  0.00     0.004 A 
ATOM     21  C   UNL A   1      35.267  23.734  25.910  1.00  0.00     0.013 A 
ATOM     22  C   UNL A   1      36.607  24.112  25.773  1.00  0.00     0.001 A 
BRANCH  18  23
ATOM     23  O   UNL A   1      35.556  20.158  25.061  1.00  0.00    -0.496 OA
ATOM     24  C   UNL A   1      36.726  19.391  24.798  1.00  0.00     0.278 C 
ENDBRANCH  18  23
ENDBRANCH  16  17
ENDBRANCH  13  16
ENDBRANCH  11  13
ENDBRANCH   7  11
ENDBRANCH   4   6
ENDBRANCH   3   4
ENDBRANCH   2   3
ENDBRANCH   1   2
BRANCH   1  25
ATOM     25  O   UNL A   1      32.479  28.255  25.517  1.00  0.00    -0.374 OA
BRANCH  25  26
ATOM     26  C   UNL A   1      31.783  28.770  26.650  1.00  0.00     0.202 C 
BRANCH  26  27
ATOM     27  C   UNL A   1      31.812  30.289  26.857  1.00  0.00     0.261 C 
BRANCH  27  28
ATOM     28  O   UNL A   1      33.060  30.880  26.467  1.00  0.00    -0.460 OA
BRANCH  28  29
ATOM     29  C   UNL A   1      33.591  31.697  27.409  1.00  0.00     0.338 C 
ATOM     30  O   UNL A   1      33.002  32.544  28.062  1.00  0.00    -0.246 OA
BRANCH  29  31
ATOM     31  C   UNL A   1      34.997  31.340  27.680  1.00  0.00     0.060 A 
ATOM     32  C   UNL A   1      35.294  29.975  27.778  1.00  0.00     0.016 A 
ATOM     33  C   UNL A   1      35.978  32.301  27.938  1.00  0.00     0.016 A 
ATOM     34  C   UNL A   1      36.546  29.566  28.222  1.00  0.00     0.010 A 
ATOM     35  C   UNL A   1      37.239  31.886  28.383  1.00  0.00     0.010 A 
ATOM     36  C   UNL A   1      37.507  30.520  28.583  1.00  0.00    -0.014 A 
BRANCH  36  37
ATOM     37  C   UNL A   1      38.698  30.072  29.345  1.00  0.00     0.031 A 
ATOM     38  C   UNL A   1      38.836  30.482  30.788  1.00  0.00     0.074 A 
ATOM     39  C   UNL A   1      39.614  29.263  28.783  1.00  0.00     0.049 A 
ATOM     40  N   UNL A   1      39.746  30.139  31.663  1.00  0.00    -0.248 NA
ATOM     41  C   UNL A   1      37.812  31.400  31.316  1.00  0.00     0.031 C 
ATOM     42  C   UNL A   1      39.597  28.802  27.396  1.00  0.00     0.029 A 
ATOM     43  N   UNL A   1      40.742  28.691  29.316  1.00  0.00    -0.354 N 
ATOM     44  C   UNL A   1      39.418  30.814  32.834  1.00  0.00     0.074 A 
ATOM     45  C   UNL A   1      38.240  31.604  32.553  1.00  0.00     0.031 C 
ATOM     46  C   UNL A   1      40.675  28.029  27.182  1.00  0.00     0.029 A 
ATOM     47  C   UNL A   1      41.459  27.944  28.413  1.00  0.00     0.049 A 
ATOM     48  H   UNL A   1      41.011  28.805  30.256  1.00  0.00     0.167 HD
ATOM     49  C   UNL A   1      40.026  30.763  34.043  1.00  0.00     0.034 A 
ATOM     50  C   UNL A   1      42.616  27.269  28.565  1.00  0.00     0.034 A 
ATOM     51  C   UNL A   1      41.179  29.955  34.333  1.00  0.00     0.049 A 
ATOM     52  C   UNL A   1      43.264  27.216  29.924  1.00  0.00     0.074 A 
ATOM     53  C   UNL A   1      41.841  29.800  35.538  1.00  0.00     0.029 A 
ATOM     54  N   UNL A   1      41.844  29.168  33.407  1.00  0.00    -0.354 N 
ATOM     55  N   UNL A   1      42.868  27.754  31.052  1.00  0.00    -0.248 NA
ATOM     56  C   UNL A   1      44.497  26.421  30.041  1.00  0.00     0.031 C 
ATOM     57  C   UNL A   1      42.919  28.930  35.335  1.00  0.00     0.029 A 
ATOM     58  C   UNL A   1      42.912  28.526  34.010  1.00  0.00     0.049 A 
ATOM     59  H   UNL A   1      41.594  29.078  32.459  1.00  0.00     0.167 HD
ATOM     60  C   UNL A   1      43.774  27.329  32.020  1.00  0.00     0.074 A 
ATOM     61  C   UNL A   1      44.730  26.474  31.346  1.00  0.00     0.031 C 
ATOM     62  C   UNL A   1      43.819  27.629  33.342  1.00  0.00     0.034 A 
BRANCH  49  63
ATOM     63  C   UNL A   1      39.427  31.581  35.157  1.00  0.00     0.023 A 
ATOM     64  C   UNL A   1      38.463  31.000  36.006  1.00  0.00     0.012 A 
ATOM     65  C   UNL A   1      39.845  32.906  35.390  1.00  0.00     0.148 A 
ATOM     66  C   UNL A   1      37.900  31.736  37.049  1.00  0.00     0.002 A 
ATOM     67  C   UNL A   1      39.311  33.618  36.457  1.00  0.00     0.091 A 
ATOM     68  F   UNL A   1      40.742  33.449  34.555  1.00  0.00    -0.205 F 
ATOM     69  C   UNL A   1      38.331  33.039  37.279  1.00  0.00     0.022 A 
BRANCH  67  70
ATOM     70  S   UNL A   1      39.858  35.276  36.880  1.00  0.00     0.127 S 
ATOM     71  O   UNL A   1      39.406  36.040  35.717  1.00  0.00    -0.237 OA
ATOM     72  O   UNL A   1      39.113  35.543  38.111  1.00  0.00    -0.237 OA
ATOM     73  O   UNL A   1      41.300  35.189  37.052  1.00  0.00    -0.744 OA
ENDBRANCH  67  70
ENDBRANCH  49  63
BRANCH  50  74
ATOM     74  C   UNL A   1      43.202  26.534  27.410  1.00  0.00     0.023 A 
ATOM     75  C   UNL A   1      44.078  27.199  26.531  1.00  0.00     0.012 A 
ATOM     76  C   UNL A   1      42.911  25.173  27.190  1.00  0.00     0.148 A 
ATOM     77  C   UNL A   1      44.628  26.533  25.435  1.00  0.00     0.002 A 
ATOM     78  C   UNL A   1      43.505  24.500  26.129  1.00  0.00     0.091 A 
ATOM     79  F   UNL A   1      42.062  24.562  28.029  1.00  0.00    -0.205 F 
ATOM     80  C   UNL A   1      44.350  25.182  25.241  1.00  0.00     0.022 A 
BRANCH  78  81
ATOM     81  S   UNL A   1      43.303  22.733  25.878  1.00  0.00     0.127 S 
ATOM     82  O   UNL A   1      43.237  22.643  24.422  1.00  0.00    -0.237 OA
ATOM     83  O   UNL A   1      44.530  22.202  26.474  1.00  0.00    -0.237 OA
ATOM     84  O   UNL A   1      42.087  22.372  26.593  1.00  0.00    -0.744 OA
ENDBRANCH  78  81
ENDBRANCH  50  74
BRANCH  62  85
ATOM     85  C   UNL A   1      44.910  26.995  34.166  1.00  0.00     0.023 A 
ATOM     86  C   UNL A   1      46.151  27.647  34.310  1.00  0.00     0.012 A 
ATOM     87  C   UNL A   1      44.682  25.786  34.852  1.00  0.00     0.148 A 
ATOM     88  C   UNL A   1      47.161  27.085  35.092  1.00  0.00     0.002 A 
ATOM     89  C   UNL A   1      45.676  25.257  35.669  1.00  0.00     0.091 A 
ATOM     90  F   UNL A   1      43.503  25.167  34.690  1.00  0.00    -0.205 F 
ATOM     91  C   UNL A   1      46.919  25.898  35.779  1.00  0.00     0.022 A 
BRANCH  89  92
ATOM     92  S   UNL A   1      45.408  23.784  36.663  1.00  0.00     0.127 S 
ATOM     93  O   UNL A   1      46.777  23.382  36.976  1.00  0.00    -0.237 OA
ATOM     94  O   UNL A   1      44.649  24.305  37.801  1.00  0.00    -0.237 OA
ATOM     95  O   UNL A   1      44.658  22.867  35.814  1.00  0.00    -0.744 OA
ENDBRANCH  89  92
ENDBRANCH  62  85
ENDBRANCH  36  37
ENDBRANCH  29  31
ENDBRANCH  28  29
ENDBRANCH  27  28
ENDBRANCH  26  27
ENDBRANCH  25  26
ENDBRANCH   1  25
TORSDOF 22
ENDMDL
MODEL 2
REMARK VINA RESULT:     -10.3      1.796      7.866
REMARK SMILES COc1ccccc1C[N@@H+](C)[C@@H](C)c1ccc(C(=O)OCCOCCOC(=O)c2ccc(-c3c4nc(c(-c5cccc(S(=O)(=O)[O-])c5F)c5ccc([nH]5)c(-c5cccc(S(=O)(=O)[O-])c5F)c5nc(c(-c6cccc(S(=O)(=O)[O-])c6F)c6ccc3[nH]6)C=C5)C=C4)cc2)o1
REMARK SMILES IDX 22 1 21 2 20 3 18 4 19 5 17 6 14 7 15 8 92 9 16 10 12 11
REMARK SMILES IDX 13 12 10 13 11 14 9 16 8 17 3 18 4 19 5 20 7 21 6 22 2 23
REMARK SMILES IDX 1 24 23 25 24 26 25 27 26 28 27 29 28 30 29 31 30 32 91 33
REMARK SMILES IDX 31 34 90 35 32 36 33 37 34 38 84 39 35 40 89 41 83 42 85 43
REMARK SMILES IDX 36 44 88 45 82 46 81 47 37 49 69 50 49 51 68 52 50 53 53 54
REMARK SMILES IDX 67 55 86 56 51 57 52 58 66 60 87 61 54 62 38 63 39 64 47 65
REMARK SMILES IDX 40 66 42 67 48 68 41 69 43 70 44 71 45 72 46 73 70 74 71 75
REMARK SMILES IDX 79 76 72 77 74 78 80 79 73 80 75 81 76 82 77 83 78 84 55 85
REMARK SMILES IDX 56 86 64 87 57 88 59 89 65 90 58 91 60 92 61 93 62 94 63 95
REMARK H PARENT 10 15 85 48 53 59
REMARK Flexibility Score: inf
ROOT
ATOM      1  C   UNL A   1      31.144  29.224  24.648  1.00  0.00     0.202 C 
ENDROOT
BRANCH   1   2
ATOM      2  C   UNL A   1      32.321  29.217  23.666  1.00  0.00     0.261 C 
BRANCH   2   3
ATOM      3  O   UNL A   1      32.877  27.894  23.629  1.00  0.00    -0.457 OA
BRANCH   3   4
ATOM      4  C   UNL A   1      33.685  27.544  24.666  1.00  0.00     0.374 C 
ATOM      5  O   UNL A   1      34.383  28.333  25.302  1.00  0.00    -0.242 OA
BRANCH   4   6
ATOM      6  C   UNL A   1      33.453  26.156  24.983  1.00  0.00     0.212 A 
ATOM      7  C   UNL A   1      34.039  24.139  25.648  1.00  0.00     0.162 A 
ATOM      8  C   UNL A   1      32.662  24.131  25.555  1.00  0.00     0.053 A 
ATOM      9  O   UNL A   1      34.516  25.382  25.355  1.00  0.00    -0.448 OA
ATOM     10  C   UNL A   1      32.289  25.408  25.083  1.00  0.00     0.059 A 
BRANCH   7  11
ATOM     11  C   UNL A   1      35.039  23.061  25.959  1.00  0.00     0.248 C 
ATOM     12  C   UNL A   1      36.352  23.223  25.176  1.00  0.00     0.084 C 
BRANCH  11  13
ATOM     13  N   UNL A   1      34.414  21.711  25.902  1.00  0.00    -0.325 N 
ATOM     14  C   UNL A   1      34.067  21.247  27.249  1.00  0.00     0.333 C 
ATOM     15  H   UNL A   1      33.579  21.839  25.330  1.00  0.00     0.348 HD
BRANCH  13  16
ATOM     16  C   UNL A   1      35.219  20.670  25.223  1.00  0.00     0.303 C 
BRANCH  16  17
ATOM     17  C   UNL A   1      34.453  19.510  24.623  1.00  0.00     0.048 A 
ATOM     18  C   UNL A   1      33.153  19.641  24.106  1.00  0.00     0.127 A 
ATOM     19  C   UNL A   1      32.442  18.522  23.659  1.00  0.00     0.047 A 
ATOM     20  C   UNL A   1      33.032  17.260  23.680  1.00  0.00     0.004 A 
ATOM     21  C   UNL A   1      35.040  18.229  24.616  1.00  0.00     0.013 A 
ATOM     22  C   UNL A   1      34.333  17.115  24.151  1.00  0.00     0.001 A 
BRANCH  18  23
ATOM     23  O   UNL A   1      32.464  20.823  24.144  1.00  0.00    -0.496 OA
ATOM     24  C   UNL A   1      32.212  21.348  22.845  1.00  0.00     0.278 C 
ENDBRANCH  18  23
ENDBRANCH  16  17
ENDBRANCH  13  16
ENDBRANCH  11  13
ENDBRANCH   7  11
ENDBRANCH   4   6
ENDBRANCH   3   4
ENDBRANCH   2   3
ENDBRANCH   1   2
BRANCH   1  25
ATOM     25  O   UNL A   1      31.436  28.738  25.965  1.00  0.00    -0.374 OA
BRANCH  25  26
ATOM     26  C   UNL A   1      31.386  29.679  27.036  1.00  0.00     0.202 C 
BRANCH  26  27
ATOM     27  C   UNL A   1      31.621  31.152  26.684  1.00  0.00     0.261 C 
BRANCH  27  28
ATOM     28  O   UNL A   1      33.006  31.459  26.465  1.00  0.00    -0.460 OA
BRANCH  28  29
ATOM     29  C   UNL A   1      33.541  32.258  27.420  1.00  0.00     0.338 C 
ATOM     30  O   UNL A   1      32.996  33.196  27.981  1.00  0.00    -0.246 OA
BRANCH  29  31
ATOM     31  C   UNL A   1      34.868  31.763  27.835  1.00  0.00     0.060 A 
ATOM     32  C   UNL A   1      34.978  30.391  28.090  1.00  0.00     0.016 A 
ATOM     33  C   UNL A   1      35.947  32.619  28.072  1.00  0.00     0.016 A 
ATOM     34  C   UNL A   1      36.135  29.883  28.669  1.00  0.00     0.010 A 
ATOM     35  C   UNL A   1      37.111  32.105  28.654  1.00  0.00     0.010 A 
ATOM     36  C   UNL A   1      37.186  30.746  29.009  1.00  0.00    -0.014 A 
BRANCH  36  37
ATOM     37  C   UNL A   1      38.257  30.241  29.902  1.00  0.00     0.031 A 
ATOM     38  C   UNL A   1      39.232  29.224  29.368  1.00  0.00     0.074 A 
ATOM     39  C   UNL A   1      38.401  30.723  31.149  1.00  0.00     0.049 A 
ATOM     40  N   UNL A   1      40.290  28.711  29.941  1.00  0.00    -0.248 NA
ATOM     41  C   UNL A   1      38.982  28.719  28.008  1.00  0.00     0.031 C 
ATOM     42  C   UNL A   1      37.520  31.703  31.783  1.00  0.00     0.029 A 
ATOM     43  N   UNL A   1      39.343  30.446  32.107  1.00  0.00    -0.354 N 
ATOM     44  C   UNL A   1      40.817  27.809  29.024  1.00  0.00     0.074 A 
ATOM     45  C   UNL A   1      39.951  27.827  27.866  1.00  0.00     0.031 C 
ATOM     46  C   UNL A   1      37.956  31.934  33.034  1.00  0.00     0.029 A 
ATOM     47  C   UNL A   1      39.140  31.116  33.290  1.00  0.00     0.049 A 
ATOM     48  H   UNL A   1      40.093  29.824  31.961  1.00  0.00     0.167 HD
ATOM     49  C   UNL A   1      41.935  27.051  29.123  1.00  0.00     0.034 A 
ATOM     50  C   UNL A   1      39.834  31.074  34.445  1.00  0.00     0.034 A 
ATOM     51  C   UNL A   1      42.814  27.055  30.260  1.00  0.00     0.049 A 
ATOM     52  C   UNL A   1      41.082  30.234  34.524  1.00  0.00     0.074 A 
ATOM     53  C   UNL A   1      43.995  26.357  30.438  1.00  0.00     0.029 A 
ATOM     54  N   UNL A   1      42.605  27.790  31.416  1.00  0.00    -0.354 N 
ATOM     55  N   UNL A   1      41.639  29.489  33.600  1.00  0.00    -0.248 NA
ATOM     56  C   UNL A   1      41.826  30.269  35.793  1.00  0.00     0.031 C 
ATOM     57  C   UNL A   1      44.493  26.658  31.711  1.00  0.00     0.029 A 
ATOM     58  C   UNL A   1      43.633  27.561  32.314  1.00  0.00     0.049 A 
ATOM     59  H   UNL A   1      41.839  28.387  31.575  1.00  0.00     0.167 HD
ATOM     60  C   UNL A   1      42.817  29.001  34.158  1.00  0.00     0.074 A 
ATOM     61  C   UNL A   1      42.901  29.551  35.496  1.00  0.00     0.031 C 
ATOM     62  C   UNL A   1      43.738  28.164  33.618  1.00  0.00     0.034 A 
BRANCH  49  63
ATOM     63  C   UNL A   1      42.290  26.181  27.946  1.00  0.00     0.023 A 
ATOM     64  C   UNL A   1      43.177  26.666  26.963  1.00  0.00     0.012 A 
ATOM     65  C   UNL A   1      41.783  24.871  27.833  1.00  0.00     0.148 A 
ATOM     66  C   UNL A   1      43.527  25.876  25.869  1.00  0.00     0.002 A 
ATOM     67  C   UNL A   1      42.170  24.074  26.762  1.00  0.00     0.091 A 
ATOM     68  F   UNL A   1      40.920  24.438  28.763  1.00  0.00    -0.205 F 
ATOM     69  C   UNL A   1      43.032  24.578  25.775  1.00  0.00     0.022 A 
BRANCH  67  70
ATOM     70  S   UNL A   1      41.644  22.364  26.594  1.00  0.00     0.127 S 
ATOM     71  O   UNL A   1      42.307  21.974  25.350  1.00  0.00    -0.237 OA
ATOM     72  O   UNL A   1      42.201  21.750  27.800  1.00  0.00    -0.237 OA
ATOM     73  O   UNL A   1      40.190  22.397  26.548  1.00  0.00    -0.744 OA
ENDBRANCH  67  70
ENDBRANCH  49  63
BRANCH  50  74
ATOM     74  C   UNL A   1      39.397  31.904  35.602  1.00  0.00     0.023 A 
ATOM     75  C   UNL A   1      39.792  33.253  35.680  1.00  0.00     0.012 A 
ATOM     76  C   UNL A   1      38.578  31.368  36.614  1.00  0.00     0.148 A 
ATOM     77  C   UNL A   1      39.404  34.046  36.762  1.00  0.00     0.002 A 
ATOM     78  C   UNL A   1      38.150  32.177  37.661  1.00  0.00     0.091 A 
ATOM     79  F   UNL A   1      38.227  30.077  36.530  1.00  0.00    -0.205 F 
ATOM     80  C   UNL A   1      38.577  33.511  37.745  1.00  0.00     0.022 A 
BRANCH  78  81
ATOM     81  S   UNL A   1      36.982  31.608  38.900  1.00  0.00     0.127 S 
ATOM     82  O   UNL A   1      37.761  31.737  40.128  1.00  0.00    -0.237 OA
ATOM     83  O   UNL A   1      35.893  32.575  38.756  1.00  0.00    -0.237 OA
ATOM     84  O   UNL A   1      36.629  30.249  38.512  1.00  0.00    -0.744 OA
ENDBRANCH  78  81
ENDBRANCH  50  74
BRANCH  62  85
ATOM     85  C   UNL A   1      44.946  27.822  34.452  1.00  0.00     0.023 A 
ATOM     86  C   UNL A   1      46.103  28.623  34.377  1.00  0.00     0.012 A 
ATOM     87  C   UNL A   1      44.910  26.745  35.360  1.00  0.00     0.148 A 
ATOM     88  C   UNL A   1      47.218  28.334  35.162  1.00  0.00     0.002 A 
ATOM     89  C   UNL A   1      46.009  26.493  36.176  1.00  0.00     0.091 A 
ATOM     90  F   UNL A   1      43.810  25.979  35.407  1.00  0.00    -0.205 F 
ATOM     91  C   UNL A   1      47.167  27.277  36.069  1.00  0.00     0.022 A 
BRANCH  89  92
ATOM     92  S   UNL A   1      45.984  25.212  37.436  1.00  0.00     0.127 S 
ATOM     93  O   UNL A   1      45.656  24.025  36.649  1.00  0.00    -0.237 OA
ATOM     94  O   UNL A   1      47.355  25.245  37.947  1.00  0.00    -0.237 OA
ATOM     95  O   UNL A   1      44.975  25.629  38.401  1.00  0.00    -0.744 OA
ENDBRANCH  89  92
ENDBRANCH  62  85
ENDBRANCH  36  37
ENDBRANCH  29  31
ENDBRANCH  28  29
ENDBRANCH  27  28
ENDBRANCH  26  27
ENDBRANCH  25  26
ENDBRANCH   1  25
TORSDOF 22
ENDMDL
MODEL 3
REMARK VINA RESULT:     -10.0      2.133      3.055
REMARK SMILES COc1ccccc1C[N@@H+](C)[C@@H](C)c1ccc(C(=O)OCCOCCOC(=O)c2ccc(-c3c4nc(c(-c5cccc(S(=O)(=O)[O-])c5F)c5ccc([nH]5)c(-c5cccc(S(=O)(=O)[O-])c5F)c5nc(c(-c6cccc(S(=O)(=O)[O-])c6F)c6ccc3[nH]6)C=C5)C=C4)cc2)o1
REMARK SMILES IDX 22 1 21 2 20 3 18 4 19 5 17 6 14 7 15 8 92 9 16 10 12 11
REMARK SMILES IDX 13 12 10 13 11 14 9 16 8 17 3 18 4 19 5 20 7 21 6 22 2 23
REMARK SMILES IDX 1 24 23 25 24 26 25 27 26 28 27 29 28 30 29 31 30 32 91 33
REMARK SMILES IDX 31 34 90 35 32 36 33 37 34 38 84 39 35 40 89 41 83 42 85 43
REMARK SMILES IDX 36 44 88 45 82 46 81 47 37 49 69 50 49 51 68 52 50 53 53 54
REMARK SMILES IDX 67 55 86 56 51 57 52 58 66 60 87 61 54 62 38 63 39 64 47 65
REMARK SMILES IDX 40 66 42 67 48 68 41 69 43 70 44 71 45 72 46 73 70 74 71 75
REMARK SMILES IDX 79 76 72 77 74 78 80 79 73 80 75 81 76 82 77 83 78 84 55 85
REMARK SMILES IDX 56 86 64 87 57 88 59 89 65 90 58 91 60 92 61 93 62 94 63 95
REMARK H PARENT 10 15 85 48 53 59
REMARK Flexibility Score: inf
ROOT
ATOM      1  C   UNL A   1      32.061  29.108  27.376  1.00  0.00     0.202 C 
ENDROOT
BRANCH   1   2
ATOM      2  C   UNL A   1      31.455  28.429  26.143  1.00  0.00     0.261 C 
BRANCH   2   3
ATOM      3  O   UNL A   1      32.448  27.568  25.563  1.00  0.00    -0.457 OA
BRANCH   3   4
ATOM      4  C   UNL A   1      32.950  27.945  24.355  1.00  0.00     0.374 C 
ATOM      5  O   UNL A   1      33.365  29.075  24.096  1.00  0.00    -0.242 OA
BRANCH   4   6
ATOM      6  C   UNL A   1      33.062  26.777  23.518  1.00  0.00     0.212 A 
ATOM      7  C   UNL A   1      32.563  24.728  22.880  1.00  0.00     0.162 A 
ATOM      8  C   UNL A   1      33.379  25.252  21.897  1.00  0.00     0.053 A 
ATOM      9  O   UNL A   1      32.326  25.670  23.836  1.00  0.00    -0.448 OA
ATOM     10  C   UNL A   1      33.738  26.547  22.329  1.00  0.00     0.059 A 
BRANCH   7  11
ATOM     11  C   UNL A   1      31.967  23.363  23.078  1.00  0.00     0.248 C 
ATOM     12  C   UNL A   1      30.658  23.396  23.885  1.00  0.00     0.084 C 
BRANCH  11  13
ATOM     13  N   UNL A   1      32.990  22.388  23.545  1.00  0.00    -0.325 N 
ATOM     14  C   UNL A   1      32.487  21.016  23.426  1.00  0.00     0.333 C 
ATOM     15  H   UNL A   1      33.790  22.542  22.930  1.00  0.00     0.348 HD
BRANCH  13  16
ATOM     16  C   UNL A   1      33.486  22.604  24.923  1.00  0.00     0.303 C 
BRANCH  16  17
ATOM     17  C   UNL A   1      34.989  22.690  25.093  1.00  0.00     0.048 A 
ATOM     18  C   UNL A   1      35.823  21.559  25.086  1.00  0.00     0.127 A 
ATOM     19  C   UNL A   1      37.191  21.673  25.353  1.00  0.00     0.047 A 
ATOM     20  C   UNL A   1      37.758  22.924  25.588  1.00  0.00     0.004 A 
ATOM     21  C   UNL A   1      35.586  23.948  25.312  1.00  0.00     0.013 A 
ATOM     22  C   UNL A   1      36.957  24.062  25.560  1.00  0.00     0.001 A 
BRANCH  18  23
ATOM     23  O   UNL A   1      35.332  20.286  24.966  1.00  0.00    -0.496 OA
ATOM     24  C   UNL A   1      36.365  19.313  24.852  1.00  0.00     0.278 C 
ENDBRANCH  18  23
ENDBRANCH  16  17
ENDBRANCH  13  16
ENDBRANCH  11  13
ENDBRANCH   7  11
ENDBRANCH   4   6
ENDBRANCH   3   4
ENDBRANCH   2   3
ENDBRANCH   1   2
BRANCH   1  25
ATOM     25  O   UNL A   1      32.550  30.440  27.170  1.00  0.00    -0.374 OA
BRANCH  25  26
ATOM     26  C   UNL A   1      31.634  31.400  26.646  1.00  0.00     0.202 C 
BRANCH  26  27
ATOM     27  C   UNL A   1      31.887  32.871  26.997  1.00  0.00     0.261 C 
BRANCH  27  28
ATOM     28  O   UNL A   1      33.234  33.118  27.424  1.00  0.00    -0.460 OA
BRANCH  28  29
ATOM     29  C   UNL A   1      33.334  34.082  28.372  1.00  0.00     0.338 C 
ATOM     30  O   UNL A   1      32.549  34.996  28.574  1.00  0.00    -0.246 OA
BRANCH  29  31
ATOM     31  C   UNL A   1      34.473  33.818  29.272  1.00  0.00     0.060 A 
ATOM     32  C   UNL A   1      35.736  34.225  28.827  1.00  0.00     0.016 A 
ATOM     33  C   UNL A   1      34.337  33.100  30.463  1.00  0.00     0.016 A 
ATOM     34  C   UNL A   1      36.876  33.839  29.523  1.00  0.00     0.010 A 
ATOM     35  C   UNL A   1      35.486  32.714  31.163  1.00  0.00     0.010 A 
ATOM     36  C   UNL A   1      36.761  33.033  30.662  1.00  0.00    -0.014 A 
BRANCH  36  37
ATOM     37  C   UNL A   1      37.982  32.377  31.193  1.00  0.00     0.031 A 
ATOM     38  C   UNL A   1      38.580  32.886  32.479  1.00  0.00     0.074 A 
ATOM     39  C   UNL A   1      38.516  31.308  30.577  1.00  0.00     0.049 A 
ATOM     40  N   UNL A   1      39.589  32.415  33.166  1.00  0.00    -0.248 NA
ATOM     41  C   UNL A   1      37.960  34.084  33.070  1.00  0.00     0.031 C 
ATOM     42  C   UNL A   1      38.034  30.725  29.326  1.00  0.00     0.029 A 
ATOM     43  N   UNL A   1      39.588  30.526  30.923  1.00  0.00    -0.354 N 
ATOM     44  C   UNL A   1      39.738  33.268  34.253  1.00  0.00     0.074 A 
ATOM     45  C   UNL A   1      38.732  34.299  34.124  1.00  0.00     0.031 C 
ATOM     46  C   UNL A   1      38.819  29.685  29.000  1.00  0.00     0.029 A 
ATOM     47  C   UNL A   1      39.860  29.531  30.015  1.00  0.00     0.049 A 
ATOM     48  H   UNL A   1      40.114  30.664  31.745  1.00  0.00     0.167 HD
ATOM     49  C   UNL A   1      40.615  33.190  35.282  1.00  0.00     0.034 A 
ATOM     50  C   UNL A   1      40.838  28.603  30.007  1.00  0.00     0.034 A 
ATOM     51  C   UNL A   1      41.595  32.148  35.428  1.00  0.00     0.049 A 
ATOM     52  C   UNL A   1      41.792  28.527  31.170  1.00  0.00     0.074 A 
ATOM     53  C   UNL A   1      42.500  31.956  36.458  1.00  0.00     0.029 A 
ATOM     54  N   UNL A   1      41.803  31.126  34.516  1.00  0.00    -0.354 N 
ATOM     55  N   UNL A   1      41.834  29.262  32.255  1.00  0.00    -0.248 NA
ATOM     56  C   UNL A   1      42.805  27.460  31.130  1.00  0.00     0.031 C 
ATOM     57  C   UNL A   1      43.266  30.824  36.159  1.00  0.00     0.029 A 
ATOM     58  C   UNL A   1      42.823  30.300  34.956  1.00  0.00     0.049 A 
ATOM     59  H   UNL A   1      41.300  31.005  33.679  1.00  0.00     0.167 HD
ATOM     60  C   UNL A   1      42.846  28.722  33.045  1.00  0.00     0.074 A 
ATOM     61  C   UNL A   1      43.378  27.587  32.319  1.00  0.00     0.031 C 
ATOM     62  C   UNL A   1      43.301  29.136  34.254  1.00  0.00     0.034 A 
BRANCH  49  63
ATOM     63  C   UNL A   1      40.525  34.244  36.354  1.00  0.00     0.023 A 
ATOM     64  C   UNL A   1      40.998  35.547  36.090  1.00  0.00     0.012 A 
ATOM     65  C   UNL A   1      39.938  33.962  37.602  1.00  0.00     0.148 A 
ATOM     66  C   UNL A   1      40.919  36.542  37.064  1.00  0.00     0.002 A 
ATOM     67  C   UNL A   1      39.824  34.970  38.552  1.00  0.00     0.091 A 
ATOM     68  F   UNL A   1      39.520  32.711  37.844  1.00  0.00    -0.205 F 
ATOM     69  C   UNL A   1      40.322  36.256  38.289  1.00  0.00     0.022 A 
BRANCH  67  70
ATOM     70  S   UNL A   1      39.004  34.718  40.131  1.00  0.00     0.127 S 
ATOM     71  O   UNL A   1      37.908  33.827  39.755  1.00  0.00    -0.237 OA
ATOM     72  O   UNL A   1      40.057  34.088  40.928  1.00  0.00    -0.237 OA
ATOM     73  O   UNL A   1      38.608  36.041  40.591  1.00  0.00    -0.744 OA
ENDBRANCH  67  70
ENDBRANCH  49  63
BRANCH  50  74
ATOM     74  C   UNL A   1      40.923  27.626  28.885  1.00  0.00     0.023 A 
ATOM     75  C   UNL A   1      39.999  26.566  28.813  1.00  0.00     0.012 A 
ATOM     76  C   UNL A   1      41.901  27.754  27.880  1.00  0.00     0.148 A 
ATOM     77  C   UNL A   1      40.067  25.632  27.777  1.00  0.00     0.002 A 
ATOM     78  C   UNL A   1      41.931  26.853  26.822  1.00  0.00     0.091 A 
ATOM     79  F   UNL A   1      42.782  28.761  27.976  1.00  0.00    -0.205 F 
ATOM     80  C   UNL A   1      41.026  25.782  26.779  1.00  0.00     0.022 A 
BRANCH  78  81
ATOM     81  S   UNL A   1      43.047  27.044  25.428  1.00  0.00     0.127 S 
ATOM     82  O   UNL A   1      42.362  28.059  24.633  1.00  0.00    -0.237 OA
ATOM     83  O   UNL A   1      44.274  27.497  26.083  1.00  0.00    -0.237 OA
ATOM     84  O   UNL A   1      43.146  25.723  24.822  1.00  0.00    -0.744 OA
ENDBRANCH  78  81
ENDBRANCH  50  74
BRANCH  62  85
ATOM     85  C   UNL A   1      44.403  28.334  34.898  1.00  0.00     0.023 A 
ATOM     86  C   UNL A   1      45.738  28.514  34.485  1.00  0.00     0.012 A 
ATOM     87  C   UNL A   1      44.122  27.452  35.960  1.00  0.00     0.148 A 
ATOM     88  C   UNL A   1      46.770  27.798  35.090  1.00  0.00     0.002 A 
ATOM     89  C   UNL A   1      45.162  26.778  36.591  1.00  0.00     0.091 A 
ATOM     90  F   UNL A   1      42.844  27.276  36.329  1.00  0.00    -0.205 F 
ATOM     91  C   UNL A   1      46.484  26.940  36.150  1.00  0.00     0.022 A 
BRANCH  89  92
ATOM     92  S   UNL A   1      44.886  25.731  38.026  1.00  0.00     0.127 S 
ATOM     93  O   UNL A   1      44.499  24.467  37.403  1.00  0.00    -0.237 OA
ATOM     94  O   UNL A   1      46.202  25.718  38.666  1.00  0.00    -0.237 OA
ATOM     95  O   UNL A   1      43.849  26.396  38.804  1.00  0.00    -0.744 OA
ENDBRANCH  89  92
ENDBRANCH  62  85
ENDBRANCH  36  37
ENDBRANCH  29  31
ENDBRANCH  28  29
ENDBRANCH  27  28
ENDBRANCH  26  27
ENDBRANCH  25  26
ENDBRANCH   1  25
TORSDOF 22
ENDMDL
