MODEL 1
REMARK VINA RESULT:     -10.2      0.000      0.000
REMARK SMILES CC(C)Cc1ccc([C@H](CC(=O)OCCOCCOC(=O)c2ccc(-c3c4nc(c(-c5cccc(S(=O)(=O)[O-])c5F)c5ccc([nH]5)c(-c5cccc(S(=O)(=O)[O-])c5F)c5nc(c(-c6cccc(S(=O)(=O)[O-])c6F)c6ccc3[nH]6)C=C5)C=C4)cc2)C(F)(F)F)cc1
REMARK SMILES IDX 15 1 14 2 13 3 11 4 12 5 10 6 9 7 8 8 5 9 6 10 90 11 7 12
REMARK SMILES IDX 89 13 4 14 2 15 1 16 3 17 85 18 86 19 87 20 88 21 16 22
REMARK SMILES IDX 17 23 18 24 19 25 20 26 21 27 22 28 23 29 84 30 24 31 83 32
REMARK SMILES IDX 25 33 26 34 27 35 77 36 28 37 82 38 76 39 78 40 29 41 81 42
REMARK SMILES IDX 75 43 74 44 30 46 62 47 42 48 61 49 43 50 46 51 60 52 79 53
REMARK SMILES IDX 44 54 45 55 59 57 80 58 47 59 31 60 32 61 40 62 33 63 35 64
REMARK SMILES IDX 41 65 34 66 36 67 37 68 38 69 39 70 63 71 64 72 72 73 65 74
REMARK SMILES IDX 67 75 73 76 66 77 68 78 69 79 70 80 71 81 48 82 49 83 57 84
REMARK SMILES IDX 50 85 52 86 58 87 51 88 53 89 54 90 55 91 56 92
REMARK H PARENT 78 45 46 56
REMARK Flexibility Score: inf
ROOT
ATOM      1  C   UNL A   1      31.691  27.927  25.293  1.00  0.00     0.202 C 
ENDROOT
BRANCH   1   2
ATOM      2  C   UNL A   1      32.018  27.001  26.468  1.00  0.00     0.261 C 
BRANCH   2   3
ATOM      3  O   UNL A   1      32.222  25.640  26.040  1.00  0.00    -0.463 OA
BRANCH   3   4
ATOM      4  C   UNL A   1      31.132  24.856  25.865  1.00  0.00     0.306 C 
ATOM      5  O   UNL A   1      30.188  24.778  26.639  1.00  0.00    -0.252 OA
BRANCH   4   6
ATOM      6  C   UNL A   1      31.220  24.060  24.581  1.00  0.00     0.140 C 
BRANCH   6   7
ATOM      7  C   UNL A   1      32.649  23.899  24.034  1.00  0.00     0.136 C 
BRANCH   7   8
ATOM      8  C   UNL A   1      33.193  22.487  24.201  1.00  0.00    -0.035 A 
ATOM      9  C   UNL A   1      34.022  19.798  24.540  1.00  0.00    -0.048 A 
ATOM     10  C   UNL A   1      34.898  20.851  24.810  1.00  0.00     0.004 A 
ATOM     11  C   UNL A   1      32.760  20.099  24.046  1.00  0.00     0.004 A 
ATOM     12  C   UNL A   1      34.495  22.184  24.622  1.00  0.00     0.004 A 
ATOM     13  C   UNL A   1      32.342  21.415  23.927  1.00  0.00     0.004 A 
BRANCH   9  14
ATOM     14  C   UNL A   1      34.356  18.362  24.852  1.00  0.00     0.038 C 
BRANCH  14  15
ATOM     15  C   UNL A   1      33.465  17.336  24.115  1.00  0.00    -0.013 C 
ATOM     16  C   UNL A   1      34.032  16.809  22.789  1.00  0.00     0.008 C 
ATOM     17  C   UNL A   1      33.169  16.155  25.046  1.00  0.00     0.008 C 
ENDBRANCH  14  15
ENDBRANCH   9  14
ENDBRANCH   7   8
BRANCH   7  18
ATOM     18  C   UNL A   1      32.709  24.425  22.600  1.00  0.00     0.396 C 
ATOM     19  F   UNL A   1      31.519  24.982  22.259  1.00  0.00    -0.170 F 
ATOM     20  F   UNL A   1      33.643  25.387  22.445  1.00  0.00    -0.170 F 
ATOM     21  F   UNL A   1      32.957  23.447  21.702  1.00  0.00    -0.170 F 
ENDBRANCH   7  18
ENDBRANCH   6   7
ENDBRANCH   4   6
ENDBRANCH   3   4
ENDBRANCH   2   3
ENDBRANCH   1   2
BRANCH   1  22
ATOM     22  O   UNL A   1      31.562  29.303  25.657  1.00  0.00    -0.374 OA
BRANCH  22  23
ATOM     23  C   UNL A   1      31.908  29.629  27.000  1.00  0.00     0.202 C 
BRANCH  23  24
ATOM     24  C   UNL A   1      32.655  30.962  27.177  1.00  0.00     0.261 C 
BRANCH  24  25
ATOM     25  O   UNL A   1      34.079  30.850  26.998  1.00  0.00    -0.460 OA
BRANCH  25  26
ATOM     26  C   UNL A   1      34.851  31.669  27.760  1.00  0.00     0.338 C 
ATOM     27  O   UNL A   1      34.621  32.828  28.061  1.00  0.00    -0.246 OA
BRANCH  26  28
ATOM     28  C   UNL A   1      35.990  30.889  28.298  1.00  0.00     0.060 A 
ATOM     29  C   UNL A   1      35.761  29.732  29.058  1.00  0.00     0.016 A 
ATOM     30  C   UNL A   1      37.296  31.290  28.037  1.00  0.00     0.016 A 
ATOM     31  C   UNL A   1      36.839  28.967  29.549  1.00  0.00     0.010 A 
ATOM     32  C   UNL A   1      38.354  30.511  28.508  1.00  0.00     0.010 A 
ATOM     33  C   UNL A   1      38.159  29.350  29.282  1.00  0.00    -0.014 A 
BRANCH  33  34
ATOM     34  C   UNL A   1      39.383  28.657  29.816  1.00  0.00     0.031 A 
ATOM     35  C   UNL A   1      40.150  29.319  30.946  1.00  0.00     0.074 A 
ATOM     36  C   UNL A   1      39.955  27.599  29.197  1.00  0.00     0.049 A 
ATOM     37  N   UNL A   1      41.372  29.108  31.365  1.00  0.00    -0.248 NA
ATOM     38  C   UNL A   1      39.472  30.434  31.630  1.00  0.00     0.031 C 
ATOM     39  C   UNL A   1      39.431  26.897  28.026  1.00  0.00     0.029 A 
ATOM     40  N   UNL A   1      41.166  26.981  29.434  1.00  0.00    -0.354 N 
ATOM     41  C   UNL A   1      41.636  30.119  32.283  1.00  0.00     0.074 A 
ATOM     42  C   UNL A   1      40.472  30.978  32.304  1.00  0.00     0.031 C 
ATOM     43  C   UNL A   1      40.330  25.979  27.623  1.00  0.00     0.029 A 
ATOM     44  C   UNL A   1      41.502  26.028  28.496  1.00  0.00     0.049 A 
ATOM     45  H   UNL A   1      41.740  27.202  30.203  1.00  0.00     0.167 HD
ATOM     46  C   UNL A   1      42.717  30.303  33.081  1.00  0.00     0.034 A 
ATOM     47  C   UNL A   1      42.622  25.287  28.345  1.00  0.00     0.034 A 
ATOM     48  C   UNL A   1      43.816  29.384  33.174  1.00  0.00     0.049 A 
ATOM     49  C   UNL A   1      43.764  25.417  29.326  1.00  0.00     0.074 A 
ATOM     50  C   UNL A   1      44.853  29.378  34.092  1.00  0.00     0.029 A 
ATOM     51  N   UNL A   1      44.017  28.303  32.335  1.00  0.00    -0.354 N 
ATOM     52  N   UNL A   1      43.903  26.250  30.327  1.00  0.00    -0.248 NA
ATOM     53  C   UNL A   1      44.883  24.467  29.189  1.00  0.00     0.031 C 
ATOM     54  C   UNL A   1      45.689  28.297  33.801  1.00  0.00     0.029 A 
ATOM     55  C   UNL A   1      45.154  27.615  32.721  1.00  0.00     0.049 A 
ATOM     56  H   UNL A   1      43.438  28.059  31.578  1.00  0.00     0.167 HD
ATOM     57  C   UNL A   1      45.079  25.879  30.976  1.00  0.00     0.074 A 
ATOM     58  C   UNL A   1      45.624  24.753  30.253  1.00  0.00     0.031 C 
ATOM     59  C   UNL A   1      45.649  26.429  32.075  1.00  0.00     0.034 A 
BRANCH  46  60
ATOM     60  C   UNL A   1      42.716  31.491  34.012  1.00  0.00     0.023 A 
ATOM     61  C   UNL A   1      43.223  32.727  33.560  1.00  0.00     0.012 A 
ATOM     62  C   UNL A   1      42.147  31.410  35.299  1.00  0.00     0.148 A 
ATOM     63  C   UNL A   1      43.226  33.844  34.390  1.00  0.00     0.002 A 
ATOM     64  C   UNL A   1      42.092  32.547  36.097  1.00  0.00     0.091 A 
ATOM     65  F   UNL A   1      41.673  30.228  35.719  1.00  0.00    -0.205 F 
ATOM     66  C   UNL A   1      42.650  33.757  35.653  1.00  0.00     0.022 A 
BRANCH  64  67
ATOM     67  S   UNL A   1      41.266  32.576  37.692  1.00  0.00     0.127 S 
ATOM     68  O   UNL A   1      41.344  33.995  38.039  1.00  0.00    -0.237 OA
ATOM     69  O   UNL A   1      39.924  32.105  37.350  1.00  0.00    -0.237 OA
ATOM     70  O   UNL A   1      42.023  31.678  38.553  1.00  0.00    -0.744 OA
ENDBRANCH  64  67
ENDBRANCH  46  60
BRANCH  47  71
ATOM     71  C   UNL A   1      42.703  24.257  27.267  1.00  0.00     0.023 A 
ATOM     72  C   UNL A   1      43.370  24.582  26.068  1.00  0.00     0.012 A 
ATOM     73  C   UNL A   1      42.108  22.988  27.399  1.00  0.00     0.148 A 
ATOM     74  C   UNL A   1      43.402  23.684  25.001  1.00  0.00     0.002 A 
ATOM     75  C   UNL A   1      42.184  22.079  26.348  1.00  0.00     0.091 A 
ATOM     76  F   UNL A   1      41.479  22.698  28.546  1.00  0.00    -0.205 F 
ATOM     77  C   UNL A   1      42.813  22.432  25.143  1.00  0.00     0.022 A 
BRANCH  75  78
ATOM     78  S   UNL A   1      41.543  20.404  26.457  1.00  0.00     0.127 S 
ATOM     79  O   UNL A   1      42.226  19.749  25.343  1.00  0.00    -0.237 OA
ATOM     80  O   UNL A   1      42.001  19.997  27.785  1.00  0.00    -0.237 OA
ATOM     81  O   UNL A   1      40.098  20.524  26.324  1.00  0.00    -0.744 OA
ENDBRANCH  75  78
ENDBRANCH  47  71
BRANCH  59  82
ATOM     82  C   UNL A   1      46.873  25.782  32.672  1.00  0.00     0.023 A 
ATOM     83  C   UNL A   1      46.756  24.897  33.760  1.00  0.00     0.012 A 
ATOM     84  C   UNL A   1      48.128  25.948  32.049  1.00  0.00     0.148 A 
ATOM     85  C   UNL A   1      47.871  24.198  34.226  1.00  0.00     0.002 A 
ATOM     86  C   UNL A   1      49.223  25.214  32.487  1.00  0.00     0.091 A 
ATOM     87  F   UNL A   1      48.221  26.807  31.022  1.00  0.00    -0.205 F 
ATOM     88  C   UNL A   1      49.098  24.344  33.583  1.00  0.00     0.022 A 
BRANCH  86  89
ATOM     89  S   UNL A   1      50.816  25.259  31.656  1.00  0.00     0.127 S 
ATOM     90  O   UNL A   1      50.426  25.105  30.255  1.00  0.00    -0.237 OA
ATOM     91  O   UNL A   1      51.312  26.590  32.009  1.00  0.00    -0.237 OA
ATOM     92  O   UNL A   1      51.592  24.156  32.207  1.00  0.00    -0.744 OA
ENDBRANCH  86  89
ENDBRANCH  59  82
ENDBRANCH  33  34
ENDBRANCH  26  28
ENDBRANCH  25  26
ENDBRANCH  24  25
ENDBRANCH  23  24
ENDBRANCH  22  23
ENDBRANCH   1  22
TORSDOF 22
ENDMDL
MODEL 2
REMARK VINA RESULT:     -10.2      2.931      8.181
REMARK SMILES CC(C)Cc1ccc([C@H](CC(=O)OCCOCCOC(=O)c2ccc(-c3c4nc(c(-c5cccc(S(=O)(=O)[O-])c5F)c5ccc([nH]5)c(-c5cccc(S(=O)(=O)[O-])c5F)c5nc(c(-c6cccc(S(=O)(=O)[O-])c6F)c6ccc3[nH]6)C=C5)C=C4)cc2)C(F)(F)F)cc1
REMARK SMILES IDX 15 1 14 2 13 3 11 4 12 5 10 6 9 7 8 8 5 9 6 10 90 11 7 12
REMARK SMILES IDX 89 13 4 14 2 15 1 16 3 17 85 18 86 19 87 20 88 21 16 22
REMARK SMILES IDX 17 23 18 24 19 25 20 26 21 27 22 28 23 29 84 30 24 31 83 32
REMARK SMILES IDX 25 33 26 34 27 35 77 36 28 37 82 38 76 39 78 40 29 41 81 42
REMARK SMILES IDX 75 43 74 44 30 46 62 47 42 48 61 49 43 50 46 51 60 52 79 53
REMARK SMILES IDX 44 54 45 55 59 57 80 58 47 59 31 60 32 61 40 62 33 63 35 64
REMARK SMILES IDX 41 65 34 66 36 67 37 68 38 69 39 70 63 71 64 72 72 73 65 74
REMARK SMILES IDX 67 75 73 76 66 77 68 78 69 79 70 80 71 81 48 82 49 83 57 84
REMARK SMILES IDX 50 85 52 86 58 87 51 88 53 89 54 90 55 91 56 92
REMARK H PARENT 78 45 46 56
REMARK Flexibility Score: inf
ROOT
ATOM      1  C   UNL A   1      31.064  28.329  24.503  1.00  0.00     0.202 C 
ENDROOT
BRANCH   1   2
ATOM      2  C   UNL A   1      31.344  27.394  25.683  1.00  0.00     0.261 C 
BRANCH   2   3
ATOM      3  O   UNL A   1      32.206  26.301  25.310  1.00  0.00    -0.463 OA
BRANCH   3   4
ATOM      4  C   UNL A   1      31.890  25.061  25.749  1.00  0.00     0.306 C 
ATOM      5  O   UNL A   1      31.511  24.788  26.881  1.00  0.00    -0.252 OA
BRANCH   4   6
ATOM      6  C   UNL A   1      32.073  24.022  24.665  1.00  0.00     0.140 C 
BRANCH   6   7
ATOM      7  C   UNL A   1      33.362  23.192  24.795  1.00  0.00     0.136 C 
BRANCH   7   8
ATOM      8  C   UNL A   1      33.137  21.705  24.555  1.00  0.00    -0.035 A 
ATOM      9  C   UNL A   1      32.875  18.903  24.223  1.00  0.00    -0.048 A 
ATOM     10  C   UNL A   1      32.375  19.783  23.262  1.00  0.00     0.004 A 
ATOM     11  C   UNL A   1      33.449  19.436  25.371  1.00  0.00     0.004 A 
ATOM     12  C   UNL A   1      32.485  21.172  23.435  1.00  0.00     0.004 A 
ATOM     13  C   UNL A   1      33.618  20.804  25.507  1.00  0.00     0.004 A 
BRANCH   9  14
ATOM     14  C   UNL A   1      32.904  17.410  24.024  1.00  0.00     0.038 C 
BRANCH  14  15
ATOM     15  C   UNL A   1      33.394  16.620  25.259  1.00  0.00    -0.013 C 
ATOM     16  C   UNL A   1      32.487  15.461  25.698  1.00  0.00     0.008 C 
ATOM     17  C   UNL A   1      34.807  16.088  24.999  1.00  0.00     0.008 C 
ENDBRANCH  14  15
ENDBRANCH   9  14
ENDBRANCH   7   8
BRANCH   7  18
ATOM     18  C   UNL A   1      34.456  23.807  23.923  1.00  0.00     0.396 C 
ATOM     19  F   UNL A   1      35.178  24.702  24.645  1.00  0.00    -0.170 F 
ATOM     20  F   UNL A   1      35.331  22.883  23.471  1.00  0.00    -0.170 F 
ATOM     21  F   UNL A   1      33.956  24.471  22.859  1.00  0.00    -0.170 F 
ENDBRANCH   7  18
ENDBRANCH   6   7
ENDBRANCH   4   6
ENDBRANCH   3   4
ENDBRANCH   2   3
ENDBRANCH   1   2
BRANCH   1  22
ATOM     22  O   UNL A   1      31.106  29.717  24.840  1.00  0.00    -0.374 OA
BRANCH  22  23
ATOM     23  C   UNL A   1      31.607  30.031  26.136  1.00  0.00     0.202 C 
BRANCH  23  24
ATOM     24  C   UNL A   1      31.506  31.513  26.534  1.00  0.00     0.261 C 
BRANCH  24  25
ATOM     25  O   UNL A   1      32.769  32.204  26.501  1.00  0.00    -0.460 OA
BRANCH  25  26
ATOM     26  C   UNL A   1      32.970  33.145  27.461  1.00  0.00     0.338 C 
ATOM     27  O   UNL A   1      32.221  34.058  27.765  1.00  0.00    -0.246 OA
BRANCH  26  28
ATOM     28  C   UNL A   1      34.213  32.820  28.198  1.00  0.00     0.060 A 
ATOM     29  C   UNL A   1      35.229  33.778  28.333  1.00  0.00     0.016 A 
ATOM     30  C   UNL A   1      34.372  31.566  28.778  1.00  0.00     0.016 A 
ATOM     31  C   UNL A   1      36.402  33.487  29.059  1.00  0.00     0.010 A 
ATOM     32  C   UNL A   1      35.528  31.298  29.514  1.00  0.00     0.010 A 
ATOM     33  C   UNL A   1      36.571  32.233  29.661  1.00  0.00    -0.014 A 
BRANCH  33  34
ATOM     34  C   UNL A   1      37.808  31.786  30.391  1.00  0.00     0.031 A 
ATOM     35  C   UNL A   1      38.675  30.719  29.751  1.00  0.00     0.074 A 
ATOM     36  C   UNL A   1      38.062  32.123  31.676  1.00  0.00     0.049 A 
ATOM     37  N   UNL A   1      39.589  29.950  30.287  1.00  0.00    -0.248 NA
ATOM     38  C   UNL A   1      38.403  30.418  28.334  1.00  0.00     0.031 C 
ATOM     39  C   UNL A   1      37.278  33.043  32.499  1.00  0.00     0.029 A 
ATOM     40  N   UNL A   1      39.026  31.648  32.543  1.00  0.00    -0.354 N 
ATOM     41  C   UNL A   1      39.923  29.021  29.306  1.00  0.00     0.074 A 
ATOM     42  C   UNL A   1      39.064  29.283  28.173  1.00  0.00     0.031 C 
ATOM     43  C   UNL A   1      37.763  33.034  33.755  1.00  0.00     0.029 A 
ATOM     44  C   UNL A   1      38.886  32.101  33.838  1.00  0.00     0.049 A 
ATOM     45  H   UNL A   1      39.747  31.040  32.263  1.00  0.00     0.167 HD
ATOM     46  C   UNL A   1      40.887  28.067  29.311  1.00  0.00     0.034 A 
ATOM     47  C   UNL A   1      39.570  31.797  34.963  1.00  0.00     0.034 A 
ATOM     48  C   UNL A   1      41.839  27.887  30.370  1.00  0.00     0.049 A 
ATOM     49  C   UNL A   1      40.727  30.826  34.917  1.00  0.00     0.074 A 
ATOM     50  C   UNL A   1      42.971  27.089  30.380  1.00  0.00     0.029 A 
ATOM     51  N   UNL A   1      41.786  28.520  31.599  1.00  0.00    -0.354 N 
ATOM     52  N   UNL A   1      41.162  30.106  33.913  1.00  0.00    -0.248 NA
ATOM     53  C   UNL A   1      41.522  30.664  36.148  1.00  0.00     0.031 C 
ATOM     54  C   UNL A   1      43.597  27.231  31.620  1.00  0.00     0.029 A 
ATOM     55  C   UNL A   1      42.870  28.141  32.369  1.00  0.00     0.049 A 
ATOM     56  H   UNL A   1      41.082  29.147  31.881  1.00  0.00     0.167 HD
ATOM     57  C   UNL A   1      42.315  29.469  34.368  1.00  0.00     0.074 A 
ATOM     58  C   UNL A   1      42.509  29.875  35.741  1.00  0.00     0.031 C 
ATOM     59  C   UNL A   1      43.134  28.622  33.699  1.00  0.00     0.034 A 
BRANCH  46  60
ATOM     60  C   UNL A   1      41.041  27.210  28.077  1.00  0.00     0.023 A 
ATOM     61  C   UNL A   1      41.720  27.726  26.954  1.00  0.00     0.012 A 
ATOM     62  C   UNL A   1      40.587  25.876  28.054  1.00  0.00     0.148 A 
ATOM     63  C   UNL A   1      41.888  26.957  25.807  1.00  0.00     0.002 A 
ATOM     64  C   UNL A   1      40.819  25.092  26.929  1.00  0.00     0.091 A 
ATOM     65  F   UNL A   1      39.938  25.399  29.126  1.00  0.00    -0.205 F 
ATOM     66  C   UNL A   1      41.449  25.637  25.798  1.00  0.00     0.022 A 
BRANCH  64  67
ATOM     67  S   UNL A   1      40.401  23.347  26.857  1.00  0.00     0.127 S 
ATOM     68  O   UNL A   1      41.249  22.885  25.759  1.00  0.00    -0.237 OA
ATOM     69  O   UNL A   1      40.812  22.880  28.182  1.00  0.00    -0.237 OA
ATOM     70  O   UNL A   1      38.967  23.286  26.611  1.00  0.00    -0.744 OA
ENDBRANCH  64  67
ENDBRANCH  46  60
BRANCH  47  71
ATOM     71  C   UNL A   1      39.257  32.495  36.245  1.00  0.00     0.023 A 
ATOM     72  C   UNL A   1      39.902  33.717  36.526  1.00  0.00     0.012 A 
ATOM     73  C   UNL A   1      38.366  31.956  37.192  1.00  0.00     0.148 A 
ATOM     74  C   UNL A   1      39.705  34.365  37.746  1.00  0.00     0.002 A 
ATOM     75  C   UNL A   1      38.139  32.632  38.387  1.00  0.00     0.091 A 
ATOM     76  F   UNL A   1      37.763  30.793  36.906  1.00  0.00    -0.205 F 
ATOM     77  C   UNL A   1      38.821  33.825  38.673  1.00  0.00     0.022 A 
BRANCH  75  78
ATOM     78  S   UNL A   1      36.948  32.075  39.612  1.00  0.00     0.127 S 
ATOM     79  O   UNL A   1      35.690  32.178  38.876  1.00  0.00    -0.237 OA
ATOM     80  O   UNL A   1      37.402  30.709  39.869  1.00  0.00    -0.237 OA
ATOM     81  O   UNL A   1      37.090  32.984  40.742  1.00  0.00    -0.744 OA
ENDBRANCH  75  78
ENDBRANCH  47  71
BRANCH  59  82
ATOM     82  C   UNL A   1      44.398  28.141  34.365  1.00  0.00     0.023 A 
ATOM     83  C   UNL A   1      45.585  28.891  34.276  1.00  0.00     0.012 A 
ATOM     84  C   UNL A   1      44.360  27.006  35.204  1.00  0.00     0.148 A 
ATOM     85  C   UNL A   1      46.717  28.514  35.000  1.00  0.00     0.002 A 
ATOM     86  C   UNL A   1      45.476  26.663  35.958  1.00  0.00     0.091 A 
ATOM     87  F   UNL A   1      43.223  26.296  35.264  1.00  0.00    -0.205 F 
ATOM     88  C   UNL A   1      46.659  27.412  35.851  1.00  0.00     0.022 A 
BRANCH  86  89
ATOM     89  S   UNL A   1      45.461  25.324  37.157  1.00  0.00     0.127 S 
ATOM     90  O   UNL A   1      45.924  24.197  36.351  1.00  0.00    -0.237 OA
ATOM     91  O   UNL A   1      46.420  25.795  38.158  1.00  0.00    -0.237 OA
ATOM     92  O   UNL A   1      44.088  25.223  37.634  1.00  0.00    -0.744 OA
ENDBRANCH  86  89
ENDBRANCH  59  82
ENDBRANCH  33  34
ENDBRANCH  26  28
ENDBRANCH  25  26
ENDBRANCH  24  25
ENDBRANCH  23  24
ENDBRANCH  22  23
ENDBRANCH   1  22
TORSDOF 22
ENDMDL
MODEL 3
REMARK VINA RESULT:     -10.0      3.720      5.305
REMARK SMILES CC(C)Cc1ccc([C@H](CC(=O)OCCOCCOC(=O)c2ccc(-c3c4nc(c(-c5cccc(S(=O)(=O)[O-])c5F)c5ccc([nH]5)c(-c5cccc(S(=O)(=O)[O-])c5F)c5nc(c(-c6cccc(S(=O)(=O)[O-])c6F)c6ccc3[nH]6)C=C5)C=C4)cc2)C(F)(F)F)cc1
REMARK SMILES IDX 15 1 14 2 13 3 11 4 12 5 10 6 9 7 8 8 5 9 6 10 90 11 7 12
REMARK SMILES IDX 89 13 4 14 2 15 1 16 3 17 85 18 86 19 87 20 88 21 16 22
REMARK SMILES IDX 17 23 18 24 19 25 20 26 21 27 22 28 23 29 84 30 24 31 83 32
REMARK SMILES IDX 25 33 26 34 27 35 77 36 28 37 82 38 76 39 78 40 29 41 81 42
REMARK SMILES IDX 75 43 74 44 30 46 62 47 42 48 61 49 43 50 46 51 60 52 79 53
REMARK SMILES IDX 44 54 45 55 59 57 80 58 47 59 31 60 32 61 40 62 33 63 35 64
REMARK SMILES IDX 41 65 34 66 36 67 37 68 38 69 39 70 63 71 64 72 72 73 65 74
REMARK SMILES IDX 67 75 73 76 66 77 68 78 69 79 70 80 71 81 48 82 49 83 57 84
REMARK SMILES IDX 50 85 52 86 58 87 51 88 53 89 54 90 55 91 56 92
REMARK H PARENT 78 45 46 56
REMARK Flexibility Score: inf
ROOT
ATOM      1  C   UNL A   1      35.449  32.755  28.180  1.00  0.00     0.202 C 
ENDROOT
BRANCH   1   2
ATOM      2  C   UNL A   1      34.467  31.598  28.387  1.00  0.00     0.261 C 
BRANCH   2   3
ATOM      3  O   UNL A   1      34.285  30.826  27.184  1.00  0.00    -0.463 OA
BRANCH   3   4
ATOM      4  C   UNL A   1      34.809  29.579  27.140  1.00  0.00     0.306 C 
ATOM      5  O   UNL A   1      35.999  29.311  27.241  1.00  0.00    -0.252 OA
BRANCH   4   6
ATOM      6  C   UNL A   1      33.738  28.531  26.934  1.00  0.00     0.140 C 
BRANCH   6   7
ATOM      7  C   UNL A   1      33.259  28.394  25.479  1.00  0.00     0.136 C 
BRANCH   7   8
ATOM      8  C   UNL A   1      33.495  27.004  24.904  1.00  0.00    -0.035 A 
ATOM      9  C   UNL A   1      34.058  24.383  23.984  1.00  0.00    -0.048 A 
ATOM     10  C   UNL A   1      33.623  25.369  23.098  1.00  0.00     0.004 A 
ATOM     11  C   UNL A   1      34.149  24.701  25.333  1.00  0.00     0.004 A 
ATOM     12  C   UNL A   1      33.323  26.663  23.556  1.00  0.00     0.004 A 
ATOM     13  C   UNL A   1      33.920  25.995  25.771  1.00  0.00     0.004 A 
BRANCH   9  14
ATOM     14  C   UNL A   1      34.520  23.024  23.527  1.00  0.00     0.038 C 
BRANCH  14  15
ATOM     15  C   UNL A   1      34.420  21.927  24.612  1.00  0.00    -0.013 C 
ATOM     16  C   UNL A   1      33.424  20.797  24.313  1.00  0.00     0.008 C 
ATOM     17  C   UNL A   1      35.808  21.328  24.862  1.00  0.00     0.008 C 
ENDBRANCH  14  15
ENDBRANCH   9  14
ENDBRANCH   7   8
BRANCH   7  18
ATOM     18  C   UNL A   1      31.814  28.877  25.368  1.00  0.00     0.396 C 
ATOM     19  F   UNL A   1      31.684  29.719  24.310  1.00  0.00    -0.170 F 
ATOM     20  F   UNL A   1      30.948  27.862  25.161  1.00  0.00    -0.170 F 
ATOM     21  F   UNL A   1      31.412  29.558  26.463  1.00  0.00    -0.170 F 
ENDBRANCH   7  18
ENDBRANCH   6   7
ENDBRANCH   4   6
ENDBRANCH   3   4
ENDBRANCH   2   3
ENDBRANCH   1   2
BRANCH   1  22
ATOM     22  O   UNL A   1      34.931  34.031  28.565  1.00  0.00    -0.374 OA
BRANCH  22  23
ATOM     23  C   UNL A   1      33.512  34.136  28.630  1.00  0.00     0.202 C 
BRANCH  23  24
ATOM     24  C   UNL A   1      32.980  35.488  29.134  1.00  0.00     0.261 C 
BRANCH  24  25
ATOM     25  O   UNL A   1      33.621  35.944  30.339  1.00  0.00    -0.460 OA
BRANCH  25  26
ATOM     26  C   UNL A   1      33.346  35.246  31.473  1.00  0.00     0.338 C 
ATOM     27  O   UNL A   1      32.289  35.217  32.082  1.00  0.00    -0.246 OA
BRANCH  26  28
ATOM     28  C   UNL A   1      34.512  34.396  31.807  1.00  0.00     0.060 A 
ATOM     29  C   UNL A   1      35.815  34.904  31.691  1.00  0.00     0.016 A 
ATOM     30  C   UNL A   1      34.321  33.095  32.257  1.00  0.00     0.016 A 
ATOM     31  C   UNL A   1      36.930  34.111  32.036  1.00  0.00     0.010 A 
ATOM     32  C   UNL A   1      35.431  32.328  32.617  1.00  0.00     0.010 A 
ATOM     33  C   UNL A   1      36.752  32.803  32.504  1.00  0.00    -0.014 A 
BRANCH  33  34
ATOM     34  C   UNL A   1      37.865  31.844  32.827  1.00  0.00     0.031 A 
ATOM     35  C   UNL A   1      38.686  32.089  34.079  1.00  0.00     0.074 A 
ATOM     36  C   UNL A   1      38.309  30.914  31.951  1.00  0.00     0.049 A 
ATOM     37  N   UNL A   1      39.861  31.621  34.415  1.00  0.00    -0.248 NA
ATOM     38  C   UNL A   1      38.142  33.071  35.035  1.00  0.00     0.031 C 
ATOM     39  C   UNL A   1      37.725  30.609  30.645  1.00  0.00     0.029 A 
ATOM     40  N   UNL A   1      39.426  30.105  32.006  1.00  0.00    -0.354 N 
ATOM     41  C   UNL A   1      40.233  32.321  35.558  1.00  0.00     0.074 A 
ATOM     42  C   UNL A   1      39.190  33.289  35.814  1.00  0.00     0.031 C 
ATOM     43  C   UNL A   1      38.506  29.716  30.009  1.00  0.00     0.029 A 
ATOM     44  C   UNL A   1      39.656  29.388  30.851  1.00  0.00     0.049 A 
ATOM     45  H   UNL A   1      40.006  30.045  32.798  1.00  0.00     0.167 HD
ATOM     46  C   UNL A   1      41.311  32.152  36.363  1.00  0.00     0.034 A 
ATOM     47  C   UNL A   1      40.674  28.572  30.501  1.00  0.00     0.034 A 
ATOM     48  C   UNL A   1      42.281  31.106  36.204  1.00  0.00     0.049 A 
ATOM     49  C   UNL A   1      41.802  28.296  31.469  1.00  0.00     0.074 A 
ATOM     50  C   UNL A   1      43.288  30.730  37.077  1.00  0.00     0.029 A 
ATOM     51  N   UNL A   1      42.360  30.258  35.114  1.00  0.00    -0.354 N 
ATOM     52  N   UNL A   1      42.025  28.820  32.648  1.00  0.00    -0.248 NA
ATOM     53  C   UNL A   1      42.793  27.276  31.079  1.00  0.00     0.031 C 
ATOM     54  C   UNL A   1      43.985  29.660  36.509  1.00  0.00     0.029 A 
ATOM     55  C   UNL A   1      43.390  29.353  35.297  1.00  0.00     0.049 A 
ATOM     56  H   UNL A   1      41.771  30.294  34.327  1.00  0.00     0.167 HD
ATOM     57  C   UNL A   1      43.129  28.146  33.166  1.00  0.00     0.074 A 
ATOM     58  C   UNL A   1      43.541  27.182  32.172  1.00  0.00     0.031 C 
ATOM     59  C   UNL A   1      43.742  28.318  34.362  1.00  0.00     0.034 A 
BRANCH  46  60
ATOM     60  C   UNL A   1      41.443  33.052  37.569  1.00  0.00     0.023 A 
ATOM     61  C   UNL A   1      40.815  32.689  38.777  1.00  0.00     0.012 A 
ATOM     62  C   UNL A   1      42.247  34.209  37.531  1.00  0.00     0.148 A 
ATOM     63  C   UNL A   1      40.927  33.492  39.909  1.00  0.00     0.002 A 
ATOM     64  C   UNL A   1      42.409  34.970  38.684  1.00  0.00     0.091 A 
ATOM     65  F   UNL A   1      42.835  34.546  36.374  1.00  0.00    -0.205 F 
ATOM     66  C   UNL A   1      41.733  34.625  39.866  1.00  0.00     0.022 A 
BRANCH  64  67
ATOM     67  S   UNL A   1      43.519  36.379  38.771  1.00  0.00     0.127 S 
ATOM     68  O   UNL A   1      42.876  37.319  37.853  1.00  0.00    -0.237 OA
ATOM     69  O   UNL A   1      43.430  36.750  40.183  1.00  0.00    -0.237 OA
ATOM     70  O   UNL A   1      44.824  35.889  38.353  1.00  0.00    -0.744 OA
ENDBRANCH  64  67
ENDBRANCH  46  60
BRANCH  47  71
ATOM     71  C   UNL A   1      40.645  27.850  29.194  1.00  0.00     0.023 A 
ATOM     72  C   UNL A   1      39.718  26.802  29.019  1.00  0.00     0.012 A 
ATOM     73  C   UNL A   1      41.534  28.162  28.148  1.00  0.00     0.148 A 
ATOM     74  C   UNL A   1      39.708  26.046  27.847  1.00  0.00     0.002 A 
ATOM     75  C   UNL A   1      41.487  27.433  26.964  1.00  0.00     0.091 A 
ATOM     76  F   UNL A   1      42.408  29.161  28.335  1.00  0.00    -0.205 F 
ATOM     77  C   UNL A   1      40.589  26.364  26.819  1.00  0.00     0.022 A 
BRANCH  75  78
ATOM     78  S   UNL A   1      42.511  27.818  25.538  1.00  0.00     0.127 S 
ATOM     79  O   UNL A   1      43.839  27.916  26.141  1.00  0.00    -0.237 OA
ATOM     80  O   UNL A   1      42.302  26.641  24.695  1.00  0.00    -0.237 OA
ATOM     81  O   UNL A   1      41.977  29.058  24.991  1.00  0.00    -0.744 OA
ENDBRANCH  75  78
ENDBRANCH  47  71
BRANCH  59  82
ATOM     82  C   UNL A   1      44.859  27.386  34.758  1.00  0.00     0.023 A 
ATOM     83  C   UNL A   1      46.203  27.756  34.565  1.00  0.00     0.012 A 
ATOM     84  C   UNL A   1      44.564  26.196  35.457  1.00  0.00     0.148 A 
ATOM     85  C   UNL A   1      47.235  26.951  35.050  1.00  0.00     0.002 A 
ATOM     86  C   UNL A   1      45.595  25.424  35.979  1.00  0.00     0.091 A 
ATOM     87  F   UNL A   1      43.277  25.854  35.618  1.00  0.00    -0.205 F 
ATOM     88  C   UNL A   1      46.933  25.796  35.769  1.00  0.00     0.022 A 
BRANCH  86  89
ATOM     89  S   UNL A   1      45.300  23.978  37.006  1.00  0.00     0.127 S 
ATOM     90  O   UNL A   1      44.569  23.106  36.088  1.00  0.00    -0.237 OA
ATOM     91  O   UNL A   1      46.660  23.536  37.315  1.00  0.00    -0.237 OA
ATOM     92  O   UNL A   1      44.538  24.446  38.155  1.00  0.00    -0.744 OA
ENDBRANCH  86  89
ENDBRANCH  59  82
ENDBRANCH  33  34
ENDBRANCH  26  28
ENDBRANCH  25  26
ENDBRANCH  24  25
ENDBRANCH  23  24
ENDBRANCH  22  23
ENDBRANCH   1  22
TORSDOF 22
ENDMDL
