MODEL 1
REMARK VINA RESULT:     -13.2      0.000      0.000
REMARK SMILES Cc1ccc(-c2nn(-c3ccccc3)cc2[C@@H]2[NH2+][C@H](C(=O)OCCOCCOC(=O)c3ccc(-c4c5nc(c(-c6cccc(S(=O)(=O)[O-])c6F)c6ccc([nH]6)c(-c6cccc(S(=O)(=O)[O-])c6F)c6nc(c(-c7cccc(S(=O)(=O)[O-])c7F)c7ccc4[nH]7)C=C6)C=C5)cc3)CS2)cc1
REMARK SMILES IDX 26 1 25 2 24 3 23 4 22 5 20 6 21 7 19 8 17 9 18 10 95 11
REMARK SMILES IDX 94 14 16 15 6 16 7 17 8 18 15 19 5 20 1 21 2 22 3 23 97 24
REMARK SMILES IDX 4 25 96 26 9 27 10 28 14 29 11 30 13 31 12 32 27 33 28 34
REMARK SMILES IDX 29 35 30 36 31 37 32 38 93 39 33 40 92 41 34 42 35 43 36 44
REMARK SMILES IDX 86 45 37 46 91 47 85 48 87 49 38 50 90 51 84 52 83 53 39 55
REMARK SMILES IDX 71 56 51 57 70 58 52 59 55 60 69 61 88 62 53 63 54 64 68 66
REMARK SMILES IDX 89 67 56 68 40 69 41 70 49 71 42 72 44 73 50 74 43 75 45 76
REMARK SMILES IDX 46 77 47 78 48 79 72 80 73 81 81 82 74 83 76 84 82 85 75 86
REMARK SMILES IDX 77 87 78 88 79 89 80 90 57 91 58 92 66 93 59 94 61 95 67 96
REMARK SMILES IDX 60 97 62 98 63 99 64 100 65 101
REMARK H PARENT 18 12 18 13 87 54 55 65
REMARK Flexibility Score: inf
ROOT
ATOM      1  C   UNL A   1      33.866  28.602  25.958  1.00  0.00     0.202 C 
ENDROOT
BRANCH   1   2
ATOM      2  O   UNL A   1      33.022  29.334  25.112  1.00  0.00    -0.374 OA
BRANCH   2   3
ATOM      3  C   UNL A   1      32.578  28.541  24.052  1.00  0.00     0.202 C 
BRANCH   3   4
ATOM      4  C   UNL A   1      33.571  27.518  23.469  1.00  0.00     0.261 C 
BRANCH   4   5
ATOM      5  O   UNL A   1      33.106  26.213  23.478  1.00  0.00    -0.459 OA
BRANCH   5   6
ATOM      6  C   UNL A   1      33.018  25.635  22.262  1.00  0.00     0.365 C 
ATOM      7  O   UNL A   1      33.650  25.927  21.259  1.00  0.00    -0.245 OA
BRANCH   6   8
ATOM      8  C   UNL A   1      32.030  24.512  22.403  1.00  0.00     0.304 C 
ATOM      9  C   UNL A   1      33.105  22.534  23.282  1.00  0.00     0.278 C 
ATOM     10  N   UNL A   1      32.688  23.200  22.053  1.00  0.00    -0.319 N 
ATOM     11  S   UNL A   1      31.951  22.991  24.586  1.00  0.00    -0.087 SA
ATOM     12  H   UNL A   1      32.027  22.608  21.551  1.00  0.00     0.348 HD
ATOM     13  H   UNL A   1      33.502  23.371  21.462  1.00  0.00     0.348 HD
ATOM     14  C   UNL A   1      31.419  24.516  23.787  1.00  0.00     0.153 C 
BRANCH   9  15
ATOM     15  C   UNL A   1      34.592  22.378  23.733  1.00  0.00     0.067 A 
ATOM     16  C   UNL A   1      34.793  21.101  25.157  1.00  0.00     0.103 A 
ATOM     17  N   UNL A   1      36.125  21.389  26.160  1.00  0.00    -0.167 NA
ATOM     18  N   UNL A   1      37.098  22.857  25.493  1.00  0.00    -0.240 N 
ATOM     19  C   UNL A   1      36.057  23.447  23.838  1.00  0.00     0.126 A 
BRANCH  16  20
ATOM     20  C   UNL A   1      34.259  19.725  24.964  1.00  0.00     0.003 A 
ATOM     21  C   UNL A   1      32.894  15.625  24.801  1.00  0.00     0.044 C 
ATOM     22  C   UNL A   1      33.370  17.046  24.853  1.00  0.00    -0.051 A 
ATOM     23  C   UNL A   1      34.678  17.357  24.482  1.00  0.00     0.004 A 
ATOM     24  C   UNL A   1      32.528  18.076  25.302  1.00  0.00     0.004 A 
ATOM     25  C   UNL A   1      35.118  18.683  24.543  1.00  0.00     0.011 A 
ATOM     26  C   UNL A   1      32.972  19.404  25.366  1.00  0.00     0.011 A 
ENDBRANCH  16  20
BRANCH  18  27
ATOM     27  C   UNL A   1      38.351  23.131  26.362  1.00  0.00     0.065 A 
ATOM     28  C   UNL A   1      39.412  22.207  26.389  1.00  0.00     0.028 A 
ATOM     29  C   UNL A   1      38.620  24.455  26.745  1.00  0.00     0.028 A 
ATOM     30  C   UNL A   1      40.734  22.685  26.402  1.00  0.00     0.002 A 
ATOM     31  C   UNL A   1      39.937  24.929  26.679  1.00  0.00     0.002 A 
ATOM     32  C   UNL A   1      40.984  24.053  26.420  1.00  0.00     0.000 A 
ENDBRANCH  18  27
ENDBRANCH   9  15
ENDBRANCH   6   8
ENDBRANCH   5   6
ENDBRANCH   4   5
ENDBRANCH   3   4
ENDBRANCH   2   3
ENDBRANCH   1   2
BRANCH   1  33
ATOM     33  C   UNL A   1      34.805  29.276  27.029  1.00  0.00     0.261 C 
BRANCH  33  34
ATOM     34  O   UNL A   1      34.702  30.670  27.757  1.00  0.00    -0.460 OA
BRANCH  34  35
ATOM     35  C   UNL A   1      34.538  31.919  28.298  1.00  0.00     0.338 C 
ATOM     36  O   UNL A   1      33.630  32.608  27.830  1.00  0.00    -0.246 OA
BRANCH  35  37
ATOM     37  C   UNL A   1      35.441  32.584  29.366  1.00  0.00     0.060 A 
ATOM     38  C   UNL A   1      36.401  33.562  29.112  1.00  0.00     0.016 A 
ATOM     39  C   UNL A   1      35.521  32.185  30.665  1.00  0.00     0.016 A 
ATOM     40  C   UNL A   1      37.707  33.390  29.652  1.00  0.00     0.010 A 
ATOM     41  C   UNL A   1      36.807  31.911  31.134  1.00  0.00     0.010 A 
ATOM     42  C   UNL A   1      37.942  32.268  30.401  1.00  0.00    -0.014 A 
BRANCH  42  43
ATOM     43  C   UNL A   1      39.232  31.651  30.813  1.00  0.00     0.031 A 
ATOM     44  C   UNL A   1      39.413  30.361  30.123  1.00  0.00     0.074 A 
ATOM     45  C   UNL A   1      40.263  32.159  31.579  1.00  0.00     0.049 A 
ATOM     46  N   UNL A   1      40.045  29.346  30.597  1.00  0.00    -0.248 NA
ATOM     47  C   UNL A   1      38.738  30.057  28.844  1.00  0.00     0.031 C 
ATOM     48  C   UNL A   1      41.693  31.818  31.495  1.00  0.00     0.029 A 
ATOM     49  N   UNL A   1      40.316  33.161  32.562  1.00  0.00    -0.354 N 
ATOM     50  C   UNL A   1      40.284  28.594  29.471  1.00  0.00     0.074 A 
ATOM     51  C   UNL A   1      39.174  28.824  28.606  1.00  0.00     0.031 C 
ATOM     52  C   UNL A   1      42.396  32.388  32.495  1.00  0.00     0.029 A 
ATOM     53  C   UNL A   1      41.469  33.062  33.384  1.00  0.00     0.049 A 
ATOM     54  H   UNL A   1      39.628  33.856  32.669  1.00  0.00     0.167 HD
ATOM     55  C   UNL A   1      41.570  28.264  29.184  1.00  0.00     0.034 A 
ATOM     56  C   UNL A   1      41.501  33.059  34.765  1.00  0.00     0.034 A 
ATOM     57  C   UNL A   1      42.466  28.513  30.338  1.00  0.00     0.049 A 
ATOM     58  C   UNL A   1      41.881  31.616  35.186  1.00  0.00     0.074 A 
ATOM     59  C   UNL A   1      43.643  29.217  30.532  1.00  0.00     0.029 A 
ATOM     60  N   UNL A   1      42.016  28.199  31.626  1.00  0.00    -0.354 N 
ATOM     61  N   UNL A   1      42.326  30.732  34.333  1.00  0.00    -0.248 NA
ATOM     62  C   UNL A   1      41.769  31.022  36.518  1.00  0.00     0.031 C 
ATOM     63  C   UNL A   1      43.867  29.336  31.944  1.00  0.00     0.029 A 
ATOM     64  C   UNL A   1      42.849  28.681  32.621  1.00  0.00     0.049 A 
ATOM     65  H   UNL A   1      41.193  27.689  31.806  1.00  0.00     0.167 HD
ATOM     66  C   UNL A   1      42.345  29.476  34.855  1.00  0.00     0.074 A 
ATOM     67  C   UNL A   1      42.079  29.730  36.268  1.00  0.00     0.031 C 
ATOM     68  C   UNL A   1      42.540  28.385  34.035  1.00  0.00     0.034 A 
BRANCH  55  69
ATOM     69  C   UNL A   1      42.037  27.885  27.780  1.00  0.00     0.023 A 
ATOM     70  C   UNL A   1      41.447  28.616  26.734  1.00  0.00     0.012 A 
ATOM     71  C   UNL A   1      42.981  26.884  27.384  1.00  0.00     0.148 A 
ATOM     72  C   UNL A   1      41.788  28.411  25.394  1.00  0.00     0.002 A 
ATOM     73  C   UNL A   1      43.389  26.746  26.052  1.00  0.00     0.091 A 
ATOM     74  F   UNL A   1      43.431  25.979  28.258  1.00  0.00    -0.205 F 
ATOM     75  C   UNL A   1      42.781  27.503  25.053  1.00  0.00     0.022 A 
BRANCH  73  76
ATOM     76  S   UNL A   1      44.728  25.648  25.531  1.00  0.00     0.127 S 
ATOM     77  O   UNL A   1      45.240  25.153  26.809  1.00  0.00    -0.237 OA
ATOM     78  O   UNL A   1      44.018  24.646  24.736  1.00  0.00    -0.237 OA
ATOM     79  O   UNL A   1      45.663  26.467  24.768  1.00  0.00    -0.744 OA
ENDBRANCH  73  76
ENDBRANCH  55  69
BRANCH  56  80
ATOM     80  C   UNL A   1      40.383  33.883  35.421  1.00  0.00     0.023 A 
ATOM     81  C   UNL A   1      38.801  33.205  35.944  1.00  0.00     0.012 A 
ATOM     82  C   UNL A   1      41.128  34.990  36.483  1.00  0.00     0.148 A 
ATOM     83  C   UNL A   1      38.160  33.693  37.886  1.00  0.00     0.002 A 
ATOM     84  C   UNL A   1      40.538  35.430  38.010  1.00  0.00     0.091 A 
ATOM     85  F   UNL A   1      42.288  35.508  36.044  1.00  0.00    -0.205 F 
ATOM     86  C   UNL A   1      39.139  34.807  38.789  1.00  0.00     0.022 A 
BRANCH  84  87
ATOM     87  S   UNL A   1      41.553  36.355  39.090  1.00  0.00     0.127 S 
ATOM     88  O   UNL A   1      42.819  36.597  38.417  1.00  0.00    -0.237 OA
ATOM     89  O   UNL A   1      40.670  37.504  39.047  1.00  0.00    -0.237 OA
ATOM     90  O   UNL A   1      41.636  35.563  40.303  1.00  0.00    -0.744 OA
ENDBRANCH  84  87
ENDBRANCH  56  80
BRANCH  68  91
ATOM     91  C   UNL A   1      42.489  26.914  34.450  1.00  0.00     0.023 A 
ATOM     92  C   UNL A   1      41.431  26.368  35.193  1.00  0.00     0.012 A 
ATOM     93  C   UNL A   1      43.525  26.000  34.092  1.00  0.00     0.148 A 
ATOM     94  C   UNL A   1      41.435  25.041  35.640  1.00  0.00     0.002 A 
ATOM     95  C   UNL A   1      43.473  24.657  34.440  1.00  0.00     0.091 A 
ATOM     96  F   UNL A   1      44.620  26.424  33.452  1.00  0.00    -0.205 F 
ATOM     97  C   UNL A   1      42.450  24.182  35.256  1.00  0.00     0.022 A 
BRANCH  95  98
ATOM     98  S   UNL A   1      44.667  23.461  33.826  1.00  0.00     0.127 S 
ATOM     99  O   UNL A   1      44.195  22.226  34.450  1.00  0.00    -0.237 OA
ATOM    100  O   UNL A   1      44.450  23.536  32.381  1.00  0.00    -0.237 OA
ATOM    101  O   UNL A   1      45.976  23.927  34.262  1.00  0.00    -0.744 OA
ENDBRANCH  95  98
ENDBRANCH  68  91
ENDBRANCH  42  43
ENDBRANCH  35  37
ENDBRANCH  34  35
ENDBRANCH  33  34
ENDBRANCH   1  33
TORSDOF 20
ENDMDL
MODEL 2
REMARK VINA RESULT:     -12.4      1.172      3.389
REMARK SMILES Cc1ccc(-c2nn(-c3ccccc3)cc2[C@@H]2[NH2+][C@H](C(=O)OCCOCCOC(=O)c3ccc(-c4c5nc(c(-c6cccc(S(=O)(=O)[O-])c6F)c6ccc([nH]6)c(-c6cccc(S(=O)(=O)[O-])c6F)c6nc(c(-c7cccc(S(=O)(=O)[O-])c7F)c7ccc4[nH]7)C=C6)C=C5)cc3)CS2)cc1
REMARK SMILES IDX 26 1 25 2 24 3 23 4 22 5 20 6 21 7 19 8 17 9 18 10 95 11
REMARK SMILES IDX 94 14 16 15 6 16 7 17 8 18 15 19 5 20 1 21 2 22 3 23 97 24
REMARK SMILES IDX 4 25 96 26 9 27 10 28 14 29 11 30 13 31 12 32 27 33 28 34
REMARK SMILES IDX 29 35 30 36 31 37 32 38 93 39 33 40 92 41 34 42 35 43 36 44
REMARK SMILES IDX 86 45 37 46 91 47 85 48 87 49 38 50 90 51 84 52 83 53 39 55
REMARK SMILES IDX 71 56 51 57 70 58 52 59 55 60 69 61 88 62 53 63 54 64 68 66
REMARK SMILES IDX 89 67 56 68 40 69 41 70 49 71 42 72 44 73 50 74 43 75 45 76
REMARK SMILES IDX 46 77 47 78 48 79 72 80 73 81 81 82 74 83 76 84 82 85 75 86
REMARK SMILES IDX 77 87 78 88 79 89 80 90 57 91 58 92 66 93 59 94 61 95 67 96
REMARK SMILES IDX 60 97 62 98 63 99 64 100 65 101
REMARK H PARENT 18 12 18 13 87 54 55 65
REMARK Flexibility Score: inf
ROOT
ATOM      1  C   UNL A   1      33.846  28.888  26.031  1.00  0.00     0.202 C 
ENDROOT
BRANCH   1   2
ATOM      2  O   UNL A   1      33.144  29.703  25.133  1.00  0.00    -0.374 OA
BRANCH   2   3
ATOM      3  C   UNL A   1      31.834  29.247  24.974  1.00  0.00     0.202 C 
BRANCH   3   4
ATOM      4  C   UNL A   1      31.423  27.987  25.760  1.00  0.00     0.261 C 
BRANCH   4   5
ATOM      5  O   UNL A   1      30.633  27.106  25.038  1.00  0.00    -0.459 OA
BRANCH   5   6
ATOM      6  C   UNL A   1      31.203  25.909  24.788  1.00  0.00     0.365 C 
ATOM      7  O   UNL A   1      30.781  24.810  25.108  1.00  0.00    -0.245 OA
BRANCH   6   8
ATOM      8  C   UNL A   1      32.436  26.195  23.979  1.00  0.00     0.304 C 
ATOM      9  C   UNL A   1      33.872  24.252  23.895  1.00  0.00     0.278 C 
ATOM     10  N   UNL A   1      33.629  25.507  24.597  1.00  0.00    -0.319 N 
ATOM     11  S   UNL A   1      33.357  24.458  22.183  1.00  0.00    -0.087 SA
ATOM     12  H   UNL A   1      34.449  26.107  24.517  1.00  0.00     0.348 HD
ATOM     13  H   UNL A   1      33.444  25.319  25.582  1.00  0.00     0.348 HD
ATOM     14  C   UNL A   1      32.218  25.811  22.531  1.00  0.00     0.153 C 
BRANCH   9  15
ATOM     15  C   UNL A   1      33.602  22.840  24.506  1.00  0.00     0.067 A 
ATOM     16  C   UNL A   1      35.200  21.779  24.629  1.00  0.00     0.103 A 
ATOM     17  N   UNL A   1      34.928  20.110  24.562  1.00  0.00    -0.167 NA
ATOM     18  N   UNL A   1      33.074  19.786  24.492  1.00  0.00    -0.240 N 
ATOM     19  C   UNL A   1      32.232  21.646  24.510  1.00  0.00     0.126 A 
BRANCH  16  20
ATOM     20  C   UNL A   1      36.376  22.338  25.351  1.00  0.00     0.003 A 
ATOM     21  C   UNL A   1      39.944  24.096  27.046  1.00  0.00     0.044 C 
ATOM     22  C   UNL A   1      38.708  23.482  26.461  1.00  0.00    -0.051 A 
ATOM     23  C   UNL A   1      38.763  22.206  25.897  1.00  0.00     0.004 A 
ATOM     24  C   UNL A   1      37.492  24.183  26.438  1.00  0.00     0.004 A 
ATOM     25  C   UNL A   1      37.609  21.644  25.344  1.00  0.00     0.011 A 
ATOM     26  C   UNL A   1      36.337  23.619  25.879  1.00  0.00     0.011 A 
ENDBRANCH  16  20
BRANCH  18  27
ATOM     27  C   UNL A   1      32.779  18.265  24.469  1.00  0.00     0.065 A 
ATOM     28  C   UNL A   1      33.200  17.478  23.380  1.00  0.00     0.028 A 
ATOM     29  C   UNL A   1      32.512  17.619  25.686  1.00  0.00     0.028 A 
ATOM     30  C   UNL A   1      33.712  16.192  23.626  1.00  0.00     0.002 A 
ATOM     31  C   UNL A   1      33.095  16.369  25.936  1.00  0.00     0.002 A 
ATOM     32  C   UNL A   1      33.770  15.697  24.925  1.00  0.00     0.000 A 
ENDBRANCH  18  27
ENDBRANCH   9  15
ENDBRANCH   6   8
ENDBRANCH   5   6
ENDBRANCH   4   5
ENDBRANCH   3   4
ENDBRANCH   2   3
ENDBRANCH   1   2
BRANCH   1  33
ATOM     33  C   UNL A   1      34.577  29.449  27.310  1.00  0.00     0.261 C 
BRANCH  33  34
ATOM     34  O   UNL A   1      34.665  30.912  27.887  1.00  0.00    -0.460 OA
BRANCH  34  35
ATOM     35  C   UNL A   1      34.626  32.202  28.348  1.00  0.00     0.338 C 
ATOM     36  O   UNL A   1      33.836  32.965  27.789  1.00  0.00    -0.246 OA
BRANCH  35  37
ATOM     37  C   UNL A   1      35.543  32.820  29.433  1.00  0.00     0.060 A 
ATOM     38  C   UNL A   1      36.529  33.778  29.203  1.00  0.00     0.016 A 
ATOM     39  C   UNL A   1      35.609  32.390  30.722  1.00  0.00     0.016 A 
ATOM     40  C   UNL A   1      37.828  33.560  29.741  1.00  0.00     0.010 A 
ATOM     41  C   UNL A   1      36.886  32.073  31.187  1.00  0.00     0.010 A 
ATOM     42  C   UNL A   1      38.032  32.416  30.465  1.00  0.00    -0.014 A 
BRANCH  42  43
ATOM     43  C   UNL A   1      39.304  31.757  30.865  1.00  0.00     0.031 A 
ATOM     44  C   UNL A   1      39.420  30.445  30.202  1.00  0.00     0.074 A 
ATOM     45  C   UNL A   1      40.371  32.240  31.599  1.00  0.00     0.049 A 
ATOM     46  N   UNL A   1      40.020  29.416  30.687  1.00  0.00    -0.248 NA
ATOM     47  C   UNL A   1      38.707  30.140  28.944  1.00  0.00     0.031 C 
ATOM     48  C   UNL A   1      41.784  31.839  31.494  1.00  0.00     0.029 A 
ATOM     49  N   UNL A   1      40.485  33.260  32.557  1.00  0.00    -0.354 N 
ATOM     50  C   UNL A   1      40.205  28.630  29.574  1.00  0.00     0.074 A 
ATOM     51  C   UNL A   1      39.088  28.886  28.726  1.00  0.00     0.031 C 
ATOM     52  C   UNL A   1      42.530  32.402  32.466  1.00  0.00     0.029 A 
ATOM     53  C   UNL A   1      41.650  33.133  33.358  1.00  0.00     0.049 A 
ATOM     54  H   UNL A   1      39.827  33.985  32.661  1.00  0.00     0.167 HD
ATOM     55  C   UNL A   1      41.470  28.242  29.269  1.00  0.00     0.034 A 
ATOM     56  C   UNL A   1      41.711  33.160  34.738  1.00  0.00     0.034 A 
ATOM     57  C   UNL A   1      42.400  28.480  30.399  1.00  0.00     0.049 A 
ATOM     58  C   UNL A   1      42.041  31.712  35.184  1.00  0.00     0.074 A 
ATOM     59  C   UNL A   1      43.607  29.140  30.553  1.00  0.00     0.029 A 
ATOM     60  N   UNL A   1      41.964  28.213  31.703  1.00  0.00    -0.354 N 
ATOM     61  N   UNL A   1      42.432  30.792  34.343  1.00  0.00    -0.248 NA
ATOM     62  C   UNL A   1      41.933  31.153  36.532  1.00  0.00     0.031 C 
ATOM     63  C   UNL A   1      43.866  29.281  31.957  1.00  0.00     0.029 A 
ATOM     64  C   UNL A   1      42.836  28.683  32.669  1.00  0.00     0.049 A 
ATOM     65  H   UNL A   1      41.125  27.741  31.911  1.00  0.00     0.167 HD
ATOM     66  C   UNL A   1      42.412  29.548  34.894  1.00  0.00     0.074 A 
ATOM     67  C   UNL A   1      42.185  29.844  36.305  1.00  0.00     0.031 C 
ATOM     68  C   UNL A   1      42.545  28.432  34.095  1.00  0.00     0.034 A 
BRANCH  55  69
ATOM     69  C   UNL A   1      41.892  27.813  27.865  1.00  0.00     0.023 A 
ATOM     70  C   UNL A   1      41.598  28.732  26.843  1.00  0.00     0.012 A 
ATOM     71  C   UNL A   1      42.534  26.604  27.447  1.00  0.00     0.148 A 
ATOM     72  C   UNL A   1      41.946  28.503  25.508  1.00  0.00     0.002 A 
ATOM     73  C   UNL A   1      42.964  26.418  26.128  1.00  0.00     0.091 A 
ATOM     74  F   UNL A   1      42.656  25.566  28.281  1.00  0.00    -0.205 F 
ATOM     75  C   UNL A   1      42.658  27.366  25.154  1.00  0.00     0.022 A 
BRANCH  73  76
ATOM     76  S   UNL A   1      43.964  25.008  25.596  1.00  0.00     0.127 S 
ATOM     77  O   UNL A   1      44.542  24.544  26.857  1.00  0.00    -0.237 OA
ATOM     78  O   UNL A   1      42.959  24.111  25.026  1.00  0.00    -0.237 OA
ATOM     79  O   UNL A   1      44.927  25.523  24.630  1.00  0.00    -0.744 OA
ENDBRANCH  73  76
ENDBRANCH  55  69
BRANCH  56  80
ATOM     80  C   UNL A   1      40.640  34.042  35.397  1.00  0.00     0.023 A 
ATOM     81  C   UNL A   1      39.009  33.461  35.885  1.00  0.00     0.012 A 
ATOM     82  C   UNL A   1      41.441  35.075  36.492  1.00  0.00     0.148 A 
ATOM     83  C   UNL A   1      38.374  33.951  37.827  1.00  0.00     0.002 A 
ATOM     84  C   UNL A   1      40.860  35.522  38.021  1.00  0.00     0.091 A 
ATOM     85  F   UNL A   1      42.640  35.523  36.080  1.00  0.00    -0.205 F 
ATOM     86  C   UNL A   1      39.411  34.978  38.768  1.00  0.00     0.022 A 
BRANCH  84  87
ATOM     87  S   UNL A   1      41.919  36.355  39.133  1.00  0.00     0.127 S 
ATOM     88  O   UNL A   1      41.114  36.837  40.243  1.00  0.00    -0.237 OA
ATOM     89  O   UNL A   1      42.646  35.143  39.455  1.00  0.00    -0.237 OA
ATOM     90  O   UNL A   1      42.564  37.386  38.340  1.00  0.00    -0.744 OA
ENDBRANCH  84  87
ENDBRANCH  56  80
BRANCH  68  91
ATOM     91  C   UNL A   1      42.445  26.974  34.545  1.00  0.00     0.023 A 
ATOM     92  C   UNL A   1      41.351  26.474  35.271  1.00  0.00     0.012 A 
ATOM     93  C   UNL A   1      43.466  26.025  34.241  1.00  0.00     0.148 A 
ATOM     94  C   UNL A   1      41.308  25.159  35.751  1.00  0.00     0.002 A 
ATOM     95  C   UNL A   1      43.369  24.693  34.621  1.00  0.00     0.091 A 
ATOM     96  F   UNL A   1      44.590  26.404  33.624  1.00  0.00    -0.205 F 
ATOM     97  C   UNL A   1      42.311  24.265  35.418  1.00  0.00     0.022 A 
BRANCH  95  98
ATOM     98  S   UNL A   1      44.549  23.452  34.073  1.00  0.00     0.127 S 
ATOM     99  O   UNL A   1      45.793  23.949  34.660  1.00  0.00    -0.237 OA
ATOM    100  O   UNL A   1      44.021  22.239  34.699  1.00  0.00    -0.237 OA
ATOM    101  O   UNL A   1      44.496  23.449  32.618  1.00  0.00    -0.744 OA
ENDBRANCH  95  98
ENDBRANCH  68  91
ENDBRANCH  42  43
ENDBRANCH  35  37
ENDBRANCH  34  35
ENDBRANCH  33  34
ENDBRANCH   1  33
TORSDOF 20
ENDMDL
MODEL 3
REMARK VINA RESULT:     -11.5      2.097      3.924
REMARK SMILES Cc1ccc(-c2nn(-c3ccccc3)cc2[C@@H]2[NH2+][C@H](C(=O)OCCOCCOC(=O)c3ccc(-c4c5nc(c(-c6cccc(S(=O)(=O)[O-])c6F)c6ccc([nH]6)c(-c6cccc(S(=O)(=O)[O-])c6F)c6nc(c(-c7cccc(S(=O)(=O)[O-])c7F)c7ccc4[nH]7)C=C6)C=C5)cc3)CS2)cc1
REMARK SMILES IDX 26 1 25 2 24 3 23 4 22 5 20 6 21 7 19 8 17 9 18 10 95 11
REMARK SMILES IDX 94 14 16 15 6 16 7 17 8 18 15 19 5 20 1 21 2 22 3 23 97 24
REMARK SMILES IDX 4 25 96 26 9 27 10 28 14 29 11 30 13 31 12 32 27 33 28 34
REMARK SMILES IDX 29 35 30 36 31 37 32 38 93 39 33 40 92 41 34 42 35 43 36 44
REMARK SMILES IDX 86 45 37 46 91 47 85 48 87 49 38 50 90 51 84 52 83 53 39 55
REMARK SMILES IDX 71 56 51 57 70 58 52 59 55 60 69 61 88 62 53 63 54 64 68 66
REMARK SMILES IDX 89 67 56 68 40 69 41 70 49 71 42 72 44 73 50 74 43 75 45 76
REMARK SMILES IDX 46 77 47 78 48 79 72 80 73 81 81 82 74 83 76 84 82 85 75 86
REMARK SMILES IDX 77 87 78 88 79 89 80 90 57 91 58 92 66 93 59 94 61 95 67 96
REMARK SMILES IDX 60 97 62 98 63 99 64 100 65 101
REMARK H PARENT 18 12 18 13 87 54 55 65
REMARK Flexibility Score: inf
ROOT
ATOM      1  C   UNL A   1      33.919  29.858  27.161  1.00  0.00     0.202 C 
ENDROOT
BRANCH   1   2
ATOM      2  O   UNL A   1      32.653  30.433  26.988  1.00  0.00    -0.374 OA
BRANCH   2   3
ATOM      3  C   UNL A   1      31.717  29.464  26.619  1.00  0.00     0.202 C 
BRANCH   3   4
ATOM      4  C   UNL A   1      31.765  28.115  27.362  1.00  0.00     0.261 C 
BRANCH   4   5
ATOM      5  O   UNL A   1      31.094  27.091  26.714  1.00  0.00    -0.459 OA
BRANCH   5   6
ATOM      6  C   UNL A   1      31.837  25.992  26.470  1.00  0.00     0.365 C 
ATOM      7  O   UNL A   1      31.641  24.861  26.884  1.00  0.00    -0.245 OA
BRANCH   6   8
ATOM      8  C   UNL A   1      32.926  26.426  25.529  1.00  0.00     0.304 C 
ATOM      9  C   UNL A   1      34.283  24.538  24.866  1.00  0.00     0.278 C 
ATOM     10  N   UNL A   1      34.187  25.647  25.809  1.00  0.00    -0.319 N 
ATOM     11  S   UNL A   1      33.497  25.043  23.327  1.00  0.00    -0.087 SA
ATOM     12  H   UNL A   1      34.997  26.257  25.701  1.00  0.00     0.348 HD
ATOM     13  H   UNL A   1      34.164  25.285  26.762  1.00  0.00     0.348 HD
ATOM     14  C   UNL A   1      32.463  26.305  24.094  1.00  0.00     0.153 C 
BRANCH   9  15
ATOM     15  C   UNL A   1      34.084  23.039  25.253  1.00  0.00     0.067 A 
ATOM     16  C   UNL A   1      35.681  21.999  24.994  1.00  0.00     0.103 A 
ATOM     17  N   UNL A   1      35.395  20.362  24.675  1.00  0.00    -0.167 NA
ATOM     18  N   UNL A   1      33.545  20.023  24.780  1.00  0.00    -0.240 N 
ATOM     19  C   UNL A   1      32.721  21.838  25.222  1.00  0.00     0.126 A 
BRANCH  16  20
ATOM     20  C   UNL A   1      36.940  22.446  25.651  1.00  0.00     0.003 A 
ATOM     21  C   UNL A   1      40.761  23.811  27.144  1.00  0.00     0.044 C 
ATOM     22  C   UNL A   1      39.437  23.333  26.629  1.00  0.00    -0.051 A 
ATOM     23  C   UNL A   1      39.288  22.012  26.207  1.00  0.00     0.004 A 
ATOM     24  C   UNL A   1      38.340  24.205  26.532  1.00  0.00     0.004 A 
ATOM     25  C   UNL A   1      38.053  21.576  25.718  1.00  0.00     0.011 A 
ATOM     26  C   UNL A   1      37.104  23.768  26.038  1.00  0.00     0.011 A 
ENDBRANCH  16  20
BRANCH  18  27
ATOM     27  C   UNL A   1      33.243  18.524  24.533  1.00  0.00     0.065 A 
ATOM     28  C   UNL A   1      34.064  17.767  23.676  1.00  0.00     0.028 A 
ATOM     29  C   UNL A   1      32.462  17.837  25.475  1.00  0.00     0.028 A 
ATOM     30  C   UNL A   1      34.383  16.444  24.029  1.00  0.00     0.002 A 
ATOM     31  C   UNL A   1      32.844  16.546  25.865  1.00  0.00     0.002 A 
ATOM     32  C   UNL A   1      33.866  15.886  25.194  1.00  0.00     0.000 A 
ENDBRANCH  18  27
ENDBRANCH   9  15
ENDBRANCH   6   8
ENDBRANCH   5   6
ENDBRANCH   4   5
ENDBRANCH   3   4
ENDBRANCH   2   3
ENDBRANCH   1   2
BRANCH   1  33
ATOM     33  C   UNL A   1      35.152  30.652  27.735  1.00  0.00     0.261 C 
BRANCH  33  34
ATOM     34  O   UNL A   1      35.250  31.686  28.920  1.00  0.00    -0.460 OA
BRANCH  34  35
ATOM     35  C   UNL A   1      35.281  32.500  30.023  1.00  0.00     0.338 C 
ATOM     36  O   UNL A   1      34.192  32.814  30.508  1.00  0.00    -0.246 OA
BRANCH  35  37
ATOM     37  C   UNL A   1      36.540  33.142  30.658  1.00  0.00     0.060 A 
ATOM     38  C   UNL A   1      37.556  33.786  29.954  1.00  0.00     0.016 A 
ATOM     39  C   UNL A   1      36.890  33.020  31.967  1.00  0.00     0.016 A 
ATOM     40  C   UNL A   1      38.906  33.426  30.227  1.00  0.00     0.010 A 
ATOM     41  C   UNL A   1      38.184  32.554  32.205  1.00  0.00     0.010 A 
ATOM     42  C   UNL A   1      39.127  32.465  31.178  1.00  0.00    -0.014 A 
BRANCH  42  43
ATOM     43  C   UNL A   1      40.348  31.660  31.452  1.00  0.00     0.031 A 
ATOM     44  C   UNL A   1      40.292  30.394  30.700  1.00  0.00     0.074 A 
ATOM     45  C   UNL A   1      41.499  31.985  32.144  1.00  0.00     0.049 A 
ATOM     46  N   UNL A   1      40.814  29.280  31.077  1.00  0.00    -0.248 NA
ATOM     47  C   UNL A   1      39.480  30.247  29.473  1.00  0.00     0.031 C 
ATOM     48  C   UNL A   1      42.855  31.459  31.922  1.00  0.00     0.029 A 
ATOM     49  N   UNL A   1      41.770  32.920  33.156  1.00  0.00    -0.354 N 
ATOM     50  C   UNL A   1      40.854  28.560  29.907  1.00  0.00     0.074 A 
ATOM     51  C   UNL A   1      39.721  28.981  29.150  1.00  0.00     0.031 C 
ATOM     52  C   UNL A   1      43.710  31.878  32.878  1.00  0.00     0.029 A 
ATOM     53  C   UNL A   1      42.961  32.625  33.870  1.00  0.00     0.049 A 
ATOM     54  H   UNL A   1      41.195  33.695  33.350  1.00  0.00     0.167 HD
ATOM     55  C   UNL A   1      42.054  28.074  29.495  1.00  0.00     0.034 A 
ATOM     56  C   UNL A   1      43.104  32.549  35.242  1.00  0.00     0.034 A 
ATOM     57  C   UNL A   1      43.067  28.142  30.576  1.00  0.00     0.049 A 
ATOM     58  C   UNL A   1      43.313  31.049  35.572  1.00  0.00     0.074 A 
ATOM     59  C   UNL A   1      44.341  28.670  30.694  1.00  0.00     0.029 A 
ATOM     60  N   UNL A   1      42.683  27.827  31.885  1.00  0.00    -0.354 N 
ATOM     61  N   UNL A   1      43.561  30.157  34.650  1.00  0.00    -0.248 NA
ATOM     62  C   UNL A   1      43.228  30.409  36.885  1.00  0.00     0.031 C 
ATOM     63  C   UNL A   1      44.694  28.687  32.084  1.00  0.00     0.029 A 
ATOM     64  C   UNL A   1      43.653  28.142  32.821  1.00  0.00     0.049 A 
ATOM     65  H   UNL A   1      41.815  27.424  32.116  1.00  0.00     0.167 HD
ATOM     66  C   UNL A   1      43.447  28.885  35.120  1.00  0.00     0.074 A 
ATOM     67  C   UNL A   1      43.334  29.101  36.559  1.00  0.00     0.031 C 
ATOM     68  C   UNL A   1      43.422  27.820  34.244  1.00  0.00     0.034 A 
BRANCH  55  69
ATOM     69  C   UNL A   1      42.348  27.707  28.043  1.00  0.00     0.023 A 
ATOM     70  C   UNL A   1      41.827  28.591  27.083  1.00  0.00     0.012 A 
ATOM     71  C   UNL A   1      43.071  26.584  27.526  1.00  0.00     0.148 A 
ATOM     72  C   UNL A   1      42.033  28.413  25.711  1.00  0.00     0.002 A 
ATOM     73  C   UNL A   1      43.355  26.459  26.161  1.00  0.00     0.091 A 
ATOM     74  F   UNL A   1      43.413  25.563  28.317  1.00  0.00    -0.205 F 
ATOM     75  C   UNL A   1      42.824  27.370  25.250  1.00  0.00     0.022 A 
BRANCH  73  76
ATOM     76  S   UNL A   1      44.439  25.179  25.484  1.00  0.00     0.127 S 
ATOM     77  O   UNL A   1      43.509  24.365  24.702  1.00  0.00    -0.237 OA
ATOM     78  O   UNL A   1      45.380  25.961  24.681  1.00  0.00    -0.237 OA
ATOM     79  O   UNL A   1      45.043  24.501  26.625  1.00  0.00    -0.744 OA
ENDBRANCH  73  76
ENDBRANCH  55  69
BRANCH  56  80
ATOM     80  C   UNL A   1      42.168  33.482  36.025  1.00  0.00     0.023 A 
ATOM     81  C   UNL A   1      42.049  35.257  35.753  1.00  0.00     0.012 A 
ATOM     82  C   UNL A   1      40.701  32.645  36.259  1.00  0.00     0.148 A 
ATOM     83  C   UNL A   1      40.114  36.052  35.548  1.00  0.00     0.002 A 
ATOM     84  C   UNL A   1      39.155  33.336  36.173  1.00  0.00     0.091 A 
ATOM     85  F   UNL A   1      40.828  31.328  36.499  1.00  0.00    -0.205 F 
ATOM     86  C   UNL A   1      38.779  34.966  35.778  1.00  0.00     0.022 A 
BRANCH  84  87
ATOM     87  S   UNL A   1      37.750  32.298  36.157  1.00  0.00     0.127 S 
ATOM     88  O   UNL A   1      37.544  31.802  37.508  1.00  0.00    -0.237 OA
ATOM     89  O   UNL A   1      36.860  33.393  35.822  1.00  0.00    -0.237 OA
ATOM     90  O   UNL A   1      38.041  31.284  35.161  1.00  0.00    -0.744 OA
ENDBRANCH  84  87
ENDBRANCH  56  80
BRANCH  68  91
ATOM     91  C   UNL A   1      43.202  26.351  34.605  1.00  0.00     0.023 A 
ATOM     92  C   UNL A   1      42.013  25.878  35.184  1.00  0.00     0.012 A 
ATOM     93  C   UNL A   1      44.203  25.362  34.362  1.00  0.00     0.148 A 
ATOM     94  C   UNL A   1      41.854  24.546  35.588  1.00  0.00     0.002 A 
ATOM     95  C   UNL A   1      44.000  24.021  34.660  1.00  0.00     0.091 A 
ATOM     96  F   UNL A   1      45.404  25.708  33.887  1.00  0.00    -0.205 F 
ATOM     97  C   UNL A   1      42.842  23.615  35.317  1.00  0.00     0.022 A 
BRANCH  95  98
ATOM     98  S   UNL A   1      45.170  22.745  34.176  1.00  0.00     0.127 S 
ATOM     99  O   UNL A   1      44.543  21.546  34.728  1.00  0.00    -0.237 OA
ATOM    100  O   UNL A   1      45.128  22.838  32.716  1.00  0.00    -0.237 OA
ATOM    101  O   UNL A   1      46.449  23.116  34.765  1.00  0.00    -0.744 OA
ENDBRANCH  95  98
ENDBRANCH  68  91
ENDBRANCH  42  43
ENDBRANCH  35  37
ENDBRANCH  34  35
ENDBRANCH  33  34
ENDBRANCH   1  33
TORSDOF 20
ENDMDL
