MODEL 1
REMARK VINA RESULT:     -11.6      0.000      0.000
REMARK SMILES O=C(CCCc1nc(-c2ccc(Cl)c(Cl)c2)c(-c2ccccc2)o1)OCCOCCOC(=O)c1ccc(-c2c3nc(c(-c4cccc(S(=O)(=O)[O-])c4F)c4ccc([nH]4)c(-c4cccc(S(=O)(=O)[O-])c4F)c4nc(c(-c5cccc(S(=O)(=O)[O-])c5F)c5ccc2[nH]5)C=C4)C=C3)cc1
REMARK SMILES IDX 27 1 26 2 25 3 2 4 1 5 3 6 4 7 5 8 6 9 7 10 24 11 8 12 17 13
REMARK SMILES IDX 9 14 10 15 16 16 11 17 14 18 12 19 15 20 13 21 18 22 19 23
REMARK SMILES IDX 23 24 20 25 22 26 21 27 28 28 29 29 30 30 31 31 32 32 33 33
REMARK SMILES IDX 34 34 35 35 96 36 36 37 95 38 37 39 38 40 39 41 89 42 40 43
REMARK SMILES IDX 94 44 88 45 90 46 41 47 93 48 87 49 86 50 42 52 74 53 54 54
REMARK SMILES IDX 73 55 55 56 58 57 72 58 91 59 56 60 57 61 71 63 92 64 59 65
REMARK SMILES IDX 43 66 44 67 52 68 45 69 47 70 53 71 46 72 48 73 49 74 50 75
REMARK SMILES IDX 51 76 75 77 76 78 84 79 77 80 79 81 85 82 78 83 80 84 81 85
REMARK SMILES IDX 82 86 83 87 60 88 61 89 69 90 62 91 64 92 70 93 63 94 65 95
REMARK SMILES IDX 66 96 67 97 68 98
REMARK H PARENT 90 51 58 62
REMARK Flexibility Score: inf
ROOT
ATOM      1  C   UNL A   1      32.520  28.912  23.004  1.00  0.00     0.202 C 
ENDROOT
BRANCH   1   2
ATOM      2  C   UNL A   1      31.059  29.088  22.597  1.00  0.00     0.261 C 
BRANCH   2   3
ATOM      3  O   UNL A   1      30.287  27.936  22.229  1.00  0.00    -0.463 OA
BRANCH   3   4
ATOM      4  C   UNL A   1      29.356  27.477  23.086  1.00  0.00     0.305 C 
ATOM      5  O   UNL A   1      28.277  28.046  23.230  1.00  0.00    -0.252 OA
BRANCH   4   6
ATOM      6  C   UNL A   1      29.696  26.187  23.807  1.00  0.00     0.123 C 
BRANCH   6   7
ATOM      7  C   UNL A   1      29.933  26.222  25.315  1.00  0.00     0.021 C 
BRANCH   7   8
ATOM      8  C   UNL A   1      30.112  24.917  26.095  1.00  0.00     0.098 C 
BRANCH   8   9
ATOM      9  C   UNL A   1      31.138  23.925  25.642  1.00  0.00     0.195 A 
ATOM     10  N   UNL A   1      30.928  22.651  25.352  1.00  0.00    -0.213 NA
ATOM     11  O   UNL A   1      32.453  24.309  25.573  1.00  0.00    -0.440 OA
ATOM     12  C   UNL A   1      32.184  22.152  25.103  1.00  0.00     0.117 A 
ATOM     13  C   UNL A   1      33.113  23.172  25.174  1.00  0.00     0.162 A 
BRANCH  12  14
ATOM     14  C   UNL A   1      32.491  20.758  24.830  1.00  0.00     0.006 A 
ATOM     15  C   UNL A   1      32.926  19.914  25.850  1.00  0.00     0.012 A 
ATOM     16  C   UNL A   1      32.293  20.214  23.558  1.00  0.00     0.032 A 
ATOM     17  C   UNL A   1      33.076  18.539  25.651  1.00  0.00     0.023 A 
ATOM     18  C   UNL A   1      32.482  18.842  23.334  1.00  0.00     0.060 A 
ATOM     19  C   UNL A   1      32.850  17.998  24.389  1.00  0.00     0.059 A 
ATOM     20  Cl  UNL A   1      32.233  18.251  21.729  1.00  0.00    -0.083 Cl
ATOM     21  Cl  UNL A   1      33.041  16.293  24.198  1.00  0.00    -0.083 Cl
ENDBRANCH  12  14
BRANCH  13  22
ATOM     22  C   UNL A   1      34.541  23.269  24.925  1.00  0.00     0.020 A 
ATOM     23  C   UNL A   1      35.391  23.919  25.826  1.00  0.00     0.012 A 
ATOM     24  C   UNL A   1      35.101  22.647  23.799  1.00  0.00     0.012 A 
ATOM     25  C   UNL A   1      36.774  23.923  25.613  1.00  0.00     0.001 A 
ATOM     26  C   UNL A   1      36.478  22.661  23.581  1.00  0.00     0.001 A 
ATOM     27  C   UNL A   1      37.316  23.292  24.494  1.00  0.00     0.000 A 
ENDBRANCH  13  22
ENDBRANCH   8   9
ENDBRANCH   7   8
ENDBRANCH   6   7
ENDBRANCH   4   6
ENDBRANCH   3   4
ENDBRANCH   2   3
ENDBRANCH   1   2
BRANCH   1  28
ATOM     28  O   UNL A   1      32.791  28.931  24.399  1.00  0.00    -0.374 OA
BRANCH  28  29
ATOM     29  C   UNL A   1      31.651  29.318  25.178  1.00  0.00     0.202 C 
BRANCH  29  30
ATOM     30  C   UNL A   1      31.990  30.188  26.396  1.00  0.00     0.261 C 
BRANCH  30  31
ATOM     31  O   UNL A   1      33.409  30.431  26.491  1.00  0.00    -0.460 OA
BRANCH  31  32
ATOM     32  C   UNL A   1      33.762  31.501  27.234  1.00  0.00     0.338 C 
ATOM     33  O   UNL A   1      33.122  32.537  27.401  1.00  0.00    -0.246 OA
BRANCH  32  34
ATOM     34  C   UNL A   1      34.948  31.192  28.046  1.00  0.00     0.060 A 
ATOM     35  C   UNL A   1      35.934  32.180  28.119  1.00  0.00     0.016 A 
ATOM     36  C   UNL A   1      35.146  29.961  28.657  1.00  0.00     0.016 A 
ATOM     37  C   UNL A   1      37.152  31.940  28.734  1.00  0.00     0.010 A 
ATOM     38  C   UNL A   1      36.362  29.721  29.306  1.00  0.00     0.010 A 
ATOM     39  C   UNL A   1      37.379  30.698  29.324  1.00  0.00    -0.014 A 
BRANCH  39  40
ATOM     40  C   UNL A   1      38.704  30.401  29.911  1.00  0.00     0.031 A 
ATOM     41  C   UNL A   1      39.603  29.424  29.215  1.00  0.00     0.074 A 
ATOM     42  C   UNL A   1      39.081  30.994  31.058  1.00  0.00     0.049 A 
ATOM     43  N   UNL A   1      40.685  28.845  29.654  1.00  0.00    -0.248 NA
ATOM     44  C   UNL A   1      39.229  29.044  27.841  1.00  0.00     0.031 C 
ATOM     45  C   UNL A   1      38.314  32.014  31.777  1.00  0.00     0.029 A 
ATOM     46  N   UNL A   1      40.186  30.792  31.846  1.00  0.00    -0.354 N 
ATOM     47  C   UNL A   1      41.080  27.973  28.647  1.00  0.00     0.074 A 
ATOM     48  C   UNL A   1      40.144  28.127  27.556  1.00  0.00     0.031 C 
ATOM     49  C   UNL A   1      38.944  32.313  32.922  1.00  0.00     0.029 A 
ATOM     50  C   UNL A   1      40.116  31.453  33.051  1.00  0.00     0.049 A 
ATOM     51  H   UNL A   1      40.950  30.233  31.576  1.00  0.00     0.167 HD
ATOM     52  C   UNL A   1      42.126  27.116  28.649  1.00  0.00     0.034 A 
ATOM     53  C   UNL A   1      40.864  31.318  34.163  1.00  0.00     0.034 A 
ATOM     54  C   UNL A   1      43.073  27.021  29.725  1.00  0.00     0.049 A 
ATOM     55  C   UNL A   1      41.995  30.327  34.151  1.00  0.00     0.074 A 
ATOM     56  C   UNL A   1      44.204  26.229  29.808  1.00  0.00     0.029 A 
ATOM     57  N   UNL A   1      42.992  27.733  30.912  1.00  0.00    -0.354 N 
ATOM     58  N   UNL A   1      42.404  29.556  33.172  1.00  0.00    -0.248 NA
ATOM     59  C   UNL A   1      42.773  30.190  35.390  1.00  0.00     0.031 C 
ATOM     60  C   UNL A   1      44.791  26.442  31.059  1.00  0.00     0.029 A 
ATOM     61  C   UNL A   1      44.039  27.383  31.744  1.00  0.00     0.049 A 
ATOM     62  H   UNL A   1      42.293  28.391  31.129  1.00  0.00     0.167 HD
ATOM     63  C   UNL A   1      43.496  28.855  33.671  1.00  0.00     0.074 A 
ATOM     64  C   UNL A   1      43.703  29.318  35.028  1.00  0.00     0.031 C 
ATOM     65  C   UNL A   1      44.246  27.896  33.073  1.00  0.00     0.034 A 
BRANCH  52  66
ATOM     66  C   UNL A   1      42.303  26.205  27.468  1.00  0.00     0.023 A 
ATOM     67  C   UNL A   1      43.022  26.640  26.338  1.00  0.00     0.012 A 
ATOM     68  C   UNL A   1      41.826  24.880  27.519  1.00  0.00     0.148 A 
ATOM     69  C   UNL A   1      43.254  25.772  25.270  1.00  0.00     0.002 A 
ATOM     70  C   UNL A   1      42.094  24.010  26.470  1.00  0.00     0.091 A 
ATOM     71  F   UNL A   1      41.121  24.497  28.594  1.00  0.00    -0.205 F 
ATOM     72  C   UNL A   1      42.802  24.456  25.342  1.00  0.00     0.022 A 
BRANCH  70  73
ATOM     73  S   UNL A   1      41.616  22.279  26.497  1.00  0.00     0.127 S 
ATOM     74  O   UNL A   1      40.161  22.372  26.386  1.00  0.00    -0.237 OA
ATOM     75  O   UNL A   1      42.287  21.757  25.306  1.00  0.00    -0.237 OA
ATOM     76  O   UNL A   1      42.106  21.744  27.760  1.00  0.00    -0.744 OA
ENDBRANCH  70  73
ENDBRANCH  52  66
BRANCH  53  77
ATOM     77  C   UNL A   1      40.535  32.100  35.389  1.00  0.00     0.023 A 
ATOM     78  C   UNL A   1      41.259  33.269  35.687  1.00  0.00     0.012 A 
ATOM     79  C   UNL A   1      39.497  31.699  36.253  1.00  0.00     0.148 A 
ATOM     80  C   UNL A   1      40.974  34.007  36.837  1.00  0.00     0.002 A 
ATOM     81  C   UNL A   1      39.177  32.472  37.362  1.00  0.00     0.091 A 
ATOM     82  F   UNL A   1      38.834  30.567  35.971  1.00  0.00    -0.205 F 
ATOM     83  C   UNL A   1      39.926  33.616  37.668  1.00  0.00     0.022 A 
BRANCH  81  84
ATOM     84  S   UNL A   1      37.748  32.110  38.390  1.00  0.00     0.127 S 
ATOM     85  O   UNL A   1      37.323  30.815  37.869  1.00  0.00    -0.237 OA
ATOM     86  O   UNL A   1      38.334  32.074  39.731  1.00  0.00    -0.237 OA
ATOM     87  O   UNL A   1      36.830  33.222  38.174  1.00  0.00    -0.744 OA
ENDBRANCH  81  84
ENDBRANCH  53  77
BRANCH  65  88
ATOM     88  C   UNL A   1      45.369  27.300  33.875  1.00  0.00     0.023 A 
ATOM     89  C   UNL A   1      46.632  27.924  33.870  1.00  0.00     0.012 A 
ATOM     90  C   UNL A   1      45.151  26.174  34.692  1.00  0.00     0.148 A 
ATOM     91  C   UNL A   1      47.672  27.419  34.649  1.00  0.00     0.002 A 
ATOM     92  C   UNL A   1      46.177  25.706  35.502  1.00  0.00     0.091 A 
ATOM     93  F   UNL A   1      43.946  25.589  34.665  1.00  0.00    -0.205 F 
ATOM     94  C   UNL A   1      47.441  26.320  35.473  1.00  0.00     0.022 A 
BRANCH  92  95
ATOM     95  S   UNL A   1      45.946  24.358  36.665  1.00  0.00     0.127 S 
ATOM     96  O   UNL A   1      46.412  23.211  35.888  1.00  0.00    -0.237 OA
ATOM     97  O   UNL A   1      46.826  24.747  37.769  1.00  0.00    -0.237 OA
ATOM     98  O   UNL A   1      44.527  24.352  36.997  1.00  0.00    -0.744 OA
ENDBRANCH  92  95
ENDBRANCH  65  88
ENDBRANCH  39  40
ENDBRANCH  32  34
ENDBRANCH  31  32
ENDBRANCH  30  31
ENDBRANCH  29  30
ENDBRANCH  28  29
ENDBRANCH   1  28
TORSDOF 22
ENDMDL
MODEL 2
REMARK VINA RESULT:     -11.0      2.362      3.570
REMARK SMILES O=C(CCCc1nc(-c2ccc(Cl)c(Cl)c2)c(-c2ccccc2)o1)OCCOCCOC(=O)c1ccc(-c2c3nc(c(-c4cccc(S(=O)(=O)[O-])c4F)c4ccc([nH]4)c(-c4cccc(S(=O)(=O)[O-])c4F)c4nc(c(-c5cccc(S(=O)(=O)[O-])c5F)c5ccc2[nH]5)C=C4)C=C3)cc1
REMARK SMILES IDX 27 1 26 2 25 3 2 4 1 5 3 6 4 7 5 8 6 9 7 10 24 11 8 12 17 13
REMARK SMILES IDX 9 14 10 15 16 16 11 17 14 18 12 19 15 20 13 21 18 22 19 23
REMARK SMILES IDX 23 24 20 25 22 26 21 27 28 28 29 29 30 30 31 31 32 32 33 33
REMARK SMILES IDX 34 34 35 35 96 36 36 37 95 38 37 39 38 40 39 41 89 42 40 43
REMARK SMILES IDX 94 44 88 45 90 46 41 47 93 48 87 49 86 50 42 52 74 53 54 54
REMARK SMILES IDX 73 55 55 56 58 57 72 58 91 59 56 60 57 61 71 63 92 64 59 65
REMARK SMILES IDX 43 66 44 67 52 68 45 69 47 70 53 71 46 72 48 73 49 74 50 75
REMARK SMILES IDX 51 76 75 77 76 78 84 79 77 80 79 81 85 82 78 83 80 84 81 85
REMARK SMILES IDX 82 86 83 87 60 88 61 89 69 90 62 91 64 92 70 93 63 94 65 95
REMARK SMILES IDX 66 96 67 97 68 98
REMARK H PARENT 90 51 58 62
REMARK Flexibility Score: inf
ROOT
ATOM      1  C   UNL A   1      34.025  29.761  26.841  1.00  0.00     0.202 C 
ENDROOT
BRANCH   1   2
ATOM      2  C   UNL A   1      32.742  29.051  26.416  1.00  0.00     0.261 C 
BRANCH   2   3
ATOM      3  O   UNL A   1      32.426  28.944  25.021  1.00  0.00    -0.463 OA
BRANCH   3   4
ATOM      4  C   UNL A   1      31.155  29.146  24.625  1.00  0.00     0.305 C 
ATOM      5  O   UNL A   1      30.674  30.274  24.554  1.00  0.00    -0.252 OA
BRANCH   4   6
ATOM      6  C   UNL A   1      30.383  27.907  24.213  1.00  0.00     0.123 C 
BRANCH   6   7
ATOM      7  C   UNL A   1      31.151  26.622  23.911  1.00  0.00     0.021 C 
BRANCH   7   8
ATOM      8  C   UNL A   1      30.835  25.339  24.684  1.00  0.00     0.098 C 
BRANCH   8   9
ATOM      9  C   UNL A   1      31.888  24.283  24.818  1.00  0.00     0.195 A 
ATOM     10  N   UNL A   1      33.161  24.475  25.126  1.00  0.00    -0.213 NA
ATOM     11  O   UNL A   1      31.567  22.980  24.535  1.00  0.00    -0.440 OA
ATOM     12  C   UNL A   1      33.725  23.226  25.012  1.00  0.00     0.117 A 
ATOM     13  C   UNL A   1      32.746  22.298  24.714  1.00  0.00     0.162 A 
BRANCH  12  14
ATOM     14  C   UNL A   1      35.140  22.932  25.160  1.00  0.00     0.006 A 
ATOM     15  C   UNL A   1      36.021  23.901  25.638  1.00  0.00     0.012 A 
ATOM     16  C   UNL A   1      35.641  21.655  24.892  1.00  0.00     0.032 A 
ATOM     17  C   UNL A   1      37.352  23.600  25.938  1.00  0.00     0.023 A 
ATOM     18  C   UNL A   1      36.987  21.351  25.149  1.00  0.00     0.060 A 
ATOM     19  C   UNL A   1      37.838  22.318  25.696  1.00  0.00     0.059 A 
ATOM     20  Cl  UNL A   1      37.532  19.754  24.774  1.00  0.00    -0.083 Cl
ATOM     21  Cl  UNL A   1      39.487  21.995  26.093  1.00  0.00    -0.083 Cl
ENDBRANCH  12  14
BRANCH  13  22
ATOM     22  C   UNL A   1      32.723  20.853  24.567  1.00  0.00     0.020 A 
ATOM     23  C   UNL A   1      32.902  20.010  25.669  1.00  0.00     0.012 A 
ATOM     24  C   UNL A   1      32.452  20.279  23.316  1.00  0.00     0.012 A 
ATOM     25  C   UNL A   1      32.786  18.623  25.522  1.00  0.00     0.001 A 
ATOM     26  C   UNL A   1      32.348  18.896  23.167  1.00  0.00     0.001 A 
ATOM     27  C   UNL A   1      32.507  18.068  24.273  1.00  0.00     0.000 A 
ENDBRANCH  13  22
ENDBRANCH   8   9
ENDBRANCH   7   8
ENDBRANCH   6   7
ENDBRANCH   4   6
ENDBRANCH   3   4
ENDBRANCH   2   3
ENDBRANCH   1   2
BRANCH   1  28
ATOM     28  O   UNL A   1      33.874  30.853  27.737  1.00  0.00    -0.374 OA
BRANCH  28  29
ATOM     29  C   UNL A   1      32.781  31.710  27.382  1.00  0.00     0.202 C 
BRANCH  29  30
ATOM     30  C   UNL A   1      33.096  33.208  27.499  1.00  0.00     0.261 C 
BRANCH  30  31
ATOM     31  O   UNL A   1      32.516  33.777  28.691  1.00  0.00    -0.460 OA
BRANCH  31  32
ATOM     32  C   UNL A   1      33.294  34.665  29.344  1.00  0.00     0.338 C 
ATOM     33  O   UNL A   1      32.960  35.759  29.795  1.00  0.00    -0.246 OA
BRANCH  32  34
ATOM     34  C   UNL A   1      34.592  34.061  29.677  1.00  0.00     0.060 A 
ATOM     35  C   UNL A   1      34.611  33.165  30.750  1.00  0.00     0.016 A 
ATOM     36  C   UNL A   1      35.773  34.402  29.030  1.00  0.00     0.016 A 
ATOM     37  C   UNL A   1      35.801  32.652  31.240  1.00  0.00     0.010 A 
ATOM     38  C   UNL A   1      36.976  33.863  29.500  1.00  0.00     0.010 A 
ATOM     39  C   UNL A   1      36.998  33.008  30.621  1.00  0.00    -0.014 A 
BRANCH  39  40
ATOM     40  C   UNL A   1      38.280  32.532  31.186  1.00  0.00     0.031 A 
ATOM     41  C   UNL A   1      38.966  31.363  30.544  1.00  0.00     0.074 A 
ATOM     42  C   UNL A   1      38.806  33.136  32.266  1.00  0.00     0.049 A 
ATOM     43  N   UNL A   1      39.954  30.641  30.992  1.00  0.00    -0.248 NA
ATOM     44  C   UNL A   1      38.468  30.951  29.219  1.00  0.00     0.031 C 
ATOM     45  C   UNL A   1      38.258  34.326  32.923  1.00  0.00     0.029 A 
ATOM     46  N   UNL A   1      39.897  32.807  33.030  1.00  0.00    -0.354 N 
ATOM     47  C   UNL A   1      40.146  29.640  30.048  1.00  0.00     0.074 A 
ATOM     48  C   UNL A   1      39.199  29.870  28.981  1.00  0.00     0.031 C 
ATOM     49  C   UNL A   1      38.984  34.597  34.018  1.00  0.00     0.029 A 
ATOM     50  C   UNL A   1      39.997  33.560  34.178  1.00  0.00     0.049 A 
ATOM     51  H   UNL A   1      40.542  32.105  32.782  1.00  0.00     0.167 HD
ATOM     52  C   UNL A   1      41.030  28.618  30.087  1.00  0.00     0.034 A 
ATOM     53  C   UNL A   1      40.763  33.382  35.272  1.00  0.00     0.034 A 
ATOM     54  C   UNL A   1      41.998  28.442  31.135  1.00  0.00     0.049 A 
ATOM     55  C   UNL A   1      41.708  32.212  35.304  1.00  0.00     0.074 A 
ATOM     56  C   UNL A   1      42.980  27.475  31.245  1.00  0.00     0.029 A 
ATOM     57  N   UNL A   1      42.095  29.246  32.260  1.00  0.00    -0.354 N 
ATOM     58  N   UNL A   1      41.933  31.309  34.379  1.00  0.00    -0.248 NA
ATOM     59  C   UNL A   1      42.509  32.037  36.523  1.00  0.00     0.031 C 
ATOM     60  C   UNL A   1      43.654  27.677  32.453  1.00  0.00     0.029 A 
ATOM     61  C   UNL A   1      43.105  28.784  33.083  1.00  0.00     0.049 A 
ATOM     62  H   UNL A   1      41.529  30.029  32.445  1.00  0.00     0.167 HD
ATOM     63  C   UNL A   1      42.912  30.470  34.897  1.00  0.00     0.074 A 
ATOM     64  C   UNL A   1      43.259  30.992  36.204  1.00  0.00     0.031 C 
ATOM     65  C   UNL A   1      43.459  29.353  34.357  1.00  0.00     0.034 A 
BRANCH  52  66
ATOM     66  C   UNL A   1      40.994  27.602  28.980  1.00  0.00     0.023 A 
ATOM     67  C   UNL A   1      40.022  26.582  28.985  1.00  0.00     0.012 A 
ATOM     68  C   UNL A   1      41.874  27.717  27.886  1.00  0.00     0.148 A 
ATOM     69  C   UNL A   1      39.936  25.683  27.922  1.00  0.00     0.002 A 
ATOM     70  C   UNL A   1      41.757  26.843  26.813  1.00  0.00     0.091 A 
ATOM     71  F   UNL A   1      42.806  28.680  27.916  1.00  0.00    -0.205 F 
ATOM     72  C   UNL A   1      40.793  25.821  26.832  1.00  0.00     0.022 A 
BRANCH  70  73
ATOM     73  S   UNL A   1      42.765  26.980  25.333  1.00  0.00     0.127 S 
ATOM     74  O   UNL A   1      44.114  27.009  25.896  1.00  0.00    -0.237 OA
ATOM     75  O   UNL A   1      42.428  25.750  24.617  1.00  0.00    -0.237 OA
ATOM     76  O   UNL A   1      42.346  28.208  24.671  1.00  0.00    -0.744 OA
ENDBRANCH  70  73
ENDBRANCH  52  66
BRANCH  53  77
ATOM     77  C   UNL A   1      40.630  34.300  36.438  1.00  0.00     0.023 A 
ATOM     78  C   UNL A   1      41.162  35.601  36.368  1.00  0.00     0.012 A 
ATOM     79  C   UNL A   1      39.965  33.895  37.613  1.00  0.00     0.148 A 
ATOM     80  C   UNL A   1      41.059  36.470  37.456  1.00  0.00     0.002 A 
ATOM     81  C   UNL A   1      39.811  34.786  38.668  1.00  0.00     0.091 A 
ATOM     82  F   UNL A   1      39.488  32.643  37.676  1.00  0.00    -0.205 F 
ATOM     83  C   UNL A   1      40.373  36.068  38.600  1.00  0.00     0.022 A 
BRANCH  81  84
ATOM     84  S   UNL A   1      38.815  34.387  40.109  1.00  0.00     0.127 S 
ATOM     85  O   UNL A   1      39.766  33.655  40.939  1.00  0.00    -0.237 OA
ATOM     86  O   UNL A   1      38.450  35.713  40.609  1.00  0.00    -0.237 OA
ATOM     87  O   UNL A   1      37.688  33.618  39.593  1.00  0.00    -0.744 OA
ENDBRANCH  81  84
ENDBRANCH  53  77
BRANCH  65  88
ATOM     88  C   UNL A   1      44.501  28.634  35.167  1.00  0.00     0.023 A 
ATOM     89  C   UNL A   1      45.848  29.041  35.082  1.00  0.00     0.012 A 
ATOM     90  C   UNL A   1      44.137  27.616  36.068  1.00  0.00     0.148 A 
ATOM     91  C   UNL A   1      46.822  28.423  35.865  1.00  0.00     0.002 A 
ATOM     92  C   UNL A   1      45.104  27.040  36.881  1.00  0.00     0.091 A 
ATOM     93  F   UNL A   1      42.852  27.237  36.117  1.00  0.00    -0.205 F 
ATOM     94  C   UNL A   1      46.449  27.434  36.772  1.00  0.00     0.022 A 
BRANCH  92  95
ATOM     95  S   UNL A   1      44.704  25.828  38.143  1.00  0.00     0.127 S 
ATOM     96  O   UNL A   1      46.016  25.565  38.730  1.00  0.00    -0.237 OA
ATOM     97  O   UNL A   1      43.785  26.571  39.007  1.00  0.00    -0.237 OA
ATOM     98  O   UNL A   1      44.097  24.703  37.443  1.00  0.00    -0.744 OA
ENDBRANCH  92  95
ENDBRANCH  65  88
ENDBRANCH  39  40
ENDBRANCH  32  34
ENDBRANCH  31  32
ENDBRANCH  30  31
ENDBRANCH  29  30
ENDBRANCH  28  29
ENDBRANCH   1  28
TORSDOF 22
ENDMDL
MODEL 3
REMARK VINA RESULT:     -11.0      2.546      8.086
REMARK SMILES O=C(CCCc1nc(-c2ccc(Cl)c(Cl)c2)c(-c2ccccc2)o1)OCCOCCOC(=O)c1ccc(-c2c3nc(c(-c4cccc(S(=O)(=O)[O-])c4F)c4ccc([nH]4)c(-c4cccc(S(=O)(=O)[O-])c4F)c4nc(c(-c5cccc(S(=O)(=O)[O-])c5F)c5ccc2[nH]5)C=C4)C=C3)cc1
REMARK SMILES IDX 27 1 26 2 25 3 2 4 1 5 3 6 4 7 5 8 6 9 7 10 24 11 8 12 17 13
REMARK SMILES IDX 9 14 10 15 16 16 11 17 14 18 12 19 15 20 13 21 18 22 19 23
REMARK SMILES IDX 23 24 20 25 22 26 21 27 28 28 29 29 30 30 31 31 32 32 33 33
REMARK SMILES IDX 34 34 35 35 96 36 36 37 95 38 37 39 38 40 39 41 89 42 40 43
REMARK SMILES IDX 94 44 88 45 90 46 41 47 93 48 87 49 86 50 42 52 74 53 54 54
REMARK SMILES IDX 73 55 55 56 58 57 72 58 91 59 56 60 57 61 71 63 92 64 59 65
REMARK SMILES IDX 43 66 44 67 52 68 45 69 47 70 53 71 46 72 48 73 49 74 50 75
REMARK SMILES IDX 51 76 75 77 76 78 84 79 77 80 79 81 85 82 78 83 80 84 81 85
REMARK SMILES IDX 82 86 83 87 60 88 61 89 69 90 62 91 64 92 70 93 63 94 65 95
REMARK SMILES IDX 66 96 67 97 68 98
REMARK H PARENT 90 51 58 62
REMARK Flexibility Score: inf
ROOT
ATOM      1  C   UNL A   1      33.528  30.326  26.900  1.00  0.00     0.202 C 
ENDROOT
BRANCH   1   2
ATOM      2  C   UNL A   1      32.293  29.634  26.328  1.00  0.00     0.261 C 
BRANCH   2   3
ATOM      3  O   UNL A   1      32.169  29.475  24.908  1.00  0.00    -0.463 OA
BRANCH   3   4
ATOM      4  C   UNL A   1      30.939  29.392  24.367  1.00  0.00     0.305 C 
ATOM      5  O   UNL A   1      30.216  30.378  24.259  1.00  0.00    -0.252 OA
BRANCH   4   6
ATOM      6  C   UNL A   1      30.534  28.027  23.845  1.00  0.00     0.123 C 
BRANCH   6   7
ATOM      7  C   UNL A   1      31.558  26.894  23.859  1.00  0.00     0.021 C 
BRANCH   7   8
ATOM      8  C   UNL A   1      31.093  25.440  23.963  1.00  0.00     0.098 C 
BRANCH   8   9
ATOM      9  C   UNL A   1      32.093  24.367  24.262  1.00  0.00     0.195 A 
ATOM     10  N   UNL A   1      33.351  24.544  24.634  1.00  0.00    -0.213 NA
ATOM     11  O   UNL A   1      31.739  23.054  24.080  1.00  0.00    -0.440 OA
ATOM     12  C   UNL A   1      33.872  23.273  24.672  1.00  0.00     0.117 A 
ATOM     13  C   UNL A   1      32.878  22.353  24.397  1.00  0.00     0.162 A 
BRANCH  12  14
ATOM     14  C   UNL A   1      35.263  22.947  24.939  1.00  0.00     0.006 A 
ATOM     15  C   UNL A   1      36.122  23.899  25.485  1.00  0.00     0.012 A 
ATOM     16  C   UNL A   1      35.754  21.658  24.719  1.00  0.00     0.032 A 
ATOM     17  C   UNL A   1      37.416  23.569  25.896  1.00  0.00     0.023 A 
ATOM     18  C   UNL A   1      37.067  21.324  25.088  1.00  0.00     0.060 A 
ATOM     19  C   UNL A   1      37.891  22.275  25.701  1.00  0.00     0.059 A 
ATOM     20  Cl  UNL A   1      37.603  19.713  24.767  1.00  0.00    -0.083 Cl
ATOM     21  Cl  UNL A   1      39.493  21.917  26.235  1.00  0.00    -0.083 Cl
ENDBRANCH  12  14
BRANCH  13  22
ATOM     22  C   UNL A   1      32.808  20.902  24.382  1.00  0.00     0.020 A 
ATOM     23  C   UNL A   1      32.971  20.157  25.555  1.00  0.00     0.012 A 
ATOM     24  C   UNL A   1      32.506  20.227  23.190  1.00  0.00     0.012 A 
ATOM     25  C   UNL A   1      32.810  18.767  25.535  1.00  0.00     0.001 A 
ATOM     26  C   UNL A   1      32.357  18.840  23.168  1.00  0.00     0.001 A 
ATOM     27  C   UNL A   1      32.500  18.111  24.344  1.00  0.00     0.000 A 
ENDBRANCH  13  22
ENDBRANCH   8   9
ENDBRANCH   7   8
ENDBRANCH   6   7
ENDBRANCH   4   6
ENDBRANCH   3   4
ENDBRANCH   2   3
ENDBRANCH   1   2
BRANCH   1  28
ATOM     28  O   UNL A   1      33.290  31.357  27.848  1.00  0.00    -0.374 OA
BRANCH  28  29
ATOM     29  C   UNL A   1      32.209  32.218  27.466  1.00  0.00     0.202 C 
BRANCH  29  30
ATOM     30  C   UNL A   1      32.619  33.681  27.248  1.00  0.00     0.261 C 
BRANCH  30  31
ATOM     31  O   UNL A   1      32.423  34.466  28.444  1.00  0.00    -0.460 OA
BRANCH  31  32
ATOM     32  C   UNL A   1      33.438  35.298  28.760  1.00  0.00     0.338 C 
ATOM     33  O   UNL A   1      33.509  36.505  28.539  1.00  0.00    -0.246 OA
BRANCH  32  34
ATOM     34  C   UNL A   1      34.399  34.621  29.642  1.00  0.00     0.060 A 
ATOM     35  C   UNL A   1      35.732  34.601  29.221  1.00  0.00     0.016 A 
ATOM     36  C   UNL A   1      34.023  33.956  30.802  1.00  0.00     0.016 A 
ATOM     37  C   UNL A   1      36.692  33.867  29.899  1.00  0.00     0.010 A 
ATOM     38  C   UNL A   1      34.994  33.239  31.509  1.00  0.00     0.010 A 
ATOM     39  C   UNL A   1      36.324  33.169  31.048  1.00  0.00    -0.014 A 
BRANCH  39  40
ATOM     40  C   UNL A   1      37.320  32.317  31.733  1.00  0.00     0.031 A 
ATOM     41  C   UNL A   1      37.807  32.721  33.093  1.00  0.00     0.074 A 
ATOM     42  C   UNL A   1      37.787  31.208  31.131  1.00  0.00     0.049 A 
ATOM     43  N   UNL A   1      38.825  32.268  33.770  1.00  0.00    -0.248 NA
ATOM     44  C   UNL A   1      37.045  33.779  33.780  1.00  0.00     0.031 C 
ATOM     45  C   UNL A   1      37.327  30.686  29.842  1.00  0.00     0.029 A 
ATOM     46  N   UNL A   1      38.783  30.342  31.504  1.00  0.00    -0.354 N 
ATOM     47  C   UNL A   1      38.878  33.037  34.926  1.00  0.00     0.074 A 
ATOM     48  C   UNL A   1      37.766  33.960  34.879  1.00  0.00     0.031 C 
ATOM     49  C   UNL A   1      38.071  29.622  29.508  1.00  0.00     0.029 A 
ATOM     50  C   UNL A   1      39.104  29.435  30.520  1.00  0.00     0.049 A 
ATOM     51  H   UNL A   1      39.223  30.367  32.385  1.00  0.00     0.167 HD
ATOM     52  C   UNL A   1      39.787  32.978  35.925  1.00  0.00     0.034 A 
ATOM     53  C   UNL A   1      40.160  28.606  30.411  1.00  0.00     0.034 A 
ATOM     54  C   UNL A   1      40.853  32.015  35.973  1.00  0.00     0.049 A 
ATOM     55  C   UNL A   1      41.178  28.591  31.518  1.00  0.00     0.074 A 
ATOM     56  C   UNL A   1      41.797  31.826  36.966  1.00  0.00     0.029 A 
ATOM     57  N   UNL A   1      41.123  31.088  34.979  1.00  0.00    -0.354 N 
ATOM     58  N   UNL A   1      41.186  29.271  32.640  1.00  0.00    -0.248 NA
ATOM     59  C   UNL A   1      42.328  27.692  31.352  1.00  0.00     0.031 C 
ATOM     60  C   UNL A   1      42.657  30.802  36.558  1.00  0.00     0.029 A 
ATOM     61  C   UNL A   1      42.234  30.339  35.322  1.00  0.00     0.049 A 
ATOM     62  H   UNL A   1      40.602  30.979  34.151  1.00  0.00     0.167 HD
ATOM     63  C   UNL A   1      42.330  28.871  33.320  1.00  0.00     0.074 A 
ATOM     64  C   UNL A   1      42.972  27.865  32.498  1.00  0.00     0.031 C 
ATOM     65  C   UNL A   1      42.823  29.311  34.504  1.00  0.00     0.034 A 
BRANCH  52  66
ATOM     66  C   UNL A   1      39.687  33.979  37.041  1.00  0.00     0.023 A 
ATOM     67  C   UNL A   1      40.085  35.314  36.834  1.00  0.00     0.012 A 
ATOM     68  C   UNL A   1      39.111  33.609  38.273  1.00  0.00     0.148 A 
ATOM     69  C   UNL A   1      39.922  36.264  37.843  1.00  0.00     0.002 A 
ATOM     70  C   UNL A   1      38.917  34.568  39.258  1.00  0.00     0.091 A 
ATOM     71  F   UNL A   1      38.764  32.327  38.454  1.00  0.00    -0.205 F 
ATOM     72  C   UNL A   1      39.327  35.895  39.048  1.00  0.00     0.022 A 
BRANCH  70  73
ATOM     73  S   UNL A   1      38.097  34.209  40.815  1.00  0.00     0.127 S 
ATOM     74  O   UNL A   1      36.934  33.445  40.368  1.00  0.00    -0.237 OA
ATOM     75  O   UNL A   1      39.110  33.423  41.520  1.00  0.00    -0.237 OA
ATOM     76  O   UNL A   1      37.794  35.500  41.419  1.00  0.00    -0.744 OA
ENDBRANCH  70  73
ENDBRANCH  52  66
BRANCH  53  77
ATOM     77  C   UNL A   1      40.332  27.766  29.192  1.00  0.00     0.023 A 
ATOM     78  C   UNL A   1      39.538  26.618  29.016  1.00  0.00     0.012 A 
ATOM     79  C   UNL A   1      41.270  28.109  28.197  1.00  0.00     0.148 A 
ATOM     80  C   UNL A   1      39.695  25.812  27.887  1.00  0.00     0.002 A 
ATOM     81  C   UNL A   1      41.377  27.337  27.046  1.00  0.00     0.091 A 
ATOM     82  F   UNL A   1      42.040  29.190  28.391  1.00  0.00    -0.205 F 
ATOM     83  C   UNL A   1      40.604  26.177  26.897  1.00  0.00     0.022 A 
BRANCH  81  84
ATOM     84  S   UNL A   1      42.418  27.830  25.667  1.00  0.00     0.127 S 
ATOM     85  O   UNL A   1      43.719  27.978  26.311  1.00  0.00    -0.237 OA
ATOM     86  O   UNL A   1      42.301  26.683  24.767  1.00  0.00    -0.237 OA
ATOM     87  O   UNL A   1      41.815  29.052  25.150  1.00  0.00    -0.744 OA
ENDBRANCH  81  84
ENDBRANCH  53  77
BRANCH  65  88
ATOM     88  C   UNL A   1      44.105  28.695  34.989  1.00  0.00     0.023 A 
ATOM     89  C   UNL A   1      45.331  29.328  34.704  1.00  0.00     0.012 A 
ATOM     90  C   UNL A   1      44.088  27.539  35.793  1.00  0.00     0.148 A 
ATOM     91  C   UNL A   1      46.526  28.803  35.191  1.00  0.00     0.002 A 
ATOM     92  C   UNL A   1      45.278  27.050  36.316  1.00  0.00     0.091 A 
ATOM     93  F   UNL A   1      42.911  26.947  36.036  1.00  0.00    -0.205 F 
ATOM     94  C   UNL A   1      46.499  27.673  36.006  1.00  0.00     0.022 A 
BRANCH  92  95
ATOM     95  S   UNL A   1      45.332  25.661  37.451  1.00  0.00     0.127 S 
ATOM     96  O   UNL A   1      44.959  24.549  36.578  1.00  0.00    -0.237 OA
ATOM     97  O   UNL A   1      46.732  25.661  37.877  1.00  0.00    -0.237 OA
ATOM     98  O   UNL A   1      44.378  25.969  38.510  1.00  0.00    -0.744 OA
ENDBRANCH  92  95
ENDBRANCH  65  88
ENDBRANCH  39  40
ENDBRANCH  32  34
ENDBRANCH  31  32
ENDBRANCH  30  31
ENDBRANCH  29  30
ENDBRANCH  28  29
ENDBRANCH   1  28
TORSDOF 22
ENDMDL
