MODEL 1
REMARK VINA RESULT:     -10.2      0.000      0.000
REMARK SMILES Cc1ncc(C(=O)OCCOCCOC(=O)c2ccc(-c3c4nc(c(-c5cccc(S(=O)(=O)[O-])c5F)c5ccc([nH]5)c(-c5cccc(S(=O)(=O)[O-])c5F)c5nc(c(-c6cccc(S(=O)(=O)[O-])c6F)c6ccc3[nH]6)C=C5)C=C4)cc2)cc1C#N
REMARK SMILES IDX 12 1 11 2 10 3 9 4 8 5 6 6 7 7 5 8 1 9 2 10 3 11 81 12 4 13
REMARK SMILES IDX 80 14 82 15 83 16 13 17 14 18 15 19 16 20 17 21 18 22 79 23
REMARK SMILES IDX 19 24 78 25 20 26 21 27 22 28 72 29 23 30 77 31 71 32 73 33
REMARK SMILES IDX 24 34 76 35 70 36 69 37 25 39 57 40 37 41 56 42 38 43 41 44
REMARK SMILES IDX 55 45 74 46 39 47 40 48 54 50 75 51 42 52 26 53 27 54 35 55
REMARK SMILES IDX 28 56 30 57 36 58 29 59 31 60 32 61 33 62 34 63 58 64 59 65
REMARK SMILES IDX 67 66 60 67 62 68 68 69 61 70 63 71 64 72 65 73 66 74 43 75
REMARK SMILES IDX 44 76 52 77 45 78 47 79 53 80 46 81 48 82 49 83 50 84 51 85
REMARK H PARENT 73 38 41 49
REMARK Flexibility Score: inf
ROOT
ATOM      1  C   UNL A   1      31.541  31.659  26.520  1.00  0.00     0.202 C 
ENDROOT
BRANCH   1   2
ATOM      2  O   UNL A   1      32.090  30.527  27.193  1.00  0.00    -0.374 OA
BRANCH   2   3
ATOM      3  C   UNL A   1      31.855  29.234  26.644  1.00  0.00     0.202 C 
BRANCH   3   4
ATOM      4  C   UNL A   1      32.771  28.727  25.525  1.00  0.00     0.261 C 
BRANCH   4   5
ATOM      5  O   UNL A   1      32.150  28.781  24.233  1.00  0.00    -0.460 OA
BRANCH   5   6
ATOM      6  C   UNL A   1      30.996  28.077  24.151  1.00  0.00     0.339 C 
ATOM      7  O   UNL A   1      29.904  28.497  23.801  1.00  0.00    -0.246 OA
BRANCH   6   8
ATOM      8  C   UNL A   1      31.241  26.645  24.377  1.00  0.00     0.079 A 
ATOM      9  C   UNL A   1      31.864  22.451  24.295  1.00  0.00     0.068 C 
ATOM     10  C   UNL A   1      31.706  23.936  24.455  1.00  0.00     0.055 A 
ATOM     11  N   UNL A   1      32.246  24.660  23.439  1.00  0.00    -0.259 NA
ATOM     12  C   UNL A   1      30.987  24.531  25.501  1.00  0.00     0.074 A 
ATOM     13  C   UNL A   1      31.997  25.988  23.418  1.00  0.00     0.127 A 
ATOM     14  C   UNL A   1      30.762  25.915  25.464  1.00  0.00     0.038 A 
BRANCH  12  15
ATOM     15  C   UNL A   1      30.464  23.752  26.580  1.00  0.00     0.101 C 
ATOM     16  N   UNL A   1      30.047  23.081  27.432  1.00  0.00    -0.192 NA
ENDBRANCH  12  15
ENDBRANCH   6   8
ENDBRANCH   5   6
ENDBRANCH   4   5
ENDBRANCH   3   4
ENDBRANCH   2   3
ENDBRANCH   1   2
BRANCH   1  17
ATOM     17  C   UNL A   1      32.044  33.068  26.871  1.00  0.00     0.261 C 
BRANCH  17  18
ATOM     18  O   UNL A   1      32.787  33.123  28.100  1.00  0.00    -0.460 OA
BRANCH  18  19
ATOM     19  C   UNL A   1      33.883  33.924  28.068  1.00  0.00     0.338 C 
ATOM     20  O   UNL A   1      33.912  35.133  27.923  1.00  0.00    -0.246 OA
BRANCH  19  21
ATOM     21  C   UNL A   1      35.064  33.129  28.443  1.00  0.00     0.060 A 
ATOM     22  C   UNL A   1      34.869  31.880  29.046  1.00  0.00     0.016 A 
ATOM     23  C   UNL A   1      36.348  33.643  28.260  1.00  0.00     0.016 A 
ATOM     24  C   UNL A   1      35.963  31.139  29.478  1.00  0.00     0.010 A 
ATOM     25  C   UNL A   1      37.444  32.907  28.715  1.00  0.00     0.010 A 
ATOM     26  C   UNL A   1      37.254  31.666  29.348  1.00  0.00    -0.014 A 
BRANCH  26  27
ATOM     27  C   UNL A   1      38.386  30.972  29.998  1.00  0.00     0.031 A 
ATOM     28  C   UNL A   1      38.759  31.345  31.403  1.00  0.00     0.074 A 
ATOM     29  C   UNL A   1      39.055  30.002  29.349  1.00  0.00     0.049 A 
ATOM     30  N   UNL A   1      39.699  30.848  32.162  1.00  0.00    -0.248 NA
ATOM     31  C   UNL A   1      37.972  32.415  32.043  1.00  0.00     0.031 C 
ATOM     32  C   UNL A   1      38.775  29.553  27.986  1.00  0.00     0.029 A 
ATOM     33  N   UNL A   1      40.115  29.231  29.749  1.00  0.00    -0.354 N 
ATOM     34  C   UNL A   1      39.632  31.553  33.356  1.00  0.00     0.074 A 
ATOM     35  C   UNL A   1      38.569  32.523  33.223  1.00  0.00     0.031 C 
ATOM     36  C   UNL A   1      39.653  28.590  27.658  1.00  0.00     0.029 A 
ATOM     37  C   UNL A   1      40.567  28.370  28.778  1.00  0.00     0.049 A 
ATOM     38  H   UNL A   1      40.516  29.288  30.647  1.00  0.00     0.167 HD
ATOM     39  C   UNL A   1      40.379  31.390  34.470  1.00  0.00     0.034 A 
ATOM     40  C   UNL A   1      41.605  27.510  28.786  1.00  0.00     0.034 A 
ATOM     41  C   UNL A   1      41.420  30.412  34.606  1.00  0.00     0.049 A 
ATOM     42  C   UNL A   1      42.444  27.372  30.026  1.00  0.00     0.074 A 
ATOM     43  C   UNL A   1      42.195  30.143  35.721  1.00  0.00     0.029 A 
ATOM     44  N   UNL A   1      41.842  29.557  33.602  1.00  0.00    -0.354 N 
ATOM     45  N   UNL A   1      42.306  27.979  31.179  1.00  0.00    -0.248 NA
ATOM     46  C   UNL A   1      43.565  26.419  29.980  1.00  0.00     0.031 C 
ATOM     47  C   UNL A   1      43.112  29.149  35.379  1.00  0.00     0.029 A 
ATOM     48  C   UNL A   1      42.880  28.771  34.065  1.00  0.00     0.049 A 
ATOM     49  H   UNL A   1      41.461  29.516  32.697  1.00  0.00     0.167 HD
ATOM     50  C   UNL A   1      43.299  27.463  32.004  1.00  0.00     0.074 A 
ATOM     51  C   UNL A   1      44.033  26.492  31.222  1.00  0.00     0.031 C 
ATOM     52  C   UNL A   1      43.574  27.775  33.293  1.00  0.00     0.034 A 
BRANCH  39  53
ATOM     53  C   UNL A   1      40.086  32.259  35.659  1.00  0.00     0.023 A 
ATOM     54  C   UNL A   1      40.771  33.480  35.806  1.00  0.00     0.012 A 
ATOM     55  C   UNL A   1      39.045  31.930  36.547  1.00  0.00     0.148 A 
ATOM     56  C   UNL A   1      40.422  34.366  36.824  1.00  0.00     0.002 A 
ATOM     57  C   UNL A   1      38.685  32.829  37.542  1.00  0.00     0.091 A 
ATOM     58  F   UNL A   1      38.416  30.757  36.385  1.00  0.00    -0.205 F 
ATOM     59  C   UNL A   1      39.371  34.048  37.681  1.00  0.00     0.022 A 
BRANCH  57  60
ATOM     60  S   UNL A   1      37.324  32.532  38.675  1.00  0.00     0.127 S 
ATOM     61  O   UNL A   1      36.176  32.946  37.869  1.00  0.00    -0.237 OA
ATOM     62  O   UNL A   1      37.423  31.090  38.901  1.00  0.00    -0.237 OA
ATOM     63  O   UNL A   1      37.583  33.358  39.845  1.00  0.00    -0.744 OA
ENDBRANCH  57  60
ENDBRANCH  39  53
BRANCH  40  64
ATOM     64  C   UNL A   1      41.869  26.683  27.579  1.00  0.00     0.023 A 
ATOM     65  C   UNL A   1      42.487  27.270  26.460  1.00  0.00     0.012 A 
ATOM     66  C   UNL A   1      41.578  25.305  27.567  1.00  0.00     0.148 A 
ATOM     67  C   UNL A   1      42.815  26.496  25.345  1.00  0.00     0.002 A 
ATOM     68  C   UNL A   1      41.934  24.535  26.468  1.00  0.00     0.091 A 
ATOM     69  F   UNL A   1      40.991  24.774  28.648  1.00  0.00    -0.205 F 
ATOM     70  C   UNL A   1      42.548  25.129  25.353  1.00  0.00     0.022 A 
BRANCH  68  71
ATOM     71  S   UNL A   1      41.698  22.755  26.412  1.00  0.00     0.127 S 
ATOM     72  O   UNL A   1      42.331  22.332  27.659  1.00  0.00    -0.237 OA
ATOM     73  O   UNL A   1      40.239  22.650  26.394  1.00  0.00    -0.237 OA
ATOM     74  O   UNL A   1      42.357  22.305  25.194  1.00  0.00    -0.744 OA
ENDBRANCH  68  71
ENDBRANCH  40  64
BRANCH  52  75
ATOM     75  C   UNL A   1      44.700  27.061  33.990  1.00  0.00     0.023 A 
ATOM     76  C   UNL A   1      45.989  27.622  33.973  1.00  0.00     0.012 A 
ATOM     77  C   UNL A   1      44.427  25.957  34.824  1.00  0.00     0.148 A 
ATOM     78  C   UNL A   1      46.994  27.101  34.789  1.00  0.00     0.002 A 
ATOM     79  C   UNL A   1      45.424  25.463  35.655  1.00  0.00     0.091 A 
ATOM     80  F   UNL A   1      43.185  25.452  34.823  1.00  0.00    -0.205 F 
ATOM     81  C   UNL A   1      46.707  26.034  35.640  1.00  0.00     0.022 A 
BRANCH  79  82
ATOM     82  S   UNL A   1      45.137  24.134  36.829  1.00  0.00     0.127 S 
ATOM     83  O   UNL A   1      44.129  24.727  37.707  1.00  0.00    -0.237 OA
ATOM     84  O   UNL A   1      44.643  23.062  35.967  1.00  0.00    -0.237 OA
ATOM     85  O   UNL A   1      46.422  23.869  37.464  1.00  0.00    -0.744 OA
ENDBRANCH  79  82
ENDBRANCH  52  75
ENDBRANCH  26  27
ENDBRANCH  19  21
ENDBRANCH  18  19
ENDBRANCH  17  18
ENDBRANCH   1  17
TORSDOF 18
ENDMDL
MODEL 2
REMARK VINA RESULT:     -10.1      5.549      8.484
REMARK SMILES Cc1ncc(C(=O)OCCOCCOC(=O)c2ccc(-c3c4nc(c(-c5cccc(S(=O)(=O)[O-])c5F)c5ccc([nH]5)c(-c5cccc(S(=O)(=O)[O-])c5F)c5nc(c(-c6cccc(S(=O)(=O)[O-])c6F)c6ccc3[nH]6)C=C5)C=C4)cc2)cc1C#N
REMARK SMILES IDX 12 1 11 2 10 3 9 4 8 5 6 6 7 7 5 8 1 9 2 10 3 11 81 12 4 13
REMARK SMILES IDX 80 14 82 15 83 16 13 17 14 18 15 19 16 20 17 21 18 22 79 23
REMARK SMILES IDX 19 24 78 25 20 26 21 27 22 28 72 29 23 30 77 31 71 32 73 33
REMARK SMILES IDX 24 34 76 35 70 36 69 37 25 39 57 40 37 41 56 42 38 43 41 44
REMARK SMILES IDX 55 45 74 46 39 47 40 48 54 50 75 51 42 52 26 53 27 54 35 55
REMARK SMILES IDX 28 56 30 57 36 58 29 59 31 60 32 61 33 62 34 63 58 64 59 65
REMARK SMILES IDX 67 66 60 67 62 68 68 69 61 70 63 71 64 72 65 73 66 74 43 75
REMARK SMILES IDX 44 76 52 77 45 78 47 79 53 80 46 81 48 82 49 83 50 84 51 85
REMARK H PARENT 73 38 41 49
REMARK Flexibility Score: inf
ROOT
ATOM      1  C   UNL A   1      36.088  21.824  24.151  1.00  0.00     0.202 C 
ENDROOT
BRANCH   1   2
ATOM      2  O   UNL A   1      36.219  23.236  23.988  1.00  0.00    -0.374 OA
BRANCH   2   3
ATOM      3  C   UNL A   1      35.733  24.085  25.023  1.00  0.00     0.202 C 
BRANCH   3   4
ATOM      4  C   UNL A   1      34.832  23.487  26.108  1.00  0.00     0.261 C 
BRANCH   4   5
ATOM      5  O   UNL A   1      33.447  23.470  25.731  1.00  0.00    -0.460 OA
BRANCH   5   6
ATOM      6  C   UNL A   1      32.737  22.467  26.302  1.00  0.00     0.339 C 
ATOM      7  O   UNL A   1      32.059  22.532  27.315  1.00  0.00    -0.246 OA
BRANCH   6   8
ATOM      8  C   UNL A   1      32.732  21.276  25.440  1.00  0.00     0.079 A 
ATOM      9  C   UNL A   1      32.174  18.187  22.587  1.00  0.00     0.068 C 
ATOM     10  C   UNL A   1      32.501  19.221  23.626  1.00  0.00     0.055 A 
ATOM     11  N   UNL A   1      32.420  20.501  23.174  1.00  0.00    -0.259 NA
ATOM     12  C   UNL A   1      32.773  18.915  24.966  1.00  0.00     0.074 A 
ATOM     13  C   UNL A   1      32.529  21.493  24.085  1.00  0.00     0.127 A 
ATOM     14  C   UNL A   1      32.902  19.966  25.887  1.00  0.00     0.038 A 
BRANCH  12  15
ATOM     15  C   UNL A   1      32.893  17.561  25.410  1.00  0.00     0.101 C 
ATOM     16  N   UNL A   1      33.003  16.449  25.727  1.00  0.00    -0.192 NA
ENDBRANCH  12  15
ENDBRANCH   6   8
ENDBRANCH   5   6
ENDBRANCH   4   5
ENDBRANCH   3   4
ENDBRANCH   2   3
ENDBRANCH   1   2
BRANCH   1  17
ATOM     17  C   UNL A   1      37.317  20.989  24.542  1.00  0.00     0.261 C 
BRANCH  17  18
ATOM     18  O   UNL A   1      37.724  21.171  25.908  1.00  0.00    -0.460 OA
BRANCH  18  19
ATOM     19  C   UNL A   1      39.058  21.036  26.128  1.00  0.00     0.338 C 
ATOM     20  O   UNL A   1      39.768  20.097  25.817  1.00  0.00    -0.246 OA
BRANCH  19  21
ATOM     21  C   UNL A   1      39.588  22.314  26.634  1.00  0.00     0.060 A 
ATOM     22  C   UNL A   1      39.068  23.508  26.118  1.00  0.00     0.016 A 
ATOM     23  C   UNL A   1      40.631  22.328  27.559  1.00  0.00     0.016 A 
ATOM     24  C   UNL A   1      39.599  24.728  26.522  1.00  0.00     0.010 A 
ATOM     25  C   UNL A   1      41.177  23.552  27.947  1.00  0.00     0.010 A 
ATOM     26  C   UNL A   1      40.680  24.754  27.410  1.00  0.00    -0.014 A 
BRANCH  26  27
ATOM     27  C   UNL A   1      41.373  26.035  27.669  1.00  0.00     0.031 A 
ATOM     28  C   UNL A   1      40.645  27.120  28.408  1.00  0.00     0.074 A 
ATOM     29  C   UNL A   1      42.645  26.215  27.272  1.00  0.00     0.049 A 
ATOM     30  N   UNL A   1      41.073  28.304  28.756  1.00  0.00    -0.248 NA
ATOM     31  C   UNL A   1      39.255  26.839  28.810  1.00  0.00     0.031 C 
ATOM     32  C   UNL A   1      43.451  25.228  26.554  1.00  0.00     0.029 A 
ATOM     33  N   UNL A   1      43.476  27.297  27.407  1.00  0.00    -0.354 N 
ATOM     34  C   UNL A   1      40.005  28.916  29.399  1.00  0.00     0.074 A 
ATOM     35  C   UNL A   1      38.902  27.982  29.384  1.00  0.00     0.031 C 
ATOM     36  C   UNL A   1      44.660  25.757  26.300  1.00  0.00     0.029 A 
ATOM     37  C   UNL A   1      44.705  27.124  26.819  1.00  0.00     0.049 A 
ATOM     38  H   UNL A   1      43.216  28.121  27.880  1.00  0.00     0.167 HD
ATOM     39  C   UNL A   1      39.958  30.141  29.968  1.00  0.00     0.034 A 
ATOM     40  C   UNL A   1      45.746  27.973  26.703  1.00  0.00     0.034 A 
ATOM     41  C   UNL A   1      41.061  31.057  29.999  1.00  0.00     0.049 A 
ATOM     42  C   UNL A   1      45.657  29.344  27.313  1.00  0.00     0.074 A 
ATOM     43  C   UNL A   1      41.117  32.303  30.601  1.00  0.00     0.029 A 
ATOM     44  N   UNL A   1      42.290  30.842  29.398  1.00  0.00    -0.354 N 
ATOM     45  N   UNL A   1      44.674  29.871  28.001  1.00  0.00    -0.248 NA
ATOM     46  C   UNL A   1      46.821  30.230  27.156  1.00  0.00     0.031 C 
ATOM     47  C   UNL A   1      42.369  32.856  30.332  1.00  0.00     0.029 A 
ATOM     48  C   UNL A   1      43.105  31.939  29.598  1.00  0.00     0.049 A 
ATOM     49  H   UNL A   1      42.543  30.030  28.903  1.00  0.00     0.167 HD
ATOM     50  C   UNL A   1      45.109  31.135  28.383  1.00  0.00     0.074 A 
ATOM     51  C   UNL A   1      46.446  31.297  27.853  1.00  0.00     0.031 C 
ATOM     52  C   UNL A   1      44.451  32.072  29.105  1.00  0.00     0.034 A 
BRANCH  39  53
ATOM     53  C   UNL A   1      38.686  30.566  30.643  1.00  0.00     0.023 A 
ATOM     54  C   UNL A   1      38.562  30.418  32.038  1.00  0.00     0.012 A 
ATOM     55  C   UNL A   1      37.677  31.227  29.918  1.00  0.00     0.148 A 
ATOM     56  C   UNL A   1      37.450  30.928  32.704  1.00  0.00     0.002 A 
ATOM     57  C   UNL A   1      36.584  31.755  30.592  1.00  0.00     0.091 A 
ATOM     58  F   UNL A   1      37.819  31.345  28.590  1.00  0.00    -0.205 F 
ATOM     59  C   UNL A   1      36.469  31.607  31.985  1.00  0.00     0.022 A 
BRANCH  57  60
ATOM     60  S   UNL A   1      35.285  32.678  29.765  1.00  0.00     0.127 S 
ATOM     61  O   UNL A   1      34.395  32.995  30.883  1.00  0.00    -0.237 OA
ATOM     62  O   UNL A   1      36.017  33.823  29.225  1.00  0.00    -0.237 OA
ATOM     63  O   UNL A   1      34.722  31.780  28.767  1.00  0.00    -0.744 OA
ENDBRANCH  57  60
ENDBRANCH  39  53
BRANCH  40  64
ATOM     64  C   UNL A   1      46.979  27.515  26.009  1.00  0.00     0.023 A 
ATOM     65  C   UNL A   1      47.148  27.797  24.641  1.00  0.00     0.012 A 
ATOM     66  C   UNL A   1      48.012  26.871  26.717  1.00  0.00     0.148 A 
ATOM     67  C   UNL A   1      48.330  27.446  23.987  1.00  0.00     0.002 A 
ATOM     68  C   UNL A   1      49.197  26.551  26.068  1.00  0.00     0.091 A 
ATOM     69  F   UNL A   1      47.823  26.617  28.019  1.00  0.00    -0.205 F 
ATOM     70  C   UNL A   1      49.357  26.833  24.701  1.00  0.00     0.022 A 
BRANCH  68  71
ATOM     71  S   UNL A   1      50.604  25.827  26.917  1.00  0.00     0.127 S 
ATOM     72  O   UNL A   1      51.654  25.945  25.908  1.00  0.00    -0.237 OA
ATOM     73  O   UNL A   1      50.750  26.722  28.066  1.00  0.00    -0.237 OA
ATOM     74  O   UNL A   1      50.210  24.466  27.250  1.00  0.00    -0.744 OA
ENDBRANCH  68  71
ENDBRANCH  40  64
BRANCH  52  75
ATOM     75  C   UNL A   1      45.143  33.372  29.413  1.00  0.00     0.023 A 
ATOM     76  C   UNL A   1      46.078  33.426  30.462  1.00  0.00     0.012 A 
ATOM     77  C   UNL A   1      45.013  34.467  28.533  1.00  0.00     0.148 A 
ATOM     78  C   UNL A   1      46.888  34.551  30.625  1.00  0.00     0.002 A 
ATOM     79  C   UNL A   1      45.843  35.570  28.684  1.00  0.00     0.091 A 
ATOM     80  F   UNL A   1      44.119  34.380  27.539  1.00  0.00    -0.205 F 
ATOM     81  C   UNL A   1      46.782  35.612  29.728  1.00  0.00     0.022 A 
BRANCH  79  82
ATOM     82  S   UNL A   1      45.827  36.960  27.546  1.00  0.00     0.127 S 
ATOM     83  O   UNL A   1      46.196  36.316  26.287  1.00  0.00    -0.237 OA
ATOM     84  O   UNL A   1      44.436  37.402  27.621  1.00  0.00    -0.237 OA
ATOM     85  O   UNL A   1      46.803  37.914  28.055  1.00  0.00    -0.744 OA
ENDBRANCH  79  82
ENDBRANCH  52  75
ENDBRANCH  26  27
ENDBRANCH  19  21
ENDBRANCH  18  19
ENDBRANCH  17  18
ENDBRANCH   1  17
TORSDOF 18
ENDMDL
MODEL 3
REMARK VINA RESULT:     -10.1      5.600     10.615
REMARK SMILES Cc1ncc(C(=O)OCCOCCOC(=O)c2ccc(-c3c4nc(c(-c5cccc(S(=O)(=O)[O-])c5F)c5ccc([nH]5)c(-c5cccc(S(=O)(=O)[O-])c5F)c5nc(c(-c6cccc(S(=O)(=O)[O-])c6F)c6ccc3[nH]6)C=C5)C=C4)cc2)cc1C#N
REMARK SMILES IDX 12 1 11 2 10 3 9 4 8 5 6 6 7 7 5 8 1 9 2 10 3 11 81 12 4 13
REMARK SMILES IDX 80 14 82 15 83 16 13 17 14 18 15 19 16 20 17 21 18 22 79 23
REMARK SMILES IDX 19 24 78 25 20 26 21 27 22 28 72 29 23 30 77 31 71 32 73 33
REMARK SMILES IDX 24 34 76 35 70 36 69 37 25 39 57 40 37 41 56 42 38 43 41 44
REMARK SMILES IDX 55 45 74 46 39 47 40 48 54 50 75 51 42 52 26 53 27 54 35 55
REMARK SMILES IDX 28 56 30 57 36 58 29 59 31 60 32 61 33 62 34 63 58 64 59 65
REMARK SMILES IDX 67 66 60 67 62 68 68 69 61 70 63 71 64 72 65 73 66 74 43 75
REMARK SMILES IDX 44 76 52 77 45 78 47 79 53 80 46 81 48 82 49 83 50 84 51 85
REMARK H PARENT 73 38 41 49
REMARK Flexibility Score: inf
ROOT
ATOM      1  C   UNL A   1      36.321  22.095  24.173  1.00  0.00     0.202 C 
ENDROOT
BRANCH   1   2
ATOM      2  O   UNL A   1      36.135  23.291  24.929  1.00  0.00    -0.374 OA
BRANCH   2   3
ATOM      3  C   UNL A   1      35.235  23.259  26.033  1.00  0.00     0.202 C 
BRANCH   3   4
ATOM      4  C   UNL A   1      33.819  23.814  25.849  1.00  0.00     0.261 C 
BRANCH   4   5
ATOM      5  O   UNL A   1      32.826  23.035  26.533  1.00  0.00    -0.460 OA
BRANCH   5   6
ATOM      6  C   UNL A   1      31.776  22.682  25.753  1.00  0.00     0.339 C 
ATOM      7  O   UNL A   1      30.758  23.327  25.558  1.00  0.00    -0.246 OA
BRANCH   6   8
ATOM      8  C   UNL A   1      32.077  21.458  24.996  1.00  0.00     0.079 A 
ATOM      9  C   UNL A   1      32.411  18.159  22.353  1.00  0.00     0.068 C 
ATOM     10  C   UNL A   1      32.425  19.292  23.339  1.00  0.00     0.055 A 
ATOM     11  N   UNL A   1      32.208  20.512  22.779  1.00  0.00    -0.259 NA
ATOM     12  C   UNL A   1      32.553  19.114  24.723  1.00  0.00     0.074 A 
ATOM     13  C   UNL A   1      32.032  21.559  23.614  1.00  0.00     0.127 A 
ATOM     14  C   UNL A   1      32.386  20.223  25.565  1.00  0.00     0.038 A 
BRANCH  12  15
ATOM     15  C   UNL A   1      32.821  17.827  25.285  1.00  0.00     0.101 C 
ATOM     16  N   UNL A   1      32.993  16.777  25.751  1.00  0.00    -0.192 NA
ENDBRANCH  12  15
ENDBRANCH   6   8
ENDBRANCH   5   6
ENDBRANCH   4   5
ENDBRANCH   3   4
ENDBRANCH   2   3
ENDBRANCH   1   2
BRANCH   1  17
ATOM     17  C   UNL A   1      37.379  21.072  24.618  1.00  0.00     0.261 C 
BRANCH  17  18
ATOM     18  O   UNL A   1      37.784  21.226  25.988  1.00  0.00    -0.460 OA
BRANCH  18  19
ATOM     19  C   UNL A   1      39.120  21.106  26.203  1.00  0.00     0.338 C 
ATOM     20  O   UNL A   1      39.844  20.185  25.872  1.00  0.00    -0.246 OA
BRANCH  19  21
ATOM     21  C   UNL A   1      39.631  22.381  26.736  1.00  0.00     0.060 A 
ATOM     22  C   UNL A   1      39.086  23.577  26.252  1.00  0.00     0.016 A 
ATOM     23  C   UNL A   1      40.681  22.391  27.653  1.00  0.00     0.016 A 
ATOM     24  C   UNL A   1      39.599  24.797  26.682  1.00  0.00     0.010 A 
ATOM     25  C   UNL A   1      41.209  23.616  28.066  1.00  0.00     0.010 A 
ATOM     26  C   UNL A   1      40.687  24.821  27.562  1.00  0.00    -0.014 A 
BRANCH  26  27
ATOM     27  C   UNL A   1      41.358  26.108  27.846  1.00  0.00     0.031 A 
ATOM     28  C   UNL A   1      42.777  26.303  27.396  1.00  0.00     0.074 A 
ATOM     29  C   UNL A   1      40.698  27.098  28.472  1.00  0.00     0.049 A 
ATOM     30  N   UNL A   1      43.539  27.356  27.523  1.00  0.00    -0.248 NA
ATOM     31  C   UNL A   1      43.425  25.169  26.714  1.00  0.00     0.031 C 
ATOM     32  C   UNL A   1      39.317  27.022  28.946  1.00  0.00     0.029 A 
ATOM     33  N   UNL A   1      41.109  28.357  28.827  1.00  0.00    -0.354 N 
ATOM     34  C   UNL A   1      44.758  27.008  26.956  1.00  0.00     0.074 A 
ATOM     35  C   UNL A   1      44.644  25.644  26.495  1.00  0.00     0.031 C 
ATOM     36  C   UNL A   1      38.999  28.183  29.543  1.00  0.00     0.029 A 
ATOM     37  C   UNL A   1      40.158  29.074  29.510  1.00  0.00     0.049 A 
ATOM     38  H   UNL A   1      42.002  28.713  28.614  1.00  0.00     0.167 HD
ATOM     39  C   UNL A   1      45.867  27.769  26.817  1.00  0.00     0.034 A 
ATOM     40  C   UNL A   1      40.216  30.305  30.057  1.00  0.00     0.034 A 
ATOM     41  C   UNL A   1      45.970  29.131  27.258  1.00  0.00     0.049 A 
ATOM     42  C   UNL A   1      41.473  31.119  29.920  1.00  0.00     0.074 A 
ATOM     43  C   UNL A   1      47.042  29.994  27.111  1.00  0.00     0.029 A 
ATOM     44  N   UNL A   1      44.983  29.821  27.940  1.00  0.00    -0.354 N 
ATOM     45  N   UNL A   1      42.584  30.810  29.297  1.00  0.00    -0.248 NA
ATOM     46  C   UNL A   1      41.482  32.456  30.536  1.00  0.00     0.031 C 
ATOM     47  C   UNL A   1      46.715  31.197  27.736  1.00  0.00     0.029 A 
ATOM     48  C   UNL A   1      45.426  31.096  28.237  1.00  0.00     0.049 A 
ATOM     49  H   UNL A   1      44.099  29.459  28.176  1.00  0.00     0.167 HD
ATOM     50  C   UNL A   1      43.412  31.920  29.420  1.00  0.00     0.074 A 
ATOM     51  C   UNL A   1      42.677  32.912  30.174  1.00  0.00     0.031 C 
ATOM     52  C   UNL A   1      44.670  32.092  28.949  1.00  0.00     0.034 A 
BRANCH  39  53
ATOM     53  C   UNL A   1      47.060  27.172  26.128  1.00  0.00     0.023 A 
ATOM     54  C   UNL A   1      47.231  27.375  24.745  1.00  0.00     0.012 A 
ATOM     55  C   UNL A   1      48.070  26.531  26.870  1.00  0.00     0.148 A 
ATOM     56  C   UNL A   1      48.395  26.948  24.109  1.00  0.00     0.002 A 
ATOM     57  C   UNL A   1      49.237  26.133  26.235  1.00  0.00     0.091 A 
ATOM     58  F   UNL A   1      47.875  26.346  28.184  1.00  0.00    -0.205 F 
ATOM     59  C   UNL A   1      49.403  26.341  24.855  1.00  0.00     0.022 A 
BRANCH  57  60
ATOM     60  S   UNL A   1      50.610  25.374  27.110  1.00  0.00     0.127 S 
ATOM     61  O   UNL A   1      51.499  25.015  26.004  1.00  0.00    -0.237 OA
ATOM     62  O   UNL A   1      51.088  26.476  27.944  1.00  0.00    -0.237 OA
ATOM     63  O   UNL A   1      50.052  24.246  27.840  1.00  0.00    -0.744 OA
ENDBRANCH  57  60
ENDBRANCH  39  53
BRANCH  40  64
ATOM     64  C   UNL A   1      39.015  30.848  30.747  1.00  0.00     0.023 A 
ATOM     65  C   UNL A   1      38.918  30.749  32.147  1.00  0.00     0.012 A 
ATOM     66  C   UNL A   1      38.013  31.526  30.029  1.00  0.00     0.148 A 
ATOM     67  C   UNL A   1      37.839  31.319  32.824  1.00  0.00     0.002 A 
ATOM     68  C   UNL A   1      36.957  32.118  30.711  1.00  0.00     0.091 A 
ATOM     69  F   UNL A   1      38.133  31.607  28.697  1.00  0.00    -0.205 F 
ATOM     70  C   UNL A   1      36.865  32.011  32.108  1.00  0.00     0.022 A 
BRANCH  68  71
ATOM     71  S   UNL A   1      35.693  33.092  29.887  1.00  0.00     0.127 S 
ATOM     72  O   UNL A   1      35.021  32.081  29.074  1.00  0.00    -0.237 OA
ATOM     73  O   UNL A   1      34.913  33.586  31.023  1.00  0.00    -0.237 OA
ATOM     74  O   UNL A   1      36.405  34.120  29.142  1.00  0.00    -0.744 OA
ENDBRANCH  68  71
ENDBRANCH  40  64
BRANCH  52  75
ATOM     75  C   UNL A   1      45.365  33.403  29.193  1.00  0.00     0.023 A 
ATOM     76  C   UNL A   1      46.149  33.565  30.349  1.00  0.00     0.012 A 
ATOM     77  C   UNL A   1      45.402  34.382  28.179  1.00  0.00     0.148 A 
ATOM     78  C   UNL A   1      46.975  34.681  30.489  1.00  0.00     0.002 A 
ATOM     79  C   UNL A   1      46.248  35.476  28.312  1.00  0.00     0.091 A 
ATOM     80  F   UNL A   1      44.650  34.194  27.086  1.00  0.00    -0.205 F 
ATOM     81  C   UNL A   1      47.036  35.625  29.465  1.00  0.00     0.022 A 
BRANCH  79  82
ATOM     82  S   UNL A   1      46.445  36.713  27.025  1.00  0.00     0.127 S 
ATOM     83  O   UNL A   1      45.181  37.442  27.119  1.00  0.00    -0.237 OA
ATOM     84  O   UNL A   1      47.615  37.456  27.488  1.00  0.00    -0.237 OA
ATOM     85  O   UNL A   1      46.636  35.979  25.781  1.00  0.00    -0.744 OA
ENDBRANCH  79  82
ENDBRANCH  52  75
ENDBRANCH  26  27
ENDBRANCH  19  21
ENDBRANCH  18  19
ENDBRANCH  17  18
ENDBRANCH   1  17
TORSDOF 18
ENDMDL
