MODEL 1
REMARK VINA RESULT:     -10.8      0.000      0.000
REMARK SMILES O=C(COc1ccccc1Br)Nc1cccc(C(=O)Nc2ccc(C(=O)OCCOCCOC(=O)c3ccc(-c4c5nc(c(-c6cccc(S(=O)(=O)[O-])c6F)c6ccc([nH]6)c(-c6cccc(S(=O)(=O)[O-])c6F)c6nc(c(-c7cccc(S(=O)(=O)[O-])c7F)c7ccc4[nH]7)C=C6)C=C5)cc3)cc2)c1
REMARK SMILES IDX 28 1 27 2 25 3 26 4 24 5 21 6 22 7 100 8 23 9 99 10 20 11
REMARK SMILES IDX 18 12 19 13 17 15 13 16 14 17 101 18 15 19 16 20 12 21 1 22
REMARK SMILES IDX 2 23 3 25 4 26 5 27 6 28 10 29 7 30 9 31 11 32 8 33 29 34
REMARK SMILES IDX 30 35 31 36 32 37 33 38 34 39 35 40 36 41 37 42 98 43 38 44
REMARK SMILES IDX 97 45 39 46 40 47 41 48 91 49 42 50 96 51 90 52 92 53 43 54
REMARK SMILES IDX 95 55 89 56 88 57 44 59 76 60 56 61 75 62 57 63 60 64 74 65
REMARK SMILES IDX 93 66 58 67 59 68 73 70 94 71 61 72 45 73 46 74 54 75 47 76
REMARK SMILES IDX 49 77 55 78 48 79 50 80 51 81 52 82 53 83 77 84 78 85 86 86
REMARK SMILES IDX 79 87 81 88 87 89 80 90 82 91 83 92 84 93 85 94 62 95 63 96
REMARK SMILES IDX 71 97 64 98 66 99 72 100 65 101 67 102 68 103 69 104 70 105
REMARK H PARENT 20 14 12 24 92 58 60 69
REMARK Flexibility Score: inf
ROOT
ATOM      1  C   UNL A   1      41.460  22.011  27.433  1.00  0.00     0.261 C 
ENDROOT
BRANCH   1   2
ATOM      2  O   UNL A   1      40.577  22.417  26.378  1.00  0.00    -0.460 OA
BRANCH   2   3
ATOM      3  C   UNL A   1      39.551  23.205  26.787  1.00  0.00     0.338 C 
ATOM      4  O   UNL A   1      39.644  24.176  27.525  1.00  0.00    -0.246 OA
BRANCH   3   5
ATOM      5  C   UNL A   1      38.276  22.829  26.117  1.00  0.00     0.060 A 
ATOM      6  C   UNL A   1      35.698  22.011  25.469  1.00  0.00     0.041 A 
ATOM      7  C   UNL A   1      35.907  23.306  25.945  1.00  0.00     0.027 A 
ATOM      8  C   UNL A   1      36.790  21.220  25.096  1.00  0.00     0.027 A 
ATOM      9  C   UNL A   1      37.194  23.701  26.297  1.00  0.00     0.018 A 
ATOM     10  C   UNL A   1      38.090  21.627  25.425  1.00  0.00     0.018 A 
BRANCH   6  11
ATOM     11  N   UNL A   1      34.383  21.530  25.551  1.00  0.00    -0.322 N 
ATOM     12  C   UNL A   1      33.230  21.956  24.912  1.00  0.00     0.255 C 
ATOM     13  O   UNL A   1      32.171  21.384  25.186  1.00  0.00    -0.269 OA
ATOM     14  H   UNL A   1      34.260  20.767  26.160  1.00  0.00     0.170 HD
BRANCH  12  15
ATOM     15  C   UNL A   1      33.214  23.018  23.861  1.00  0.00     0.042 A 
ATOM     16  C   UNL A   1      33.100  25.344  23.177  1.00  0.00     0.042 A 
ATOM     17  C   UNL A   1      32.907  24.940  21.855  1.00  0.00     0.026 A 
ATOM     18  C   UNL A   1      33.355  24.380  24.149  1.00  0.00     0.040 A 
ATOM     19  C   UNL A   1      32.952  23.587  21.520  1.00  0.00     0.003 A 
ATOM     20  C   UNL A   1      33.080  22.626  22.524  1.00  0.00     0.014 A 
BRANCH  16  21
ATOM     21  N   UNL A   1      33.016  26.719  23.454  1.00  0.00    -0.323 N 
ATOM     22  O   UNL A   1      30.734  27.178  23.216  1.00  0.00    -0.271 OA
ATOM     23  C   UNL A   1      31.882  27.516  23.486  1.00  0.00     0.262 C 
ATOM     24  H   UNL A   1      33.868  27.172  23.651  1.00  0.00     0.170 HD
BRANCH  23  25
ATOM     25  C   UNL A   1      32.194  28.932  23.942  1.00  0.00     0.329 C 
BRANCH  25  26
ATOM     26  O   UNL A   1      31.820  29.046  25.318  1.00  0.00    -0.483 OA
BRANCH  26  27
ATOM     27  C   UNL A   1      32.832  29.551  26.089  1.00  0.00     0.134 A 
ATOM     28  C   UNL A   1      33.905  28.694  26.340  1.00  0.00     0.047 A 
ATOM     29  C   UNL A   1      32.770  30.795  26.731  1.00  0.00     0.060 A 
ATOM     30  C   UNL A   1      34.924  29.084  27.209  1.00  0.00     0.004 A 
ATOM     31  C   UNL A   1      33.804  31.187  27.584  1.00  0.00     0.019 A 
ATOM     32  Br  UNL A   1      31.317  32.001  26.587  1.00  0.00    -0.047 Br
ATOM     33  C   UNL A   1      34.875  30.331  27.828  1.00  0.00     0.001 A 
ENDBRANCH  26  27
ENDBRANCH  25  26
ENDBRANCH  23  25
ENDBRANCH  16  21
ENDBRANCH  12  15
ENDBRANCH   6  11
ENDBRANCH   3   5
ENDBRANCH   2   3
ENDBRANCH   1   2
BRANCH   1  34
ATOM     34  C   UNL A   1      41.779  20.512  27.388  1.00  0.00     0.202 C 
BRANCH  34  35
ATOM     35  O   UNL A   1      41.916  19.876  26.118  1.00  0.00    -0.374 OA
BRANCH  35  36
ATOM     36  C   UNL A   1      42.470  18.567  26.060  1.00  0.00     0.202 C 
BRANCH  36  37
ATOM     37  C   UNL A   1      43.826  18.353  25.374  1.00  0.00     0.261 C 
BRANCH  37  38
ATOM     38  O   UNL A   1      44.060  19.217  24.255  1.00  0.00    -0.460 OA
BRANCH  38  39
ATOM     39  C   UNL A   1      45.243  19.874  24.307  1.00  0.00     0.338 C 
ATOM     40  O   UNL A   1      46.318  19.497  23.855  1.00  0.00    -0.246 OA
BRANCH  39  41
ATOM     41  C   UNL A   1      45.052  21.230  24.846  1.00  0.00     0.060 A 
ATOM     42  C   UNL A   1      44.830  22.264  23.928  1.00  0.00     0.016 A 
ATOM     43  C   UNL A   1      45.177  21.500  26.210  1.00  0.00     0.016 A 
ATOM     44  C   UNL A   1      44.790  23.585  24.364  1.00  0.00     0.010 A 
ATOM     45  C   UNL A   1      45.144  22.828  26.645  1.00  0.00     0.010 A 
ATOM     46  C   UNL A   1      44.992  23.877  25.718  1.00  0.00    -0.014 A 
BRANCH  46  47
ATOM     47  C   UNL A   1      45.187  25.283  26.138  1.00  0.00     0.031 A 
ATOM     48  C   UNL A   1      46.577  25.856  26.156  1.00  0.00     0.074 A 
ATOM     49  C   UNL A   1      44.138  26.041  26.497  1.00  0.00     0.049 A 
ATOM     50  N   UNL A   1      46.974  27.051  26.502  1.00  0.00    -0.248 NA
ATOM     51  C   UNL A   1      47.663  24.957  25.731  1.00  0.00     0.031 C 
ATOM     52  C   UNL A   1      42.747  25.592  26.530  1.00  0.00     0.029 A 
ATOM     53  N   UNL A   1      44.087  27.340  26.935  1.00  0.00    -0.354 N 
ATOM     54  C   UNL A   1      48.357  27.044  26.364  1.00  0.00     0.074 A 
ATOM     55  C   UNL A   1      48.731  25.720  25.919  1.00  0.00     0.031 C 
ATOM     56  C   UNL A   1      41.982  26.588  27.007  1.00  0.00     0.029 A 
ATOM     57  C   UNL A   1      42.832  27.735  27.327  1.00  0.00     0.049 A 
ATOM     58  H   UNL A   1      44.873  27.933  26.963  1.00  0.00     0.167 HD
ATOM     59  C   UNL A   1      49.235  28.055  26.568  1.00  0.00     0.034 A 
ATOM     60  C   UNL A   1      42.418  28.879  27.906  1.00  0.00     0.034 A 
ATOM     61  C   UNL A   1      48.858  29.374  26.998  1.00  0.00     0.049 A 
ATOM     62  C   UNL A   1      43.410  29.988  28.135  1.00  0.00     0.074 A 
ATOM     63  C   UNL A   1      49.665  30.483  27.180  1.00  0.00     0.029 A 
ATOM     64  N   UNL A   1      47.568  29.760  27.329  1.00  0.00    -0.354 N 
ATOM     65  N   UNL A   1      44.694  30.014  27.871  1.00  0.00    -0.248 NA
ATOM     66  C   UNL A   1      42.890  31.240  28.706  1.00  0.00     0.031 C 
ATOM     67  C   UNL A   1      48.864  31.532  27.649  1.00  0.00     0.029 A 
ATOM     68  C   UNL A   1      47.555  31.085  27.731  1.00  0.00     0.049 A 
ATOM     69  H   UNL A   1      46.777  29.176  27.285  1.00  0.00     0.167 HD
ATOM     70  C   UNL A   1      45.132  31.289  28.215  1.00  0.00     0.074 A 
ATOM     71  C   UNL A   1      43.968  32.013  28.688  1.00  0.00     0.031 C 
ATOM     72  C   UNL A   1      46.384  31.808  28.159  1.00  0.00     0.034 A 
BRANCH  59  73
ATOM     73  C   UNL A   1      50.691  27.769  26.304  1.00  0.00     0.023 A 
ATOM     74  C   UNL A   1      51.553  27.490  27.384  1.00  0.00     0.012 A 
ATOM     75  C   UNL A   1      51.201  27.755  24.992  1.00  0.00     0.148 A 
ATOM     76  C   UNL A   1      52.908  27.245  27.167  1.00  0.00     0.002 A 
ATOM     77  C   UNL A   1      52.544  27.466  24.780  1.00  0.00     0.091 A 
ATOM     78  F   UNL A   1      50.374  28.049  23.979  1.00  0.00    -0.205 F 
ATOM     79  C   UNL A   1      53.402  27.223  25.866  1.00  0.00     0.022 A 
BRANCH  77  80
ATOM     80  S   UNL A   1      53.251  27.342  23.134  1.00  0.00     0.127 S 
ATOM     81  O   UNL A   1      53.401  28.750  22.770  1.00  0.00    -0.237 OA
ATOM     82  O   UNL A   1      54.511  26.641  23.387  1.00  0.00    -0.237 OA
ATOM     83  O   UNL A   1      52.289  26.585  22.345  1.00  0.00    -0.744 OA
ENDBRANCH  77  80
ENDBRANCH  59  73
BRANCH  60  84
ATOM     84  C   UNL A   1      40.985  29.030  28.282  1.00  0.00     0.023 A 
ATOM     85  C   UNL A   1      40.034  29.360  27.299  1.00  0.00     0.012 A 
ATOM     86  C   UNL A   1      40.556  28.780  29.601  1.00  0.00     0.148 A 
ATOM     87  C   UNL A   1      38.681  29.460  27.628  1.00  0.00     0.002 A 
ATOM     88  C   UNL A   1      39.202  28.822  29.907  1.00  0.00     0.091 A 
ATOM     89  F   UNL A   1      41.482  28.480  30.522  1.00  0.00    -0.205 F 
ATOM     90  C   UNL A   1      38.264  29.177  28.927  1.00  0.00     0.022 A 
BRANCH  88  91
ATOM     91  S   UNL A   1      38.564  28.323  31.512  1.00  0.00     0.127 S 
ATOM     92  O   UNL A   1      37.182  28.789  31.442  1.00  0.00    -0.237 OA
ATOM     93  O   UNL A   1      38.730  26.871  31.461  1.00  0.00    -0.237 OA
ATOM     94  O   UNL A   1      39.408  28.987  32.497  1.00  0.00    -0.744 OA
ENDBRANCH  88  91
ENDBRANCH  60  84
BRANCH  72  95
ATOM     95  C   UNL A   1      46.569  33.238  28.597  1.00  0.00     0.023 A 
ATOM     96  C   UNL A   1      46.928  33.521  29.930  1.00  0.00     0.012 A 
ATOM     97  C   UNL A   1      46.465  34.294  27.670  1.00  0.00     0.148 A 
ATOM     98  C   UNL A   1      47.151  34.835  30.340  1.00  0.00     0.002 A 
ATOM     99  C   UNL A   1      46.736  35.596  28.076  1.00  0.00     0.091 A 
ATOM    100  F   UNL A   1      46.105  34.008  26.411  1.00  0.00    -0.205 F 
ATOM    101  C   UNL A   1      47.068  35.870  29.412  1.00  0.00     0.022 A 
BRANCH  99 102
ATOM    102  S   UNL A   1      46.744  36.980  26.928  1.00  0.00     0.127 S 
ATOM    103  O   UNL A   1      47.382  36.387  25.753  1.00  0.00    -0.237 OA
ATOM    104  O   UNL A   1      45.318  37.262  26.771  1.00  0.00    -0.237 OA
ATOM    105  O   UNL A   1      47.500  38.038  27.582  1.00  0.00    -0.744 OA
ENDBRANCH  99 102
ENDBRANCH  72  95
ENDBRANCH  46  47
ENDBRANCH  39  41
ENDBRANCH  38  39
ENDBRANCH  37  38
ENDBRANCH  36  37
ENDBRANCH  35  36
ENDBRANCH  34  35
ENDBRANCH   1  34
TORSDOF 23
ENDMDL
MODEL 2
REMARK VINA RESULT:     -10.5      1.470      2.228
REMARK SMILES O=C(COc1ccccc1Br)Nc1cccc(C(=O)Nc2ccc(C(=O)OCCOCCOC(=O)c3ccc(-c4c5nc(c(-c6cccc(S(=O)(=O)[O-])c6F)c6ccc([nH]6)c(-c6cccc(S(=O)(=O)[O-])c6F)c6nc(c(-c7cccc(S(=O)(=O)[O-])c7F)c7ccc4[nH]7)C=C6)C=C5)cc3)cc2)c1
REMARK SMILES IDX 28 1 27 2 25 3 26 4 24 5 21 6 22 7 100 8 23 9 99 10 20 11
REMARK SMILES IDX 18 12 19 13 17 15 13 16 14 17 101 18 15 19 16 20 12 21 1 22
REMARK SMILES IDX 2 23 3 25 4 26 5 27 6 28 10 29 7 30 9 31 11 32 8 33 29 34
REMARK SMILES IDX 30 35 31 36 32 37 33 38 34 39 35 40 36 41 37 42 98 43 38 44
REMARK SMILES IDX 97 45 39 46 40 47 41 48 91 49 42 50 96 51 90 52 92 53 43 54
REMARK SMILES IDX 95 55 89 56 88 57 44 59 76 60 56 61 75 62 57 63 60 64 74 65
REMARK SMILES IDX 93 66 58 67 59 68 73 70 94 71 61 72 45 73 46 74 54 75 47 76
REMARK SMILES IDX 49 77 55 78 48 79 50 80 51 81 52 82 53 83 77 84 78 85 86 86
REMARK SMILES IDX 79 87 81 88 87 89 80 90 82 91 83 92 84 93 85 94 62 95 63 96
REMARK SMILES IDX 71 97 64 98 66 99 72 100 65 101 67 102 68 103 69 104 70 105
REMARK H PARENT 20 14 12 24 92 58 60 69
REMARK Flexibility Score: inf
ROOT
ATOM      1  C   UNL A   1      40.598  21.957  27.458  1.00  0.00     0.261 C 
ENDROOT
BRANCH   1   2
ATOM      2  O   UNL A   1      40.109  22.246  26.140  1.00  0.00    -0.460 OA
BRANCH   2   3
ATOM      3  C   UNL A   1      38.848  22.746  26.114  1.00  0.00     0.338 C 
ATOM      4  O   UNL A   1      38.517  23.869  26.469  1.00  0.00    -0.246 OA
BRANCH   3   5
ATOM      5  C   UNL A   1      37.900  21.800  25.465  1.00  0.00     0.060 A 
ATOM      6  C   UNL A   1      35.809  20.087  24.809  1.00  0.00     0.041 A 
ATOM      7  C   UNL A   1      35.615  21.466  24.733  1.00  0.00     0.027 A 
ATOM      8  C   UNL A   1      37.100  19.572  24.978  1.00  0.00     0.027 A 
ATOM      9  C   UNL A   1      36.655  22.320  25.091  1.00  0.00     0.018 A 
ATOM     10  C   UNL A   1      38.154  20.432  25.313  1.00  0.00     0.018 A 
BRANCH   6  11
ATOM     11  N   UNL A   1      34.647  19.304  24.872  1.00  0.00    -0.322 N 
ATOM     12  C   UNL A   1      33.394  19.598  25.385  1.00  0.00     0.255 C 
ATOM     13  O   UNL A   1      32.535  18.713  25.356  1.00  0.00    -0.269 OA
ATOM     14  H   UNL A   1      34.736  18.401  24.491  1.00  0.00     0.170 HD
BRANCH  12  15
ATOM     15  C   UNL A   1      33.010  20.947  25.901  1.00  0.00     0.042 A 
ATOM     16  C   UNL A   1      31.963  23.119  25.628  1.00  0.00     0.042 A 
ATOM     17  C   UNL A   1      32.563  23.552  26.812  1.00  0.00     0.026 A 
ATOM     18  C   UNL A   1      32.111  21.790  25.241  1.00  0.00     0.040 A 
ATOM     19  C   UNL A   1      33.314  22.664  27.583  1.00  0.00     0.003 A 
ATOM     20  C   UNL A   1      33.558  21.372  27.117  1.00  0.00     0.014 A 
BRANCH  16  21
ATOM     21  N   UNL A   1      31.243  24.068  24.882  1.00  0.00    -0.323 N 
ATOM     22  O   UNL A   1      29.999  25.201  26.506  1.00  0.00    -0.271 OA
ATOM     23  C   UNL A   1      30.363  25.032  25.347  1.00  0.00     0.262 C 
ATOM     24  H   UNL A   1      31.382  24.044  23.907  1.00  0.00     0.170 HD
BRANCH  23  25
ATOM     25  C   UNL A   1      29.876  25.944  24.232  1.00  0.00     0.329 C 
BRANCH  25  26
ATOM     26  O   UNL A   1      30.781  27.049  24.139  1.00  0.00    -0.483 OA
BRANCH  26  27
ATOM     27  C   UNL A   1      30.134  28.225  23.872  1.00  0.00     0.134 A 
ATOM     28  C   UNL A   1      29.027  28.144  23.024  1.00  0.00     0.047 A 
ATOM     29  C   UNL A   1      30.605  29.479  24.284  1.00  0.00     0.060 A 
ATOM     30  C   UNL A   1      28.379  29.307  22.607  1.00  0.00     0.004 A 
ATOM     31  C   UNL A   1      29.938  30.637  23.879  1.00  0.00     0.019 A 
ATOM     32  Br  UNL A   1      32.165  29.746  25.323  1.00  0.00    -0.047 Br
ATOM     33  C   UNL A   1      28.833  30.552  23.037  1.00  0.00     0.001 A 
ENDBRANCH  26  27
ENDBRANCH  25  26
ENDBRANCH  23  25
ENDBRANCH  16  21
ENDBRANCH  12  15
ENDBRANCH   6  11
ENDBRANCH   3   5
ENDBRANCH   2   3
ENDBRANCH   1   2
BRANCH   1  34
ATOM     34  C   UNL A   1      41.134  20.527  27.585  1.00  0.00     0.202 C 
BRANCH  34  35
ATOM     35  O   UNL A   1      42.335  20.179  26.899  1.00  0.00    -0.374 OA
BRANCH  35  36
ATOM     36  C   UNL A   1      42.294  19.152  25.914  1.00  0.00     0.202 C 
BRANCH  36  37
ATOM     37  C   UNL A   1      43.605  18.633  25.311  1.00  0.00     0.261 C 
BRANCH  37  38
ATOM     38  O   UNL A   1      44.043  19.353  24.152  1.00  0.00    -0.460 OA
BRANCH  38  39
ATOM     39  C   UNL A   1      45.234  19.978  24.311  1.00  0.00     0.338 C 
ATOM     40  O   UNL A   1      46.331  19.587  23.928  1.00  0.00    -0.246 OA
BRANCH  39  41
ATOM     41  C   UNL A   1      45.035  21.322  24.875  1.00  0.00     0.060 A 
ATOM     42  C   UNL A   1      44.706  22.353  23.985  1.00  0.00     0.016 A 
ATOM     43  C   UNL A   1      45.253  21.588  26.228  1.00  0.00     0.016 A 
ATOM     44  C   UNL A   1      44.651  23.669  24.435  1.00  0.00     0.010 A 
ATOM     45  C   UNL A   1      45.203  22.912  26.676  1.00  0.00     0.010 A 
ATOM     46  C   UNL A   1      44.944  23.959  25.773  1.00  0.00    -0.014 A 
BRANCH  46  47
ATOM     47  C   UNL A   1      45.119  25.370  26.189  1.00  0.00     0.031 A 
ATOM     48  C   UNL A   1      46.500  25.961  26.212  1.00  0.00     0.074 A 
ATOM     49  C   UNL A   1      44.058  26.114  26.541  1.00  0.00     0.049 A 
ATOM     50  N   UNL A   1      46.881  27.162  26.557  1.00  0.00    -0.248 NA
ATOM     51  C   UNL A   1      47.601  25.075  25.796  1.00  0.00     0.031 C 
ATOM     52  C   UNL A   1      42.673  25.648  26.569  1.00  0.00     0.029 A 
ATOM     53  N   UNL A   1      43.987  27.414  26.975  1.00  0.00    -0.354 N 
ATOM     54  C   UNL A   1      48.264  27.172  26.426  1.00  0.00     0.074 A 
ATOM     55  C   UNL A   1      48.658  25.851  25.987  1.00  0.00     0.031 C 
ATOM     56  C   UNL A   1      41.893  26.635  27.039  1.00  0.00     0.029 A 
ATOM     57  C   UNL A   1      42.725  27.794  27.360  1.00  0.00     0.049 A 
ATOM     58  H   UNL A   1      44.766  28.017  27.005  1.00  0.00     0.167 HD
ATOM     59  C   UNL A   1      49.128  28.195  26.631  1.00  0.00     0.034 A 
ATOM     60  C   UNL A   1      42.294  28.934  27.933  1.00  0.00     0.034 A 
ATOM     61  C   UNL A   1      48.732  29.511  27.055  1.00  0.00     0.049 A 
ATOM     62  C   UNL A   1      43.270  30.057  28.164  1.00  0.00     0.074 A 
ATOM     63  C   UNL A   1      49.523  30.631  27.238  1.00  0.00     0.029 A 
ATOM     64  N   UNL A   1      47.435  29.880  27.379  1.00  0.00    -0.354 N 
ATOM     65  N   UNL A   1      44.555  30.098  27.906  1.00  0.00    -0.248 NA
ATOM     66  C   UNL A   1      42.732  31.303  28.728  1.00  0.00     0.031 C 
ATOM     67  C   UNL A   1      48.706  31.671  27.700  1.00  0.00     0.029 A 
ATOM     68  C   UNL A   1      47.403  31.206  27.777  1.00  0.00     0.049 A 
ATOM     69  H   UNL A   1      46.652  29.286  27.333  1.00  0.00     0.167 HD
ATOM     70  C   UNL A   1      44.974  31.380  28.248  1.00  0.00     0.074 A 
ATOM     71  C   UNL A   1      43.800  32.090  28.713  1.00  0.00     0.031 C 
ATOM     72  C   UNL A   1      46.220  31.915  28.197  1.00  0.00     0.034 A 
BRANCH  59  73
ATOM     73  C   UNL A   1      50.588  27.928  26.375  1.00  0.00     0.023 A 
ATOM     74  C   UNL A   1      51.432  27.579  27.450  1.00  0.00     0.012 A 
ATOM     75  C   UNL A   1      51.122  28.000  25.075  1.00  0.00     0.148 A 
ATOM     76  C   UNL A   1      52.791  27.349  27.242  1.00  0.00     0.002 A 
ATOM     77  C   UNL A   1      52.469  27.725  24.868  1.00  0.00     0.091 A 
ATOM     78  F   UNL A   1      50.313  28.359  24.069  1.00  0.00    -0.205 F 
ATOM     79  C   UNL A   1      53.308  27.412  25.951  1.00  0.00     0.022 A 
BRANCH  77  80
ATOM     80  S   UNL A   1      53.206  27.710  23.230  1.00  0.00     0.127 S 
ATOM     81  O   UNL A   1      52.419  26.675  22.562  1.00  0.00    -0.237 OA
ATOM     82  O   UNL A   1      52.947  29.071  22.760  1.00  0.00    -0.237 OA
ATOM     83  O   UNL A   1      54.614  27.400  23.432  1.00  0.00    -0.744 OA
ENDBRANCH  77  80
ENDBRANCH  59  73
BRANCH  60  84
ATOM     84  C   UNL A   1      40.858  29.067  28.301  1.00  0.00     0.023 A 
ATOM     85  C   UNL A   1      39.895  29.293  27.300  1.00  0.00     0.012 A 
ATOM     86  C   UNL A   1      40.438  28.904  29.637  1.00  0.00     0.148 A 
ATOM     87  C   UNL A   1      38.540  29.374  27.624  1.00  0.00     0.002 A 
ATOM     88  C   UNL A   1      39.084  28.925  29.944  1.00  0.00     0.091 A 
ATOM     89  F   UNL A   1      41.374  28.704  30.575  1.00  0.00    -0.205 F 
ATOM     90  C   UNL A   1      38.134  29.177  28.943  1.00  0.00     0.022 A 
BRANCH  88  91
ATOM     91  S   UNL A   1      38.463  28.529  31.583  1.00  0.00     0.127 S 
ATOM     92  O   UNL A   1      38.710  27.092  31.658  1.00  0.00    -0.237 OA
ATOM     93  O   UNL A   1      39.325  29.349  32.434  1.00  0.00    -0.237 OA
ATOM     94  O   UNL A   1      37.064  28.933  31.585  1.00  0.00    -0.744 OA
ENDBRANCH  88  91
ENDBRANCH  60  84
BRANCH  72  95
ATOM     95  C   UNL A   1      46.385  33.349  28.631  1.00  0.00     0.023 A 
ATOM     96  C   UNL A   1      46.601  33.648  29.991  1.00  0.00     0.012 A 
ATOM     97  C   UNL A   1      46.404  34.391  27.684  1.00  0.00     0.148 A 
ATOM     98  C   UNL A   1      46.804  34.964  30.405  1.00  0.00     0.002 A 
ATOM     99  C   UNL A   1      46.654  35.695  28.097  1.00  0.00     0.091 A 
ATOM    100  F   UNL A   1      46.178  34.091  26.396  1.00  0.00    -0.205 F 
ATOM    101  C   UNL A   1      46.843  35.984  29.458  1.00  0.00     0.022 A 
BRANCH  99 102
ATOM    102  S   UNL A   1      46.815  37.058  26.937  1.00  0.00     0.127 S 
ATOM    103  O   UNL A   1      45.431  37.242  26.501  1.00  0.00    -0.237 OA
ATOM    104  O   UNL A   1      47.335  38.130  27.787  1.00  0.00    -0.237 OA
ATOM    105  O   UNL A   1      47.739  36.602  25.908  1.00  0.00    -0.744 OA
ENDBRANCH  99 102
ENDBRANCH  72  95
ENDBRANCH  46  47
ENDBRANCH  39  41
ENDBRANCH  38  39
ENDBRANCH  37  38
ENDBRANCH  36  37
ENDBRANCH  35  36
ENDBRANCH  34  35
ENDBRANCH   1  34
TORSDOF 23
ENDMDL
MODEL 3
REMARK VINA RESULT:      -9.8      2.880      3.697
REMARK SMILES O=C(COc1ccccc1Br)Nc1cccc(C(=O)Nc2ccc(C(=O)OCCOCCOC(=O)c3ccc(-c4c5nc(c(-c6cccc(S(=O)(=O)[O-])c6F)c6ccc([nH]6)c(-c6cccc(S(=O)(=O)[O-])c6F)c6nc(c(-c7cccc(S(=O)(=O)[O-])c7F)c7ccc4[nH]7)C=C6)C=C5)cc3)cc2)c1
REMARK SMILES IDX 28 1 27 2 25 3 26 4 24 5 21 6 22 7 100 8 23 9 99 10 20 11
REMARK SMILES IDX 18 12 19 13 17 15 13 16 14 17 101 18 15 19 16 20 12 21 1 22
REMARK SMILES IDX 2 23 3 25 4 26 5 27 6 28 10 29 7 30 9 31 11 32 8 33 29 34
REMARK SMILES IDX 30 35 31 36 32 37 33 38 34 39 35 40 36 41 37 42 98 43 38 44
REMARK SMILES IDX 97 45 39 46 40 47 41 48 91 49 42 50 96 51 90 52 92 53 43 54
REMARK SMILES IDX 95 55 89 56 88 57 44 59 76 60 56 61 75 62 57 63 60 64 74 65
REMARK SMILES IDX 93 66 58 67 59 68 73 70 94 71 61 72 45 73 46 74 54 75 47 76
REMARK SMILES IDX 49 77 55 78 48 79 50 80 51 81 52 82 53 83 77 84 78 85 86 86
REMARK SMILES IDX 79 87 81 88 87 89 80 90 82 91 83 92 84 93 85 94 62 95 63 96
REMARK SMILES IDX 71 97 64 98 66 99 72 100 65 101 67 102 68 103 69 104 70 105
REMARK H PARENT 20 14 12 24 92 58 60 69
REMARK Flexibility Score: inf
ROOT
ATOM      1  C   UNL A   1      40.777  21.537  27.167  1.00  0.00     0.261 C 
ENDROOT
BRANCH   1   2
ATOM      2  O   UNL A   1      40.151  21.732  25.891  1.00  0.00    -0.460 OA
BRANCH   2   3
ATOM      3  C   UNL A   1      38.904  22.261  25.960  1.00  0.00     0.338 C 
ATOM      4  O   UNL A   1      38.621  23.374  26.383  1.00  0.00    -0.246 OA
BRANCH   3   5
ATOM      5  C   UNL A   1      37.896  21.367  25.328  1.00  0.00     0.060 A 
ATOM      6  C   UNL A   1      35.690  19.798  24.693  1.00  0.00     0.041 A 
ATOM      7  C   UNL A   1      35.606  21.184  24.561  1.00  0.00     0.027 A 
ATOM      8  C   UNL A   1      36.932  19.191  24.909  1.00  0.00     0.027 A 
ATOM      9  C   UNL A   1      36.703  21.968  24.908  1.00  0.00     0.018 A 
ATOM     10  C   UNL A   1      38.044  19.979  25.234  1.00  0.00     0.018 A 
BRANCH   6  11
ATOM     11  N   UNL A   1      34.468  19.111  24.760  1.00  0.00    -0.322 N 
ATOM     12  C   UNL A   1      33.257  19.487  25.319  1.00  0.00     0.255 C 
ATOM     13  O   UNL A   1      32.327  18.676  25.282  1.00  0.00    -0.269 OA
ATOM     14  H   UNL A   1      34.472  18.219  24.344  1.00  0.00     0.170 HD
BRANCH  12  15
ATOM     15  C   UNL A   1      33.000  20.842  25.893  1.00  0.00     0.042 A 
ATOM     16  C   UNL A   1      32.253  23.142  25.688  1.00  0.00     0.042 A 
ATOM     17  C   UNL A   1      32.800  23.426  26.941  1.00  0.00     0.026 A 
ATOM     18  C   UNL A   1      32.269  21.829  25.225  1.00  0.00     0.040 A 
ATOM     19  C   UNL A   1      33.369  22.407  27.706  1.00  0.00     0.003 A 
ATOM     20  C   UNL A   1      33.491  21.123  27.173  1.00  0.00     0.014 A 
BRANCH  16  21
ATOM     21  N   UNL A   1      31.720  24.215  24.954  1.00  0.00    -0.323 N 
ATOM     22  O   UNL A   1      33.596  25.533  24.487  1.00  0.00    -0.271 OA
ATOM     23  C   UNL A   1      32.398  25.287  24.395  1.00  0.00     0.262 C 
ATOM     24  H   UNL A   1      30.745  24.204  24.821  1.00  0.00     0.170 HD
BRANCH  23  25
ATOM     25  C   UNL A   1      31.477  26.178  23.577  1.00  0.00     0.329 C 
BRANCH  25  26
ATOM     26  O   UNL A   1      30.528  26.772  24.469  1.00  0.00    -0.483 OA
BRANCH  26  27
ATOM     27  C   UNL A   1      31.050  27.842  25.141  1.00  0.00     0.134 A 
ATOM     28  C   UNL A   1      31.535  27.589  26.427  1.00  0.00     0.047 A 
ATOM     29  C   UNL A   1      30.991  29.160  24.668  1.00  0.00     0.060 A 
ATOM     30  C   UNL A   1      31.979  28.642  27.227  1.00  0.00     0.004 A 
ATOM     31  C   UNL A   1      31.456  30.206  25.467  1.00  0.00     0.019 A 
ATOM     32  Br  UNL A   1      30.240  29.663  23.003  1.00  0.00    -0.047 Br
ATOM     33  C   UNL A   1      31.942  29.949  26.746  1.00  0.00     0.001 A 
ENDBRANCH  26  27
ENDBRANCH  25  26
ENDBRANCH  23  25
ENDBRANCH  16  21
ENDBRANCH  12  15
ENDBRANCH   6  11
ENDBRANCH   3   5
ENDBRANCH   2   3
ENDBRANCH   1   2
BRANCH   1  34
ATOM     34  C   UNL A   1      40.984  20.055  27.499  1.00  0.00     0.202 C 
BRANCH  34  35
ATOM     35  O   UNL A   1      42.303  19.515  27.445  1.00  0.00    -0.374 OA
BRANCH  35  36
ATOM     36  C   UNL A   1      42.659  18.677  26.351  1.00  0.00     0.202 C 
BRANCH  36  37
ATOM     37  C   UNL A   1      43.554  19.232  25.236  1.00  0.00     0.261 C 
BRANCH  37  38
ATOM     38  O   UNL A   1      43.429  20.646  25.033  1.00  0.00    -0.460 OA
BRANCH  38  39
ATOM     39  C   UNL A   1      44.541  21.348  25.356  1.00  0.00     0.338 C 
ATOM     40  O   UNL A   1      45.697  21.082  25.047  1.00  0.00    -0.246 OA
BRANCH  39  41
ATOM     41  C   UNL A   1      44.175  22.615  26.007  1.00  0.00     0.060 A 
ATOM     42  C   UNL A   1      43.877  23.705  25.178  1.00  0.00     0.016 A 
ATOM     43  C   UNL A   1      44.210  22.761  27.395  1.00  0.00     0.016 A 
ATOM     44  C   UNL A   1      43.670  24.964  25.733  1.00  0.00     0.010 A 
ATOM     45  C   UNL A   1      44.008  24.029  27.949  1.00  0.00     0.010 A 
ATOM     46  C   UNL A   1      43.779  25.141  27.118  1.00  0.00    -0.014 A 
BRANCH  46  47
ATOM     47  C   UNL A   1      43.796  26.512  27.676  1.00  0.00     0.031 A 
ATOM     48  C   UNL A   1      45.112  27.219  27.842  1.00  0.00     0.074 A 
ATOM     49  C   UNL A   1      42.652  27.120  28.030  1.00  0.00     0.049 A 
ATOM     50  N   UNL A   1      45.357  28.409  28.323  1.00  0.00    -0.248 NA
ATOM     51  C   UNL A   1      46.313  26.482  27.414  1.00  0.00     0.031 C 
ATOM     52  C   UNL A   1      41.318  26.531  27.926  1.00  0.00     0.029 A 
ATOM     53  N   UNL A   1      42.435  28.358  28.580  1.00  0.00    -0.354 N 
ATOM     54  C   UNL A   1      46.738  28.556  28.281  1.00  0.00     0.074 A 
ATOM     55  C   UNL A   1      47.279  27.327  27.744  1.00  0.00     0.031 C 
ATOM     56  C   UNL A   1      40.423  27.392  28.437  1.00  0.00     0.029 A 
ATOM     57  C   UNL A   1      41.123  28.582  28.919  1.00  0.00     0.049 A 
ATOM     58  H   UNL A   1      43.149  29.022  28.716  1.00  0.00     0.167 HD
ATOM     59  C   UNL A   1      47.489  29.626  28.636  1.00  0.00     0.034 A 
ATOM     60  C   UNL A   1      40.555  29.616  29.570  1.00  0.00     0.034 A 
ATOM     61  C   UNL A   1      46.947  30.852  29.158  1.00  0.00     0.049 A 
ATOM     62  C   UNL A   1      41.406  30.793  29.967  1.00  0.00     0.074 A 
ATOM     63  C   UNL A   1      47.617  32.014  29.496  1.00  0.00     0.029 A 
ATOM     64  N   UNL A   1      45.605  31.069  29.433  1.00  0.00    -0.354 N 
ATOM     65  N   UNL A   1      42.693  30.975  29.796  1.00  0.00    -0.248 NA
ATOM     66  C   UNL A   1      40.722  31.923  30.613  1.00  0.00     0.031 C 
ATOM     67  C   UNL A   1      46.681  32.925  30.002  1.00  0.00     0.029 A 
ATOM     68  C   UNL A   1      45.426  32.340  29.952  1.00  0.00     0.049 A 
ATOM     69  H   UNL A   1      44.886  30.415  29.281  1.00  0.00     0.167 HD
ATOM     70  C   UNL A   1      42.970  32.248  30.284  1.00  0.00     0.074 A 
ATOM     71  C   UNL A   1      41.709  32.800  30.740  1.00  0.00     0.031 C 
ATOM     72  C   UNL A   1      44.160  32.895  30.363  1.00  0.00     0.034 A 
BRANCH  59  73
ATOM     73  C   UNL A   1      48.979  29.518  28.449  1.00  0.00     0.023 A 
ATOM     74  C   UNL A   1      49.762  28.884  29.436  1.00  0.00     0.012 A 
ATOM     75  C   UNL A   1      49.603  30.021  27.292  1.00  0.00     0.148 A 
ATOM     76  C   UNL A   1      51.146  28.791  29.295  1.00  0.00     0.002 A 
ATOM     77  C   UNL A   1      50.979  29.885  27.137  1.00  0.00     0.091 A 
ATOM     78  F   UNL A   1      48.849  30.644  26.376  1.00  0.00    -0.205 F 
ATOM     79  C   UNL A   1      51.753  29.282  28.143  1.00  0.00     0.022 A 
BRANCH  77  80
ATOM     80  S   UNL A   1      51.836  30.421  25.653  1.00  0.00     0.127 S 
ATOM     81  O   UNL A   1      51.318  31.777  25.486  1.00  0.00    -0.237 OA
ATOM     82  O   UNL A   1      53.240  30.350  26.062  1.00  0.00    -0.237 OA
ATOM     83  O   UNL A   1      51.463  29.470  24.615  1.00  0.00    -0.744 OA
ENDBRANCH  77  80
ENDBRANCH  59  73
BRANCH  60  84
ATOM     84  C   UNL A   1      39.095  29.583  29.858  1.00  0.00     0.023 A 
ATOM     85  C   UNL A   1      38.638  29.165  31.121  1.00  0.00     0.012 A 
ATOM     86  C   UNL A   1      38.161  30.028  28.900  1.00  0.00     0.148 A 
ATOM     87  C   UNL A   1      37.275  29.172  31.420  1.00  0.00     0.002 A 
ATOM     88  C   UNL A   1      36.813  30.090  29.225  1.00  0.00     0.091 A 
ATOM     89  F   UNL A   1      38.619  30.409  27.699  1.00  0.00    -0.205 F 
ATOM     90  C   UNL A   1      36.364  29.647  30.478  1.00  0.00     0.022 A 
BRANCH  88  91
ATOM     91  S   UNL A   1      35.593  30.829  28.131  1.00  0.00     0.127 S 
ATOM     92  O   UNL A   1      34.443  30.971  29.018  1.00  0.00    -0.237 OA
ATOM     93  O   UNL A   1      36.247  32.085  27.761  1.00  0.00    -0.237 OA
ATOM     94  O   UNL A   1      35.432  29.893  27.027  1.00  0.00    -0.744 OA
ENDBRANCH  88  91
ENDBRANCH  60  84
BRANCH  72  95
ATOM     95  C   UNL A   1      44.164  34.287  30.941  1.00  0.00     0.023 A 
ATOM     96  C   UNL A   1      44.044  35.400  30.085  1.00  0.00     0.012 A 
ATOM     97  C   UNL A   1      44.206  34.488  32.334  1.00  0.00     0.148 A 
ATOM     98  C   UNL A   1      43.997  36.692  30.605  1.00  0.00     0.002 A 
ATOM     99  C   UNL A   1      44.110  35.777  32.848  1.00  0.00     0.091 A 
ATOM    100  F   UNL A   1      44.338  33.419  33.133  1.00  0.00    -0.205 F 
ATOM    101  C   UNL A   1      44.016  36.881  31.985  1.00  0.00     0.022 A 
BRANCH  99 102
ATOM    102  S   UNL A   1      44.033  36.105  34.614  1.00  0.00     0.127 S 
ATOM    103  O   UNL A   1      44.155  37.562  34.650  1.00  0.00    -0.237 OA
ATOM    104  O   UNL A   1      42.708  35.596  34.967  1.00  0.00    -0.237 OA
ATOM    105  O   UNL A   1      45.141  35.370  35.207  1.00  0.00    -0.744 OA
ENDBRANCH  99 102
ENDBRANCH  72  95
ENDBRANCH  46  47
ENDBRANCH  39  41
ENDBRANCH  38  39
ENDBRANCH  37  38
ENDBRANCH  36  37
ENDBRANCH  35  36
ENDBRANCH  34  35
ENDBRANCH   1  34
TORSDOF 23
ENDMDL
