MODEL 1
REMARK VINA RESULT:     -10.4      0.000      0.000
REMARK SMILES O=C(OCCOCCOC(=O)[C@H]1C=C[C@@H](NS(=O)(=O)c2ccc(Br)cc2)C1)c1ccc(-c2c3nc(c(-c4cccc(S(=O)(=O)[O-])c4F)c4ccc([nH]4)c(-c4cccc(S(=O)(=O)[O-])c4F)c4nc(c(-c5cccc(S(=O)(=O)[O-])c5F)c5ccc2[nH]5)C=C4)C=C3)cc1
REMARK SMILES IDX 6 1 5 2 4 3 3 4 2 5 1 6 28 7 29 8 90 9 30 10 89 11 31 12
REMARK SMILES IDX 32 13 33 14 83 15 34 16 88 17 82 18 84 19 35 20 87 21 81 22
REMARK SMILES IDX 80 23 36 25 68 26 48 27 67 28 49 29 52 30 66 31 85 32 50 33
REMARK SMILES IDX 51 34 65 36 86 37 53 38 37 39 38 40 46 41 39 42 41 43 47 44
REMARK SMILES IDX 40 45 42 46 43 47 44 48 45 49 69 50 70 51 78 52 71 53 73 54
REMARK SMILES IDX 79 55 72 56 74 57 75 58 76 59 77 60 54 61 55 62 63 63 56 64
REMARK SMILES IDX 58 65 64 66 57 67 59 68 60 69 61 70 62 71 7 72 8 73 9 74
REMARK SMILES IDX 10 75 11 76 12 77 13 78 27 79 14 80 15 81 16 82 17 84 18 85
REMARK SMILES IDX 19 86 20 87 21 88 26 89 22 90 25 91 23 92 24 93
REMARK H PARENT 84 24 52 35 16 83
REMARK Flexibility Score: inf
ROOT
ATOM      1  O   UNL A   1      38.014  21.091  25.147  1.00  0.00    -0.374 OA
ENDROOT
BRANCH   1   2
ATOM      2  C   UNL A   1      38.251  19.685  25.109  1.00  0.00     0.202 C 
BRANCH   2   3
ATOM      3  C   UNL A   1      39.610  19.229  25.632  1.00  0.00     0.261 C 
BRANCH   3   4
ATOM      4  O   UNL A   1      39.860  19.837  26.908  1.00  0.00    -0.460 OA
BRANCH   4   5
ATOM      5  C   UNL A   1      41.037  20.311  27.376  1.00  0.00     0.338 C 
ATOM      6  O   UNL A   1      41.935  19.514  27.637  1.00  0.00    -0.246 OA
BRANCH   5   7
ATOM      7  C   UNL A   1      41.286  21.765  27.597  1.00  0.00     0.060 A 
ATOM      8  C   UNL A   1      42.055  22.277  28.645  1.00  0.00     0.016 A 
ATOM      9  C   UNL A   1      40.815  22.656  26.623  1.00  0.00     0.016 A 
ATOM     10  C   UNL A   1      42.312  23.632  28.766  1.00  0.00     0.010 A 
ATOM     11  C   UNL A   1      41.117  24.018  26.702  1.00  0.00     0.010 A 
ATOM     12  C   UNL A   1      41.871  24.503  27.778  1.00  0.00    -0.014 A 
BRANCH  12  13
ATOM     13  C   UNL A   1      42.239  25.921  27.890  1.00  0.00     0.031 A 
ATOM     14  C   UNL A   1      43.561  26.370  27.368  1.00  0.00     0.074 A 
ATOM     15  C   UNL A   1      41.343  26.777  28.417  1.00  0.00     0.049 A 
ATOM     16  N   UNL A   1      44.111  27.548  27.438  1.00  0.00    -0.248 NA
ATOM     17  C   UNL A   1      44.371  25.362  26.660  1.00  0.00     0.031 C 
ATOM     18  C   UNL A   1      39.999  26.412  28.877  1.00  0.00     0.029 A 
ATOM     19  N   UNL A   1      41.423  28.121  28.662  1.00  0.00    -0.354 N 
ATOM     20  C   UNL A   1      45.358  27.412  26.846  1.00  0.00     0.074 A 
ATOM     21  C   UNL A   1      45.470  26.048  26.381  1.00  0.00     0.031 C 
ATOM     22  C   UNL A   1      39.388  27.502  29.363  1.00  0.00     0.029 A 
ATOM     23  C   UNL A   1      40.319  28.622  29.312  1.00  0.00     0.049 A 
ATOM     24  H   UNL A   1      42.195  28.674  28.400  1.00  0.00     0.167 HD
ATOM     25  C   UNL A   1      46.323  28.350  26.727  1.00  0.00     0.034 A 
ATOM     26  C   UNL A   1      40.115  29.838  29.852  1.00  0.00     0.034 A 
ATOM     27  C   UNL A   1      46.166  29.701  27.186  1.00  0.00     0.049 A 
ATOM     28  C   UNL A   1      41.226  30.845  29.736  1.00  0.00     0.074 A 
ATOM     29  C   UNL A   1      47.065  30.747  27.108  1.00  0.00     0.029 A 
ATOM     30  N   UNL A   1      45.034  30.183  27.828  1.00  0.00    -0.354 N 
ATOM     31  N   UNL A   1      42.375  30.733  29.112  1.00  0.00    -0.248 NA
ATOM     32  C   UNL A   1      41.021  32.140  30.396  1.00  0.00     0.031 C 
ATOM     33  C   UNL A   1      46.485  31.856  27.733  1.00  0.00     0.029 A 
ATOM     34  C   UNL A   1      45.219  31.505  28.182  1.00  0.00     0.049 A 
ATOM     35  H   UNL A   1      44.220  29.659  28.006  1.00  0.00     0.167 HD
ATOM     36  C   UNL A   1      43.031  31.942  29.298  1.00  0.00     0.074 A 
ATOM     37  C   UNL A   1      42.132  32.786  30.063  1.00  0.00     0.031 C 
ATOM     38  C   UNL A   1      44.272  32.317  28.906  1.00  0.00     0.034 A 
BRANCH  25  39
ATOM     39  C   UNL A   1      47.629  27.928  26.119  1.00  0.00     0.023 A 
ATOM     40  C   UNL A   1      48.713  27.571  26.945  1.00  0.00     0.012 A 
ATOM     41  C   UNL A   1      47.774  27.874  24.719  1.00  0.00     0.148 A 
ATOM     42  C   UNL A   1      49.931  27.186  26.384  1.00  0.00     0.002 A 
ATOM     43  C   UNL A   1      48.979  27.460  24.168  1.00  0.00     0.091 A 
ATOM     44  F   UNL A   1      46.736  28.245  23.957  1.00  0.00    -0.205 F 
ATOM     45  C   UNL A   1      50.061  27.123  24.998  1.00  0.00     0.022 A 
BRANCH  43  46
ATOM     46  S   UNL A   1      49.235  27.307  22.397  1.00  0.00     0.127 S 
ATOM     47  O   UNL A   1      48.775  28.611  21.919  1.00  0.00    -0.237 OA
ATOM     48  O   UNL A   1      50.681  27.103  22.315  1.00  0.00    -0.237 OA
ATOM     49  O   UNL A   1      48.431  26.171  21.968  1.00  0.00    -0.744 OA
ENDBRANCH  43  46
ENDBRANCH  25  39
BRANCH  26  50
ATOM     50  C   UNL A   1      38.844  30.143  30.571  1.00  0.00     0.023 A 
ATOM     51  C   UNL A   1      38.666  29.706  31.897  1.00  0.00     0.012 A 
ATOM     52  C   UNL A   1      37.816  30.889  29.958  1.00  0.00     0.148 A 
ATOM     53  C   UNL A   1      37.484  29.984  32.587  1.00  0.00     0.002 A 
ATOM     54  C   UNL A   1      36.667  31.215  30.671  1.00  0.00     0.091 A 
ATOM     55  F   UNL A   1      37.980  31.276  28.683  1.00  0.00    -0.205 F 
ATOM     56  C   UNL A   1      36.490  30.749  31.980  1.00  0.00     0.022 A 
BRANCH  54  57
ATOM     57  S   UNL A   1      35.422  32.320  29.994  1.00  0.00     0.127 S 
ATOM     58  O   UNL A   1      34.918  31.549  28.862  1.00  0.00    -0.237 OA
ATOM     59  O   UNL A   1      34.486  32.460  31.110  1.00  0.00    -0.237 OA
ATOM     60  O   UNL A   1      36.141  33.546  29.670  1.00  0.00    -0.744 OA
ENDBRANCH  54  57
ENDBRANCH  26  50
BRANCH  38  61
ATOM     61  C   UNL A   1      44.728  33.691  29.300  1.00  0.00     0.023 A 
ATOM     62  C   UNL A   1      45.398  33.869  30.526  1.00  0.00     0.012 A 
ATOM     63  C   UNL A   1      44.593  34.774  28.411  1.00  0.00     0.148 A 
ATOM     64  C   UNL A   1      45.917  35.115  30.870  1.00  0.00     0.002 A 
ATOM     65  C   UNL A   1      45.156  36.000  28.739  1.00  0.00     0.091 A 
ATOM     66  F   UNL A   1      43.934  34.578  27.261  1.00  0.00    -0.205 F 
ATOM     67  C   UNL A   1      45.809  36.174  29.971  1.00  0.00     0.022 A 
BRANCH  65  68
ATOM     68  S   UNL A   1      45.157  37.387  27.601  1.00  0.00     0.127 S 
ATOM     69  O   UNL A   1      45.939  36.857  26.485  1.00  0.00    -0.237 OA
ATOM     70  O   UNL A   1      43.732  37.560  27.320  1.00  0.00    -0.237 OA
ATOM     71  O   UNL A   1      45.770  38.497  28.319  1.00  0.00    -0.744 OA
ENDBRANCH  65  68
ENDBRANCH  38  61
ENDBRANCH  12  13
ENDBRANCH   5   7
ENDBRANCH   4   5
ENDBRANCH   3   4
ENDBRANCH   2   3
ENDBRANCH   1   2
BRANCH   1  72
ATOM     72  C   UNL A   1      36.644  21.502  25.061  1.00  0.00     0.202 C 
BRANCH  72  73
ATOM     73  C   UNL A   1      35.749  20.296  25.366  1.00  0.00     0.261 C 
BRANCH  73  74
ATOM     74  O   UNL A   1      34.485  20.795  25.843  1.00  0.00    -0.463 OA
BRANCH  74  75
ATOM     75  C   UNL A   1      33.494  20.884  24.915  1.00  0.00     0.312 C 
ATOM     76  O   UNL A   1      33.203  20.010  24.107  1.00  0.00    -0.252 OA
BRANCH  75  77
ATOM     77  C   UNL A   1      32.691  22.175  25.057  1.00  0.00     0.123 C 
ATOM     78  C   UNL A   1      33.514  23.167  25.831  1.00  0.00    -0.015 C 
ATOM     79  C   UNL A   1      32.382  22.940  23.763  1.00  0.00     0.043 C 
ATOM     80  C   UNL A   1      33.595  24.357  25.225  1.00  0.00    -0.011 C 
ATOM     81  C   UNL A   1      32.707  24.414  24.043  1.00  0.00     0.093 C 
BRANCH  81  82
ATOM     82  N   UNL A   1      33.323  25.000  22.870  1.00  0.00    -0.204 NA
ATOM     83  H   UNL A   1      33.423  24.240  22.196  1.00  0.00     0.142 HD
BRANCH  82  84
ATOM     84  S   UNL A   1      32.648  26.274  22.032  1.00  0.00     0.241 S 
ATOM     85  O   UNL A   1      33.654  26.772  21.116  1.00  0.00    -0.207 OA
ATOM     86  O   UNL A   1      31.356  25.829  21.573  1.00  0.00    -0.207 OA
BRANCH  84  87
ATOM     87  C   UNL A   1      32.362  27.539  23.250  1.00  0.00     0.082 A 
ATOM     88  C   UNL A   1      33.411  28.421  23.530  1.00  0.00     0.023 A 
ATOM     89  C   UNL A   1      31.198  27.550  24.025  1.00  0.00     0.023 A 
ATOM     90  C   UNL A   1      33.317  29.284  24.621  1.00  0.00     0.017 A 
ATOM     91  C   UNL A   1      31.123  28.389  25.140  1.00  0.00     0.017 A 
ATOM     92  C   UNL A   1      32.186  29.243  25.437  1.00  0.00     0.018 A 
ATOM     93  Br  UNL A   1      32.109  30.331  26.981  1.00  0.00    -0.051 Br
ENDBRANCH  84  87
ENDBRANCH  82  84
ENDBRANCH  81  82
ENDBRANCH  75  77
ENDBRANCH  74  75
ENDBRANCH  73  74
ENDBRANCH  72  73
ENDBRANCH   1  72
TORSDOF 20
ENDMDL
MODEL 2
REMARK VINA RESULT:     -10.4      5.163      8.641
REMARK SMILES O=C(OCCOCCOC(=O)[C@H]1C=C[C@@H](NS(=O)(=O)c2ccc(Br)cc2)C1)c1ccc(-c2c3nc(c(-c4cccc(S(=O)(=O)[O-])c4F)c4ccc([nH]4)c(-c4cccc(S(=O)(=O)[O-])c4F)c4nc(c(-c5cccc(S(=O)(=O)[O-])c5F)c5ccc2[nH]5)C=C4)C=C3)cc1
REMARK SMILES IDX 6 1 5 2 4 3 3 4 2 5 1 6 28 7 29 8 90 9 30 10 89 11 31 12
REMARK SMILES IDX 32 13 33 14 83 15 34 16 88 17 82 18 84 19 35 20 87 21 81 22
REMARK SMILES IDX 80 23 36 25 68 26 48 27 67 28 49 29 52 30 66 31 85 32 50 33
REMARK SMILES IDX 51 34 65 36 86 37 53 38 37 39 38 40 46 41 39 42 41 43 47 44
REMARK SMILES IDX 40 45 42 46 43 47 44 48 45 49 69 50 70 51 78 52 71 53 73 54
REMARK SMILES IDX 79 55 72 56 74 57 75 58 76 59 77 60 54 61 55 62 63 63 56 64
REMARK SMILES IDX 58 65 64 66 57 67 59 68 60 69 61 70 62 71 7 72 8 73 9 74
REMARK SMILES IDX 10 75 11 76 12 77 13 78 27 79 14 80 15 81 16 82 17 84 18 85
REMARK SMILES IDX 19 86 20 87 21 88 26 89 22 90 25 91 23 92 24 93
REMARK H PARENT 84 24 52 35 16 83
REMARK Flexibility Score: inf
ROOT
ATOM      1  O   UNL A   1      30.131  31.070  24.028  1.00  0.00    -0.374 OA
ENDROOT
BRANCH   1   2
ATOM      2  C   UNL A   1      30.582  31.255  25.369  1.00  0.00     0.202 C 
BRANCH   2   3
ATOM      3  C   UNL A   1      31.511  30.172  25.909  1.00  0.00     0.261 C 
BRANCH   3   4
ATOM      4  O   UNL A   1      32.851  30.682  25.979  1.00  0.00    -0.460 OA
BRANCH   4   5
ATOM      5  C   UNL A   1      33.396  31.428  26.965  1.00  0.00     0.338 C 
ATOM      6  O   UNL A   1      32.782  32.411  27.373  1.00  0.00    -0.246 OA
BRANCH   5   7
ATOM      7  C   UNL A   1      34.721  31.111  27.575  1.00  0.00     0.060 A 
ATOM      8  C   UNL A   1      35.692  32.067  27.880  1.00  0.00     0.016 A 
ATOM      9  C   UNL A   1      34.948  29.785  27.969  1.00  0.00     0.016 A 
ATOM     10  C   UNL A   1      36.878  31.728  28.507  1.00  0.00     0.010 A 
ATOM     11  C   UNL A   1      36.115  29.440  28.654  1.00  0.00     0.010 A 
ATOM     12  C   UNL A   1      37.080  30.418  28.925  1.00  0.00    -0.014 A 
BRANCH  12  13
ATOM     13  C   UNL A   1      38.310  30.111  29.669  1.00  0.00     0.031 A 
ATOM     14  C   UNL A   1      39.327  29.215  29.047  1.00  0.00     0.074 A 
ATOM     15  C   UNL A   1      38.498  30.693  30.868  1.00  0.00     0.049 A 
ATOM     16  N   UNL A   1      40.433  28.755  29.558  1.00  0.00    -0.248 NA
ATOM     17  C   UNL A   1      39.073  28.787  27.660  1.00  0.00     0.031 C 
ATOM     18  C   UNL A   1      37.572  31.641  31.497  1.00  0.00     0.029 A 
ATOM     19  N   UNL A   1      39.516  30.573  31.774  1.00  0.00    -0.354 N 
ATOM     20  C   UNL A   1      40.977  27.930  28.585  1.00  0.00     0.074 A 
ATOM     21  C   UNL A   1      40.104  27.984  27.435  1.00  0.00     0.031 C 
ATOM     22  C   UNL A   1      38.059  32.003  32.693  1.00  0.00     0.029 A 
ATOM     23  C   UNL A   1      39.289  31.264  32.942  1.00  0.00     0.049 A 
ATOM     24  H   UNL A   1      40.330  30.045  31.607  1.00  0.00     0.167 HD
ATOM     25  C   UNL A   1      42.099  27.183  28.668  1.00  0.00     0.034 A 
ATOM     26  C   UNL A   1      39.976  31.248  34.099  1.00  0.00     0.034 A 
ATOM     27  C   UNL A   1      42.950  27.170  29.824  1.00  0.00     0.049 A 
ATOM     28  C   UNL A   1      41.198  30.374  34.171  1.00  0.00     0.074 A 
ATOM     29  C   UNL A   1      44.123  26.468  30.023  1.00  0.00     0.029 A 
ATOM     30  N   UNL A   1      42.703  27.888  30.986  1.00  0.00    -0.354 N 
ATOM     31  N   UNL A   1      41.748  29.651  33.223  1.00  0.00    -0.248 NA
ATOM     32  C   UNL A   1      41.894  30.307  35.462  1.00  0.00     0.031 C 
ATOM     33  C   UNL A   1      44.568  26.738  31.321  1.00  0.00     0.029 A 
ATOM     34  C   UNL A   1      43.684  27.623  31.923  1.00  0.00     0.049 A 
ATOM     35  H   UNL A   1      41.940  28.495  31.123  1.00  0.00     0.167 HD
ATOM     36  C   UNL A   1      42.856  29.045  33.798  1.00  0.00     0.074 A 
ATOM     37  C   UNL A   1      42.920  29.517  35.168  1.00  0.00     0.031 C 
ATOM     38  C   UNL A   1      43.726  28.155  33.262  1.00  0.00     0.034 A 
BRANCH  25  39
ATOM     39  C   UNL A   1      42.432  26.298  27.502  1.00  0.00     0.023 A 
ATOM     40  C   UNL A   1      43.151  26.811  26.405  1.00  0.00     0.012 A 
ATOM     41  C   UNL A   1      42.037  24.946  27.505  1.00  0.00     0.148 A 
ATOM     42  C   UNL A   1      43.454  25.994  25.316  1.00  0.00     0.002 A 
ATOM     43  C   UNL A   1      42.370  24.131  26.432  1.00  0.00     0.091 A 
ATOM     44  F   UNL A   1      41.330  24.491  28.549  1.00  0.00    -0.205 F 
ATOM     45  C   UNL A   1      43.072  24.654  25.332  1.00  0.00     0.022 A 
BRANCH  43  46
ATOM     46  S   UNL A   1      41.958  22.384  26.375  1.00  0.00     0.127 S 
ATOM     47  O   UNL A   1      42.794  21.920  25.267  1.00  0.00    -0.237 OA
ATOM     48  O   UNL A   1      42.387  21.926  27.696  1.00  0.00    -0.237 OA
ATOM     49  O   UNL A   1      40.523  22.314  26.138  1.00  0.00    -0.744 OA
ENDBRANCH  43  46
ENDBRANCH  25  39
BRANCH  26  50
ATOM     50  C   UNL A   1      39.505  32.043  35.270  1.00  0.00     0.023 A 
ATOM     51  C   UNL A   1      38.662  31.448  36.228  1.00  0.00     0.012 A 
ATOM     52  C   UNL A   1      39.907  33.381  35.457  1.00  0.00     0.148 A 
ATOM     53  C   UNL A   1      38.212  32.176  37.331  1.00  0.00     0.002 A 
ATOM     54  C   UNL A   1      39.505  34.081  36.590  1.00  0.00     0.091 A 
ATOM     55  F   UNL A   1      40.686  33.951  34.525  1.00  0.00    -0.205 F 
ATOM     56  C   UNL A   1      38.643  33.487  37.520  1.00  0.00     0.022 A 
BRANCH  54  57
ATOM     57  S   UNL A   1      40.148  35.718  36.961  1.00  0.00     0.127 S 
ATOM     58  O   UNL A   1      39.586  35.970  38.285  1.00  0.00    -0.237 OA
ATOM     59  O   UNL A   1      41.595  35.500  36.938  1.00  0.00    -0.237 OA
ATOM     60  O   UNL A   1      39.663  36.568  35.881  1.00  0.00    -0.744 OA
ENDBRANCH  54  57
ENDBRANCH  26  50
BRANCH  38  61
ATOM     61  C   UNL A   1      44.812  27.636  34.158  1.00  0.00     0.023 A 
ATOM     62  C   UNL A   1      46.008  28.369  34.284  1.00  0.00     0.012 A 
ATOM     63  C   UNL A   1      44.603  26.493  34.951  1.00  0.00     0.148 A 
ATOM     64  C   UNL A   1      46.991  27.961  35.183  1.00  0.00     0.002 A 
ATOM     65  C   UNL A   1      45.566  26.121  35.879  1.00  0.00     0.091 A 
ATOM     66  F   UNL A   1      43.463  25.806  34.794  1.00  0.00    -0.205 F 
ATOM     67  C   UNL A   1      46.764  26.847  35.989  1.00  0.00     0.022 A 
BRANCH  65  68
ATOM     68  S   UNL A   1      45.314  24.767  37.029  1.00  0.00     0.127 S 
ATOM     69  O   UNL A   1      45.026  23.655  36.124  1.00  0.00    -0.237 OA
ATOM     70  O   UNL A   1      46.610  24.686  37.702  1.00  0.00    -0.237 OA
ATOM     71  O   UNL A   1      44.211  25.171  37.891  1.00  0.00    -0.744 OA
ENDBRANCH  65  68
ENDBRANCH  38  61
ENDBRANCH  12  13
ENDBRANCH   5   7
ENDBRANCH   4   5
ENDBRANCH   3   4
ENDBRANCH   2   3
ENDBRANCH   1   2
BRANCH   1  72
ATOM     72  C   UNL A   1      29.772  29.732  23.662  1.00  0.00     0.202 C 
BRANCH  72  73
ATOM     73  C   UNL A   1      30.528  29.353  22.384  1.00  0.00     0.261 C 
BRANCH  73  74
ATOM     74  O   UNL A   1      30.151  28.007  22.034  1.00  0.00    -0.463 OA
BRANCH  74  75
ATOM     75  C   UNL A   1      30.687  27.022  22.803  1.00  0.00     0.312 C 
ATOM     76  O   UNL A   1      30.048  26.260  23.520  1.00  0.00    -0.252 OA
BRANCH  75  77
ATOM     77  C   UNL A   1      32.194  26.889  22.597  1.00  0.00     0.123 C 
ATOM     78  C   UNL A   1      32.877  27.100  23.919  1.00  0.00    -0.015 C 
ATOM     79  C   UNL A   1      32.712  25.507  22.173  1.00  0.00     0.043 C 
ATOM     80  C   UNL A   1      33.750  26.129  24.211  1.00  0.00    -0.011 C 
ATOM     81  C   UNL A   1      33.923  25.207  23.066  1.00  0.00     0.093 C 
BRANCH  81  82
ATOM     82  N   UNL A   1      33.912  23.805  23.432  1.00  0.00    -0.204 NA
ATOM     83  H   UNL A   1      34.890  23.514  23.461  1.00  0.00     0.142 HD
BRANCH  82  84
ATOM     84  S   UNL A   1      33.223  23.242  24.843  1.00  0.00     0.241 S 
ATOM     85  O   UNL A   1      34.071  23.667  25.938  1.00  0.00    -0.207 OA
ATOM     86  O   UNL A   1      31.825  23.587  24.787  1.00  0.00    -0.207 OA
BRANCH  84  87
ATOM     87  C   UNL A   1      33.328  21.469  24.744  1.00  0.00     0.082 A 
ATOM     88  C   UNL A   1      34.556  20.872  25.052  1.00  0.00     0.023 A 
ATOM     89  C   UNL A   1      32.281  20.708  24.213  1.00  0.00     0.023 A 
ATOM     90  C   UNL A   1      34.754  19.519  24.781  1.00  0.00     0.017 A 
ATOM     91  C   UNL A   1      32.497  19.363  23.907  1.00  0.00     0.017 A 
ATOM     92  C   UNL A   1      33.734  18.778  24.184  1.00  0.00     0.018 A 
ATOM     93  Br  UNL A   1      34.044  16.974  23.712  1.00  0.00    -0.051 Br
ENDBRANCH  84  87
ENDBRANCH  82  84
ENDBRANCH  81  82
ENDBRANCH  75  77
ENDBRANCH  74  75
ENDBRANCH  73  74
ENDBRANCH  72  73
ENDBRANCH   1  72
TORSDOF 20
ENDMDL
MODEL 3
REMARK VINA RESULT:     -10.4      2.084      2.674
REMARK SMILES O=C(OCCOCCOC(=O)[C@H]1C=C[C@@H](NS(=O)(=O)c2ccc(Br)cc2)C1)c1ccc(-c2c3nc(c(-c4cccc(S(=O)(=O)[O-])c4F)c4ccc([nH]4)c(-c4cccc(S(=O)(=O)[O-])c4F)c4nc(c(-c5cccc(S(=O)(=O)[O-])c5F)c5ccc2[nH]5)C=C4)C=C3)cc1
REMARK SMILES IDX 6 1 5 2 4 3 3 4 2 5 1 6 28 7 29 8 90 9 30 10 89 11 31 12
REMARK SMILES IDX 32 13 33 14 83 15 34 16 88 17 82 18 84 19 35 20 87 21 81 22
REMARK SMILES IDX 80 23 36 25 68 26 48 27 67 28 49 29 52 30 66 31 85 32 50 33
REMARK SMILES IDX 51 34 65 36 86 37 53 38 37 39 38 40 46 41 39 42 41 43 47 44
REMARK SMILES IDX 40 45 42 46 43 47 44 48 45 49 69 50 70 51 78 52 71 53 73 54
REMARK SMILES IDX 79 55 72 56 74 57 75 58 76 59 77 60 54 61 55 62 63 63 56 64
REMARK SMILES IDX 58 65 64 66 57 67 59 68 60 69 61 70 62 71 7 72 8 73 9 74
REMARK SMILES IDX 10 75 11 76 12 77 13 78 27 79 14 80 15 81 16 82 17 84 18 85
REMARK SMILES IDX 19 86 20 87 21 88 26 89 22 90 25 91 23 92 24 93
REMARK H PARENT 84 24 52 35 16 83
REMARK Flexibility Score: inf
ROOT
ATOM      1  O   UNL A   1      37.457  20.232  25.037  1.00  0.00    -0.374 OA
ENDROOT
BRANCH   1   2
ATOM      2  C   UNL A   1      38.563  19.351  25.221  1.00  0.00     0.202 C 
BRANCH   2   3
ATOM      3  C   UNL A   1      39.789  19.958  25.896  1.00  0.00     0.261 C 
BRANCH   3   4
ATOM      4  O   UNL A   1      40.863  19.006  25.883  1.00  0.00    -0.460 OA
BRANCH   4   5
ATOM      5  C   UNL A   1      42.182  19.253  26.044  1.00  0.00     0.338 C 
ATOM      6  O   UNL A   1      42.967  18.307  26.039  1.00  0.00    -0.246 OA
BRANCH   5   7
ATOM      7  C   UNL A   1      42.725  20.630  26.237  1.00  0.00     0.060 A 
ATOM      8  C   UNL A   1      43.110  21.473  25.193  1.00  0.00     0.016 A 
ATOM      9  C   UNL A   1      42.734  21.142  27.542  1.00  0.00     0.016 A 
ATOM     10  C   UNL A   1      43.543  22.767  25.423  1.00  0.00     0.010 A 
ATOM     11  C   UNL A   1      43.114  22.465  27.781  1.00  0.00     0.010 A 
ATOM     12  C   UNL A   1      43.516  23.278  26.714  1.00  0.00    -0.014 A 
BRANCH  12  13
ATOM     13  C   UNL A   1      43.897  24.684  26.911  1.00  0.00     0.031 A 
ATOM     14  C   UNL A   1      45.300  25.101  26.625  1.00  0.00     0.074 A 
ATOM     15  C   UNL A   1      42.948  25.558  27.294  1.00  0.00     0.049 A 
ATOM     16  N   UNL A   1      45.860  26.263  26.807  1.00  0.00    -0.248 NA
ATOM     17  C   UNL A   1      46.190  24.079  26.047  1.00  0.00     0.031 C 
ATOM     18  C   UNL A   1      41.537  25.225  27.516  1.00  0.00     0.029 A 
ATOM     19  N   UNL A   1      43.020  26.896  27.572  1.00  0.00    -0.354 N 
ATOM     20  C   UNL A   1      47.185  26.099  26.431  1.00  0.00     0.074 A 
ATOM     21  C   UNL A   1      47.338  24.738  25.968  1.00  0.00     0.031 C 
ATOM     22  C   UNL A   1      40.881  26.326  27.911  1.00  0.00     0.029 A 
ATOM     23  C   UNL A   1      41.835  27.420  28.035  1.00  0.00     0.049 A 
ATOM     24  H   UNL A   1      43.838  27.431  27.453  1.00  0.00     0.167 HD
ATOM     25  C   UNL A   1      48.180  27.010  26.491  1.00  0.00     0.034 A 
ATOM     26  C   UNL A   1      41.574  28.634  28.554  1.00  0.00     0.034 A 
ATOM     27  C   UNL A   1      47.983  28.359  26.941  1.00  0.00     0.049 A 
ATOM     28  C   UNL A   1      42.715  29.611  28.644  1.00  0.00     0.074 A 
ATOM     29  C   UNL A   1      48.908  29.381  27.032  1.00  0.00     0.029 A 
ATOM     30  N   UNL A   1      46.772  28.865  27.391  1.00  0.00    -0.354 N 
ATOM     31  N   UNL A   1      43.949  29.474  28.219  1.00  0.00    -0.248 NA
ATOM     32  C   UNL A   1      42.435  30.903  29.282  1.00  0.00     0.031 C 
ATOM     33  C   UNL A   1      48.260  30.497  27.569  1.00  0.00     0.029 A 
ATOM     34  C   UNL A   1      46.928  30.177  27.794  1.00  0.00     0.049 A 
ATOM     35  H   UNL A   1      45.926  28.362  27.421  1.00  0.00     0.167 HD
ATOM     36  C   UNL A   1      44.595  30.662  28.534  1.00  0.00     0.074 A 
ATOM     37  C   UNL A   1      43.603  31.521  29.150  1.00  0.00     0.031 C 
ATOM     38  C   UNL A   1      45.894  31.006  28.362  1.00  0.00     0.034 A 
BRANCH  25  39
ATOM     39  C   UNL A   1      49.558  26.559  26.105  1.00  0.00     0.023 A 
ATOM     40  C   UNL A   1      50.294  25.715  26.959  1.00  0.00     0.012 A 
ATOM     41  C   UNL A   1      50.118  26.967  24.878  1.00  0.00     0.148 A 
ATOM     42  C   UNL A   1      51.578  25.300  26.607  1.00  0.00     0.002 A 
ATOM     43  C   UNL A   1      51.385  26.525  24.520  1.00  0.00     0.091 A 
ATOM     44  F   UNL A   1      49.408  27.792  24.097  1.00  0.00    -0.205 F 
ATOM     45  C   UNL A   1      52.120  25.698  25.386  1.00  0.00     0.022 A 
BRANCH  43  46
ATOM     46  S   UNL A   1      52.154  26.948  22.953  1.00  0.00     0.127 S 
ATOM     47  O   UNL A   1      52.610  28.314  23.209  1.00  0.00    -0.237 OA
ATOM     48  O   UNL A   1      53.224  25.955  22.861  1.00  0.00    -0.237 OA
ATOM     49  O   UNL A   1      51.113  26.821  21.944  1.00  0.00    -0.744 OA
ENDBRANCH  43  46
ENDBRANCH  25  39
BRANCH  26  50
ATOM     50  C   UNL A   1      40.209  28.967  29.054  1.00  0.00     0.023 A 
ATOM     51  C   UNL A   1      39.211  29.373  28.148  1.00  0.00     0.012 A 
ATOM     52  C   UNL A   1      39.882  28.858  30.421  1.00  0.00     0.148 A 
ATOM     53  C   UNL A   1      37.926  29.687  28.597  1.00  0.00     0.002 A 
ATOM     54  C   UNL A   1      38.584  29.112  30.853  1.00  0.00     0.091 A 
ATOM     55  F   UNL A   1      40.846  28.500  31.283  1.00  0.00    -0.205 F 
ATOM     56  C   UNL A   1      37.609  29.545  29.946  1.00  0.00     0.022 A 
BRANCH  54  57
ATOM     57  S   UNL A   1      38.080  28.803  32.550  1.00  0.00     0.127 S 
ATOM     58  O   UNL A   1      38.241  27.355  32.653  1.00  0.00    -0.237 OA
ATOM     59  O   UNL A   1      39.053  29.586  33.314  1.00  0.00    -0.237 OA
ATOM     60  O   UNL A   1      36.717  29.309  32.637  1.00  0.00    -0.744 OA
ENDBRANCH  54  57
ENDBRANCH  26  50
BRANCH  38  61
ATOM     61  C   UNL A   1      46.313  32.362  28.850  1.00  0.00     0.023 A 
ATOM     62  C   UNL A   1      46.873  32.488  30.136  1.00  0.00     0.012 A 
ATOM     63  C   UNL A   1      46.255  33.481  27.998  1.00  0.00     0.148 A 
ATOM     64  C   UNL A   1      47.359  33.718  30.574  1.00  0.00     0.002 A 
ATOM     65  C   UNL A   1      46.785  34.691  28.424  1.00  0.00     0.091 A 
ATOM     66  F   UNL A   1      45.699  33.334  26.787  1.00  0.00    -0.205 F 
ATOM     67  C   UNL A   1      47.328  34.813  29.714  1.00  0.00     0.022 A 
BRANCH  65  68
ATOM     68  S   UNL A   1      46.885  36.123  27.348  1.00  0.00     0.127 S 
ATOM     69  O   UNL A   1      47.819  36.980  28.077  1.00  0.00    -0.237 OA
ATOM     70  O   UNL A   1      47.420  35.548  26.114  1.00  0.00    -0.237 OA
ATOM     71  O   UNL A   1      45.526  36.637  27.234  1.00  0.00    -0.744 OA
ENDBRANCH  65  68
ENDBRANCH  38  61
ENDBRANCH  12  13
ENDBRANCH   5   7
ENDBRANCH   4   5
ENDBRANCH   3   4
ENDBRANCH   2   3
ENDBRANCH   1   2
BRANCH   1  72
ATOM     72  C   UNL A   1      37.760  21.633  25.039  1.00  0.00     0.202 C 
BRANCH  72  73
ATOM     73  C   UNL A   1      36.467  22.416  24.788  1.00  0.00     0.261 C 
BRANCH  73  74
ATOM     74  O   UNL A   1      35.362  21.562  25.140  1.00  0.00    -0.463 OA
BRANCH  74  75
ATOM     75  C   UNL A   1      34.271  22.187  25.660  1.00  0.00     0.312 C 
ATOM     76  O   UNL A   1      34.291  22.982  26.593  1.00  0.00    -0.252 OA
BRANCH  75  77
ATOM     77  C   UNL A   1      33.000  21.870  24.875  1.00  0.00     0.123 C 
ATOM     78  C   UNL A   1      31.887  22.732  25.401  1.00  0.00    -0.015 C 
ATOM     79  C   UNL A   1      33.010  22.218  23.380  1.00  0.00     0.043 C 
ATOM     80  C   UNL A   1      31.234  23.383  24.432  1.00  0.00    -0.011 C 
ATOM     81  C   UNL A   1      31.684  22.936  23.094  1.00  0.00     0.093 C 
BRANCH  81  82
ATOM     82  N   UNL A   1      31.917  24.018  22.160  1.00  0.00    -0.204 NA
ATOM     83  H   UNL A   1      31.101  24.626  22.224  1.00  0.00     0.142 HD
BRANCH  82  84
ATOM     84  S   UNL A   1      33.247  25.021  22.248  1.00  0.00     0.241 S 
ATOM     85  O   UNL A   1      34.385  24.199  22.608  1.00  0.00    -0.207 OA
ATOM     86  O   UNL A   1      33.240  25.825  21.053  1.00  0.00    -0.207 OA
BRANCH  84  87
ATOM     87  C   UNL A   1      32.923  26.113  23.616  1.00  0.00     0.082 A 
ATOM     88  C   UNL A   1      33.733  25.991  24.750  1.00  0.00     0.023 A 
ATOM     89  C   UNL A   1      31.797  26.942  23.631  1.00  0.00     0.023 A 
ATOM     90  C   UNL A   1      33.386  26.663  25.922  1.00  0.00     0.017 A 
ATOM     91  C   UNL A   1      31.433  27.583  24.817  1.00  0.00     0.017 A 
ATOM     92  C   UNL A   1      32.223  27.433  25.957  1.00  0.00     0.018 A 
ATOM     93  Br  UNL A   1      31.694  28.250  27.578  1.00  0.00    -0.051 Br
ENDBRANCH  84  87
ENDBRANCH  82  84
ENDBRANCH  81  82
ENDBRANCH  75  77
ENDBRANCH  74  75
ENDBRANCH  73  74
ENDBRANCH  72  73
ENDBRANCH   1  72
TORSDOF 20
ENDMDL
