MODEL 1
REMARK VINA RESULT:     -11.9      0.000      0.000
REMARK SMILES NC(=O)C[C@@H](C(=O)OCCOCCOC(=O)c1ccc(-c2c3nc(c(-c4cccc(S(=O)(=O)[O-])c4F)c4ccc([nH]4)c(-c4cccc(S(=O)(=O)[O-])c4F)c4nc(c(-c5cccc(S(=O)(=O)[O-])c5F)c5ccc2[nH]5)C=C4)C=C3)cc1)N1C(=O)/C(=C/c2ccccc2)SC1=S
REMARK SMILES IDX 12 1 11 2 10 3 9 4 8 5 6 6 7 7 5 8 4 9 2 10 1 11 3 14 80 15
REMARK SMILES IDX 81 16 92 17 82 18 83 19 91 20 93 21 84 22 85 23 86 24 90 25
REMARK SMILES IDX 87 26 89 27 88 28 13 29 14 30 15 31 16 32 17 33 18 34 79 35
REMARK SMILES IDX 19 36 78 37 20 38 21 39 22 40 72 41 23 42 77 43 71 44 73 45
REMARK SMILES IDX 24 46 76 47 70 48 69 49 25 51 57 52 37 53 56 54 38 55 41 56
REMARK SMILES IDX 55 57 74 58 39 59 40 60 54 62 75 63 42 64 26 65 27 66 35 67
REMARK SMILES IDX 28 68 30 69 36 70 29 71 31 72 32 73 33 74 34 75 58 76 59 77
REMARK SMILES IDX 67 78 60 79 62 80 68 81 61 82 63 83 64 84 65 85 66 86 43 87
REMARK SMILES IDX 44 88 52 89 45 90 47 91 53 92 46 93 48 94 49 95 50 96 51 97
REMARK H PARENT 1 12 1 13 73 50 41 61
REMARK Flexibility Score: inf
ROOT
ATOM      1  C   UNL A   1      31.168  30.371  25.166  1.00  0.00     0.202 C 
ENDROOT
BRANCH   1   2
ATOM      2  O   UNL A   1      32.206  29.409  24.994  1.00  0.00    -0.374 OA
BRANCH   2   3
ATOM      3  C   UNL A   1      31.972  28.088  25.480  1.00  0.00     0.202 C 
BRANCH   3   4
ATOM      4  C   UNL A   1      33.184  27.338  26.039  1.00  0.00     0.261 C 
BRANCH   4   5
ATOM      5  O   UNL A   1      33.748  26.444  25.059  1.00  0.00    -0.462 OA
BRANCH   5   6
ATOM      6  C   UNL A   1      33.115  25.252  24.919  1.00  0.00     0.329 C 
ATOM      7  O   UNL A   1      32.239  24.857  25.682  1.00  0.00    -0.250 OA
BRANCH   6   8
ATOM      8  C   UNL A   1      33.597  24.461  23.679  1.00  0.00     0.211 C 
BRANCH   8   9
ATOM      9  C   UNL A   1      32.649  24.563  22.478  1.00  0.00     0.137 C 
BRANCH   9  10
ATOM     10  C   UNL A   1      32.861  25.811  21.662  1.00  0.00     0.220 C 
ATOM     11  N   UNL A   1      31.785  26.226  20.935  1.00  0.00    -0.370 N 
ATOM     12  H   UNL A   1      31.850  27.036  20.377  1.00  0.00     0.159 HD
ATOM     13  H   UNL A   1      30.943  25.718  20.967  1.00  0.00     0.159 HD
ATOM     14  O   UNL A   1      33.935  26.398  21.629  1.00  0.00    -0.275 OA
ENDBRANCH   9  10
ENDBRANCH   8   9
BRANCH   8  15
ATOM     15  N   UNL A   1      33.821  23.069  24.209  1.00  0.00    -0.278 N 
ATOM     16  C   UNL A   1      32.818  22.148  23.896  1.00  0.00     0.267 C 
ATOM     17  C   UNL A   1      34.953  22.527  24.790  1.00  0.00     0.149 C 
ATOM     18  O   UNL A   1      31.713  22.414  23.440  1.00  0.00    -0.268 OA
ATOM     19  C   UNL A   1      33.262  20.760  24.182  1.00  0.00     0.081 C 
ATOM     20  S   UNL A   1      34.785  20.785  24.958  1.00  0.00    -0.054 SA
ATOM     21  S   UNL A   1      36.357  23.234  25.347  1.00  0.00    -0.052 S 
ATOM     22  C   UNL A   1      32.549  19.677  23.844  1.00  0.00     0.029 C 
BRANCH  22  23
ATOM     23  C   UNL A   1      32.920  18.305  24.211  1.00  0.00    -0.024 A 
ATOM     24  C   UNL A   1      33.667  17.498  23.349  1.00  0.00     0.008 A 
ATOM     25  C   UNL A   1      32.530  17.800  25.459  1.00  0.00     0.008 A 
ATOM     26  C   UNL A   1      34.028  16.204  23.741  1.00  0.00     0.001 A 
ATOM     27  C   UNL A   1      32.898  16.514  25.852  1.00  0.00     0.001 A 
ATOM     28  C   UNL A   1      33.647  15.716  24.992  1.00  0.00     0.000 A 
ENDBRANCH  22  23
ENDBRANCH   8  15
ENDBRANCH   6   8
ENDBRANCH   5   6
ENDBRANCH   4   5
ENDBRANCH   3   4
ENDBRANCH   2   3
ENDBRANCH   1   2
BRANCH   1  29
ATOM     29  C   UNL A   1      31.391  31.453  26.226  1.00  0.00     0.261 C 
BRANCH  29  30
ATOM     30  O   UNL A   1      32.477  31.113  27.105  1.00  0.00    -0.460 OA
BRANCH  30  31
ATOM     31  C   UNL A   1      33.249  32.167  27.455  1.00  0.00     0.338 C 
ATOM     32  O   UNL A   1      32.895  33.338  27.556  1.00  0.00    -0.246 OA
BRANCH  31  33
ATOM     33  C   UNL A   1      34.571  31.705  27.907  1.00  0.00     0.060 A 
ATOM     34  C   UNL A   1      34.702  30.341  28.192  1.00  0.00     0.016 A 
ATOM     35  C   UNL A   1      35.638  32.584  28.112  1.00  0.00     0.016 A 
ATOM     36  C   UNL A   1      35.875  29.860  28.763  1.00  0.00     0.010 A 
ATOM     37  C   UNL A   1      36.818  32.095  28.685  1.00  0.00     0.010 A 
ATOM     38  C   UNL A   1      36.920  30.743  29.059  1.00  0.00    -0.014 A 
BRANCH  38  39
ATOM     39  C   UNL A   1      38.040  30.268  29.907  1.00  0.00     0.031 A 
ATOM     40  C   UNL A   1      39.021  29.281  29.335  1.00  0.00     0.074 A 
ATOM     41  C   UNL A   1      38.207  30.746  31.153  1.00  0.00     0.049 A 
ATOM     42  N   UNL A   1      40.097  28.774  29.878  1.00  0.00    -0.248 NA
ATOM     43  C   UNL A   1      38.756  28.801  27.968  1.00  0.00     0.031 C 
ATOM     44  C   UNL A   1      37.333  31.714  31.811  1.00  0.00     0.029 A 
ATOM     45  N   UNL A   1      39.173  30.471  32.087  1.00  0.00    -0.354 N 
ATOM     46  C   UNL A   1      40.620  27.897  28.936  1.00  0.00     0.074 A 
ATOM     47  C   UNL A   1      39.734  27.926  27.793  1.00  0.00     0.031 C 
ATOM     48  C   UNL A   1      37.797  31.947  33.050  1.00  0.00     0.029 A 
ATOM     49  C   UNL A   1      38.988  31.132  33.278  1.00  0.00     0.049 A 
ATOM     50  H   UNL A   1      39.926  29.860  31.922  1.00  0.00     0.167 HD
ATOM     51  C   UNL A   1      41.747  27.148  29.005  1.00  0.00     0.034 A 
ATOM     52  C   UNL A   1      39.697  31.076  34.423  1.00  0.00     0.034 A 
ATOM     53  C   UNL A   1      42.639  27.137  30.132  1.00  0.00     0.049 A 
ATOM     54  C   UNL A   1      40.928  30.209  34.485  1.00  0.00     0.074 A 
ATOM     55  C   UNL A   1      43.835  26.457  30.278  1.00  0.00     0.029 A 
ATOM     56  N   UNL A   1      42.425  27.826  31.316  1.00  0.00    -0.354 N 
ATOM     57  N   UNL A   1      41.480  29.486  33.541  1.00  0.00    -0.248 NA
ATOM     58  C   UNL A   1      41.652  30.179  35.765  1.00  0.00     0.031 C 
ATOM     59  C   UNL A   1      44.328  26.710  31.563  1.00  0.00     0.029 A 
ATOM     60  C   UNL A   1      43.456  27.573  32.206  1.00  0.00     0.049 A 
ATOM     61  H   UNL A   1      41.653  28.410  31.498  1.00  0.00     0.167 HD
ATOM     62  C   UNL A   1      42.635  28.948  34.097  1.00  0.00     0.074 A 
ATOM     63  C   UNL A   1      42.712  29.444  35.457  1.00  0.00     0.031 C 
ATOM     64  C   UNL A   1      43.547  28.112  33.539  1.00  0.00     0.034 A 
BRANCH  51  65
ATOM     65  C   UNL A   1      42.084  26.288  27.815  1.00  0.00     0.023 A 
ATOM     66  C   UNL A   1      42.863  26.816  26.765  1.00  0.00     0.012 A 
ATOM     67  C   UNL A   1      41.659  24.946  27.752  1.00  0.00     0.148 A 
ATOM     68  C   UNL A   1      43.180  26.036  25.654  1.00  0.00     0.002 A 
ATOM     69  C   UNL A   1      42.018  24.161  26.662  1.00  0.00     0.091 A 
ATOM     70  F   UNL A   1      40.897  24.468  28.746  1.00  0.00    -0.205 F 
ATOM     71  C   UNL A   1      42.767  24.708  25.607  1.00  0.00     0.022 A 
BRANCH  69  72
ATOM     72  S   UNL A   1      41.597  22.419  26.550  1.00  0.00     0.127 S 
ATOM     73  O   UNL A   1      42.277  22.029  25.317  1.00  0.00    -0.237 OA
ATOM     74  O   UNL A   1      42.193  21.877  27.773  1.00  0.00    -0.237 OA
ATOM     75  O   UNL A   1      40.142  22.363  26.512  1.00  0.00    -0.744 OA
ENDBRANCH  69  72
ENDBRANCH  51  65
BRANCH  52  76
ATOM     76  C   UNL A   1      39.292  31.908  35.592  1.00  0.00     0.023 A 
ATOM     77  C   UNL A   1      39.683  33.259  35.647  1.00  0.00     0.012 A 
ATOM     78  C   UNL A   1      38.511  31.373  36.633  1.00  0.00     0.148 A 
ATOM     79  C   UNL A   1      39.327  34.057  36.737  1.00  0.00     0.002 A 
ATOM     80  C   UNL A   1      38.114  32.187  37.688  1.00  0.00     0.091 A 
ATOM     81  F   UNL A   1      38.162  30.080  36.567  1.00  0.00    -0.205 F 
ATOM     82  C   UNL A   1      38.535  33.525  37.749  1.00  0.00     0.022 A 
BRANCH  80  83
ATOM     83  S   UNL A   1      36.993  31.625  38.972  1.00  0.00     0.127 S 
ATOM     84  O   UNL A   1      35.914  32.605  38.878  1.00  0.00    -0.237 OA
ATOM     85  O   UNL A   1      36.650  30.282  38.503  1.00  0.00    -0.237 OA
ATOM     86  O   UNL A   1      37.764  31.652  40.208  1.00  0.00    -0.744 OA
ENDBRANCH  80  83
ENDBRANCH  52  76
BRANCH  64  87
ATOM     87  C   UNL A   1      44.731  27.706  34.379  1.00  0.00     0.023 A 
ATOM     88  C   UNL A   1      45.894  28.501  34.386  1.00  0.00     0.012 A 
ATOM     89  C   UNL A   1      44.665  26.573  35.213  1.00  0.00     0.148 A 
ATOM     90  C   UNL A   1      46.986  28.153  35.181  1.00  0.00     0.002 A 
ATOM     91  C   UNL A   1      45.737  26.260  36.041  1.00  0.00     0.091 A 
ATOM     92  F   UNL A   1      43.558  25.816  35.179  1.00  0.00    -0.205 F 
ATOM     93  C   UNL A   1      46.903  27.042  36.017  1.00  0.00     0.022 A 
BRANCH  91  94
ATOM     94  S   UNL A   1      45.680  24.906  37.219  1.00  0.00     0.127 S 
ATOM     95  O   UNL A   1      46.945  25.075  37.929  1.00  0.00    -0.237 OA
ATOM     96  O   UNL A   1      44.490  25.229  38.008  1.00  0.00    -0.237 OA
ATOM     97  O   UNL A   1      45.563  23.690  36.425  1.00  0.00    -0.744 OA
ENDBRANCH  91  94
ENDBRANCH  64  87
ENDBRANCH  38  39
ENDBRANCH  31  33
ENDBRANCH  30  31
ENDBRANCH  29  30
ENDBRANCH   1  29
TORSDOF 21
ENDMDL
MODEL 2
REMARK VINA RESULT:     -11.8      1.780      7.603
REMARK SMILES NC(=O)C[C@@H](C(=O)OCCOCCOC(=O)c1ccc(-c2c3nc(c(-c4cccc(S(=O)(=O)[O-])c4F)c4ccc([nH]4)c(-c4cccc(S(=O)(=O)[O-])c4F)c4nc(c(-c5cccc(S(=O)(=O)[O-])c5F)c5ccc2[nH]5)C=C4)C=C3)cc1)N1C(=O)/C(=C/c2ccccc2)SC1=S
REMARK SMILES IDX 12 1 11 2 10 3 9 4 8 5 6 6 7 7 5 8 4 9 2 10 1 11 3 14 80 15
REMARK SMILES IDX 81 16 92 17 82 18 83 19 91 20 93 21 84 22 85 23 86 24 90 25
REMARK SMILES IDX 87 26 89 27 88 28 13 29 14 30 15 31 16 32 17 33 18 34 79 35
REMARK SMILES IDX 19 36 78 37 20 38 21 39 22 40 72 41 23 42 77 43 71 44 73 45
REMARK SMILES IDX 24 46 76 47 70 48 69 49 25 51 57 52 37 53 56 54 38 55 41 56
REMARK SMILES IDX 55 57 74 58 39 59 40 60 54 62 75 63 42 64 26 65 27 66 35 67
REMARK SMILES IDX 28 68 30 69 36 70 29 71 31 72 32 73 33 74 34 75 58 76 59 77
REMARK SMILES IDX 67 78 60 79 62 80 68 81 61 82 63 83 64 84 65 85 66 86 43 87
REMARK SMILES IDX 44 88 52 89 45 90 47 91 53 92 46 93 48 94 49 95 50 96 51 97
REMARK H PARENT 1 12 1 13 73 50 41 61
REMARK Flexibility Score: inf
ROOT
ATOM      1  C   UNL A   1      31.668  30.567  25.742  1.00  0.00     0.202 C 
ENDROOT
BRANCH   1   2
ATOM      2  O   UNL A   1      32.910  29.868  25.720  1.00  0.00    -0.374 OA
BRANCH   2   3
ATOM      3  C   UNL A   1      32.963  28.634  25.004  1.00  0.00     0.202 C 
BRANCH   3   4
ATOM      4  C   UNL A   1      33.246  27.375  25.829  1.00  0.00     0.261 C 
BRANCH   4   5
ATOM      5  O   UNL A   1      33.889  26.359  25.036  1.00  0.00    -0.462 OA
BRANCH   5   6
ATOM      6  C   UNL A   1      33.105  25.311  24.675  1.00  0.00     0.329 C 
ATOM      7  O   UNL A   1      32.031  25.055  25.210  1.00  0.00    -0.250 OA
BRANCH   6   8
ATOM      8  C   UNL A   1      33.699  24.496  23.501  1.00  0.00     0.211 C 
BRANCH   8   9
ATOM      9  C   UNL A   1      32.857  24.558  22.222  1.00  0.00     0.137 C 
BRANCH   9  10
ATOM     10  C   UNL A   1      32.914  25.901  21.542  1.00  0.00     0.220 C 
ATOM     11  N   UNL A   1      31.803  26.243  20.828  1.00  0.00    -0.370 N 
ATOM     12  H   UNL A   1      31.768  27.108  20.356  1.00  0.00     0.159 HD
ATOM     13  H   UNL A   1      31.038  25.627  20.782  1.00  0.00     0.159 HD
ATOM     14  O   UNL A   1      33.898  26.625  21.602  1.00  0.00    -0.275 OA
ENDBRANCH   9  10
ENDBRANCH   8   9
BRANCH   8  15
ATOM     15  N   UNL A   1      33.889  23.120  24.084  1.00  0.00    -0.278 N 
ATOM     16  C   UNL A   1      32.896  22.194  23.752  1.00  0.00     0.267 C 
ATOM     17  C   UNL A   1      34.989  22.590  24.735  1.00  0.00     0.149 C 
ATOM     18  O   UNL A   1      31.816  22.452  23.237  1.00  0.00    -0.268 OA
ATOM     19  C   UNL A   1      33.317  20.814  24.101  1.00  0.00     0.081 C 
ATOM     20  S   UNL A   1      34.802  20.855  24.947  1.00  0.00    -0.054 SA
ATOM     21  S   UNL A   1      36.369  23.307  25.336  1.00  0.00    -0.052 S 
ATOM     22  C   UNL A   1      32.614  19.724  23.763  1.00  0.00     0.029 C 
BRANCH  22  23
ATOM     23  C   UNL A   1      32.959  18.362  24.189  1.00  0.00    -0.024 A 
ATOM     24  C   UNL A   1      33.704  17.509  23.370  1.00  0.00     0.008 A 
ATOM     25  C   UNL A   1      32.545  17.914  25.451  1.00  0.00     0.008 A 
ATOM     26  C   UNL A   1      34.039  16.227  23.818  1.00  0.00     0.001 A 
ATOM     27  C   UNL A   1      32.888  16.639  25.899  1.00  0.00     0.001 A 
ATOM     28  C   UNL A   1      33.635  15.796  25.082  1.00  0.00     0.000 A 
ENDBRANCH  22  23
ENDBRANCH   8  15
ENDBRANCH   6   8
ENDBRANCH   5   6
ENDBRANCH   4   5
ENDBRANCH   3   4
ENDBRANCH   2   3
ENDBRANCH   1   2
BRANCH   1  29
ATOM     29  C   UNL A   1      31.622  31.877  26.533  1.00  0.00     0.261 C 
BRANCH  29  30
ATOM     30  O   UNL A   1      32.479  31.826  27.687  1.00  0.00    -0.460 OA
BRANCH  30  31
ATOM     31  C   UNL A   1      33.407  32.810  27.723  1.00  0.00     0.338 C 
ATOM     32  O   UNL A   1      33.201  34.018  27.674  1.00  0.00    -0.246 OA
BRANCH  31  33
ATOM     33  C   UNL A   1      34.732  32.251  28.033  1.00  0.00     0.060 A 
ATOM     34  C   UNL A   1      34.795  30.877  28.294  1.00  0.00     0.016 A 
ATOM     35  C   UNL A   1      35.874  33.050  28.133  1.00  0.00     0.016 A 
ATOM     36  C   UNL A   1      35.983  30.308  28.739  1.00  0.00     0.010 A 
ATOM     37  C   UNL A   1      37.069  32.473  28.578  1.00  0.00     0.010 A 
ATOM     38  C   UNL A   1      37.113  31.112  28.931  1.00  0.00    -0.014 A 
BRANCH  38  39
ATOM     39  C   UNL A   1      38.277  30.549  29.656  1.00  0.00     0.031 A 
ATOM     40  C   UNL A   1      38.507  30.946  31.090  1.00  0.00     0.074 A 
ATOM     41  C   UNL A   1      39.091  29.659  29.061  1.00  0.00     0.049 A 
ATOM     42  N   UNL A   1      39.427  30.539  31.924  1.00  0.00    -0.248 NA
ATOM     43  C   UNL A   1      37.576  31.935  31.659  1.00  0.00     0.031 C 
ATOM     44  C   UNL A   1      38.964  29.187  27.684  1.00  0.00     0.029 A 
ATOM     45  N   UNL A   1      40.193  29.001  29.545  1.00  0.00    -0.354 N 
ATOM     46  C   UNL A   1      39.206  31.238  33.104  1.00  0.00     0.074 A 
ATOM     47  C   UNL A   1      38.075  32.110  32.873  1.00  0.00     0.031 C 
ATOM     48  C   UNL A   1      39.956  28.318  27.429  1.00  0.00     0.029 A 
ATOM     49  C   UNL A   1      40.799  28.189  28.615  1.00  0.00     0.049 A 
ATOM     50  H   UNL A   1      40.519  29.100  30.468  1.00  0.00     0.167 HD
ATOM     51  C   UNL A   1      39.870  31.151  34.282  1.00  0.00     0.034 A 
ATOM     52  C   UNL A   1      41.912  27.435  28.713  1.00  0.00     0.034 A 
ATOM     53  C   UNL A   1      40.979  30.267  34.517  1.00  0.00     0.049 A 
ATOM     54  C   UNL A   1      42.651  27.380  30.025  1.00  0.00     0.074 A 
ATOM     55  C   UNL A   1      41.683  30.062  35.690  1.00  0.00     0.029 A 
ATOM     56  N   UNL A   1      41.558  29.452  33.557  1.00  0.00    -0.354 N 
ATOM     57  N   UNL A   1      42.352  27.948  31.167  1.00  0.00    -0.248 NA
ATOM     58  C   UNL A   1      43.866  26.552  30.066  1.00  0.00     0.031 C 
ATOM     59  C   UNL A   1      42.708  29.146  35.431  1.00  0.00     0.029 A 
ATOM     60  C   UNL A   1      42.624  28.757  34.104  1.00  0.00     0.049 A 
ATOM     61  H   UNL A   1      41.256  29.378  32.622  1.00  0.00     0.167 HD
ATOM     62  C   UNL A   1      43.315  27.515  32.073  1.00  0.00     0.074 A 
ATOM     63  C   UNL A   1      44.196  26.623  31.348  1.00  0.00     0.031 C 
ATOM     64  C   UNL A   1      43.463  27.833  33.384  1.00  0.00     0.034 A 
BRANCH  51  65
ATOM     65  C   UNL A   1      39.398  32.027  35.413  1.00  0.00     0.023 A 
ATOM     66  C   UNL A   1      38.479  31.524  36.355  1.00  0.00     0.012 A 
ATOM     67  C   UNL A   1      39.892  33.339  35.562  1.00  0.00     0.148 A 
ATOM     68  C   UNL A   1      38.028  32.323  37.405  1.00  0.00     0.002 A 
ATOM     69  C   UNL A   1      39.473  34.113  36.637  1.00  0.00     0.091 A 
ATOM     70  F   UNL A   1      40.745  33.810  34.642  1.00  0.00    -0.205 F 
ATOM     71  C   UNL A   1      38.531  33.612  37.552  1.00  0.00     0.022 A 
BRANCH  69  72
ATOM     72  S   UNL A   1      40.124  35.757  36.951  1.00  0.00     0.127 S 
ATOM     73  O   UNL A   1      39.481  36.092  38.220  1.00  0.00    -0.237 OA
ATOM     74  O   UNL A   1      41.563  35.507  37.045  1.00  0.00    -0.237 OA
ATOM     75  O   UNL A   1      39.726  36.568  35.809  1.00  0.00    -0.744 OA
ENDBRANCH  69  72
ENDBRANCH  51  65
BRANCH  52  76
ATOM     76  C   UNL A   1      42.367  26.625  27.548  1.00  0.00     0.023 A 
ATOM     77  C   UNL A   1      43.182  27.222  26.567  1.00  0.00     0.012 A 
ATOM     78  C   UNL A   1      42.014  25.269  27.417  1.00  0.00     0.148 A 
ATOM     79  C   UNL A   1      43.613  26.489  25.459  1.00  0.00     0.002 A 
ATOM     80  C   UNL A   1      42.490  24.531  26.340  1.00  0.00     0.091 A 
ATOM     81  F   UNL A   1      41.225  24.724  28.355  1.00  0.00    -0.205 F 
ATOM     82  C   UNL A   1      43.276  25.144  25.352  1.00  0.00     0.022 A 
BRANCH  80  83
ATOM     83  S   UNL A   1      42.213  22.764  26.183  1.00  0.00     0.127 S 
ATOM     84  O   UNL A   1      42.872  22.469  24.913  1.00  0.00    -0.237 OA
ATOM     85  O   UNL A   1      42.897  22.247  27.369  1.00  0.00    -0.237 OA
ATOM     86  O   UNL A   1      40.767  22.590  26.199  1.00  0.00    -0.744 OA
ENDBRANCH  80  83
ENDBRANCH  52  76
BRANCH  64  87
ATOM     87  C   UNL A   1      44.598  27.185  34.137  1.00  0.00     0.023 A 
ATOM     88  C   UNL A   1      44.404  25.937  34.762  1.00  0.00     0.012 A 
ATOM     89  C   UNL A   1      45.873  27.782  34.168  1.00  0.00     0.148 A 
ATOM     90  C   UNL A   1      45.453  25.313  35.438  1.00  0.00     0.002 A 
ATOM     91  C   UNL A   1      46.926  27.130  34.799  1.00  0.00     0.091 A 
ATOM     92  F   UNL A   1      46.034  28.979  33.584  1.00  0.00    -0.205 F 
ATOM     93  C   UNL A   1      46.715  25.902  35.445  1.00  0.00     0.022 A 
BRANCH  91  94
ATOM     94  S   UNL A   1      48.605  27.767  34.773  1.00  0.00     0.127 S 
ATOM     95  O   UNL A   1      49.341  26.695  35.441  1.00  0.00    -0.237 OA
ATOM     96  O   UNL A   1      48.871  27.888  33.340  1.00  0.00    -0.237 OA
ATOM     97  O   UNL A   1      48.562  29.037  35.486  1.00  0.00    -0.744 OA
ENDBRANCH  91  94
ENDBRANCH  64  87
ENDBRANCH  38  39
ENDBRANCH  31  33
ENDBRANCH  30  31
ENDBRANCH  29  30
ENDBRANCH   1  29
TORSDOF 21
ENDMDL
MODEL 3
REMARK VINA RESULT:     -11.8      5.114      7.660
REMARK SMILES NC(=O)C[C@@H](C(=O)OCCOCCOC(=O)c1ccc(-c2c3nc(c(-c4cccc(S(=O)(=O)[O-])c4F)c4ccc([nH]4)c(-c4cccc(S(=O)(=O)[O-])c4F)c4nc(c(-c5cccc(S(=O)(=O)[O-])c5F)c5ccc2[nH]5)C=C4)C=C3)cc1)N1C(=O)/C(=C/c2ccccc2)SC1=S
REMARK SMILES IDX 12 1 11 2 10 3 9 4 8 5 6 6 7 7 5 8 4 9 2 10 1 11 3 14 80 15
REMARK SMILES IDX 81 16 92 17 82 18 83 19 91 20 93 21 84 22 85 23 86 24 90 25
REMARK SMILES IDX 87 26 89 27 88 28 13 29 14 30 15 31 16 32 17 33 18 34 79 35
REMARK SMILES IDX 19 36 78 37 20 38 21 39 22 40 72 41 23 42 77 43 71 44 73 45
REMARK SMILES IDX 24 46 76 47 70 48 69 49 25 51 57 52 37 53 56 54 38 55 41 56
REMARK SMILES IDX 55 57 74 58 39 59 40 60 54 62 75 63 42 64 26 65 27 66 35 67
REMARK SMILES IDX 28 68 30 69 36 70 29 71 31 72 32 73 33 74 34 75 58 76 59 77
REMARK SMILES IDX 67 78 60 79 62 80 68 81 61 82 63 83 64 84 65 85 66 86 43 87
REMARK SMILES IDX 44 88 52 89 45 90 47 91 53 92 46 93 48 94 49 95 50 96 51 97
REMARK H PARENT 1 12 1 13 73 50 41 61
REMARK Flexibility Score: inf
ROOT
ATOM      1  C   UNL A   1      36.973  21.190  24.795  1.00  0.00     0.202 C 
ENDROOT
BRANCH   1   2
ATOM      2  O   UNL A   1      36.499  22.090  25.793  1.00  0.00    -0.374 OA
BRANCH   2   3
ATOM      3  C   UNL A   1      36.325  23.458  25.423  1.00  0.00     0.202 C 
BRANCH   3   4
ATOM      4  C   UNL A   1      35.763  23.723  24.023  1.00  0.00     0.261 C 
BRANCH   4   5
ATOM      5  O   UNL A   1      34.625  24.605  24.070  1.00  0.00    -0.462 OA
BRANCH   5   6
ATOM      6  C   UNL A   1      33.623  24.318  23.200  1.00  0.00     0.329 C 
ATOM      7  O   UNL A   1      33.786  24.227  21.987  1.00  0.00    -0.250 OA
BRANCH   6   8
ATOM      8  C   UNL A   1      32.264  24.091  23.905  1.00  0.00     0.211 C 
BRANCH   8   9
ATOM      9  C   UNL A   1      31.867  25.229  24.853  1.00  0.00     0.137 C 
BRANCH   9  10
ATOM     10  C   UNL A   1      30.396  25.243  25.175  1.00  0.00     0.220 C 
ATOM     11  N   UNL A   1      29.562  25.349  24.102  1.00  0.00    -0.370 N 
ATOM     12  H   UNL A   1      28.586  25.364  24.236  1.00  0.00     0.159 HD
ATOM     13  H   UNL A   1      29.934  25.411  23.193  1.00  0.00     0.159 HD
ATOM     14  O   UNL A   1      29.976  25.192  26.324  1.00  0.00    -0.275 OA
ENDBRANCH   9  10
ENDBRANCH   8   9
BRANCH   8  15
ATOM     15  N   UNL A   1      32.418  22.738  24.549  1.00  0.00    -0.278 N 
ATOM     16  C   UNL A   1      32.271  21.651  23.683  1.00  0.00     0.267 C 
ATOM     17  C   UNL A   1      32.868  22.420  25.818  1.00  0.00     0.149 C 
ATOM     18  O   UNL A   1      31.826  21.694  22.544  1.00  0.00    -0.268 OA
ATOM     19  C   UNL A   1      32.739  20.395  24.322  1.00  0.00     0.081 C 
ATOM     20  S   UNL A   1      33.136  20.688  25.960  1.00  0.00    -0.054 SA
ATOM     21  S   UNL A   1      33.154  23.368  27.159  1.00  0.00    -0.052 S 
ATOM     22  C   UNL A   1      32.840  19.231  23.667  1.00  0.00     0.029 C 
BRANCH  22  23
ATOM     23  C   UNL A   1      33.198  17.959  24.306  1.00  0.00    -0.024 A 
ATOM     24  C   UNL A   1      32.259  17.215  25.025  1.00  0.00     0.008 A 
ATOM     25  C   UNL A   1      34.507  17.473  24.178  1.00  0.00     0.008 A 
ATOM     26  C   UNL A   1      32.627  15.992  25.598  1.00  0.00     0.001 A 
ATOM     27  C   UNL A   1      34.869  16.251  24.742  1.00  0.00     0.001 A 
ATOM     28  C   UNL A   1      33.928  15.511  25.453  1.00  0.00     0.000 A 
ENDBRANCH  22  23
ENDBRANCH   8  15
ENDBRANCH   6   8
ENDBRANCH   5   6
ENDBRANCH   4   5
ENDBRANCH   3   4
ENDBRANCH   2   3
ENDBRANCH   1   2
BRANCH   1  29
ATOM     29  C   UNL A   1      38.301  20.481  25.072  1.00  0.00     0.261 C 
BRANCH  29  30
ATOM     30  O   UNL A   1      38.824  20.829  26.366  1.00  0.00    -0.460 OA
BRANCH  30  31
ATOM     31  C   UNL A   1      40.151  21.091  26.367  1.00  0.00     0.338 C 
ATOM     32  O   UNL A   1      41.026  20.468  25.774  1.00  0.00    -0.246 OA
BRANCH  31  33
ATOM     33  C   UNL A   1      40.418  22.376  27.034  1.00  0.00     0.060 A 
ATOM     34  C   UNL A   1      39.726  23.494  26.553  1.00  0.00     0.016 A 
ATOM     35  C   UNL A   1      41.364  22.505  28.054  1.00  0.00     0.016 A 
ATOM     36  C   UNL A   1      40.036  24.761  27.033  1.00  0.00     0.010 A 
ATOM     37  C   UNL A   1      41.672  23.782  28.536  1.00  0.00     0.010 A 
ATOM     38  C   UNL A   1      41.046  24.918  27.991  1.00  0.00    -0.014 A 
BRANCH  38  39
ATOM     39  C   UNL A   1      41.547  26.282  28.287  1.00  0.00     0.031 A 
ATOM     40  C   UNL A   1      42.939  26.657  27.856  1.00  0.00     0.074 A 
ATOM     41  C   UNL A   1      40.756  27.188  28.888  1.00  0.00     0.049 A 
ATOM     42  N   UNL A   1      43.558  27.803  27.967  1.00  0.00    -0.248 NA
ATOM     43  C   UNL A   1      43.742  25.601  27.217  1.00  0.00     0.031 C 
ATOM     44  C   UNL A   1      39.386  26.947  29.337  1.00  0.00     0.029 A 
ATOM     45  N   UNL A   1      40.999  28.494  29.227  1.00  0.00    -0.354 N 
ATOM     46  C   UNL A   1      44.828  27.601  27.440  1.00  0.00     0.074 A 
ATOM     47  C   UNL A   1      44.898  26.217  27.024  1.00  0.00     0.031 C 
ATOM     48  C   UNL A   1      38.911  28.069  29.904  1.00  0.00     0.029 A 
ATOM     49  C   UNL A   1      39.948  29.098  29.874  1.00  0.00     0.049 A 
ATOM     50  H   UNL A   1      41.845  28.955  29.028  1.00  0.00     0.167 HD
ATOM     51  C   UNL A   1      45.840  28.490  27.294  1.00  0.00     0.034 A 
ATOM     52  C   UNL A   1      39.841  30.339  30.389  1.00  0.00     0.034 A 
ATOM     53  C   UNL A   1      45.761  29.871  27.685  1.00  0.00     0.049 A 
ATOM     54  C   UNL A   1      40.993  31.299  30.243  1.00  0.00     0.074 A 
ATOM     55  C   UNL A   1      46.709  30.866  27.528  1.00  0.00     0.029 A 
ATOM     56  N   UNL A   1      44.677  30.450  28.327  1.00  0.00    -0.354 N 
ATOM     57  N   UNL A   1      42.137  31.130  29.627  1.00  0.00    -0.248 NA
ATOM     58  C   UNL A   1      40.823  32.633  30.838  1.00  0.00     0.031 C 
ATOM     59  C   UNL A   1      46.211  32.040  28.105  1.00  0.00     0.029 A 
ATOM     60  C   UNL A   1      44.939  31.784  28.592  1.00  0.00     0.049 A 
ATOM     61  H   UNL A   1      43.843  29.982  28.561  1.00  0.00     0.167 HD
ATOM     62  C   UNL A   1      42.806  32.346  29.722  1.00  0.00     0.074 A 
ATOM     63  C   UNL A   1      41.929  33.247  30.442  1.00  0.00     0.031 C 
ATOM     64  C   UNL A   1      44.038  32.685  29.265  1.00  0.00     0.034 A 
BRANCH  51  65
ATOM     65  C   UNL A   1      47.117  27.994  26.668  1.00  0.00     0.023 A 
ATOM     66  C   UNL A   1      48.176  27.554  27.486  1.00  0.00     0.012 A 
ATOM     67  C   UNL A   1      47.254  27.929  25.266  1.00  0.00     0.148 A 
ATOM     68  C   UNL A   1      49.367  27.096  26.923  1.00  0.00     0.002 A 
ATOM     69  C   UNL A   1      48.427  27.429  24.713  1.00  0.00     0.091 A 
ATOM     70  F   UNL A   1      46.247  28.376  24.503  1.00  0.00    -0.205 F 
ATOM     71  C   UNL A   1      49.488  27.023  25.539  1.00  0.00     0.022 A 
BRANCH  69  72
ATOM     72  S   UNL A   1      48.645  27.226  22.942  1.00  0.00     0.127 S 
ATOM     73  O   UNL A   1      50.069  27.515  22.785  1.00  0.00    -0.237 OA
ATOM     74  O   UNL A   1      48.283  25.822  22.744  1.00  0.00    -0.237 OA
ATOM     75  O   UNL A   1      47.737  28.178  22.318  1.00  0.00    -0.744 OA
ENDBRANCH  69  72
ENDBRANCH  51  65
BRANCH  52  76
ATOM     76  C   UNL A   1      38.573  30.766  31.046  1.00  0.00     0.023 A 
ATOM     77  C   UNL A   1      38.395  30.532  32.424  1.00  0.00     0.012 A 
ATOM     78  C   UNL A   1      37.556  31.414  30.321  1.00  0.00     0.148 A 
ATOM     79  C   UNL A   1      37.212  30.911  33.061  1.00  0.00     0.002 A 
ATOM     80  C   UNL A   1      36.404  31.837  30.973  1.00  0.00     0.091 A 
ATOM     81  F   UNL A   1      37.740  31.614  29.008  1.00  0.00    -0.205 F 
ATOM     82  C   UNL A   1      36.223  31.572  32.340  1.00  0.00     0.022 A 
BRANCH  80  83
ATOM     83  S   UNL A   1      35.132  32.805  30.155  1.00  0.00     0.127 S 
ATOM     84  O   UNL A   1      35.900  33.938  29.644  1.00  0.00    -0.237 OA
ATOM     85  O   UNL A   1      34.656  31.871  29.133  1.00  0.00    -0.237 OA
ATOM     86  O   UNL A   1      34.152  33.120  31.186  1.00  0.00    -0.744 OA
ENDBRANCH  80  83
ENDBRANCH  52  76
BRANCH  64  87
ATOM     87  C   UNL A   1      44.503  34.101  29.492  1.00  0.00     0.023 A 
ATOM     88  C   UNL A   1      45.128  34.450  30.706  1.00  0.00     0.012 A 
ATOM     89  C   UNL A   1      44.382  35.068  28.475  1.00  0.00     0.148 A 
ATOM     90  C   UNL A   1      45.589  35.749  30.918  1.00  0.00     0.002 A 
ATOM     91  C   UNL A   1      44.890  36.347  28.674  1.00  0.00     0.091 A 
ATOM     92  F   UNL A   1      43.768  34.724  27.334  1.00  0.00    -0.205 F 
ATOM     93  C   UNL A   1      45.482  36.693  29.899  1.00  0.00     0.022 A 
BRANCH  91  94
ATOM     94  S   UNL A   1      44.883  37.596  27.383  1.00  0.00     0.127 S 
ATOM     95  O   UNL A   1      45.324  38.782  28.113  1.00  0.00    -0.237 OA
ATOM     96  O   UNL A   1      45.862  37.066  26.432  1.00  0.00    -0.237 OA
ATOM     97  O   UNL A   1      43.518  37.641  26.877  1.00  0.00    -0.744 OA
ENDBRANCH  91  94
ENDBRANCH  64  87
ENDBRANCH  38  39
ENDBRANCH  31  33
ENDBRANCH  30  31
ENDBRANCH  29  30
ENDBRANCH   1  29
TORSDOF 21
ENDMDL
