MODEL 1
REMARK VINA RESULT:      -9.4      0.000      0.000
REMARK SMILES C[NH2+]C[C@H](C)C(=O)N1CCc2cc(C(=O)OCCOCCOC(=O)c3ccc(-c4c5nc(c(-c6cccc(S(=O)(=O)[O-])c6F)c6ccc([nH]6)c(-c6cccc(S(=O)(=O)[O-])c6F)c6nc(c(-c7cccc(S(=O)(=O)[O-])c7F)c7ccc4[nH]7)C=C6)C=C5)cc3)ccc21
REMARK SMILES IDX 18 1 17 2 16 3 14 4 15 5 13 6 8 7 9 8 90 9 10 10 11 11 89 12
REMARK SMILES IDX 12 13 88 14 6 15 7 16 4 17 5 18 3 19 2 20 1 21 19 24 20 25
REMARK SMILES IDX 21 26 22 27 23 28 24 29 25 30 26 31 87 32 27 33 86 34 28 35
REMARK SMILES IDX 29 36 30 37 80 38 31 39 85 40 79 41 81 42 32 43 84 44 78 45
REMARK SMILES IDX 77 46 33 48 65 49 45 50 64 51 46 52 49 53 63 54 82 55 47 56
REMARK SMILES IDX 48 57 62 59 83 60 50 61 34 62 35 63 43 64 36 65 38 66 44 67
REMARK SMILES IDX 37 68 39 69 40 70 41 71 42 72 66 73 67 74 75 75 68 76 70 77
REMARK SMILES IDX 76 78 69 79 71 80 72 81 73 82 74 83 51 84 52 85 60 86 53 87
REMARK SMILES IDX 55 88 61 89 54 90 56 91 57 92 58 93 59 94
REMARK H PARENT 2 22 2 23 81 47 49 58
REMARK Flexibility Score: inf
ROOT
ATOM      1  C   UNL A   1      37.246  21.511  24.885  1.00  0.00     0.202 C 
ENDROOT
BRANCH   1   2
ATOM      2  C   UNL A   1      36.011  22.418  24.916  1.00  0.00     0.261 C 
BRANCH   2   3
ATOM      3  O   UNL A   1      35.086  22.041  23.889  1.00  0.00    -0.460 OA
BRANCH   3   4
ATOM      4  C   UNL A   1      33.831  21.759  24.310  1.00  0.00     0.338 C 
ATOM      5  O   UNL A   1      33.485  20.839  25.025  1.00  0.00    -0.246 OA
BRANCH   4   6
ATOM      6  C   UNL A   1      32.919  22.862  23.910  1.00  0.00     0.060 A 
ATOM      7  N   UNL A   1      30.855  26.282  22.797  1.00  0.00    -0.311 N 
ATOM      8  C   UNL A   1      31.525  26.646  21.533  1.00  0.00     0.130 C 
ATOM      9  C   UNL A   1      31.339  25.030  23.193  1.00  0.00     0.047 A 
ATOM     10  C   UNL A   1      32.651  25.632  21.295  1.00  0.00     0.059 C 
ATOM     11  C   UNL A   1      32.479  24.714  22.459  1.00  0.00    -0.022 A 
ATOM     12  C   UNL A   1      30.862  24.135  24.125  1.00  0.00     0.027 A 
ATOM     13  C   UNL A   1      33.299  23.657  22.823  1.00  0.00     0.021 A 
ATOM     14  C   UNL A   1      31.666  23.059  24.512  1.00  0.00     0.018 A 
BRANCH   7  15
ATOM     15  C   UNL A   1      30.080  27.237  23.425  1.00  0.00     0.235 C 
ATOM     16  O   UNL A   1      28.904  26.949  23.709  1.00  0.00    -0.274 OA
BRANCH  15  17
ATOM     17  C   UNL A   1      30.490  28.719  23.577  1.00  0.00     0.131 C 
ATOM     18  C   UNL A   1      29.447  29.818  23.495  1.00  0.00     0.024 C 
BRANCH  17  19
ATOM     19  C   UNL A   1      31.496  28.954  24.726  1.00  0.00     0.273 C 
BRANCH  19  20
ATOM     20  N   UNL A   1      31.681  30.330  25.188  1.00  0.00    -0.348 N 
ATOM     21  C   UNL A   1      31.912  30.393  26.623  1.00  0.00     0.330 C 
ATOM     22  H   UNL A   1      32.484  30.736  24.707  1.00  0.00     0.346 HD
ATOM     23  H   UNL A   1      30.829  30.852  24.981  1.00  0.00     0.346 HD
ENDBRANCH  19  20
ENDBRANCH  17  19
ENDBRANCH  15  17
ENDBRANCH   7  15
ENDBRANCH   4   6
ENDBRANCH   3   4
ENDBRANCH   2   3
ENDBRANCH   1   2
BRANCH   1  24
ATOM     24  O   UNL A   1      38.009  21.412  26.090  1.00  0.00    -0.374 OA
BRANCH  24  25
ATOM     25  C   UNL A   1      39.419  21.230  25.961  1.00  0.00     0.202 C 
BRANCH  25  26
ATOM     26  C   UNL A   1      39.982  19.817  26.159  1.00  0.00     0.261 C 
BRANCH  26  27
ATOM     27  O   UNL A   1      41.240  19.813  26.851  1.00  0.00    -0.460 OA
BRANCH  27  28
ATOM     28  C   UNL A   1      42.308  20.113  26.070  1.00  0.00     0.338 C 
ATOM     29  O   UNL A   1      42.744  19.457  25.139  1.00  0.00    -0.246 OA
BRANCH  28  30
ATOM     30  C   UNL A   1      42.789  21.471  26.378  1.00  0.00     0.060 A 
ATOM     31  C   UNL A   1      42.943  21.810  27.729  1.00  0.00     0.016 A 
ATOM     32  C   UNL A   1      43.017  22.418  25.377  1.00  0.00     0.016 A 
ATOM     33  C   UNL A   1      43.279  23.113  28.087  1.00  0.00     0.010 A 
ATOM     34  C   UNL A   1      43.348  23.727  25.741  1.00  0.00     0.010 A 
ATOM     35  C   UNL A   1      43.445  24.089  27.098  1.00  0.00    -0.014 A 
BRANCH  35  36
ATOM     36  C   UNL A   1      43.606  25.512  27.487  1.00  0.00     0.031 A 
ATOM     37  C   UNL A   1      44.981  26.122  27.492  1.00  0.00     0.074 A 
ATOM     38  C   UNL A   1      42.535  26.249  27.838  1.00  0.00     0.049 A 
ATOM     39  N   UNL A   1      45.348  27.326  27.845  1.00  0.00    -0.248 NA
ATOM     40  C   UNL A   1      46.091  25.264  27.045  1.00  0.00     0.031 C 
ATOM     41  C   UNL A   1      41.155  25.770  27.873  1.00  0.00     0.029 A 
ATOM     42  N   UNL A   1      42.451  27.552  28.265  1.00  0.00    -0.354 N 
ATOM     43  C   UNL A   1      46.731  27.359  27.706  1.00  0.00     0.074 A 
ATOM     44  C   UNL A   1      47.139  26.054  27.232  1.00  0.00     0.031 C 
ATOM     45  C   UNL A   1      40.364  26.752  28.337  1.00  0.00     0.029 A 
ATOM     46  C   UNL A   1      41.185  27.917  28.660  1.00  0.00     0.049 A 
ATOM     47  H   UNL A   1      43.222  28.164  28.286  1.00  0.00     0.167 HD
ATOM     48  C   UNL A   1      47.580  28.383  27.946  1.00  0.00     0.034 A 
ATOM     49  C   UNL A   1      40.747  29.046  29.251  1.00  0.00     0.034 A 
ATOM     50  C   UNL A   1      47.169  29.689  28.387  1.00  0.00     0.049 A 
ATOM     51  C   UNL A   1      41.720  30.165  29.515  1.00  0.00     0.074 A 
ATOM     52  C   UNL A   1      47.950  30.813  28.582  1.00  0.00     0.029 A 
ATOM     53  N   UNL A   1      45.871  30.040  28.723  1.00  0.00    -0.354 N 
ATOM     54  N   UNL A   1      43.003  30.226  29.249  1.00  0.00    -0.248 NA
ATOM     55  C   UNL A   1      41.181  31.388  30.131  1.00  0.00     0.031 C 
ATOM     56  C   UNL A   1      47.134  31.832  29.082  1.00  0.00     0.029 A 
ATOM     57  C   UNL A   1      45.835  31.356  29.148  1.00  0.00     0.049 A 
ATOM     58  H   UNL A   1      45.091  29.442  28.666  1.00  0.00     0.167 HD
ATOM     59  C   UNL A   1      43.413  31.501  29.627  1.00  0.00     0.074 A 
ATOM     60  C   UNL A   1      42.237  32.188  30.118  1.00  0.00     0.031 C 
ATOM     61  C   UNL A   1      44.651  32.049  29.583  1.00  0.00     0.034 A 
BRANCH  48  62
ATOM     62  C   UNL A   1      49.053  28.156  27.733  1.00  0.00     0.023 A 
ATOM     63  C   UNL A   1      49.872  27.773  28.812  1.00  0.00     0.012 A 
ATOM     64  C   UNL A   1      49.599  28.215  26.435  1.00  0.00     0.148 A 
ATOM     65  C   UNL A   1      51.216  27.466  28.607  1.00  0.00     0.002 A 
ATOM     66  C   UNL A   1      50.926  27.864  26.229  1.00  0.00     0.091 A 
ATOM     67  F   UNL A   1      48.804  28.602  25.425  1.00  0.00    -0.205 F 
ATOM     68  C   UNL A   1      51.739  27.497  27.316  1.00  0.00     0.022 A 
BRANCH  66  69
ATOM     69  S   UNL A   1      51.670  27.789  24.597  1.00  0.00     0.127 S 
ATOM     70  O   UNL A   1      50.806  26.819  23.924  1.00  0.00    -0.237 OA
ATOM     71  O   UNL A   1      51.521  29.166  24.129  1.00  0.00    -0.237 OA
ATOM     72  O   UNL A   1      53.045  27.355  24.798  1.00  0.00    -0.744 OA
ENDBRANCH  66  69
ENDBRANCH  48  62
BRANCH  49  73
ATOM     73  C   UNL A   1      39.316  29.182  29.647  1.00  0.00     0.023 A 
ATOM     74  C   UNL A   1      38.894  28.757  30.921  1.00  0.00     0.012 A 
ATOM     75  C   UNL A   1      38.366  29.711  28.753  1.00  0.00     0.148 A 
ATOM     76  C   UNL A   1      37.547  28.812  31.280  1.00  0.00     0.002 A 
ATOM     77  C   UNL A   1      37.036  29.821  29.138  1.00  0.00     0.091 A 
ATOM     78  F   UNL A   1      38.781  30.095  27.536  1.00  0.00    -0.205 F 
ATOM     79  C   UNL A   1      36.620  29.351  30.392  1.00  0.00     0.022 A 
BRANCH  77  80
ATOM     80  S   UNL A   1      35.805  30.625  28.108  1.00  0.00     0.127 S 
ATOM     81  O   UNL A   1      35.663  29.672  27.010  1.00  0.00    -0.237 OA
ATOM     82  O   UNL A   1      34.656  30.699  29.013  1.00  0.00    -0.237 OA
ATOM     83  O   UNL A   1      36.372  31.920  27.757  1.00  0.00    -0.744 OA
ENDBRANCH  77  80
ENDBRANCH  49  73
BRANCH  61  84
ATOM     84  C   UNL A   1      44.803  33.482  30.025  1.00  0.00     0.023 A 
ATOM     85  C   UNL A   1      45.162  33.779  31.355  1.00  0.00     0.012 A 
ATOM     86  C   UNL A   1      44.664  34.533  29.096  1.00  0.00     0.148 A 
ATOM     87  C   UNL A   1      45.341  35.101  31.762  1.00  0.00     0.002 A 
ATOM     88  C   UNL A   1      44.898  35.843  29.495  1.00  0.00     0.091 A 
ATOM     89  F   UNL A   1      44.308  34.231  27.839  1.00  0.00    -0.205 F 
ATOM     90  C   UNL A   1      45.222  36.131  30.831  1.00  0.00     0.022 A 
BRANCH  88  91
ATOM     91  S   UNL A   1      44.867  37.221  28.344  1.00  0.00     0.127 S 
ATOM     92  O   UNL A   1      43.468  37.221  27.919  1.00  0.00    -0.237 OA
ATOM     93  O   UNL A   1      45.244  38.347  29.200  1.00  0.00    -0.237 OA
ATOM     94  O   UNL A   1      45.833  36.901  27.303  1.00  0.00    -0.744 OA
ENDBRANCH  88  91
ENDBRANCH  61  84
ENDBRANCH  35  36
ENDBRANCH  28  30
ENDBRANCH  27  28
ENDBRANCH  26  27
ENDBRANCH  25  26
ENDBRANCH  24  25
ENDBRANCH   1  24
TORSDOF 21
ENDMDL
MODEL 2
REMARK VINA RESULT:      -9.4      1.810      7.665
REMARK SMILES C[NH2+]C[C@H](C)C(=O)N1CCc2cc(C(=O)OCCOCCOC(=O)c3ccc(-c4c5nc(c(-c6cccc(S(=O)(=O)[O-])c6F)c6ccc([nH]6)c(-c6cccc(S(=O)(=O)[O-])c6F)c6nc(c(-c7cccc(S(=O)(=O)[O-])c7F)c7ccc4[nH]7)C=C6)C=C5)cc3)ccc21
REMARK SMILES IDX 18 1 17 2 16 3 14 4 15 5 13 6 8 7 9 8 90 9 10 10 11 11 89 12
REMARK SMILES IDX 12 13 88 14 6 15 7 16 4 17 5 18 3 19 2 20 1 21 19 24 20 25
REMARK SMILES IDX 21 26 22 27 23 28 24 29 25 30 26 31 87 32 27 33 86 34 28 35
REMARK SMILES IDX 29 36 30 37 80 38 31 39 85 40 79 41 81 42 32 43 84 44 78 45
REMARK SMILES IDX 77 46 33 48 65 49 45 50 64 51 46 52 49 53 63 54 82 55 47 56
REMARK SMILES IDX 48 57 62 59 83 60 50 61 34 62 35 63 43 64 36 65 38 66 44 67
REMARK SMILES IDX 37 68 39 69 40 70 41 71 42 72 66 73 67 74 75 75 68 76 70 77
REMARK SMILES IDX 76 78 69 79 71 80 72 81 73 82 74 83 51 84 52 85 60 86 53 87
REMARK SMILES IDX 55 88 61 89 54 90 56 91 57 92 58 93 59 94
REMARK H PARENT 2 22 2 23 81 47 49 58
REMARK Flexibility Score: inf
ROOT
ATOM      1  C   UNL A   1      37.112  20.994  24.895  1.00  0.00     0.202 C 
ENDROOT
BRANCH   1   2
ATOM      2  C   UNL A   1      35.643  21.385  25.091  1.00  0.00     0.261 C 
BRANCH   2   3
ATOM      3  O   UNL A   1      34.797  20.588  24.254  1.00  0.00    -0.460 OA
BRANCH   3   4
ATOM      4  C   UNL A   1      33.517  20.456  24.676  1.00  0.00     0.338 C 
ATOM      5  O   UNL A   1      33.041  19.528  25.300  1.00  0.00    -0.246 OA
BRANCH   4   6
ATOM      6  C   UNL A   1      32.782  21.722  24.419  1.00  0.00     0.060 A 
ATOM      7  N   UNL A   1      31.263  25.507  23.673  1.00  0.00    -0.311 N 
ATOM      8  C   UNL A   1      31.876  25.832  22.370  1.00  0.00     0.130 C 
ATOM      9  C   UNL A   1      31.552  24.169  23.961  1.00  0.00     0.047 A 
ATOM     10  C   UNL A   1      32.782  24.658  21.977  1.00  0.00     0.059 C 
ATOM     11  C   UNL A   1      32.552  23.710  23.107  1.00  0.00    -0.022 A 
ATOM     12  C   UNL A   1      31.006  23.311  24.890  1.00  0.00     0.027 A 
ATOM     13  C   UNL A   1      33.201  22.508  23.339  1.00  0.00     0.021 A 
ATOM     14  C   UNL A   1      31.639  22.091  25.146  1.00  0.00     0.018 A 
BRANCH   7  15
ATOM     15  C   UNL A   1      30.724  26.539  24.418  1.00  0.00     0.235 C 
ATOM     16  O   UNL A   1      29.503  26.756  24.327  1.00  0.00    -0.274 OA
BRANCH  15  17
ATOM     17  C   UNL A   1      31.567  27.598  25.163  1.00  0.00     0.131 C 
ATOM     18  C   UNL A   1      32.906  27.227  25.770  1.00  0.00     0.024 C 
BRANCH  17  19
ATOM     19  C   UNL A   1      31.614  28.958  24.431  1.00  0.00     0.273 C 
BRANCH  19  20
ATOM     20  N   UNL A   1      32.408  30.025  25.044  1.00  0.00    -0.348 N 
ATOM     21  C   UNL A   1      31.681  30.696  26.111  1.00  0.00     0.330 C 
ATOM     22  H   UNL A   1      33.262  29.621  25.430  1.00  0.00     0.346 HD
ATOM     23  H   UNL A   1      32.622  30.715  24.323  1.00  0.00     0.346 HD
ENDBRANCH  19  20
ENDBRANCH  17  19
ENDBRANCH  15  17
ENDBRANCH   7  15
ENDBRANCH   4   6
ENDBRANCH   3   4
ENDBRANCH   2   3
ENDBRANCH   1   2
BRANCH   1  24
ATOM     24  O   UNL A   1      37.972  21.113  26.030  1.00  0.00    -0.374 OA
BRANCH  24  25
ATOM     25  C   UNL A   1      39.373  20.937  25.814  1.00  0.00     0.202 C 
BRANCH  25  26
ATOM     26  C   UNL A   1      39.911  19.503  25.724  1.00  0.00     0.261 C 
BRANCH  26  27
ATOM     27  O   UNL A   1      41.106  19.310  26.496  1.00  0.00    -0.460 OA
BRANCH  27  28
ATOM     28  C   UNL A   1      42.232  19.791  25.910  1.00  0.00     0.338 C 
ATOM     29  O   UNL A   1      42.903  19.246  25.051  1.00  0.00    -0.246 OA
BRANCH  28  30
ATOM     30  C   UNL A   1      42.455  21.187  26.325  1.00  0.00     0.060 A 
ATOM     31  C   UNL A   1      42.650  22.138  25.315  1.00  0.00     0.016 A 
ATOM     32  C   UNL A   1      42.543  21.551  27.671  1.00  0.00     0.016 A 
ATOM     33  C   UNL A   1      42.984  23.449  25.645  1.00  0.00     0.010 A 
ATOM     34  C   UNL A   1      42.885  22.867  27.999  1.00  0.00     0.010 A 
ATOM     35  C   UNL A   1      43.141  23.812  26.987  1.00  0.00    -0.014 A 
BRANCH  35  36
ATOM     36  C   UNL A   1      43.688  25.150  27.328  1.00  0.00     0.031 A 
ATOM     37  C   UNL A   1      42.770  26.193  27.906  1.00  0.00     0.074 A 
ATOM     38  C   UNL A   1      44.988  25.430  27.119  1.00  0.00     0.049 A 
ATOM     39  N   UNL A   1      43.030  27.433  28.225  1.00  0.00    -0.248 NA
ATOM     40  C   UNL A   1      41.376  25.790  28.152  1.00  0.00     0.031 C 
ATOM     41  C   UNL A   1      45.973  24.503  26.565  1.00  0.00     0.029 A 
ATOM     42  N   UNL A   1      45.692  26.591  27.319  1.00  0.00    -0.354 N 
ATOM     43  C   UNL A   1      41.828  27.972  28.668  1.00  0.00     0.074 A 
ATOM     44  C   UNL A   1      40.836  26.923  28.580  1.00  0.00     0.031 C 
ATOM     45  C   UNL A   1      47.147  25.143  26.431  1.00  0.00     0.029 A 
ATOM     46  C   UNL A   1      46.988  26.530  26.860  1.00  0.00     0.049 A 
ATOM     47  H   UNL A   1      45.308  27.389  27.748  1.00  0.00     0.167 HD
ATOM     48  C   UNL A   1      41.575  29.225  29.112  1.00  0.00     0.034 A 
ATOM     49  C   UNL A   1      47.924  27.495  26.761  1.00  0.00     0.034 A 
ATOM     50  C   UNL A   1      42.569  30.258  29.227  1.00  0.00     0.049 A 
ATOM     51  C   UNL A   1      47.609  28.883  27.254  1.00  0.00     0.074 A 
ATOM     52  C   UNL A   1      42.423  31.534  29.740  1.00  0.00     0.029 A 
ATOM     53  N   UNL A   1      43.885  30.143  28.807  1.00  0.00    -0.354 N 
ATOM     54  N   UNL A   1      46.505  29.337  27.798  1.00  0.00    -0.248 NA
ATOM     55  C   UNL A   1      48.680  29.887  27.153  1.00  0.00     0.031 C 
ATOM     56  C   UNL A   1      43.638  32.208  29.585  1.00  0.00     0.029 A 
ATOM     57  C   UNL A   1      44.553  31.334  29.024  1.00  0.00     0.049 A 
ATOM     58  H   UNL A   1      44.283  29.334  28.412  1.00  0.00     0.167 HD
ATOM     59  C   UNL A   1      46.762  30.661  28.137  1.00  0.00     0.074 A 
ATOM     60  C   UNL A   1      48.133  30.931  27.760  1.00  0.00     0.031 C 
ATOM     61  C   UNL A   1      45.934  31.576  28.698  1.00  0.00     0.034 A 
BRANCH  48  62
ATOM     62  C   UNL A   1      40.168  29.568  29.521  1.00  0.00     0.023 A 
ATOM     63  C   UNL A   1      39.222  29.946  28.550  1.00  0.00     0.012 A 
ATOM     64  C   UNL A   1      39.760  29.405  30.860  1.00  0.00     0.148 A 
ATOM     65  C   UNL A   1      37.893  30.172  28.906  1.00  0.00     0.002 A 
ATOM     66  C   UNL A   1      38.426  29.586  31.200  1.00  0.00     0.091 A 
ATOM     67  F   UNL A   1      40.683  29.063  31.772  1.00  0.00    -0.205 F 
ATOM     68  C   UNL A   1      37.492  29.978  30.226  1.00  0.00     0.022 A 
BRANCH  66  69
ATOM     69  S   UNL A   1      37.794  29.278  32.853  1.00  0.00     0.127 S 
ATOM     70  O   UNL A   1      37.712  27.817  32.869  1.00  0.00    -0.237 OA
ATOM     71  O   UNL A   1      38.850  29.840  33.694  1.00  0.00    -0.237 OA
ATOM     72  O   UNL A   1      36.515  29.969  32.932  1.00  0.00    -0.744 OA
ENDBRANCH  66  69
ENDBRANCH  48  62
BRANCH  49  73
ATOM     73  C   UNL A   1      49.255  27.192  26.161  1.00  0.00     0.023 A 
ATOM     74  C   UNL A   1      50.273  26.626  26.953  1.00  0.00     0.012 A 
ATOM     75  C   UNL A   1      49.522  27.485  24.810  1.00  0.00     0.148 A 
ATOM     76  C   UNL A   1      51.544  26.403  26.424  1.00  0.00     0.002 A 
ATOM     77  C   UNL A   1      50.772  27.204  24.272  1.00  0.00     0.091 A 
ATOM     78  F   UNL A   1      48.548  28.041  24.074  1.00  0.00    -0.205 F 
ATOM     79  C   UNL A   1      51.792  26.684  25.083  1.00  0.00     0.022 A 
BRANCH  77  80
ATOM     80  S   UNL A   1      51.131  27.410  22.525  1.00  0.00     0.127 S 
ATOM     81  O   UNL A   1      51.138  28.864  22.390  1.00  0.00    -0.237 OA
ATOM     82  O   UNL A   1      52.444  26.773  22.409  1.00  0.00    -0.237 OA
ATOM     83  O   UNL A   1      50.064  26.711  21.821  1.00  0.00    -0.744 OA
ENDBRANCH  77  80
ENDBRANCH  49  73
BRANCH  61  84
ATOM     84  C   UNL A   1      46.493  32.944  28.995  1.00  0.00     0.023 A 
ATOM     85  C   UNL A   1      47.093  33.208  30.242  1.00  0.00     0.012 A 
ATOM     86  C   UNL A   1      46.490  33.945  28.004  1.00  0.00     0.148 A 
ATOM     87  C   UNL A   1      47.647  34.459  30.511  1.00  0.00     0.002 A 
ATOM     88  C   UNL A   1      47.092  35.171  28.259  1.00  0.00     0.091 A 
ATOM     89  F   UNL A   1      45.902  33.680  26.829  1.00  0.00    -0.205 F 
ATOM     90  C   UNL A   1      47.657  35.436  29.517  1.00  0.00     0.022 A 
BRANCH  88  91
ATOM     91  S   UNL A   1      47.243  36.450  27.008  1.00  0.00     0.127 S 
ATOM     92  O   UNL A   1      47.988  37.483  27.727  1.00  0.00    -0.237 OA
ATOM     93  O   UNL A   1      48.003  35.769  25.959  1.00  0.00    -0.237 OA
ATOM     94  O   UNL A   1      45.883  36.812  26.633  1.00  0.00    -0.744 OA
ENDBRANCH  88  91
ENDBRANCH  61  84
ENDBRANCH  35  36
ENDBRANCH  28  30
ENDBRANCH  27  28
ENDBRANCH  26  27
ENDBRANCH  25  26
ENDBRANCH  24  25
ENDBRANCH   1  24
TORSDOF 21
ENDMDL
MODEL 3
REMARK VINA RESULT:      -9.2      1.404      7.598
REMARK SMILES C[NH2+]C[C@H](C)C(=O)N1CCc2cc(C(=O)OCCOCCOC(=O)c3ccc(-c4c5nc(c(-c6cccc(S(=O)(=O)[O-])c6F)c6ccc([nH]6)c(-c6cccc(S(=O)(=O)[O-])c6F)c6nc(c(-c7cccc(S(=O)(=O)[O-])c7F)c7ccc4[nH]7)C=C6)C=C5)cc3)ccc21
REMARK SMILES IDX 18 1 17 2 16 3 14 4 15 5 13 6 8 7 9 8 90 9 10 10 11 11 89 12
REMARK SMILES IDX 12 13 88 14 6 15 7 16 4 17 5 18 3 19 2 20 1 21 19 24 20 25
REMARK SMILES IDX 21 26 22 27 23 28 24 29 25 30 26 31 87 32 27 33 86 34 28 35
REMARK SMILES IDX 29 36 30 37 80 38 31 39 85 40 79 41 81 42 32 43 84 44 78 45
REMARK SMILES IDX 77 46 33 48 65 49 45 50 64 51 46 52 49 53 63 54 82 55 47 56
REMARK SMILES IDX 48 57 62 59 83 60 50 61 34 62 35 63 43 64 36 65 38 66 44 67
REMARK SMILES IDX 37 68 39 69 40 70 41 71 42 72 66 73 67 74 75 75 68 76 70 77
REMARK SMILES IDX 76 78 69 79 71 80 72 81 73 82 74 83 51 84 52 85 60 86 53 87
REMARK SMILES IDX 55 88 61 89 54 90 56 91 57 92 58 93 59 94
REMARK H PARENT 2 22 2 23 81 47 49 58
REMARK Flexibility Score: inf
ROOT
ATOM      1  C   UNL A   1      37.218  21.442  25.115  1.00  0.00     0.202 C 
ENDROOT
BRANCH   1   2
ATOM      2  C   UNL A   1      36.665  22.855  24.907  1.00  0.00     0.261 C 
BRANCH   2   3
ATOM      3  O   UNL A   1      35.381  22.803  24.272  1.00  0.00    -0.460 OA
BRANCH   3   4
ATOM      4  C   UNL A   1      34.320  22.729  25.109  1.00  0.00     0.338 C 
ATOM      5  O   UNL A   1      34.104  21.877  25.949  1.00  0.00    -0.246 OA
BRANCH   4   6
ATOM      6  C   UNL A   1      33.507  23.967  24.983  1.00  0.00     0.060 A 
ATOM      7  N   UNL A   1      31.200  27.285  24.056  1.00  0.00    -0.311 N 
ATOM      8  C   UNL A   1      29.980  26.665  23.504  1.00  0.00     0.130 C 
ATOM      9  C   UNL A   1      31.999  26.264  24.581  1.00  0.00     0.047 A 
ATOM     10  C   UNL A   1      30.188  25.146  23.505  1.00  0.00     0.059 C 
ATOM     11  C   UNL A   1      31.538  25.029  24.132  1.00  0.00    -0.022 A 
ATOM     12  C   UNL A   1      33.083  26.316  25.429  1.00  0.00     0.027 A 
ATOM     13  C   UNL A   1      32.292  23.877  24.293  1.00  0.00     0.021 A 
ATOM     14  C   UNL A   1      33.863  25.170  25.611  1.00  0.00     0.018 A 
BRANCH   7  15
ATOM     15  C   UNL A   1      31.422  28.626  23.809  1.00  0.00     0.235 C 
ATOM     16  O   UNL A   1      32.406  28.943  23.118  1.00  0.00    -0.274 OA
BRANCH  15  17
ATOM     17  C   UNL A   1      30.680  29.772  24.532  1.00  0.00     0.131 C 
ATOM     18  C   UNL A   1      31.398  30.624  25.561  1.00  0.00     0.024 C 
BRANCH  17  19
ATOM     19  C   UNL A   1      29.802  30.618  23.583  1.00  0.00     0.273 C 
BRANCH  19  20
ATOM     20  N   UNL A   1      29.961  30.400  22.144  1.00  0.00    -0.348 N 
ATOM     21  C   UNL A   1      28.782  30.813  21.400  1.00  0.00     0.330 C 
ATOM     22  H   UNL A   1      30.764  30.937  21.815  1.00  0.00     0.346 HD
ATOM     23  H   UNL A   1      30.101  29.402  21.988  1.00  0.00     0.346 HD
ENDBRANCH  19  20
ENDBRANCH  17  19
ENDBRANCH  15  17
ENDBRANCH   7  15
ENDBRANCH   4   6
ENDBRANCH   3   4
ENDBRANCH   2   3
ENDBRANCH   1   2
BRANCH   1  24
ATOM     24  O   UNL A   1      38.388  21.315  25.925  1.00  0.00    -0.374 OA
BRANCH  24  25
ATOM     25  C   UNL A   1      39.493  20.595  25.377  1.00  0.00     0.202 C 
BRANCH  25  26
ATOM     26  C   UNL A   1      39.791  19.200  25.941  1.00  0.00     0.261 C 
BRANCH  26  27
ATOM     27  O   UNL A   1      41.047  19.139  26.634  1.00  0.00    -0.460 OA
BRANCH  27  28
ATOM     28  C   UNL A   1      42.076  19.734  25.979  1.00  0.00     0.338 C 
ATOM     29  O   UNL A   1      42.739  19.263  25.071  1.00  0.00    -0.246 OA
BRANCH  28  30
ATOM     30  C   UNL A   1      42.185  21.145  26.392  1.00  0.00     0.060 A 
ATOM     31  C   UNL A   1      42.283  22.108  25.380  1.00  0.00     0.016 A 
ATOM     32  C   UNL A   1      42.260  21.516  27.736  1.00  0.00     0.016 A 
ATOM     33  C   UNL A   1      42.508  23.443  25.706  1.00  0.00     0.010 A 
ATOM     34  C   UNL A   1      42.493  22.856  28.060  1.00  0.00     0.010 A 
ATOM     35  C   UNL A   1      42.653  23.819  27.046  1.00  0.00    -0.014 A 
BRANCH  35  36
ATOM     36  C   UNL A   1      43.088  25.199  27.380  1.00  0.00     0.031 A 
ATOM     37  C   UNL A   1      42.110  26.141  28.028  1.00  0.00     0.074 A 
ATOM     38  C   UNL A   1      44.340  25.606  27.103  1.00  0.00     0.049 A 
ATOM     39  N   UNL A   1      42.267  27.396  28.355  1.00  0.00    -0.248 NA
ATOM     40  C   UNL A   1      40.776  25.602  28.345  1.00  0.00     0.031 C 
ATOM     41  C   UNL A   1      45.376  24.786  26.477  1.00  0.00     0.029 A 
ATOM     42  N   UNL A   1      44.941  26.828  27.283  1.00  0.00    -0.354 N 
ATOM     43  C   UNL A   1      41.046  27.811  28.874  1.00  0.00     0.074 A 
ATOM     44  C   UNL A   1      40.157  26.671  28.823  1.00  0.00     0.031 C 
ATOM     45  C   UNL A   1      46.473  25.538  26.289  1.00  0.00     0.029 A 
ATOM     46  C   UNL A   1      46.207  26.898  26.751  1.00  0.00     0.049 A 
ATOM     47  H   UNL A   1      44.507  27.579  27.749  1.00  0.00     0.167 HD
ATOM     48  C   UNL A   1      40.701  29.027  29.355  1.00  0.00     0.034 A 
ATOM     49  C   UNL A   1      47.040  27.950  26.617  1.00  0.00     0.034 A 
ATOM     50  C   UNL A   1      41.597  30.150  29.433  1.00  0.00     0.049 A 
ATOM     51  C   UNL A   1      46.622  29.294  27.153  1.00  0.00     0.074 A 
ATOM     52  C   UNL A   1      41.359  31.399  29.976  1.00  0.00     0.029 A 
ATOM     53  N   UNL A   1      42.891  30.168  28.937  1.00  0.00    -0.354 N 
ATOM     54  N   UNL A   1      45.513  29.632  27.766  1.00  0.00    -0.248 NA
ATOM     55  C   UNL A   1      47.584  30.398  27.009  1.00  0.00     0.031 C 
ATOM     56  C   UNL A   1      42.492  32.190  29.766  1.00  0.00     0.029 A 
ATOM     57  C   UNL A   1      43.454  31.416  29.138  1.00  0.00     0.049 A 
ATOM     58  H   UNL A   1      43.341  29.407  28.505  1.00  0.00     0.167 HD
ATOM     59  C   UNL A   1      45.661  30.971  28.114  1.00  0.00     0.074 A 
ATOM     60  C   UNL A   1      46.976  31.376  27.666  1.00  0.00     0.031 C 
ATOM     61  C   UNL A   1      44.783  31.794  28.738  1.00  0.00     0.034 A 
BRANCH  48  62
ATOM     62  C   UNL A   1      39.294  29.227  29.850  1.00  0.00     0.023 A 
ATOM     63  C   UNL A   1      38.950  28.866  31.166  1.00  0.00     0.012 A 
ATOM     64  C   UNL A   1      38.343  29.878  29.038  1.00  0.00     0.148 A 
ATOM     65  C   UNL A   1      37.677  29.136  31.665  1.00  0.00     0.002 A 
ATOM     66  C   UNL A   1      37.092  30.185  29.555  1.00  0.00     0.091 A 
ATOM     67  F   UNL A   1      38.687  30.194  27.781  1.00  0.00    -0.205 F 
ATOM     68  C   UNL A   1      36.753  29.807  30.866  1.00  0.00     0.022 A 
BRANCH  66  69
ATOM     69  S   UNL A   1      35.865  31.122  28.638  1.00  0.00     0.127 S 
ATOM     70  O   UNL A   1      36.665  32.236  28.130  1.00  0.00    -0.237 OA
ATOM     71  O   UNL A   1      35.443  30.160  27.621  1.00  0.00    -0.237 OA
ATOM     72  O   UNL A   1      34.834  31.489  29.599  1.00  0.00    -0.744 OA
ENDBRANCH  66  69
ENDBRANCH  48  62
BRANCH  49  73
ATOM     73  C   UNL A   1      48.357  27.785  25.937  1.00  0.00     0.023 A 
ATOM     74  C   UNL A   1      49.531  27.641  26.701  1.00  0.00     0.012 A 
ATOM     75  C   UNL A   1      48.450  27.793  24.532  1.00  0.00     0.148 A 
ATOM     76  C   UNL A   1      50.777  27.557  26.080  1.00  0.00     0.002 A 
ATOM     77  C   UNL A   1      49.687  27.646  23.918  1.00  0.00     0.091 A 
ATOM     78  F   UNL A   1      47.324  27.949  23.820  1.00  0.00    -0.205 F 
ATOM     79  C   UNL A   1      50.855  27.552  24.690  1.00  0.00     0.022 A 
BRANCH  77  80
ATOM     80  S   UNL A   1      49.861  27.496  22.137  1.00  0.00     0.127 S 
ATOM     81  O   UNL A   1      49.999  28.891  21.730  1.00  0.00    -0.237 OA
ATOM     82  O   UNL A   1      51.080  26.694  22.020  1.00  0.00    -0.237 OA
ATOM     83  O   UNL A   1      48.655  26.817  21.683  1.00  0.00    -0.744 OA
ENDBRANCH  77  80
ENDBRANCH  49  73
BRANCH  61  84
ATOM     84  C   UNL A   1      45.226  33.205  29.029  1.00  0.00     0.023 A 
ATOM     85  C   UNL A   1      45.807  33.524  30.272  1.00  0.00     0.012 A 
ATOM     86  C   UNL A   1      45.133  34.200  28.034  1.00  0.00     0.148 A 
ATOM     87  C   UNL A   1      46.253  34.819  30.534  1.00  0.00     0.002 A 
ATOM     88  C   UNL A   1      45.629  35.474  28.283  1.00  0.00     0.091 A 
ATOM     89  F   UNL A   1      44.563  33.881  26.862  1.00  0.00    -0.205 F 
ATOM     90  C   UNL A   1      46.175  35.789  29.537  1.00  0.00     0.022 A 
BRANCH  88  91
ATOM     91  S   UNL A   1      45.664  36.756  27.027  1.00  0.00     0.127 S 
ATOM     92  O   UNL A   1      46.611  37.711  27.603  1.00  0.00    -0.237 OA
ATOM     93  O   UNL A   1      46.165  36.031  25.858  1.00  0.00    -0.237 OA
ATOM     94  O   UNL A   1      44.295  37.237  26.901  1.00  0.00    -0.744 OA
ENDBRANCH  88  91
ENDBRANCH  61  84
ENDBRANCH  35  36
ENDBRANCH  28  30
ENDBRANCH  27  28
ENDBRANCH  26  27
ENDBRANCH  25  26
ENDBRANCH  24  25
ENDBRANCH   1  24
TORSDOF 21
ENDMDL
