MODEL 1
REMARK VINA RESULT:     -11.5      0.000      0.000
REMARK SMILES CC(=O)c1cc2c(cc1NC(=O)/C=C/C(=O)OCCOCCOC(=O)c1ccc(-c3c4nc(c(-c5cccc(S(=O)(=O)[O-])c5F)c5ccc([nH]5)c(-c5cccc(S(=O)(=O)[O-])c5F)c5nc(c(-c6cccc(S(=O)(=O)[O-])c6F)c6ccc3[nH]6)C=C5)C=C4)cc1)OCO2
REMARK SMILES IDX 20 1 19 2 18 3 17 4 15 5 16 6 14 7 13 8 11 9 10 10 12 12
REMARK SMILES IDX 9 13 4 14 5 15 6 16 8 17 7 18 91 19 89 20 90 21 2 22 1 23
REMARK SMILES IDX 3 24 21 25 22 26 23 27 24 28 25 29 26 30 27 31 88 32 28 33
REMARK SMILES IDX 87 34 29 35 30 36 31 37 81 38 32 39 86 40 80 41 82 42 33 43
REMARK SMILES IDX 85 44 79 45 78 46 34 48 66 49 46 50 65 51 47 52 50 53 64 54
REMARK SMILES IDX 83 55 48 56 49 57 63 59 84 60 51 61 35 62 36 63 44 64 37 65
REMARK SMILES IDX 39 66 45 67 38 68 40 69 41 70 42 71 43 72 67 73 68 74 76 75
REMARK SMILES IDX 69 76 71 77 77 78 70 79 72 80 73 81 74 82 75 83 52 84 53 85
REMARK SMILES IDX 61 86 54 87 56 88 62 89 55 90 57 91 58 92 59 93 60 94
REMARK H PARENT 10 11 82 47 50 58
REMARK Flexibility Score: inf
ROOT
ATOM      1  O   UNL A   1      35.568  21.254  25.773  1.00  0.00    -0.374 OA
ENDROOT
BRANCH   1   2
ATOM      2  C   UNL A   1      35.307  22.480  25.086  1.00  0.00     0.202 C 
BRANCH   2   3
ATOM      3  C   UNL A   1      33.898  22.659  24.506  1.00  0.00     0.261 C 
BRANCH   3   4
ATOM      4  O   UNL A   1      33.332  21.407  24.067  1.00  0.00    -0.460 OA
BRANCH   4   5
ATOM      5  C   UNL A   1      32.397  20.877  24.890  1.00  0.00     0.331 C 
ATOM      6  O   UNL A   1      32.079  19.698  24.959  1.00  0.00    -0.247 OA
BRANCH   5   7
ATOM      7  C   UNL A   1      31.849  21.862  25.846  1.00  0.00     0.099 C 
ATOM      8  C   UNL A   1      30.652  22.460  25.757  1.00  0.00     0.079 C 
BRANCH   8   9
ATOM      9  C   UNL A   1      30.297  23.552  26.693  1.00  0.00     0.248 C 
ATOM     10  N   UNL A   1      30.662  24.853  26.448  1.00  0.00    -0.322 N 
ATOM     11  H   UNL A   1      30.487  25.459  27.204  1.00  0.00     0.170 HD
ATOM     12  O   UNL A   1      29.670  23.273  27.713  1.00  0.00    -0.270 OA
BRANCH  10  13
ATOM     13  C   UNL A   1      31.239  25.502  25.328  1.00  0.00     0.056 A 
ATOM     14  C   UNL A   1      32.086  26.629  25.505  1.00  0.00     0.045 A 
ATOM     15  C   UNL A   1      32.844  27.146  24.437  1.00  0.00     0.064 A 
ATOM     16  C   UNL A   1      32.689  26.566  23.201  1.00  0.00     0.166 A 
ATOM     17  C   UNL A   1      31.003  25.070  24.025  1.00  0.00     0.077 A 
ATOM     18  C   UNL A   1      31.766  25.578  22.997  1.00  0.00     0.167 A 
ATOM     19  O   UNL A   1      33.358  26.888  22.064  1.00  0.00    -0.454 OA
ATOM     20  O   UNL A   1      31.720  25.165  21.706  1.00  0.00    -0.454 OA
ATOM     21  C   UNL A   1      32.813  25.914  21.143  1.00  0.00     0.468 C 
BRANCH  14  22
ATOM     22  C   UNL A   1      32.148  27.324  26.815  1.00  0.00     0.162 C 
ATOM     23  C   UNL A   1      33.350  28.197  27.077  1.00  0.00     0.093 C 
ATOM     24  O   UNL A   1      31.203  27.254  27.594  1.00  0.00    -0.294 OA
ENDBRANCH  14  22
ENDBRANCH  10  13
ENDBRANCH   8   9
ENDBRANCH   5   7
ENDBRANCH   4   5
ENDBRANCH   3   4
ENDBRANCH   2   3
ENDBRANCH   1   2
BRANCH   1  25
ATOM     25  C   UNL A   1      36.068  20.178  24.985  1.00  0.00     0.202 C 
BRANCH  25  26
ATOM     26  C   UNL A   1      37.583  19.955  24.969  1.00  0.00     0.261 C 
BRANCH  26  27
ATOM     27  O   UNL A   1      38.316  21.151  25.265  1.00  0.00    -0.460 OA
BRANCH  27  28
ATOM     28  C   UNL A   1      39.373  20.969  26.090  1.00  0.00     0.338 C 
ATOM     29  O   UNL A   1      40.027  19.941  26.241  1.00  0.00    -0.246 OA
BRANCH  28  30
ATOM     30  C   UNL A   1      39.775  22.257  26.672  1.00  0.00     0.060 A 
ATOM     31  C   UNL A   1      39.129  23.408  26.205  1.00  0.00     0.016 A 
ATOM     32  C   UNL A   1      40.797  22.345  27.621  1.00  0.00     0.016 A 
ATOM     33  C   UNL A   1      39.534  24.662  26.650  1.00  0.00     0.010 A 
ATOM     34  C   UNL A   1      41.210  23.605  28.057  1.00  0.00     0.010 A 
ATOM     35  C   UNL A   1      40.606  24.768  27.545  1.00  0.00    -0.014 A 
BRANCH  35  36
ATOM     36  C   UNL A   1      41.193  26.098  27.822  1.00  0.00     0.031 A 
ATOM     37  C   UNL A   1      42.591  26.383  27.344  1.00  0.00     0.074 A 
ATOM     38  C   UNL A   1      40.492  27.032  28.487  1.00  0.00     0.049 A 
ATOM     39  N   UNL A   1      43.310  27.463  27.491  1.00  0.00    -0.248 NA
ATOM     40  C   UNL A   1      43.269  25.304  26.604  1.00  0.00     0.031 C 
ATOM     41  C   UNL A   1      39.130  26.868  28.993  1.00  0.00     0.029 A 
ATOM     42  N   UNL A   1      40.844  28.302  28.872  1.00  0.00    -0.354 N 
ATOM     43  C   UNL A   1      44.535  27.186  26.896  1.00  0.00     0.074 A 
ATOM     44  C   UNL A   1      44.465  25.833  26.388  1.00  0.00     0.031 C 
ATOM     45  C   UNL A   1      38.770  27.987  29.647  1.00  0.00     0.029 A 
ATOM     46  C   UNL A   1      39.882  28.934  29.623  1.00  0.00     0.049 A 
ATOM     47  H   UNL A   1      41.703  28.720  28.632  1.00  0.00     0.167 HD
ATOM     48  C   UNL A   1      45.616  27.989  26.773  1.00  0.00     0.034 A 
ATOM     49  C   UNL A   1      39.909  30.135  30.236  1.00  0.00     0.034 A 
ATOM     50  C   UNL A   1      45.669  29.342  27.255  1.00  0.00     0.049 A 
ATOM     51  C   UNL A   1      41.133  31.003  30.092  1.00  0.00     0.074 A 
ATOM     52  C   UNL A   1      46.697  30.261  27.126  1.00  0.00     0.029 A 
ATOM     53  N   UNL A   1      44.659  29.967  27.968  1.00  0.00    -0.354 N 
ATOM     54  N   UNL A   1      42.231  30.777  29.412  1.00  0.00    -0.248 NA
ATOM     55  C   UNL A   1      41.107  32.306  30.772  1.00  0.00     0.031 C 
ATOM     56  C   UNL A   1      46.316  31.433  27.786  1.00  0.00     0.029 A 
ATOM     57  C   UNL A   1      45.041  31.255  28.298  1.00  0.00     0.049 A 
ATOM     58  H   UNL A   1      43.796  29.555  28.203  1.00  0.00     0.167 HD
ATOM     59  C   UNL A   1      43.006  31.924  29.544  1.00  0.00     0.074 A 
ATOM     60  C   UNL A   1      42.243  32.849  30.358  1.00  0.00     0.031 C 
ATOM     61  C   UNL A   1      44.241  32.186  29.051  1.00  0.00     0.034 A 
BRANCH  48  62
ATOM     62  C   UNL A   1      46.827  27.438  26.070  1.00  0.00     0.023 A 
ATOM     63  C   UNL A   1      46.994  27.661  24.688  1.00  0.00     0.012 A 
ATOM     64  C   UNL A   1      47.833  26.766  26.790  1.00  0.00     0.148 A 
ATOM     65  C   UNL A   1      48.134  27.200  24.029  1.00  0.00     0.002 A 
ATOM     66  C   UNL A   1      48.984  26.347  26.136  1.00  0.00     0.091 A 
ATOM     67  F   UNL A   1      47.641  26.545  28.098  1.00  0.00    -0.205 F 
ATOM     68  C   UNL A   1      49.132  26.555  24.755  1.00  0.00     0.022 A 
BRANCH  66  69
ATOM     69  S   UNL A   1      50.361  25.576  26.993  1.00  0.00     0.127 S 
ATOM     70  O   UNL A   1      49.704  24.448  27.652  1.00  0.00    -0.237 OA
ATOM     71  O   UNL A   1      51.243  25.205  25.887  1.00  0.00    -0.237 OA
ATOM     72  O   UNL A   1      50.899  26.593  27.887  1.00  0.00    -0.744 OA
ENDBRANCH  66  69
ENDBRANCH  48  62
BRANCH  49  73
ATOM     73  C   UNL A   1      38.728  30.610  31.011  1.00  0.00     0.023 A 
ATOM     74  C   UNL A   1      38.690  30.416  32.406  1.00  0.00     0.012 A 
ATOM     75  C   UNL A   1      37.643  31.247  30.378  1.00  0.00     0.148 A 
ATOM     76  C   UNL A   1      37.578  30.812  33.150  1.00  0.00     0.002 A 
ATOM     77  C   UNL A   1      36.562  31.688  31.132  1.00  0.00     0.091 A 
ATOM     78  F   UNL A   1      37.687  31.406  29.047  1.00  0.00    -0.205 F 
ATOM     79  C   UNL A   1      36.519  31.456  32.515  1.00  0.00     0.022 A 
BRANCH  77  80
ATOM     80  S   UNL A   1      35.216  32.635  30.415  1.00  0.00     0.127 S 
ATOM     81  O   UNL A   1      34.298  32.752  31.545  1.00  0.00    -0.237 OA
ATOM     82  O   UNL A   1      35.887  33.879  30.035  1.00  0.00    -0.237 OA
ATOM     83  O   UNL A   1      34.741  31.844  29.288  1.00  0.00    -0.744 OA
ENDBRANCH  77  80
ENDBRANCH  49  73
BRANCH  61  84
ATOM     84  C   UNL A   1      44.833  33.544  29.323  1.00  0.00     0.023 A 
ATOM     85  C   UNL A   1      45.596  33.758  30.488  1.00  0.00     0.012 A 
ATOM     86  C   UNL A   1      44.701  34.584  28.382  1.00  0.00     0.148 A 
ATOM     87  C   UNL A   1      46.191  34.996  30.727  1.00  0.00     0.002 A 
ATOM     88  C   UNL A   1      45.338  35.799  28.602  1.00  0.00     0.091 A 
ATOM     89  F   UNL A   1      43.955  34.366  27.288  1.00  0.00    -0.205 F 
ATOM     90  C   UNL A   1      46.073  36.011  29.780  1.00  0.00     0.022 A 
BRANCH  88  91
ATOM     91  S   UNL A   1      45.324  37.124  27.389  1.00  0.00     0.127 S 
ATOM     92  O   UNL A   1      46.027  38.189  28.102  1.00  0.00    -0.237 OA
ATOM     93  O   UNL A   1      46.073  36.537  26.277  1.00  0.00    -0.237 OA
ATOM     94  O   UNL A   1      43.921  37.384  27.097  1.00  0.00    -0.744 OA
ENDBRANCH  88  91
ENDBRANCH  61  84
ENDBRANCH  35  36
ENDBRANCH  28  30
ENDBRANCH  27  28
ENDBRANCH  26  27
ENDBRANCH  25  26
ENDBRANCH   1  25
TORSDOF 20
ENDMDL
MODEL 2
REMARK VINA RESULT:     -11.5      1.142      2.411
REMARK SMILES CC(=O)c1cc2c(cc1NC(=O)/C=C/C(=O)OCCOCCOC(=O)c1ccc(-c3c4nc(c(-c5cccc(S(=O)(=O)[O-])c5F)c5ccc([nH]5)c(-c5cccc(S(=O)(=O)[O-])c5F)c5nc(c(-c6cccc(S(=O)(=O)[O-])c6F)c6ccc3[nH]6)C=C5)C=C4)cc1)OCO2
REMARK SMILES IDX 20 1 19 2 18 3 17 4 15 5 16 6 14 7 13 8 11 9 10 10 12 12
REMARK SMILES IDX 9 13 4 14 5 15 6 16 8 17 7 18 91 19 89 20 90 21 2 22 1 23
REMARK SMILES IDX 3 24 21 25 22 26 23 27 24 28 25 29 26 30 27 31 88 32 28 33
REMARK SMILES IDX 87 34 29 35 30 36 31 37 81 38 32 39 86 40 80 41 82 42 33 43
REMARK SMILES IDX 85 44 79 45 78 46 34 48 66 49 46 50 65 51 47 52 50 53 64 54
REMARK SMILES IDX 83 55 48 56 49 57 63 59 84 60 51 61 35 62 36 63 44 64 37 65
REMARK SMILES IDX 39 66 45 67 38 68 40 69 41 70 42 71 43 72 67 73 68 74 76 75
REMARK SMILES IDX 69 76 71 77 77 78 70 79 72 80 73 81 74 82 75 83 52 84 53 85
REMARK SMILES IDX 61 86 54 87 56 88 62 89 55 90 57 91 58 92 59 93 60 94
REMARK H PARENT 10 11 82 47 50 58
REMARK Flexibility Score: inf
ROOT
ATOM      1  O   UNL A   1      35.173  21.271  25.825  1.00  0.00    -0.374 OA
ENDROOT
BRANCH   1   2
ATOM      2  C   UNL A   1      33.843  21.674  25.493  1.00  0.00     0.202 C 
BRANCH   2   3
ATOM      3  C   UNL A   1      33.579  23.184  25.415  1.00  0.00     0.261 C 
BRANCH   3   4
ATOM      4  O   UNL A   1      34.701  23.899  24.857  1.00  0.00    -0.460 OA
BRANCH   4   5
ATOM      5  C   UNL A   1      34.870  23.754  23.521  1.00  0.00     0.331 C 
ATOM      6  O   UNL A   1      35.752  23.108  22.971  1.00  0.00    -0.247 OA
BRANCH   5   7
ATOM      7  C   UNL A   1      33.776  24.357  22.734  1.00  0.00     0.099 C 
ATOM      8  C   UNL A   1      33.701  25.639  22.348  1.00  0.00     0.079 C 
BRANCH   8   9
ATOM      9  C   UNL A   1      32.467  26.150  21.706  1.00  0.00     0.248 C 
ATOM     10  N   UNL A   1      31.557  26.906  22.403  1.00  0.00    -0.322 N 
ATOM     11  H   UNL A   1      30.721  27.068  21.908  1.00  0.00     0.170 HD
ATOM     12  O   UNL A   1      32.260  25.876  20.526  1.00  0.00    -0.270 OA
BRANCH  10  13
ATOM     13  C   UNL A   1      31.575  27.500  23.689  1.00  0.00     0.056 A 
ATOM     14  C   UNL A   1      30.894  26.888  24.776  1.00  0.00     0.045 A 
ATOM     15  C   UNL A   1      31.082  27.333  26.098  1.00  0.00     0.064 A 
ATOM     16  C   UNL A   1      31.897  28.421  26.298  1.00  0.00     0.166 A 
ATOM     17  C   UNL A   1      32.250  28.693  23.940  1.00  0.00     0.077 A 
ATOM     18  C   UNL A   1      32.436  29.101  25.242  1.00  0.00     0.167 A 
ATOM     19  O   UNL A   1      32.240  28.971  27.493  1.00  0.00    -0.454 OA
ATOM     20  O   UNL A   1      33.169  30.175  25.631  1.00  0.00    -0.454 OA
ATOM     21  C   UNL A   1      33.139  30.019  27.061  1.00  0.00     0.468 C 
BRANCH  14  22
ATOM     22  C   UNL A   1      29.919  25.796  24.532  1.00  0.00     0.162 C 
ATOM     23  C   UNL A   1      28.501  26.197  24.211  1.00  0.00     0.093 C 
ATOM     24  O   UNL A   1      30.296  24.629  24.500  1.00  0.00    -0.294 OA
ENDBRANCH  14  22
ENDBRANCH  10  13
ENDBRANCH   8   9
ENDBRANCH   5   7
ENDBRANCH   4   5
ENDBRANCH   3   4
ENDBRANCH   2   3
ENDBRANCH   1   2
BRANCH   1  25
ATOM     25  C   UNL A   1      35.753  20.259  25.007  1.00  0.00     0.202 C 
BRANCH  25  26
ATOM     26  C   UNL A   1      37.280  20.150  24.989  1.00  0.00     0.261 C 
BRANCH  26  27
ATOM     27  O   UNL A   1      37.921  21.361  25.411  1.00  0.00    -0.460 OA
BRANCH  27  28
ATOM     28  C   UNL A   1      39.093  21.176  26.060  1.00  0.00     0.338 C 
ATOM     29  O   UNL A   1      39.795  20.169  26.050  1.00  0.00    -0.246 OA
BRANCH  28  30
ATOM     30  C   UNL A   1      39.536  22.445  26.655  1.00  0.00     0.060 A 
ATOM     31  C   UNL A   1      38.887  23.614  26.241  1.00  0.00     0.016 A 
ATOM     32  C   UNL A   1      40.596  22.497  27.563  1.00  0.00     0.016 A 
ATOM     33  C   UNL A   1      39.327  24.852  26.699  1.00  0.00     0.010 A 
ATOM     34  C   UNL A   1      41.044  23.741  28.011  1.00  0.00     0.010 A 
ATOM     35  C   UNL A   1      40.435  24.924  27.551  1.00  0.00    -0.014 A 
BRANCH  35  36
ATOM     36  C   UNL A   1      41.051  26.239  27.835  1.00  0.00     0.031 A 
ATOM     37  C   UNL A   1      42.447  26.504  27.342  1.00  0.00     0.074 A 
ATOM     38  C   UNL A   1      40.377  27.179  28.519  1.00  0.00     0.049 A 
ATOM     39  N   UNL A   1      43.189  27.568  27.491  1.00  0.00    -0.248 NA
ATOM     40  C   UNL A   1      43.095  25.420  26.581  1.00  0.00     0.031 C 
ATOM     41  C   UNL A   1      39.018  27.035  29.041  1.00  0.00     0.029 A 
ATOM     42  N   UNL A   1      40.757  28.438  28.913  1.00  0.00    -0.354 N 
ATOM     43  C   UNL A   1      44.400  27.275  26.877  1.00  0.00     0.074 A 
ATOM     44  C   UNL A   1      44.298  25.929  26.354  1.00  0.00     0.031 C 
ATOM     45  C   UNL A   1      38.688  28.153  29.712  1.00  0.00     0.029 A 
ATOM     46  C   UNL A   1      39.817  29.080  29.683  1.00  0.00     0.049 A 
ATOM     47  H   UNL A   1      41.621  28.842  28.667  1.00  0.00     0.167 HD
ATOM     48  C   UNL A   1      45.494  28.059  26.748  1.00  0.00     0.034 A 
ATOM     49  C   UNL A   1      39.875  30.272  30.310  1.00  0.00     0.034 A 
ATOM     50  C   UNL A   1      45.580  29.405  27.244  1.00  0.00     0.049 A 
ATOM     51  C   UNL A   1      41.113  31.119  30.159  1.00  0.00     0.074 A 
ATOM     52  C   UNL A   1      46.623  30.305  27.112  1.00  0.00     0.029 A 
ATOM     53  N   UNL A   1      44.591  30.041  27.977  1.00  0.00    -0.354 N 
ATOM     54  N   UNL A   1      42.198  30.880  29.462  1.00  0.00    -0.248 NA
ATOM     55  C   UNL A   1      41.121  32.415  30.853  1.00  0.00     0.031 C 
ATOM     56  C   UNL A   1      46.273  31.478  27.788  1.00  0.00     0.029 A 
ATOM     57  C   UNL A   1      45.002  31.317  28.316  1.00  0.00     0.049 A 
ATOM     58  H   UNL A   1      43.723  29.643  28.219  1.00  0.00     0.167 HD
ATOM     59  C   UNL A   1      42.996  32.011  29.596  1.00  0.00     0.074 A 
ATOM     60  C   UNL A   1      42.262  32.941  30.429  1.00  0.00     0.031 C 
ATOM     61  C   UNL A   1      44.229  32.255  29.089  1.00  0.00     0.034 A 
BRANCH  48  62
ATOM     62  C   UNL A   1      46.686  27.493  26.023  1.00  0.00     0.023 A 
ATOM     63  C   UNL A   1      46.808  27.676  24.630  1.00  0.00     0.012 A 
ATOM     64  C   UNL A   1      47.718  26.846  26.730  1.00  0.00     0.148 A 
ATOM     65  C   UNL A   1      47.929  27.201  23.950  1.00  0.00     0.002 A 
ATOM     66  C   UNL A   1      48.850  26.414  26.052  1.00  0.00     0.091 A 
ATOM     67  F   UNL A   1      47.569  26.662  28.050  1.00  0.00    -0.205 F 
ATOM     68  C   UNL A   1      48.953  26.582  24.661  1.00  0.00     0.022 A 
BRANCH  66  69
ATOM     69  S   UNL A   1      50.257  25.674  26.887  1.00  0.00     0.127 S 
ATOM     70  O   UNL A   1      51.210  25.529  25.788  1.00  0.00    -0.237 OA
ATOM     71  O   UNL A   1      50.609  26.703  27.866  1.00  0.00    -0.237 OA
ATOM     72  O   UNL A   1      49.774  24.426  27.462  1.00  0.00    -0.744 OA
ENDBRANCH  66  69
ENDBRANCH  48  62
BRANCH  49  73
ATOM     73  C   UNL A   1      38.713  30.761  31.105  1.00  0.00     0.023 A 
ATOM     74  C   UNL A   1      38.696  30.565  32.500  1.00  0.00     0.012 A 
ATOM     75  C   UNL A   1      37.627  31.414  30.491  1.00  0.00     0.148 A 
ATOM     76  C   UNL A   1      37.602  30.973  33.263  1.00  0.00     0.002 A 
ATOM     77  C   UNL A   1      36.564  31.867  31.264  1.00  0.00     0.091 A 
ATOM     78  F   UNL A   1      37.651  31.575  29.160  1.00  0.00    -0.205 F 
ATOM     79  C   UNL A   1      36.541  31.632  32.647  1.00  0.00     0.022 A 
BRANCH  77  80
ATOM     80  S   UNL A   1      35.218  32.833  30.572  1.00  0.00     0.127 S 
ATOM     81  O   UNL A   1      34.806  32.004  29.442  1.00  0.00    -0.237 OA
ATOM     82  O   UNL A   1      34.269  32.874  31.685  1.00  0.00    -0.237 OA
ATOM     83  O   UNL A   1      35.800  34.125  30.236  1.00  0.00    -0.744 OA
ENDBRANCH  77  80
ENDBRANCH  49  73
BRANCH  61  84
ATOM     84  C   UNL A   1      44.851  33.599  29.368  1.00  0.00     0.023 A 
ATOM     85  C   UNL A   1      45.565  33.809  30.564  1.00  0.00     0.012 A 
ATOM     86  C   UNL A   1      44.794  34.627  28.406  1.00  0.00     0.148 A 
ATOM     87  C   UNL A   1      46.187  35.031  30.812  1.00  0.00     0.002 A 
ATOM     88  C   UNL A   1      45.459  35.825  28.638  1.00  0.00     0.091 A 
ATOM     89  F   UNL A   1      44.093  34.414  27.283  1.00  0.00    -0.205 F 
ATOM     90  C   UNL A   1      46.145  36.033  29.845  1.00  0.00     0.022 A 
BRANCH  88  91
ATOM     91  S   UNL A   1      45.542  37.130  27.406  1.00  0.00     0.127 S 
ATOM     92  O   UNL A   1      46.452  38.081  28.040  1.00  0.00    -0.237 OA
ATOM     93  O   UNL A   1      46.100  36.430  26.248  1.00  0.00    -0.237 OA
ATOM     94  O   UNL A   1      44.174  37.596  27.224  1.00  0.00    -0.744 OA
ENDBRANCH  88  91
ENDBRANCH  61  84
ENDBRANCH  35  36
ENDBRANCH  28  30
ENDBRANCH  27  28
ENDBRANCH  26  27
ENDBRANCH  25  26
ENDBRANCH   1  25
TORSDOF 20
ENDMDL
MODEL 3
REMARK VINA RESULT:     -11.4      1.979      2.582
REMARK SMILES CC(=O)c1cc2c(cc1NC(=O)/C=C/C(=O)OCCOCCOC(=O)c1ccc(-c3c4nc(c(-c5cccc(S(=O)(=O)[O-])c5F)c5ccc([nH]5)c(-c5cccc(S(=O)(=O)[O-])c5F)c5nc(c(-c6cccc(S(=O)(=O)[O-])c6F)c6ccc3[nH]6)C=C5)C=C4)cc1)OCO2
REMARK SMILES IDX 20 1 19 2 18 3 17 4 15 5 16 6 14 7 13 8 11 9 10 10 12 12
REMARK SMILES IDX 9 13 4 14 5 15 6 16 8 17 7 18 91 19 89 20 90 21 2 22 1 23
REMARK SMILES IDX 3 24 21 25 22 26 23 27 24 28 25 29 26 30 27 31 88 32 28 33
REMARK SMILES IDX 87 34 29 35 30 36 31 37 81 38 32 39 86 40 80 41 82 42 33 43
REMARK SMILES IDX 85 44 79 45 78 46 34 48 66 49 46 50 65 51 47 52 50 53 64 54
REMARK SMILES IDX 83 55 48 56 49 57 63 59 84 60 51 61 35 62 36 63 44 64 37 65
REMARK SMILES IDX 39 66 45 67 38 68 40 69 41 70 42 71 43 72 67 73 68 74 76 75
REMARK SMILES IDX 69 76 71 77 77 78 70 79 72 80 73 81 74 82 75 83 52 84 53 85
REMARK SMILES IDX 61 86 54 87 56 88 62 89 55 90 57 91 58 92 59 93 60 94
REMARK H PARENT 10 11 82 47 50 58
REMARK Flexibility Score: inf
ROOT
ATOM      1  O   UNL A   1      35.474  21.166  25.155  1.00  0.00    -0.374 OA
ENDROOT
BRANCH   1   2
ATOM      2  C   UNL A   1      34.115  21.095  25.591  1.00  0.00     0.202 C 
BRANCH   2   3
ATOM      3  C   UNL A   1      33.824  21.564  27.023  1.00  0.00     0.261 C 
BRANCH   3   4
ATOM      4  O   UNL A   1      33.794  23.003  27.124  1.00  0.00    -0.460 OA
BRANCH   4   5
ATOM      5  C   UNL A   1      32.765  23.604  26.482  1.00  0.00     0.331 C 
ATOM      6  O   UNL A   1      31.610  23.680  26.879  1.00  0.00    -0.247 OA
BRANCH   5   7
ATOM      7  C   UNL A   1      33.189  24.316  25.259  1.00  0.00     0.099 C 
ATOM      8  C   UNL A   1      32.377  24.759  24.288  1.00  0.00     0.079 C 
BRANCH   8   9
ATOM      9  C   UNL A   1      32.949  25.310  23.036  1.00  0.00     0.248 C 
ATOM     10  N   UNL A   1      32.501  26.494  22.503  1.00  0.00    -0.322 N 
ATOM     11  H   UNL A   1      32.862  26.681  21.607  1.00  0.00     0.170 HD
ATOM     12  O   UNL A   1      33.837  24.679  22.467  1.00  0.00    -0.270 OA
BRANCH  10  13
ATOM     13  C   UNL A   1      31.624  27.499  22.980  1.00  0.00     0.056 A 
ATOM     14  C   UNL A   1      32.104  28.530  23.833  1.00  0.00     0.045 A 
ATOM     15  C   UNL A   1      31.314  29.655  24.134  1.00  0.00     0.064 A 
ATOM     16  C   UNL A   1      30.037  29.695  23.628  1.00  0.00     0.166 A 
ATOM     17  C   UNL A   1      30.274  27.521  22.639  1.00  0.00     0.077 A 
ATOM     18  C   UNL A   1      29.523  28.638  22.929  1.00  0.00     0.167 A 
ATOM     19  O   UNL A   1      29.141  30.706  23.765  1.00  0.00    -0.454 OA
ATOM     20  O   UNL A   1      28.234  28.838  22.555  1.00  0.00    -0.454 OA
ATOM     21  C   UNL A   1      28.035  30.197  22.984  1.00  0.00     0.468 C 
BRANCH  14  22
ATOM     22  C   UNL A   1      33.438  28.412  24.475  1.00  0.00     0.162 C 
ATOM     23  C   UNL A   1      33.468  28.213  25.970  1.00  0.00     0.093 C 
ATOM     24  O   UNL A   1      34.452  28.382  23.787  1.00  0.00    -0.294 OA
ENDBRANCH  14  22
ENDBRANCH  10  13
ENDBRANCH   8   9
ENDBRANCH   5   7
ENDBRANCH   4   5
ENDBRANCH   3   4
ENDBRANCH   2   3
ENDBRANCH   1   2
BRANCH   1  25
ATOM     25  C   UNL A   1      36.144  19.925  24.957  1.00  0.00     0.202 C 
BRANCH  25  26
ATOM     26  C   UNL A   1      37.675  19.938  24.956  1.00  0.00     0.261 C 
BRANCH  26  27
ATOM     27  O   UNL A   1      38.213  21.166  25.462  1.00  0.00    -0.460 OA
BRANCH  27  28
ATOM     28  C   UNL A   1      39.395  21.035  26.107  1.00  0.00     0.338 C 
ATOM     29  O   UNL A   1      40.136  20.056  26.105  1.00  0.00    -0.246 OA
BRANCH  28  30
ATOM     30  C   UNL A   1      39.791  22.327  26.685  1.00  0.00     0.060 A 
ATOM     31  C   UNL A   1      39.181  23.479  26.172  1.00  0.00     0.016 A 
ATOM     32  C   UNL A   1      40.774  22.417  27.673  1.00  0.00     0.016 A 
ATOM     33  C   UNL A   1      39.585  24.734  26.613  1.00  0.00     0.010 A 
ATOM     34  C   UNL A   1      41.186  23.679  28.105  1.00  0.00     0.010 A 
ATOM     35  C   UNL A   1      40.620  24.841  27.550  1.00  0.00    -0.014 A 
BRANCH  35  36
ATOM     36  C   UNL A   1      41.214  26.168  27.830  1.00  0.00     0.031 A 
ATOM     37  C   UNL A   1      42.607  26.453  27.337  1.00  0.00     0.074 A 
ATOM     38  C   UNL A   1      40.524  27.099  28.509  1.00  0.00     0.049 A 
ATOM     39  N   UNL A   1      43.330  27.530  27.483  1.00  0.00    -0.248 NA
ATOM     40  C   UNL A   1      43.273  25.378  26.582  1.00  0.00     0.031 C 
ATOM     41  C   UNL A   1      39.166  26.935  29.029  1.00  0.00     0.029 A 
ATOM     42  N   UNL A   1      40.883  28.365  28.898  1.00  0.00    -0.354 N 
ATOM     43  C   UNL A   1      44.548  27.254  26.872  1.00  0.00     0.074 A 
ATOM     44  C   UNL A   1      44.468  25.905  26.355  1.00  0.00     0.031 C 
ATOM     45  C   UNL A   1      38.817  28.050  29.695  1.00  0.00     0.029 A 
ATOM     46  C   UNL A   1      39.931  28.995  29.665  1.00  0.00     0.049 A 
ATOM     47  H   UNL A   1      41.740  28.783  28.652  1.00  0.00     0.167 HD
ATOM     48  C   UNL A   1      45.629  28.055  26.742  1.00  0.00     0.034 A 
ATOM     49  C   UNL A   1      39.969  30.191  30.286  1.00  0.00     0.034 A 
ATOM     50  C   UNL A   1      45.692  29.404  27.233  1.00  0.00     0.049 A 
ATOM     51  C   UNL A   1      41.193  31.057  30.134  1.00  0.00     0.074 A 
ATOM     52  C   UNL A   1      46.720  30.321  27.099  1.00  0.00     0.029 A 
ATOM     53  N   UNL A   1      44.691  30.027  27.961  1.00  0.00    -0.354 N 
ATOM     54  N   UNL A   1      42.283  30.833  29.440  1.00  0.00    -0.248 NA
ATOM     55  C   UNL A   1      41.179  32.355  30.823  1.00  0.00     0.031 C 
ATOM     56  C   UNL A   1      46.350  31.490  27.770  1.00  0.00     0.029 A 
ATOM     57  C   UNL A   1      45.081  31.311  28.297  1.00  0.00     0.049 A 
ATOM     58  H   UNL A   1      43.830  29.616  28.204  1.00  0.00     0.167 HD
ATOM     59  C   UNL A   1      43.062  31.977  29.571  1.00  0.00     0.074 A 
ATOM     60  C   UNL A   1      42.311  32.899  30.399  1.00  0.00     0.031 C 
ATOM     61  C   UNL A   1      44.292  32.239  29.065  1.00  0.00     0.034 A 
BRANCH  48  62
ATOM     62  C   UNL A   1      46.831  27.506  26.021  1.00  0.00     0.023 A 
ATOM     63  C   UNL A   1      47.675  26.584  26.672  1.00  0.00     0.012 A 
ATOM     64  C   UNL A   1      47.080  27.846  24.678  1.00  0.00     0.148 A 
ATOM     65  C   UNL A   1      48.766  26.028  26.002  1.00  0.00     0.002 A 
ATOM     66  C   UNL A   1      48.143  27.256  24.005  1.00  0.00     0.091 A 
ATOM     67  F   UNL A   1      46.278  28.743  24.087  1.00  0.00    -0.205 F 
ATOM     68  C   UNL A   1      48.991  26.355  24.668  1.00  0.00     0.022 A 
BRANCH  66  69
ATOM     69  S   UNL A   1      48.472  27.552  22.264  1.00  0.00     0.127 S 
ATOM     70  O   UNL A   1      49.613  28.464  22.331  1.00  0.00    -0.237 OA
ATOM     71  O   UNL A   1      48.794  26.209  21.780  1.00  0.00    -0.237 OA
ATOM     72  O   UNL A   1      47.250  28.122  21.714  1.00  0.00    -0.744 OA
ENDBRANCH  66  69
ENDBRANCH  48  62
BRANCH  49  73
ATOM     73  C   UNL A   1      38.798  30.664  31.078  1.00  0.00     0.023 A 
ATOM     74  C   UNL A   1      38.764  30.438  32.468  1.00  0.00     0.012 A 
ATOM     75  C   UNL A   1      37.719  31.330  30.465  1.00  0.00     0.148 A 
ATOM     76  C   UNL A   1      37.661  30.831  33.227  1.00  0.00     0.002 A 
ATOM     77  C   UNL A   1      36.648  31.768  31.235  1.00  0.00     0.091 A 
ATOM     78  F   UNL A   1      37.759  31.519  29.138  1.00  0.00    -0.205 F 
ATOM     79  C   UNL A   1      36.608  31.504  32.612  1.00  0.00     0.022 A 
BRANCH  77  80
ATOM     80  S   UNL A   1      35.311  32.750  30.547  1.00  0.00     0.127 S 
ATOM     81  O   UNL A   1      34.842  31.896  29.459  1.00  0.00    -0.237 OA
ATOM     82  O   UNL A   1      34.396  32.857  31.684  1.00  0.00    -0.237 OA
ATOM     83  O   UNL A   1      35.920  34.012  30.150  1.00  0.00    -0.744 OA
ENDBRANCH  77  80
ENDBRANCH  49  73
BRANCH  61  84
ATOM     84  C   UNL A   1      44.891  33.594  29.340  1.00  0.00     0.023 A 
ATOM     85  C   UNL A   1      45.698  33.789  30.478  1.00  0.00     0.012 A 
ATOM     86  C   UNL A   1      44.720  34.651  28.424  1.00  0.00     0.148 A 
ATOM     87  C   UNL A   1      46.298  35.024  30.717  1.00  0.00     0.002 A 
ATOM     88  C   UNL A   1      45.362  35.864  28.642  1.00  0.00     0.091 A 
ATOM     89  F   UNL A   1      43.933  34.451  27.356  1.00  0.00    -0.205 F 
ATOM     90  C   UNL A   1      46.141  36.056  29.794  1.00  0.00     0.022 A 
BRANCH  88  91
ATOM     91  S   UNL A   1      45.297  37.211  27.456  1.00  0.00     0.127 S 
ATOM     92  O   UNL A   1      43.862  37.316  27.202  1.00  0.00    -0.237 OA
ATOM     93  O   UNL A   1      45.865  38.325  28.218  1.00  0.00    -0.237 OA
ATOM     94  O   UNL A   1      46.106  36.785  26.322  1.00  0.00    -0.744 OA
ENDBRANCH  88  91
ENDBRANCH  61  84
ENDBRANCH  35  36
ENDBRANCH  28  30
ENDBRANCH  27  28
ENDBRANCH  26  27
ENDBRANCH  25  26
ENDBRANCH   1  25
TORSDOF 20
ENDMDL
