MODEL 1
REMARK VINA RESULT:     -10.7      0.000      0.000
REMARK SMILES CCc1cc(Oc2cncc(C(=O)OCCOCCOC(=O)c3ccc(-c4c5nc(c(-c6cccc(S(=O)(=O)[O-])c6F)c6ccc([nH]6)c(-c6cccc(S(=O)(=O)[O-])c6F)c6nc(c(-c7cccc(S(=O)(=O)[O-])c7F)c7ccc4[nH]7)C=C6)C=C5)cc3)n2)ccc1Cl
REMARK SMILES IDX 17 1 16 2 15 3 14 4 12 5 13 6 11 7 7 8 8 9 86 10 9 11 10 12
REMARK SMILES IDX 6 13 5 14 3 15 4 16 89 17 88 18 90 19 87 20 2 21 1 22 18 23
REMARK SMILES IDX 19 24 20 25 21 26 22 27 23 28 24 29 85 30 25 31 84 32 26 33
REMARK SMILES IDX 27 34 28 35 78 36 29 37 83 38 77 39 79 40 30 41 82 42 76 43
REMARK SMILES IDX 75 44 31 46 63 47 43 48 62 49 44 50 47 51 61 52 80 53 45 54
REMARK SMILES IDX 46 55 60 57 81 58 48 59 32 60 33 61 41 62 34 63 36 64 42 65
REMARK SMILES IDX 35 66 37 67 38 68 39 69 40 70 64 71 65 72 73 73 66 74 68 75
REMARK SMILES IDX 74 76 67 77 69 78 70 79 71 80 72 81 49 82 50 83 58 84 51 85
REMARK SMILES IDX 53 86 59 87 52 88 54 89 55 90 56 91 57 92
REMARK H PARENT 79 45 47 56
REMARK Flexibility Score: inf
ROOT
ATOM      1  O   UNL A   1      34.337  21.141  24.650  1.00  0.00    -0.374 OA
ENDROOT
BRANCH   1   2
ATOM      2  C   UNL A   1      33.826  20.575  25.858  1.00  0.00     0.202 C 
BRANCH   2   3
ATOM      3  C   UNL A   1      33.111  21.530  26.820  1.00  0.00     0.261 C 
BRANCH   3   4
ATOM      4  O   UNL A   1      31.874  22.008  26.274  1.00  0.00    -0.458 OA
BRANCH   4   5
ATOM      5  C   UNL A   1      31.715  23.354  26.294  1.00  0.00     0.358 C 
ATOM      6  O   UNL A   1      31.373  24.031  27.255  1.00  0.00    -0.244 OA
BRANCH   5   7
ATOM      7  C   UNL A   1      32.173  23.967  25.024  1.00  0.00     0.170 A 
ATOM      8  C   UNL A   1      33.145  25.657  23.809  1.00  0.00     0.238 A 
ATOM      9  C   UNL A   1      32.952  24.910  22.648  1.00  0.00     0.179 A 
ATOM     10  N   UNL A   1      32.763  25.191  25.023  1.00  0.00    -0.203 NA
ATOM     11  N   UNL A   1      32.305  23.716  22.633  1.00  0.00    -0.257 NA
ATOM     12  C   UNL A   1      31.928  23.261  23.853  1.00  0.00     0.147 A 
BRANCH   8  13
ATOM     13  O   UNL A   1      33.833  26.845  23.837  1.00  0.00    -0.437 OA
BRANCH  13  14
ATOM     14  C   UNL A   1      33.315  27.949  24.474  1.00  0.00     0.129 A 
ATOM     15  C   UNL A   1      33.581  29.446  26.402  1.00  0.00    -0.026 A 
ATOM     16  C   UNL A   1      34.027  28.373  25.604  1.00  0.00     0.052 A 
ATOM     17  C   UNL A   1      32.409  30.113  26.015  1.00  0.00     0.044 A 
ATOM     18  C   UNL A   1      31.690  29.688  24.892  1.00  0.00     0.024 A 
ATOM     19  Cl  UNL A   1      31.775  31.463  26.888  1.00  0.00    -0.084 Cl
ATOM     20  C   UNL A   1      32.123  28.592  24.140  1.00  0.00     0.049 A 
BRANCH  15  21
ATOM     21  C   UNL A   1      34.364  29.791  27.650  1.00  0.00     0.034 C 
ATOM     22  C   UNL A   1      35.870  29.704  27.426  1.00  0.00     0.009 C 
ENDBRANCH  15  21
ENDBRANCH  13  14
ENDBRANCH   8  13
ENDBRANCH   5   7
ENDBRANCH   4   5
ENDBRANCH   3   4
ENDBRANCH   2   3
ENDBRANCH   1   2
BRANCH   1  23
ATOM     23  C   UNL A   1      35.604  21.800  24.729  1.00  0.00     0.202 C 
BRANCH  23  24
ATOM     24  C   UNL A   1      36.707  21.112  25.543  1.00  0.00     0.261 C 
BRANCH  24  25
ATOM     25  O   UNL A   1      38.024  21.542  25.157  1.00  0.00    -0.460 OA
BRANCH  25  26
ATOM     26  C   UNL A   1      39.013  21.220  26.024  1.00  0.00     0.338 C 
ATOM     27  O   UNL A   1      39.484  20.107  26.227  1.00  0.00    -0.246 OA
BRANCH  26  28
ATOM     28  C   UNL A   1      39.605  22.450  26.577  1.00  0.00     0.060 A 
ATOM     29  C   UNL A   1      39.169  23.677  26.059  1.00  0.00     0.016 A 
ATOM     30  C   UNL A   1      40.595  22.408  27.560  1.00  0.00     0.016 A 
ATOM     31  C   UNL A   1      39.737  24.868  26.509  1.00  0.00     0.010 A 
ATOM     32  C   UNL A   1      41.172  23.603  28.000  1.00  0.00     0.010 A 
ATOM     33  C   UNL A   1      40.760  24.837  27.464  1.00  0.00    -0.014 A 
BRANCH  33  34
ATOM     34  C   UNL A   1      41.461  26.083  27.858  1.00  0.00     0.031 A 
ATOM     35  C   UNL A   1      40.695  27.168  28.560  1.00  0.00     0.074 A 
ATOM     36  C   UNL A   1      42.761  26.255  27.553  1.00  0.00     0.049 A 
ATOM     37  N   UNL A   1      41.083  28.372  28.889  1.00  0.00    -0.248 NA
ATOM     38  C   UNL A   1      39.307  26.856  28.939  1.00  0.00     0.031 C 
ATOM     39  C   UNL A   1      43.611  25.270  26.887  1.00  0.00     0.029 A 
ATOM     40  N   UNL A   1      43.582  27.342  27.732  1.00  0.00    -0.354 N 
ATOM     41  C   UNL A   1      39.983  28.974  29.487  1.00  0.00     0.074 A 
ATOM     42  C   UNL A   1      38.908  28.004  29.472  1.00  0.00     0.031 C 
ATOM     43  C   UNL A   1      44.822  25.810  26.676  1.00  0.00     0.029 A 
ATOM     44  C   UNL A   1      44.822  27.189  27.157  1.00  0.00     0.049 A 
ATOM     45  H   UNL A   1      43.309  28.150  28.225  1.00  0.00     0.167 HD
ATOM     46  C   UNL A   1      39.879  30.218  30.011  1.00  0.00     0.034 A 
ATOM     47  C   UNL A   1      45.825  28.076  27.000  1.00  0.00     0.034 A 
ATOM     48  C   UNL A   1      40.953  31.175  30.034  1.00  0.00     0.049 A 
ATOM     49  C   UNL A   1      45.661  29.475  27.539  1.00  0.00     0.074 A 
ATOM     50  C   UNL A   1      40.960  32.446  30.582  1.00  0.00     0.029 A 
ATOM     51  N   UNL A   1      42.205  30.977  29.473  1.00  0.00    -0.354 N 
ATOM     52  N   UNL A   1      44.657  29.992  28.204  1.00  0.00    -0.248 NA
ATOM     53  C   UNL A   1      46.780  30.405  27.326  1.00  0.00     0.031 C 
ATOM     54  C   UNL A   1      42.204  33.029  30.322  1.00  0.00     0.029 A 
ATOM     55  C   UNL A   1      42.984  32.108  29.641  1.00  0.00     0.049 A 
ATOM     56  H   UNL A   1      42.496  30.151  29.021  1.00  0.00     0.167 HD
ATOM     57  C   UNL A   1      45.034  31.296  28.513  1.00  0.00     0.074 A 
ATOM     58  C   UNL A   1      46.371  31.479  27.987  1.00  0.00     0.031 C 
ATOM     59  C   UNL A   1      44.332  32.260  29.156  1.00  0.00     0.034 A 
BRANCH  46  60
ATOM     60  C   UNL A   1      38.564  30.617  30.628  1.00  0.00     0.023 A 
ATOM     61  C   UNL A   1      38.223  30.136  31.909  1.00  0.00     0.012 A 
ATOM     62  C   UNL A   1      37.708  31.526  29.978  1.00  0.00     0.148 A 
ATOM     63  C   UNL A   1      37.036  30.537  32.523  1.00  0.00     0.002 A 
ATOM     64  C   UNL A   1      36.548  31.953  30.614  1.00  0.00     0.091 A 
ATOM     65  F   UNL A   1      38.043  31.957  28.754  1.00  0.00    -0.205 F 
ATOM     66  C   UNL A   1      36.206  31.452  31.881  1.00  0.00     0.022 A 
BRANCH  64  67
ATOM     67  S   UNL A   1      35.449  33.187  29.908  1.00  0.00     0.127 S 
ATOM     68  O   UNL A   1      34.234  32.405  29.685  1.00  0.00    -0.237 OA
ATOM     69  O   UNL A   1      35.353  34.166  30.990  1.00  0.00    -0.237 OA
ATOM     70  O   UNL A   1      36.106  33.670  28.702  1.00  0.00    -0.744 OA
ENDBRANCH  64  67
ENDBRANCH  46  60
BRANCH  47  71
ATOM     71  C   UNL A   1      47.081  27.676  26.302  1.00  0.00     0.023 A 
ATOM     72  C   UNL A   1      48.144  27.130  27.046  1.00  0.00     0.012 A 
ATOM     73  C   UNL A   1      47.230  27.844  24.911  1.00  0.00     0.148 A 
ATOM     74  C   UNL A   1      49.347  26.793  26.424  1.00  0.00     0.002 A 
ATOM     75  C   UNL A   1      48.411  27.452  24.289  1.00  0.00     0.091 A 
ATOM     76  F   UNL A   1      46.215  28.384  24.223  1.00  0.00    -0.205 F 
ATOM     77  C   UNL A   1      49.477  26.944  25.046  1.00  0.00     0.022 A 
BRANCH  75  78
ATOM     78  S   UNL A   1      48.619  27.497  22.506  1.00  0.00     0.127 S 
ATOM     79  O   UNL A   1      49.899  28.188  22.372  1.00  0.00    -0.237 OA
ATOM     80  O   UNL A   1      48.651  26.073  22.170  1.00  0.00    -0.237 OA
ATOM     81  O   UNL A   1      47.458  28.208  21.991  1.00  0.00    -0.744 OA
ENDBRANCH  75  78
ENDBRANCH  47  71
BRANCH  59  82
ATOM     82  C   UNL A   1      44.998  33.598  29.355  1.00  0.00     0.023 A 
ATOM     83  C   UNL A   1      45.654  33.878  30.571  1.00  0.00     0.012 A 
ATOM     84  C   UNL A   1      45.040  34.546  28.313  1.00  0.00     0.148 A 
ATOM     85  C   UNL A   1      46.314  35.092  30.757  1.00  0.00     0.002 A 
ATOM     86  C   UNL A   1      45.744  35.732  28.488  1.00  0.00     0.091 A 
ATOM     87  F   UNL A   1      44.400  34.266  27.169  1.00  0.00    -0.205 F 
ATOM     88  C   UNL A   1      46.369  36.012  29.713  1.00  0.00     0.022 A 
BRANCH  86  89
ATOM     89  S   UNL A   1      45.950  36.939  27.173  1.00  0.00     0.127 S 
ATOM     90  O   UNL A   1      46.401  36.098  26.064  1.00  0.00    -0.237 OA
ATOM     91  O   UNL A   1      44.593  37.467  27.024  1.00  0.00    -0.237 OA
ATOM     92  O   UNL A   1      46.927  37.903  27.658  1.00  0.00    -0.744 OA
ENDBRANCH  86  89
ENDBRANCH  59  82
ENDBRANCH  33  34
ENDBRANCH  26  28
ENDBRANCH  25  26
ENDBRANCH  24  25
ENDBRANCH  23  24
ENDBRANCH   1  23
TORSDOF 20
ENDMDL
MODEL 2
REMARK VINA RESULT:     -10.6      1.447      7.776
REMARK SMILES CCc1cc(Oc2cncc(C(=O)OCCOCCOC(=O)c3ccc(-c4c5nc(c(-c6cccc(S(=O)(=O)[O-])c6F)c6ccc([nH]6)c(-c6cccc(S(=O)(=O)[O-])c6F)c6nc(c(-c7cccc(S(=O)(=O)[O-])c7F)c7ccc4[nH]7)C=C6)C=C5)cc3)n2)ccc1Cl
REMARK SMILES IDX 17 1 16 2 15 3 14 4 12 5 13 6 11 7 7 8 8 9 86 10 9 11 10 12
REMARK SMILES IDX 6 13 5 14 3 15 4 16 89 17 88 18 90 19 87 20 2 21 1 22 18 23
REMARK SMILES IDX 19 24 20 25 21 26 22 27 23 28 24 29 85 30 25 31 84 32 26 33
REMARK SMILES IDX 27 34 28 35 78 36 29 37 83 38 77 39 79 40 30 41 82 42 76 43
REMARK SMILES IDX 75 44 31 46 63 47 43 48 62 49 44 50 47 51 61 52 80 53 45 54
REMARK SMILES IDX 46 55 60 57 81 58 48 59 32 60 33 61 41 62 34 63 36 64 42 65
REMARK SMILES IDX 35 66 37 67 38 68 39 69 40 70 64 71 65 72 73 73 66 74 68 75
REMARK SMILES IDX 74 76 67 77 69 78 70 79 71 80 72 81 49 82 50 83 58 84 51 85
REMARK SMILES IDX 53 86 59 87 52 88 54 89 55 90 56 91 57 92
REMARK H PARENT 79 45 47 56
REMARK Flexibility Score: inf
ROOT
ATOM      1  O   UNL A   1      38.446  21.483  25.184  1.00  0.00    -0.374 OA
ENDROOT
BRANCH   1   2
ATOM      2  C   UNL A   1      37.401  22.214  25.829  1.00  0.00     0.202 C 
BRANCH   2   3
ATOM      3  C   UNL A   1      37.214  23.674  25.403  1.00  0.00     0.261 C 
BRANCH   3   4
ATOM      4  O   UNL A   1      35.839  23.977  25.131  1.00  0.00    -0.458 OA
BRANCH   4   5
ATOM      5  C   UNL A   1      35.411  23.657  23.886  1.00  0.00     0.358 C 
ATOM      6  O   UNL A   1      36.114  23.361  22.929  1.00  0.00    -0.244 OA
BRANCH   5   7
ATOM      7  C   UNL A   1      33.933  23.539  23.841  1.00  0.00     0.170 A 
ATOM      8  C   UNL A   1      31.826  23.994  24.635  1.00  0.00     0.238 A 
ATOM      9  C   UNL A   1      31.289  23.232  23.599  1.00  0.00     0.179 A 
ATOM     10  N   UNL A   1      33.164  24.166  24.768  1.00  0.00    -0.203 NA
ATOM     11  N   UNL A   1      32.053  22.550  22.707  1.00  0.00    -0.257 NA
ATOM     12  C   UNL A   1      33.389  22.730  22.852  1.00  0.00     0.147 A 
BRANCH   8  13
ATOM     13  O   UNL A   1      31.060  24.719  25.515  1.00  0.00    -0.437 OA
BRANCH  13  14
ATOM     14  C   UNL A   1      31.258  26.071  25.679  1.00  0.00     0.129 A 
ATOM     15  C   UNL A   1      30.978  28.270  24.623  1.00  0.00    -0.026 A 
ATOM     16  C   UNL A   1      30.785  26.873  24.633  1.00  0.00     0.052 A 
ATOM     17  C   UNL A   1      31.632  28.853  25.719  1.00  0.00     0.044 A 
ATOM     18  C   UNL A   1      32.114  28.054  26.763  1.00  0.00     0.024 A 
ATOM     19  Cl  UNL A   1      31.901  30.555  25.845  1.00  0.00    -0.084 Cl
ATOM     20  C   UNL A   1      31.954  26.666  26.731  1.00  0.00     0.049 A 
BRANCH  15  21
ATOM     21  C   UNL A   1      30.507  29.055  23.419  1.00  0.00     0.034 C 
ATOM     22  C   UNL A   1      29.185  28.528  22.869  1.00  0.00     0.009 C 
ENDBRANCH  15  21
ENDBRANCH  13  14
ENDBRANCH   8  13
ENDBRANCH   5   7
ENDBRANCH   4   5
ENDBRANCH   3   4
ENDBRANCH   2   3
ENDBRANCH   1   2
BRANCH   1  23
ATOM     23  C   UNL A   1      38.322  20.059  25.162  1.00  0.00     0.202 C 
BRANCH  23  24
ATOM     24  C   UNL A   1      39.514  19.239  25.672  1.00  0.00     0.261 C 
BRANCH  24  25
ATOM     25  O   UNL A   1      40.052  19.757  26.901  1.00  0.00    -0.460 OA
BRANCH  25  26
ATOM     26  C   UNL A   1      41.372  20.059  26.870  1.00  0.00     0.338 C 
ATOM     27  O   UNL A   1      42.290  19.320  26.538  1.00  0.00    -0.246 OA
BRANCH  26  28
ATOM     28  C   UNL A   1      41.554  21.500  27.116  1.00  0.00     0.060 A 
ATOM     29  C   UNL A   1      41.351  22.377  26.042  1.00  0.00     0.016 A 
ATOM     30  C   UNL A   1      41.951  21.984  28.363  1.00  0.00     0.016 A 
ATOM     31  C   UNL A   1      41.564  23.745  26.207  1.00  0.00     0.010 A 
ATOM     32  C   UNL A   1      42.176  23.355  28.522  1.00  0.00     0.010 A 
ATOM     33  C   UNL A   1      42.003  24.240  27.442  1.00  0.00    -0.014 A 
BRANCH  33  34
ATOM     34  C   UNL A   1      42.356  25.671  27.597  1.00  0.00     0.031 A 
ATOM     35  C   UNL A   1      43.722  26.143  27.182  1.00  0.00     0.074 A 
ATOM     36  C   UNL A   1      41.477  26.532  28.142  1.00  0.00     0.049 A 
ATOM     37  N   UNL A   1      44.272  27.318  27.334  1.00  0.00    -0.248 NA
ATOM     38  C   UNL A   1      44.582  25.156  26.508  1.00  0.00     0.031 C 
ATOM     39  C   UNL A   1      40.120  26.196  28.570  1.00  0.00     0.029 A 
ATOM     40  N   UNL A   1      41.611  27.860  28.463  1.00  0.00    -0.354 N 
ATOM     41  C   UNL A   1      45.551  27.210  26.803  1.00  0.00     0.074 A 
ATOM     42  C   UNL A   1      45.698  25.850  26.329  1.00  0.00     0.031 C 
ATOM     43  C   UNL A   1      39.559  27.278  29.136  1.00  0.00     0.029 A 
ATOM     44  C   UNL A   1      40.530  28.370  29.143  1.00  0.00     0.049 A 
ATOM     45  H   UNL A   1      42.404  28.396  28.229  1.00  0.00     0.167 HD
ATOM     46  C   UNL A   1      46.512  28.159  26.711  1.00  0.00     0.034 A 
ATOM     47  C   UNL A   1      40.360  29.567  29.740  1.00  0.00     0.034 A 
ATOM     48  C   UNL A   1      46.357  29.512  27.174  1.00  0.00     0.049 A 
ATOM     49  C   UNL A   1      41.470  30.586  29.674  1.00  0.00     0.074 A 
ATOM     50  C   UNL A   1      47.257  30.560  27.084  1.00  0.00     0.029 A 
ATOM     51  N   UNL A   1      45.237  30.003  27.827  1.00  0.00    -0.354 N 
ATOM     52  N   UNL A   1      42.630  30.507  29.068  1.00  0.00    -0.248 NA
ATOM     53  C   UNL A   1      41.237  31.867  30.356  1.00  0.00     0.031 C 
ATOM     54  C   UNL A   1      46.695  31.674  27.715  1.00  0.00     0.029 A 
ATOM     55  C   UNL A   1      45.431  31.331  28.167  1.00  0.00     0.049 A 
ATOM     56  H   UNL A   1      44.424  29.483  28.021  1.00  0.00     0.167 HD
ATOM     57  C   UNL A   1      43.251  31.735  29.271  1.00  0.00     0.074 A 
ATOM     58  C   UNL A   1      42.326  32.550  30.031  1.00  0.00     0.031 C 
ATOM     59  C   UNL A   1      44.482  32.146  28.881  1.00  0.00     0.034 A 
BRANCH  46  60
ATOM     60  C   UNL A   1      47.817  27.780  26.061  1.00  0.00     0.023 A 
ATOM     61  C   UNL A   1      48.885  27.323  26.860  1.00  0.00     0.012 A 
ATOM     62  C   UNL A   1      47.960  27.803  24.661  1.00  0.00     0.148 A 
ATOM     63  C   UNL A   1      50.083  26.914  26.275  1.00  0.00     0.002 A 
ATOM     64  C   UNL A   1      49.142  27.355  24.083  1.00  0.00     0.091 A 
ATOM     65  F   UNL A   1      46.939  28.258  23.921  1.00  0.00    -0.205 F 
ATOM     66  C   UNL A   1      50.207  26.920  24.889  1.00  0.00     0.022 A 
BRANCH  64  67
ATOM     67  S   UNL A   1      49.377  27.249  22.304  1.00  0.00     0.127 S 
ATOM     68  O   UNL A   1      48.483  26.146  21.954  1.00  0.00    -0.237 OA
ATOM     69  O   UNL A   1      48.923  28.566  21.857  1.00  0.00    -0.237 OA
ATOM     70  O   UNL A   1      50.794  26.990  22.099  1.00  0.00    -0.744 OA
ENDBRANCH  64  67
ENDBRANCH  46  60
BRANCH  47  71
ATOM     71  C   UNL A   1      39.089  29.878  30.454  1.00  0.00     0.023 A 
ATOM     72  C   UNL A   1      38.858  29.333  31.731  1.00  0.00     0.012 A 
ATOM     73  C   UNL A   1      38.105  30.702  29.872  1.00  0.00     0.148 A 
ATOM     74  C   UNL A   1      37.656  29.570  32.400  1.00  0.00     0.002 A 
ATOM     75  C   UNL A   1      36.934  30.981  30.568  1.00  0.00     0.091 A 
ATOM     76  F   UNL A   1      38.333  31.197  28.647  1.00  0.00    -0.205 F 
ATOM     77  C   UNL A   1      36.700  30.401  31.823  1.00  0.00     0.022 A 
BRANCH  75  78
ATOM     78  S   UNL A   1      35.703  32.138  29.956  1.00  0.00     0.127 S 
ATOM     79  O   UNL A   1      36.499  33.347  29.765  1.00  0.00    -0.237 OA
ATOM     80  O   UNL A   1      35.266  31.486  28.721  1.00  0.00    -0.237 OA
ATOM     81  O   UNL A   1      34.681  32.209  30.991  1.00  0.00    -0.744 OA
ENDBRANCH  75  78
ENDBRANCH  47  71
BRANCH  59  82
ATOM     82  C   UNL A   1      44.901  33.549  29.241  1.00  0.00     0.023 A 
ATOM     83  C   UNL A   1      45.501  33.800  30.491  1.00  0.00     0.012 A 
ATOM     84  C   UNL A   1      44.770  34.602  28.313  1.00  0.00     0.148 A 
ATOM     85  C   UNL A   1      45.935  35.082  30.825  1.00  0.00     0.002 A 
ATOM     86  C   UNL A   1      45.252  35.866  28.634  1.00  0.00     0.091 A 
ATOM     87  F   UNL A   1      44.185  34.346  27.134  1.00  0.00    -0.205 F 
ATOM     88  C   UNL A   1      45.822  36.111  29.893  1.00  0.00     0.022 A 
BRANCH  86  89
ATOM     89  S   UNL A   1      45.236  37.232  27.466  1.00  0.00     0.127 S 
ATOM     90  O   UNL A   1      43.816  37.318  27.126  1.00  0.00    -0.237 OA
ATOM     91  O   UNL A   1      45.735  38.340  28.282  1.00  0.00    -0.237 OA
ATOM     92  O   UNL A   1      46.114  36.840  26.373  1.00  0.00    -0.744 OA
ENDBRANCH  86  89
ENDBRANCH  59  82
ENDBRANCH  33  34
ENDBRANCH  26  28
ENDBRANCH  25  26
ENDBRANCH  24  25
ENDBRANCH  23  24
ENDBRANCH   1  23
TORSDOF 20
ENDMDL
MODEL 3
REMARK VINA RESULT:     -10.4      1.750      2.698
REMARK SMILES CCc1cc(Oc2cncc(C(=O)OCCOCCOC(=O)c3ccc(-c4c5nc(c(-c6cccc(S(=O)(=O)[O-])c6F)c6ccc([nH]6)c(-c6cccc(S(=O)(=O)[O-])c6F)c6nc(c(-c7cccc(S(=O)(=O)[O-])c7F)c7ccc4[nH]7)C=C6)C=C5)cc3)n2)ccc1Cl
REMARK SMILES IDX 17 1 16 2 15 3 14 4 12 5 13 6 11 7 7 8 8 9 86 10 9 11 10 12
REMARK SMILES IDX 6 13 5 14 3 15 4 16 89 17 88 18 90 19 87 20 2 21 1 22 18 23
REMARK SMILES IDX 19 24 20 25 21 26 22 27 23 28 24 29 85 30 25 31 84 32 26 33
REMARK SMILES IDX 27 34 28 35 78 36 29 37 83 38 77 39 79 40 30 41 82 42 76 43
REMARK SMILES IDX 75 44 31 46 63 47 43 48 62 49 44 50 47 51 61 52 80 53 45 54
REMARK SMILES IDX 46 55 60 57 81 58 48 59 32 60 33 61 41 62 34 63 36 64 42 65
REMARK SMILES IDX 35 66 37 67 38 68 39 69 40 70 64 71 65 72 73 73 66 74 68 75
REMARK SMILES IDX 74 76 67 77 69 78 70 79 71 80 72 81 49 82 50 83 58 84 51 85
REMARK SMILES IDX 53 86 59 87 52 88 54 89 55 90 56 91 57 92
REMARK H PARENT 79 45 47 56
REMARK Flexibility Score: inf
ROOT
ATOM      1  O   UNL A   1      38.796  21.773  25.642  1.00  0.00    -0.374 OA
ENDROOT
BRANCH   1   2
ATOM      2  C   UNL A   1      37.796  22.727  26.003  1.00  0.00     0.202 C 
BRANCH   2   3
ATOM      3  C   UNL A   1      36.390  22.504  25.435  1.00  0.00     0.261 C 
BRANCH   3   4
ATOM      4  O   UNL A   1      35.402  23.261  26.146  1.00  0.00    -0.458 OA
BRANCH   4   5
ATOM      5  C   UNL A   1      34.335  22.551  26.587  1.00  0.00     0.358 C 
ATOM      6  O   UNL A   1      34.371  21.503  27.218  1.00  0.00    -0.244 OA
BRANCH   5   7
ATOM      7  C   UNL A   1      33.069  23.287  26.358  1.00  0.00     0.170 A 
ATOM      8  C   UNL A   1      31.761  24.786  25.209  1.00  0.00     0.238 A 
ATOM      9  C   UNL A   1      30.710  24.512  26.082  1.00  0.00     0.179 A 
ATOM     10  N   UNL A   1      32.961  24.168  25.329  1.00  0.00    -0.203 NA
ATOM     11  N   UNL A   1      30.830  23.682  27.150  1.00  0.00    -0.257 NA
ATOM     12  C   UNL A   1      32.035  23.072  27.260  1.00  0.00     0.147 A 
BRANCH   8  13
ATOM     13  O   UNL A   1      31.634  25.591  24.104  1.00  0.00    -0.437 OA
BRANCH  13  14
ATOM     14  C   UNL A   1      31.262  26.911  24.228  1.00  0.00     0.129 A 
ATOM     15  C   UNL A   1      29.735  28.639  23.386  1.00  0.00    -0.026 A 
ATOM     16  C   UNL A   1      30.186  27.304  23.422  1.00  0.00     0.052 A 
ATOM     17  C   UNL A   1      30.374  29.573  24.214  1.00  0.00     0.044 A 
ATOM     18  C   UNL A   1      31.455  29.187  25.015  1.00  0.00     0.024 A 
ATOM     19  Cl  UNL A   1      29.896  31.232  24.288  1.00  0.00    -0.084 Cl
ATOM     20  C   UNL A   1      31.918  27.868  25.002  1.00  0.00     0.049 A 
BRANCH  15  21
ATOM     21  C   UNL A   1      28.619  28.998  22.430  1.00  0.00     0.034 C 
ATOM     22  C   UNL A   1      27.250  28.961  23.104  1.00  0.00     0.009 C 
ENDBRANCH  15  21
ENDBRANCH  13  14
ENDBRANCH   8  13
ENDBRANCH   5   7
ENDBRANCH   4   5
ENDBRANCH   3   4
ENDBRANCH   2   3
ENDBRANCH   1   2
BRANCH   1  23
ATOM     23  C   UNL A   1      38.370  20.418  25.482  1.00  0.00     0.202 C 
BRANCH  23  24
ATOM     24  C   UNL A   1      39.461  19.344  25.374  1.00  0.00     0.261 C 
BRANCH  24  25
ATOM     25  O   UNL A   1      40.414  19.418  26.448  1.00  0.00    -0.460 OA
BRANCH  25  26
ATOM     26  C   UNL A   1      41.663  19.797  26.086  1.00  0.00     0.338 C 
ATOM     27  O   UNL A   1      42.431  19.197  25.345  1.00  0.00    -0.246 OA
BRANCH  26  28
ATOM     28  C   UNL A   1      41.920  21.167  26.563  1.00  0.00     0.060 A 
ATOM     29  C   UNL A   1      41.935  22.199  25.615  1.00  0.00     0.016 A 
ATOM     30  C   UNL A   1      42.177  21.436  27.908  1.00  0.00     0.016 A 
ATOM     31  C   UNL A   1      42.228  23.504  26.007  1.00  0.00     0.010 A 
ATOM     32  C   UNL A   1      42.482  22.744  28.296  1.00  0.00     0.010 A 
ATOM     33  C   UNL A   1      42.528  23.781  27.347  1.00  0.00    -0.014 A 
BRANCH  33  34
ATOM     34  C   UNL A   1      42.966  25.137  27.755  1.00  0.00     0.031 A 
ATOM     35  C   UNL A   1      41.947  26.118  28.263  1.00  0.00     0.074 A 
ATOM     36  C   UNL A   1      44.256  25.499  27.635  1.00  0.00     0.049 A 
ATOM     37  N   UNL A   1      42.094  27.381  28.565  1.00  0.00    -0.248 NA
ATOM     38  C   UNL A   1      40.579  25.609  28.453  1.00  0.00     0.031 C 
ATOM     39  C   UNL A   1      45.337  24.632  27.169  1.00  0.00     0.029 A 
ATOM     40  N   UNL A   1      44.868  26.708  27.860  1.00  0.00    -0.354 N 
ATOM     41  C   UNL A   1      40.837  27.828  28.952  1.00  0.00     0.074 A 
ATOM     42  C   UNL A   1      39.935  26.701  28.843  1.00  0.00     0.031 C 
ATOM     43  C   UNL A   1      46.473  25.346  27.103  1.00  0.00     0.029 A 
ATOM     44  C   UNL A   1      46.192  26.727  27.486  1.00  0.00     0.049 A 
ATOM     45  H   UNL A   1      44.405  27.483  28.252  1.00  0.00     0.167 HD
ATOM     46  C   UNL A   1      40.469  29.062  29.371  1.00  0.00     0.034 A 
ATOM     47  C   UNL A   1      47.064  27.753  27.420  1.00  0.00     0.034 A 
ATOM     48  C   UNL A   1      41.371  30.176  29.488  1.00  0.00     0.049 A 
ATOM     49  C   UNL A   1      46.612  29.131  27.835  1.00  0.00     0.074 A 
ATOM     50  C   UNL A   1      41.103  31.454  29.946  1.00  0.00     0.029 A 
ATOM     51  N   UNL A   1      42.711  30.152  29.133  1.00  0.00    -0.354 N 
ATOM     52  N   UNL A   1      45.450  29.512  28.308  1.00  0.00    -0.248 NA
ATOM     53  C   UNL A   1      47.599  30.215  27.728  1.00  0.00     0.031 C 
ATOM     54  C   UNL A   1      42.273  32.214  29.833  1.00  0.00     0.029 A 
ATOM     55  C   UNL A   1      43.277  31.399  29.338  1.00  0.00     0.049 A 
ATOM     56  H   UNL A   1      43.189  29.365  28.785  1.00  0.00     0.167 HD
ATOM     57  C   UNL A   1      45.576  30.871  28.582  1.00  0.00     0.074 A 
ATOM     58  C   UNL A   1      46.936  31.239  28.248  1.00  0.00     0.031 C 
ATOM     59  C   UNL A   1      44.647  31.740  29.048  1.00  0.00     0.034 A 
BRANCH  46  60
ATOM     60  C   UNL A   1      39.030  29.275  29.759  1.00  0.00     0.023 A 
ATOM     61  C   UNL A   1      38.616  28.995  31.078  1.00  0.00     0.012 A 
ATOM     62  C   UNL A   1      38.109  29.824  28.846  1.00  0.00     0.148 A 
ATOM     63  C   UNL A   1      37.301  29.237  31.474  1.00  0.00     0.002 A 
ATOM     64  C   UNL A   1      36.812  30.102  29.261  1.00  0.00     0.091 A 
ATOM     65  F   UNL A   1      38.519  30.067  27.593  1.00  0.00    -0.205 F 
ATOM     66  C   UNL A   1      36.404  29.801  30.571  1.00  0.00     0.022 A 
BRANCH  64  67
ATOM     67  S   UNL A   1      35.600  30.897  28.198  1.00  0.00     0.127 S 
ATOM     68  O   UNL A   1      35.328  29.843  27.223  1.00  0.00    -0.237 OA
ATOM     69  O   UNL A   1      34.504  31.163  29.130  1.00  0.00    -0.237 OA
ATOM     70  O   UNL A   1      36.249  32.085  27.664  1.00  0.00    -0.744 OA
ENDBRANCH  64  67
ENDBRANCH  46  60
BRANCH  47  71
ATOM     71  C   UNL A   1      48.458  27.526  26.944  1.00  0.00     0.023 A 
ATOM     72  C   UNL A   1      49.460  27.177  27.869  1.00  0.00     0.012 A 
ATOM     73  C   UNL A   1      48.799  27.664  25.584  1.00  0.00     0.148 A 
ATOM     74  C   UNL A   1      50.782  27.006  27.457  1.00  0.00     0.002 A 
ATOM     75  C   UNL A   1      50.107  27.437  25.170  1.00  0.00     0.091 A 
ATOM     76  F   UNL A   1      47.837  28.017  24.720  1.00  0.00    -0.205 F 
ATOM     77  C   UNL A   1      51.103  27.126  26.107  1.00  0.00     0.022 A 
BRANCH  75  78
ATOM     78  S   UNL A   1      50.585  27.448  23.439  1.00  0.00     0.127 S 
ATOM     79  O   UNL A   1      50.720  28.879  23.176  1.00  0.00    -0.237 OA
ATOM     80  O   UNL A   1      51.845  26.706  23.469  1.00  0.00    -0.237 OA
ATOM     81  O   UNL A   1      49.508  26.773  22.728  1.00  0.00    -0.744 OA
ENDBRANCH  75  78
ENDBRANCH  47  71
BRANCH  59  82
ATOM     82  C   UNL A   1      45.067  33.173  29.254  1.00  0.00     0.023 A 
ATOM     83  C   UNL A   1      45.786  33.531  30.412  1.00  0.00     0.012 A 
ATOM     84  C   UNL A   1      44.817  34.147  28.267  1.00  0.00     0.148 A 
ATOM     85  C   UNL A   1      46.222  34.842  30.598  1.00  0.00     0.002 A 
ATOM     86  C   UNL A   1      45.299  35.440  28.437  1.00  0.00     0.091 A 
ATOM     87  F   UNL A   1      44.120  33.790  27.178  1.00  0.00    -0.205 F 
ATOM     88  C   UNL A   1      45.990  35.792  29.607  1.00  0.00     0.022 A 
BRANCH  86  89
ATOM     89  S   UNL A   1      45.131  36.709  27.176  1.00  0.00     0.127 S 
ATOM     90  O   UNL A   1      45.439  37.923  27.932  1.00  0.00    -0.237 OA
ATOM     91  O   UNL A   1      46.156  36.318  26.207  1.00  0.00    -0.237 OA
ATOM     92  O   UNL A   1      43.763  36.614  26.686  1.00  0.00    -0.744 OA
ENDBRANCH  86  89
ENDBRANCH  59  82
ENDBRANCH  33  34
ENDBRANCH  26  28
ENDBRANCH  25  26
ENDBRANCH  24  25
ENDBRANCH  23  24
ENDBRANCH   1  23
TORSDOF 20
ENDMDL
