MODEL 1
REMARK VINA RESULT:      -8.3      0.000      0.000
REMARK SMILES CCCCCCNC(=O)Oc1cccc(-c2ccc([C@@H](C)C(=O)OCCOCCOC(=O)c3ccc(-c4c5nc(c(-c6cccc(S(=O)(=O)[O-])c6F)c6ccc([nH]6)c(-c6cccc(S(=O)(=O)[O-])c6F)c6nc(c(-c7cccc(S(=O)(=O)[O-])c7F)c7ccc4[nH]7)C=C6)C=C5)cc3)cc2C(F)(F)F)c1
REMARK SMILES IDX 24 1 22 2 23 3 20 4 21 5 19 6 16 7 17 8 97 9 18 10 96 11
REMARK SMILES IDX 15 12 11 13 12 14 102 15 13 16 14 17 10 18 8 19 7 20 9 22
REMARK SMILES IDX 6 23 5 24 4 25 3 26 2 27 1 28 98 29 99 30 100 31 101 32
REMARK SMILES IDX 25 33 26 34 27 35 28 36 29 37 30 38 31 39 32 40 33 41 34 42
REMARK SMILES IDX 95 43 35 44 94 45 36 46 37 47 38 48 88 49 39 50 93 51 87 52
REMARK SMILES IDX 89 53 40 54 92 55 86 56 85 57 41 59 73 60 53 61 72 62 54 63
REMARK SMILES IDX 57 64 71 65 90 66 55 67 56 68 70 70 91 71 58 72 42 73 43 74
REMARK SMILES IDX 51 75 44 76 46 77 52 78 45 79 47 80 48 81 49 82 50 83 74 84
REMARK SMILES IDX 75 85 83 86 76 87 78 88 84 89 77 90 79 91 80 92 81 93 82 94
REMARK SMILES IDX 59 95 60 96 68 97 61 98 63 99 69 100 62 101 64 102 65 103
REMARK SMILES IDX 66 104 67 105
REMARK H PARENT 7 21 89 58 57 69
REMARK Flexibility Score: inf
ROOT
ATOM      1  O   UNL A   1      43.794  21.333  25.048  1.00  0.00    -0.463 OA
ENDROOT
BRANCH   1   2
ATOM      2  C   UNL A   1      43.049  20.371  25.648  1.00  0.00     0.313 C 
ATOM      3  O   UNL A   1      42.665  19.342  25.096  1.00  0.00    -0.252 OA
BRANCH   2   4
ATOM      4  C   UNL A   1      42.694  20.677  27.093  1.00  0.00     0.126 C 
ATOM      5  C   UNL A   1      41.651  19.675  27.579  1.00  0.00     0.025 C 
BRANCH   4   6
ATOM      6  C   UNL A   1      42.319  22.110  27.460  1.00  0.00    -0.033 A 
ATOM      7  C   UNL A   1      41.549  24.844  27.847  1.00  0.00    -0.006 A 
ATOM      8  C   UNL A   1      42.876  24.404  28.038  1.00  0.00     0.009 A 
ATOM      9  C   UNL A   1      40.584  23.878  27.492  1.00  0.00     0.064 A 
ATOM     10  C   UNL A   1      43.258  23.069  27.840  1.00  0.00     0.005 A 
ATOM     11  C   UNL A   1      40.984  22.527  27.328  1.00  0.00     0.018 A 
BRANCH   7  12
ATOM     12  C   UNL A   1      41.265  26.293  27.928  1.00  0.00    -0.014 A 
ATOM     13  C   UNL A   1      40.714  28.310  29.163  1.00  0.00     0.133 A 
ATOM     14  C   UNL A   1      40.561  29.029  27.979  1.00  0.00     0.047 A 
ATOM     15  C   UNL A   1      41.077  26.958  29.150  1.00  0.00     0.056 A 
ATOM     16  C   UNL A   1      40.784  28.395  26.763  1.00  0.00     0.004 A 
ATOM     17  C   UNL A   1      41.125  27.040  26.740  1.00  0.00     0.009 A 
BRANCH  13  18
ATOM     18  O   UNL A   1      40.326  28.976  30.342  1.00  0.00    -0.410 OA
BRANCH  18  19
ATOM     19  C   UNL A   1      39.117  28.678  30.947  1.00  0.00     0.412 C 
ATOM     20  N   UNL A   1      38.371  29.787  31.234  1.00  0.00    -0.321 N 
ATOM     21  H   UNL A   1      37.515  29.631  31.695  1.00  0.00     0.167 HD
ATOM     22  O   UNL A   1      38.706  27.553  31.221  1.00  0.00    -0.224 OA
BRANCH  20  23
ATOM     23  C   UNL A   1      38.704  31.166  30.935  1.00  0.00     0.119 C 
BRANCH  23  24
ATOM     24  C   UNL A   1      38.071  32.137  31.937  1.00  0.00     0.021 C 
BRANCH  24  25
ATOM     25  C   UNL A   1      37.991  33.593  31.462  1.00  0.00     0.002 C 
BRANCH  25  26
ATOM     26  C   UNL A   1      37.361  34.577  32.454  1.00  0.00    -0.000 C 
BRANCH  26  27
ATOM     27  C   UNL A   1      35.832  34.570  32.505  1.00  0.00    -0.003 C 
ATOM     28  C   UNL A   1      35.268  33.613  33.544  1.00  0.00     0.004 C 
ENDBRANCH  26  27
ENDBRANCH  25  26
ENDBRANCH  24  25
ENDBRANCH  23  24
ENDBRANCH  20  23
ENDBRANCH  18  19
ENDBRANCH  13  18
ENDBRANCH   7  12
BRANCH   9  29
ATOM     29  C   UNL A   1      39.118  24.182  27.260  1.00  0.00     0.417 C 
ATOM     30  F   UNL A   1      38.519  24.699  28.377  1.00  0.00    -0.166 F 
ATOM     31  F   UNL A   1      38.944  25.131  26.295  1.00  0.00    -0.166 F 
ATOM     32  F   UNL A   1      38.331  23.133  26.905  1.00  0.00    -0.166 F 
ENDBRANCH   9  29
ENDBRANCH   4   6
ENDBRANCH   2   4
ENDBRANCH   1   2
BRANCH   1  33
ATOM     33  C   UNL A   1      44.967  20.881  24.350  1.00  0.00     0.261 C 
BRANCH  33  34
ATOM     34  C   UNL A   1      46.196  21.710  24.731  1.00  0.00     0.202 C 
BRANCH  34  35
ATOM     35  O   UNL A   1      46.146  22.385  25.988  1.00  0.00    -0.374 OA
BRANCH  35  36
ATOM     36  C   UNL A   1      46.389  23.791  25.994  1.00  0.00     0.202 C 
BRANCH  36  37
ATOM     37  C   UNL A   1      46.770  24.447  24.661  1.00  0.00     0.261 C 
BRANCH  37  38
ATOM     38  O   UNL A   1      47.630  25.587  24.825  1.00  0.00    -0.460 OA
BRANCH  38  39
ATOM     39  C   UNL A   1      46.992  26.781  24.765  1.00  0.00     0.338 C 
ATOM     40  O   UNL A   1      46.785  27.454  23.768  1.00  0.00    -0.246 OA
BRANCH  39  41
ATOM     41  C   UNL A   1      46.378  27.104  26.067  1.00  0.00     0.060 A 
ATOM     42  C   UNL A   1      44.985  27.255  26.090  1.00  0.00     0.016 A 
ATOM     43  C   UNL A   1      47.137  27.352  27.213  1.00  0.00     0.016 A 
ATOM     44  C   UNL A   1      44.353  27.729  27.236  1.00  0.00     0.010 A 
ATOM     45  C   UNL A   1      46.498  27.832  28.364  1.00  0.00     0.010 A 
ATOM     46  C   UNL A   1      45.110  28.071  28.363  1.00  0.00    -0.014 A 
BRANCH  46  47
ATOM     47  C   UNL A   1      44.457  28.834  29.456  1.00  0.00     0.031 A 
ATOM     48  C   UNL A   1      44.127  30.288  29.236  1.00  0.00     0.074 A 
ATOM     49  C   UNL A   1      44.105  28.231  30.606  1.00  0.00     0.049 A 
ATOM     50  N   UNL A   1      43.511  31.127  30.029  1.00  0.00    -0.248 NA
ATOM     51  C   UNL A   1      44.541  30.875  27.951  1.00  0.00     0.031 C 
ATOM     52  C   UNL A   1      44.359  26.829  30.936  1.00  0.00     0.029 A 
ATOM     53  N   UNL A   1      43.463  28.727  31.713  1.00  0.00    -0.354 N 
ATOM     54  C   UNL A   1      43.482  32.340  29.352  1.00  0.00     0.074 A 
ATOM     55  C   UNL A   1      44.160  32.136  28.091  1.00  0.00     0.031 C 
ATOM     56  C   UNL A   1      43.893  26.582  32.173  1.00  0.00     0.029 A 
ATOM     57  C   UNL A   1      43.323  27.809  32.727  1.00  0.00     0.049 A 
ATOM     58  H   UNL A   1      43.134  29.653  31.775  1.00  0.00     0.167 HD
ATOM     59  C   UNL A   1      42.923  33.513  29.732  1.00  0.00     0.034 A 
ATOM     60  C   UNL A   1      42.804  27.947  33.964  1.00  0.00     0.034 A 
ATOM     61  C   UNL A   1      42.223  33.710  30.973  1.00  0.00     0.049 A 
ATOM     62  C   UNL A   1      42.209  29.271  34.371  1.00  0.00     0.074 A 
ATOM     63  C   UNL A   1      41.584  34.850  31.428  1.00  0.00     0.029 A 
ATOM     64  N   UNL A   1      42.079  32.749  31.962  1.00  0.00    -0.354 N 
ATOM     65  N   UNL A   1      42.081  30.372  33.668  1.00  0.00    -0.248 NA
ATOM     66  C   UNL A   1      41.653  29.362  35.730  1.00  0.00     0.031 C 
ATOM     67  C   UNL A   1      41.074  34.587  32.703  1.00  0.00     0.029 A 
ATOM     68  C   UNL A   1      41.372  33.274  33.030  1.00  0.00     0.049 A 
ATOM     69  H   UNL A   1      42.427  31.831  31.911  1.00  0.00     0.167 HD
ATOM     70  C   UNL A   1      41.401  31.270  34.485  1.00  0.00     0.074 A 
ATOM     71  C   UNL A   1      41.122  30.577  35.726  1.00  0.00     0.031 C 
ATOM     72  C   UNL A   1      41.052  32.557  34.238  1.00  0.00     0.034 A 
BRANCH  59  73
ATOM     73  C   UNL A   1      43.012  34.674  28.777  1.00  0.00     0.023 A 
ATOM     74  C   UNL A   1      41.889  35.022  27.998  1.00  0.00     0.012 A 
ATOM     75  C   UNL A   1      44.180  35.458  28.697  1.00  0.00     0.148 A 
ATOM     76  C   UNL A   1      41.935  36.115  27.135  1.00  0.00     0.002 A 
ATOM     77  C   UNL A   1      44.204  36.571  27.865  1.00  0.00     0.091 A 
ATOM     78  F   UNL A   1      45.243  35.098  29.429  1.00  0.00    -0.205 F 
ATOM     79  C   UNL A   1      43.087  36.896  27.076  1.00  0.00     0.022 A 
BRANCH  77  80
ATOM     80  S   UNL A   1      45.611  37.684  27.775  1.00  0.00     0.127 S 
ATOM     81  O   UNL A   1      45.272  38.496  26.607  1.00  0.00    -0.237 OA
ATOM     82  O   UNL A   1      45.526  38.392  29.054  1.00  0.00    -0.237 OA
ATOM     83  O   UNL A   1      46.786  36.837  27.627  1.00  0.00    -0.744 OA
ENDBRANCH  77  80
ENDBRANCH  59  73
BRANCH  60  84
ATOM     84  C   UNL A   1      42.789  26.789  34.903  1.00  0.00     0.023 A 
ATOM     85  C   UNL A   1      41.649  25.966  34.979  1.00  0.00     0.012 A 
ATOM     86  C   UNL A   1      43.899  26.501  35.721  1.00  0.00     0.148 A 
ATOM     87  C   UNL A   1      41.599  24.900  35.878  1.00  0.00     0.002 A 
ATOM     88  C   UNL A   1      43.865  25.403  36.573  1.00  0.00     0.091 A 
ATOM     89  F   UNL A   1      44.967  27.306  35.650  1.00  0.00    -0.205 F 
ATOM     90  C   UNL A   1      42.710  24.612  36.667  1.00  0.00     0.022 A 
BRANCH  88  91
ATOM     91  S   UNL A   1      45.297  24.886  37.526  1.00  0.00     0.127 S 
ATOM     92  O   UNL A   1      44.704  23.939  38.467  1.00  0.00    -0.237 OA
ATOM     93  O   UNL A   1      46.146  24.284  36.498  1.00  0.00    -0.237 OA
ATOM     94  O   UNL A   1      45.839  26.105  38.110  1.00  0.00    -0.744 OA
ENDBRANCH  88  91
ENDBRANCH  60  84
BRANCH  72  95
ATOM     95  C   UNL A   1      40.300  33.299  35.312  1.00  0.00     0.023 A 
ATOM     96  C   UNL A   1      38.905  33.139  35.429  1.00  0.00     0.012 A 
ATOM     97  C   UNL A   1      40.985  34.097  36.251  1.00  0.00     0.148 A 
ATOM     98  C   UNL A   1      38.200  33.788  36.441  1.00  0.00     0.002 A 
ATOM     99  C   UNL A   1      40.281  34.700  37.287  1.00  0.00     0.091 A 
ATOM    100  F   UNL A   1      42.309  34.252  36.115  1.00  0.00    -0.205 F 
ATOM    101  C   UNL A   1      38.887  34.558  37.376  1.00  0.00     0.022 A 
BRANCH  99 102
ATOM    102  S   UNL A   1      41.095  35.631  38.591  1.00  0.00     0.127 S 
ATOM    103  O   UNL A   1      39.967  36.324  39.211  1.00  0.00    -0.237 OA
ATOM    104  O   UNL A   1      41.683  34.571  39.409  1.00  0.00    -0.237 OA
ATOM    105  O   UNL A   1      42.066  36.488  37.925  1.00  0.00    -0.744 OA
ENDBRANCH  99 102
ENDBRANCH  72  95
ENDBRANCH  46  47
ENDBRANCH  39  41
ENDBRANCH  38  39
ENDBRANCH  37  38
ENDBRANCH  36  37
ENDBRANCH  35  36
ENDBRANCH  34  35
ENDBRANCH  33  34
ENDBRANCH   1  33
TORSDOF 27
ENDMDL
MODEL 2
REMARK VINA RESULT:      -7.9      5.708     10.972
REMARK SMILES CCCCCCNC(=O)Oc1cccc(-c2ccc([C@@H](C)C(=O)OCCOCCOC(=O)c3ccc(-c4c5nc(c(-c6cccc(S(=O)(=O)[O-])c6F)c6ccc([nH]6)c(-c6cccc(S(=O)(=O)[O-])c6F)c6nc(c(-c7cccc(S(=O)(=O)[O-])c7F)c7ccc4[nH]7)C=C6)C=C5)cc3)cc2C(F)(F)F)c1
REMARK SMILES IDX 24 1 22 2 23 3 20 4 21 5 19 6 16 7 17 8 97 9 18 10 96 11
REMARK SMILES IDX 15 12 11 13 12 14 102 15 13 16 14 17 10 18 8 19 7 20 9 22
REMARK SMILES IDX 6 23 5 24 4 25 3 26 2 27 1 28 98 29 99 30 100 31 101 32
REMARK SMILES IDX 25 33 26 34 27 35 28 36 29 37 30 38 31 39 32 40 33 41 34 42
REMARK SMILES IDX 95 43 35 44 94 45 36 46 37 47 38 48 88 49 39 50 93 51 87 52
REMARK SMILES IDX 89 53 40 54 92 55 86 56 85 57 41 59 73 60 53 61 72 62 54 63
REMARK SMILES IDX 57 64 71 65 90 66 55 67 56 68 70 70 91 71 58 72 42 73 43 74
REMARK SMILES IDX 51 75 44 76 46 77 52 78 45 79 47 80 48 81 49 82 50 83 74 84
REMARK SMILES IDX 75 85 83 86 76 87 78 88 84 89 77 90 79 91 80 92 81 93 82 94
REMARK SMILES IDX 59 95 60 96 68 97 61 98 63 99 69 100 62 101 64 102 65 103
REMARK SMILES IDX 66 104 67 105
REMARK H PARENT 7 21 89 58 57 69
REMARK Flexibility Score: inf
ROOT
ATOM      1  O   UNL A   1      33.683  33.859  29.221  1.00  0.00    -0.463 OA
ENDROOT
BRANCH   1   2
ATOM      2  C   UNL A   1      34.548  33.349  28.308  1.00  0.00     0.313 C 
ATOM      3  O   UNL A   1      35.187  34.022  27.502  1.00  0.00    -0.252 OA
BRANCH   2   4
ATOM      4  C   UNL A   1      34.658  31.834  28.342  1.00  0.00     0.126 C 
ATOM      5  C   UNL A   1      36.090  31.425  28.012  1.00  0.00     0.025 C 
BRANCH   4   6
ATOM      6  C   UNL A   1      33.639  31.014  27.556  1.00  0.00    -0.033 A 
ATOM      7  C   UNL A   1      31.928  29.484  25.839  1.00  0.00    -0.006 A 
ATOM      8  C   UNL A   1      31.582  30.779  26.282  1.00  0.00     0.009 A 
ATOM      9  C   UNL A   1      33.141  28.935  26.304  1.00  0.00     0.064 A 
ATOM     10  C   UNL A   1      32.422  31.534  27.113  1.00  0.00     0.005 A 
ATOM     11  C   UNL A   1      33.961  29.703  27.170  1.00  0.00     0.018 A 
BRANCH   7  12
ATOM     12  C   UNL A   1      31.057  28.822  24.844  1.00  0.00    -0.014 A 
ATOM     13  C   UNL A   1      30.107  26.851  23.792  1.00  0.00     0.133 A 
ATOM     14  C   UNL A   1      29.511  27.629  22.800  1.00  0.00     0.047 A 
ATOM     15  C   UNL A   1      30.862  27.432  24.817  1.00  0.00     0.056 A 
ATOM     16  C   UNL A   1      29.661  29.010  22.837  1.00  0.00     0.004 A 
ATOM     17  C   UNL A   1      30.433  29.597  23.844  1.00  0.00     0.009 A 
BRANCH  13  18
ATOM     18  O   UNL A   1      30.037  25.457  23.604  1.00  0.00    -0.410 OA
BRANCH  18  19
ATOM     19  C   UNL A   1      31.138  24.758  23.138  1.00  0.00     0.412 C 
ATOM     20  N   UNL A   1      31.563  23.787  24.000  1.00  0.00    -0.321 N 
ATOM     21  H   UNL A   1      32.364  23.282  23.730  1.00  0.00     0.167 HD
ATOM     22  O   UNL A   1      31.713  24.950  22.069  1.00  0.00    -0.224 OA
BRANCH  20  23
ATOM     23  C   UNL A   1      30.965  23.421  25.269  1.00  0.00     0.119 C 
BRANCH  23  24
ATOM     24  C   UNL A   1      31.790  22.362  26.006  1.00  0.00     0.021 C 
BRANCH  24  25
ATOM     25  C   UNL A   1      32.479  22.855  27.285  1.00  0.00     0.002 C 
BRANCH  25  26
ATOM     26  C   UNL A   1      33.995  23.061  27.181  1.00  0.00    -0.000 C 
BRANCH  26  27
ATOM     27  C   UNL A   1      34.546  23.179  25.758  1.00  0.00    -0.003 C 
ATOM     28  C   UNL A   1      35.854  23.951  25.680  1.00  0.00     0.004 C 
ENDBRANCH  26  27
ENDBRANCH  25  26
ENDBRANCH  24  25
ENDBRANCH  23  24
ENDBRANCH  20  23
ENDBRANCH  18  19
ENDBRANCH  13  18
ENDBRANCH   7  12
BRANCH   9  29
ATOM     29  C   UNL A   1      33.651  27.558  25.932  1.00  0.00     0.417 C 
ATOM     30  F   UNL A   1      34.900  27.320  26.440  1.00  0.00    -0.166 F 
ATOM     31  F   UNL A   1      32.865  26.570  26.449  1.00  0.00    -0.166 F 
ATOM     32  F   UNL A   1      33.767  27.294  24.604  1.00  0.00    -0.166 F 
ENDBRANCH   9  29
ENDBRANCH   4   6
ENDBRANCH   2   4
ENDBRANCH   1   2
BRANCH   1  33
ATOM     33  C   UNL A   1      32.860  34.949  28.772  1.00  0.00     0.261 C 
BRANCH  33  34
ATOM     34  C   UNL A   1      33.247  36.260  29.460  1.00  0.00     0.202 C 
BRANCH  34  35
ATOM     35  O   UNL A   1      32.473  36.637  30.599  1.00  0.00    -0.374 OA
BRANCH  35  36
ATOM     36  C   UNL A   1      33.176  37.021  31.779  1.00  0.00     0.202 C 
BRANCH  36  37
ATOM     37  C   UNL A   1      33.057  36.102  33.002  1.00  0.00     0.261 C 
BRANCH  37  38
ATOM     38  O   UNL A   1      34.272  35.387  33.282  1.00  0.00    -0.460 OA
BRANCH  38  39
ATOM     39  C   UNL A   1      34.203  34.055  33.041  1.00  0.00     0.338 C 
ATOM     40  O   UNL A   1      33.217  33.342  33.132  1.00  0.00    -0.246 OA
BRANCH  39  41
ATOM     41  C   UNL A   1      35.464  33.572  32.445  1.00  0.00     0.060 A 
ATOM     42  C   UNL A   1      36.114  32.520  33.105  1.00  0.00     0.016 A 
ATOM     43  C   UNL A   1      36.052  34.185  31.337  1.00  0.00     0.016 A 
ATOM     44  C   UNL A   1      37.388  32.128  32.707  1.00  0.00     0.010 A 
ATOM     45  C   UNL A   1      37.337  33.789  30.940  1.00  0.00     0.010 A 
ATOM     46  C   UNL A   1      38.030  32.795  31.656  1.00  0.00    -0.014 A 
BRANCH  46  47
ATOM     47  C   UNL A   1      39.479  32.556  31.439  1.00  0.00     0.031 A 
ATOM     48  C   UNL A   1      40.480  33.383  32.207  1.00  0.00     0.074 A 
ATOM     49  C   UNL A   1      39.904  31.577  30.621  1.00  0.00     0.049 A 
ATOM     50  N   UNL A   1      41.785  33.307  32.214  1.00  0.00    -0.248 NA
ATOM     51  C   UNL A   1      39.936  34.432  33.086  1.00  0.00     0.031 C 
ATOM     52  C   UNL A   1      39.039  30.702  29.831  1.00  0.00     0.029 A 
ATOM     53  N   UNL A   1      41.175  31.160  30.313  1.00  0.00    -0.354 N 
ATOM     54  C   UNL A   1      42.220  34.306  33.076  1.00  0.00     0.074 A 
ATOM     55  C   UNL A   1      41.041  34.991  33.559  1.00  0.00     0.031 C 
ATOM     56  C   UNL A   1      39.806  29.862  29.114  1.00  0.00     0.029 A 
ATOM     57  C   UNL A   1      41.214  30.150  29.381  1.00  0.00     0.049 A 
ATOM     58  H   UNL A   1      41.983  31.548  30.721  1.00  0.00     0.167 HD
ATOM     59  C   UNL A   1      43.483  34.615  33.452  1.00  0.00     0.034 A 
ATOM     60  C   UNL A   1      42.266  29.536  28.803  1.00  0.00     0.034 A 
ATOM     61  C   UNL A   1      44.655  33.918  32.995  1.00  0.00     0.049 A 
ATOM     62  C   UNL A   1      43.664  29.915  29.222  1.00  0.00     0.074 A 
ATOM     63  C   UNL A   1      45.975  34.129  33.354  1.00  0.00     0.029 A 
ATOM     64  N   UNL A   1      44.652  32.883  32.074  1.00  0.00    -0.354 N 
ATOM     65  N   UNL A   1      44.049  30.778  30.132  1.00  0.00    -0.248 NA
ATOM     66  C   UNL A   1      44.772  29.209  28.561  1.00  0.00     0.031 C 
ATOM     67  C   UNL A   1      46.773  33.237  32.630  1.00  0.00     0.029 A 
ATOM     68  C   UNL A   1      45.947  32.453  31.841  1.00  0.00     0.049 A 
ATOM     69  H   UNL A   1      43.848  32.510  31.648  1.00  0.00     0.167 HD
ATOM     70  C   UNL A   1      45.437  30.692  30.176  1.00  0.00     0.074 A 
ATOM     71  C   UNL A   1      45.824  29.676  29.220  1.00  0.00     0.031 C 
ATOM     72  C   UNL A   1      46.315  31.402  30.929  1.00  0.00     0.034 A 
BRANCH  59  73
ATOM     73  C   UNL A   1      43.667  35.740  34.437  1.00  0.00     0.023 A 
ATOM     74  C   UNL A   1      43.879  35.443  35.799  1.00  0.00     0.012 A 
ATOM     75  C   UNL A   1      43.694  37.081  34.010  1.00  0.00     0.148 A 
ATOM     76  C   UNL A   1      44.089  36.464  36.724  1.00  0.00     0.002 A 
ATOM     77  C   UNL A   1      43.945  38.092  34.930  1.00  0.00     0.091 A 
ATOM     78  F   UNL A   1      43.468  37.343  32.715  1.00  0.00    -0.205 F 
ATOM     79  C   UNL A   1      44.133  37.786  36.289  1.00  0.00     0.022 A 
BRANCH  77  80
ATOM     80  S   UNL A   1      44.097  39.818  34.458  1.00  0.00     0.127 S 
ATOM     81  O   UNL A   1      44.306  40.462  35.754  1.00  0.00    -0.237 OA
ATOM     82  O   UNL A   1      45.277  39.797  33.592  1.00  0.00    -0.237 OA
ATOM     83  O   UNL A   1      42.854  40.163  33.783  1.00  0.00    -0.744 OA
ENDBRANCH  77  80
ENDBRANCH  59  73
BRANCH  60  84
ATOM     84  C   UNL A   1      42.043  28.468  27.786  1.00  0.00     0.023 A 
ATOM     85  C   UNL A   1      42.081  28.790  26.415  1.00  0.00     0.012 A 
ATOM     86  C   UNL A   1      41.793  27.137  28.171  1.00  0.00     0.148 A 
ATOM     87  C   UNL A   1      41.838  27.814  25.448  1.00  0.00     0.002 A 
ATOM     88  C   UNL A   1      41.608  26.158  27.202  1.00  0.00     0.091 A 
ATOM     89  F   UNL A   1      41.739  26.853  29.480  1.00  0.00    -0.205 F 
ATOM     90  C   UNL A   1      41.612  26.497  25.840  1.00  0.00     0.022 A 
BRANCH  88  91
ATOM     91  S   UNL A   1      41.440  24.419  27.616  1.00  0.00     0.127 S 
ATOM     92  O   UNL A   1      41.763  23.776  26.345  1.00  0.00    -0.237 OA
ATOM     93  O   UNL A   1      42.448  24.257  28.663  1.00  0.00    -0.237 OA
ATOM     94  O   UNL A   1      40.068  24.258  28.078  1.00  0.00    -0.744 OA
ENDBRANCH  88  91
ENDBRANCH  60  84
BRANCH  72  95
ATOM     95  C   UNL A   1      47.781  31.088  30.780  1.00  0.00     0.023 A 
ATOM     96  C   UNL A   1      48.565  31.820  29.866  1.00  0.00     0.012 A 
ATOM     97  C   UNL A   1      48.398  30.118  31.597  1.00  0.00     0.148 A 
ATOM     98  C   UNL A   1      49.931  31.570  29.744  1.00  0.00     0.002 A 
ATOM     99  C   UNL A   1      49.769  29.910  31.504  1.00  0.00     0.091 A 
ATOM    100  F   UNL A   1      47.634  29.420  32.448  1.00  0.00    -0.205 F 
ATOM    101  C   UNL A   1      50.535  30.625  30.569  1.00  0.00     0.022 A 
BRANCH  99 102
ATOM    102  S   UNL A   1      50.648  28.782  32.592  1.00  0.00     0.127 S 
ATOM    103  O   UNL A   1      50.216  29.243  33.911  1.00  0.00    -0.237 OA
ATOM    104  O   UNL A   1      50.107  27.482  32.194  1.00  0.00    -0.237 OA
ATOM    105  O   UNL A   1      52.064  28.962  32.298  1.00  0.00    -0.744 OA
ENDBRANCH  99 102
ENDBRANCH  72  95
ENDBRANCH  46  47
ENDBRANCH  39  41
ENDBRANCH  38  39
ENDBRANCH  37  38
ENDBRANCH  36  37
ENDBRANCH  35  36
ENDBRANCH  34  35
ENDBRANCH  33  34
ENDBRANCH   1  33
TORSDOF 27
ENDMDL
MODEL 3
REMARK VINA RESULT:      -7.8      5.300     11.475
REMARK SMILES CCCCCCNC(=O)Oc1cccc(-c2ccc([C@@H](C)C(=O)OCCOCCOC(=O)c3ccc(-c4c5nc(c(-c6cccc(S(=O)(=O)[O-])c6F)c6ccc([nH]6)c(-c6cccc(S(=O)(=O)[O-])c6F)c6nc(c(-c7cccc(S(=O)(=O)[O-])c7F)c7ccc4[nH]7)C=C6)C=C5)cc3)cc2C(F)(F)F)c1
REMARK SMILES IDX 24 1 22 2 23 3 20 4 21 5 19 6 16 7 17 8 97 9 18 10 96 11
REMARK SMILES IDX 15 12 11 13 12 14 102 15 13 16 14 17 10 18 8 19 7 20 9 22
REMARK SMILES IDX 6 23 5 24 4 25 3 26 2 27 1 28 98 29 99 30 100 31 101 32
REMARK SMILES IDX 25 33 26 34 27 35 28 36 29 37 30 38 31 39 32 40 33 41 34 42
REMARK SMILES IDX 95 43 35 44 94 45 36 46 37 47 38 48 88 49 39 50 93 51 87 52
REMARK SMILES IDX 89 53 40 54 92 55 86 56 85 57 41 59 73 60 53 61 72 62 54 63
REMARK SMILES IDX 57 64 71 65 90 66 55 67 56 68 70 70 91 71 58 72 42 73 43 74
REMARK SMILES IDX 51 75 44 76 46 77 52 78 45 79 47 80 48 81 49 82 50 83 74 84
REMARK SMILES IDX 75 85 83 86 76 87 78 88 84 89 77 90 79 91 80 92 81 93 82 94
REMARK SMILES IDX 59 95 60 96 68 97 61 98 63 99 69 100 62 101 64 102 65 103
REMARK SMILES IDX 66 104 67 105
REMARK H PARENT 7 21 89 58 57 69
REMARK Flexibility Score: inf
ROOT
ATOM      1  O   UNL A   1      33.912  33.981  29.331  1.00  0.00    -0.463 OA
ENDROOT
BRANCH   1   2
ATOM      2  C   UNL A   1      34.558  33.427  28.274  1.00  0.00     0.313 C 
ATOM      3  O   UNL A   1      34.976  34.058  27.305  1.00  0.00    -0.252 OA
BRANCH   2   4
ATOM      4  C   UNL A   1      34.716  31.919  28.368  1.00  0.00     0.126 C 
ATOM      5  C   UNL A   1      36.159  31.542  28.046  1.00  0.00     0.025 C 
BRANCH   4   6
ATOM      6  C   UNL A   1      33.719  31.037  27.622  1.00  0.00    -0.033 A 
ATOM      7  C   UNL A   1      32.038  29.403  25.973  1.00  0.00    -0.006 A 
ATOM      8  C   UNL A   1      31.629  30.672  26.437  1.00  0.00     0.009 A 
ATOM      9  C   UNL A   1      33.303  28.933  26.383  1.00  0.00     0.064 A 
ATOM     10  C   UNL A   1      32.454  31.478  27.235  1.00  0.00     0.005 A 
ATOM     11  C   UNL A   1      34.108  29.750  27.217  1.00  0.00     0.018 A 
BRANCH   7  12
ATOM     12  C   UNL A   1      31.170  28.688  25.013  1.00  0.00    -0.014 A 
ATOM     13  C   UNL A   1      30.130  26.674  24.140  1.00  0.00     0.133 A 
ATOM     14  C   UNL A   1      29.640  27.370  23.036  1.00  0.00     0.047 A 
ATOM     15  C   UNL A   1      30.876  27.320  25.133  1.00  0.00     0.056 A 
ATOM     16  C   UNL A   1      29.887  28.732  22.924  1.00  0.00     0.004 A 
ATOM     17  C   UNL A   1      30.651  29.381  23.899  1.00  0.00     0.009 A 
BRANCH  13  18
ATOM     18  O   UNL A   1      29.969  25.276  24.108  1.00  0.00    -0.410 OA
BRANCH  18  19
ATOM     19  C   UNL A   1      31.016  24.461  23.712  1.00  0.00     0.412 C 
ATOM     20  N   UNL A   1      31.320  23.493  24.627  1.00  0.00    -0.321 N 
ATOM     21  H   UNL A   1      32.080  22.905  24.407  1.00  0.00     0.167 HD
ATOM     22  O   UNL A   1      31.642  24.553  22.659  1.00  0.00    -0.224 OA
BRANCH  20  23
ATOM     23  C   UNL A   1      30.648  23.236  25.886  1.00  0.00     0.119 C 
BRANCH  23  24
ATOM     24  C   UNL A   1      31.573  23.460  27.085  1.00  0.00     0.021 C 
BRANCH  24  25
ATOM     25  C   UNL A   1      32.822  22.570  27.112  1.00  0.00     0.002 C 
BRANCH  25  26
ATOM     26  C   UNL A   1      34.151  23.288  26.855  1.00  0.00    -0.000 C 
BRANCH  26  27
ATOM     27  C   UNL A   1      34.789  23.021  25.490  1.00  0.00    -0.003 C 
ATOM     28  C   UNL A   1      35.801  24.080  25.080  1.00  0.00     0.004 C 
ENDBRANCH  26  27
ENDBRANCH  25  26
ENDBRANCH  24  25
ENDBRANCH  23  24
ENDBRANCH  20  23
ENDBRANCH  18  19
ENDBRANCH  13  18
ENDBRANCH   7  12
BRANCH   9  29
ATOM     29  C   UNL A   1      33.884  27.592  25.983  1.00  0.00     0.417 C 
ATOM     30  F   UNL A   1      35.153  27.419  26.466  1.00  0.00    -0.166 F 
ATOM     31  F   UNL A   1      33.165  26.554  26.499  1.00  0.00    -0.166 F 
ATOM     32  F   UNL A   1      33.990  27.353  24.650  1.00  0.00    -0.166 F 
ENDBRANCH   9  29
ENDBRANCH   4   6
ENDBRANCH   2   4
ENDBRANCH   1   2
BRANCH   1  33
ATOM     33  C   UNL A   1      32.903  34.956  29.015  1.00  0.00     0.261 C 
BRANCH  33  34
ATOM     34  C   UNL A   1      33.271  36.336  29.564  1.00  0.00     0.202 C 
BRANCH  34  35
ATOM     35  O   UNL A   1      32.557  36.776  30.719  1.00  0.00    -0.374 OA
BRANCH  35  36
ATOM     36  C   UNL A   1      33.288  37.482  31.720  1.00  0.00     0.202 C 
BRANCH  36  37
ATOM     37  C   UNL A   1      33.420  36.819  33.097  1.00  0.00     0.261 C 
BRANCH  37  38
ATOM     38  O   UNL A   1      34.517  35.892  33.167  1.00  0.00    -0.460 OA
BRANCH  38  39
ATOM     39  C   UNL A   1      34.199  34.623  32.814  1.00  0.00     0.338 C 
ATOM     40  O   UNL A   1      33.079  34.159  32.675  1.00  0.00    -0.246 OA
BRANCH  39  41
ATOM     41  C   UNL A   1      35.408  33.879  32.411  1.00  0.00     0.060 A 
ATOM     42  C   UNL A   1      35.554  32.583  32.922  1.00  0.00     0.016 A 
ATOM     43  C   UNL A   1      36.421  34.456  31.642  1.00  0.00     0.016 A 
ATOM     44  C   UNL A   1      36.744  31.887  32.732  1.00  0.00     0.010 A 
ATOM     45  C   UNL A   1      37.619  33.754  31.454  1.00  0.00     0.010 A 
ATOM     46  C   UNL A   1      37.804  32.488  32.042  1.00  0.00    -0.014 A 
BRANCH  46  47
ATOM     47  C   UNL A   1      39.143  31.851  32.098  1.00  0.00     0.031 A 
ATOM     48  C   UNL A   1      40.058  32.172  33.252  1.00  0.00     0.074 A 
ATOM     49  C   UNL A   1      39.521  30.951  31.171  1.00  0.00     0.049 A 
ATOM     50  N   UNL A   1      41.242  31.691  33.529  1.00  0.00    -0.248 NA
ATOM     51  C   UNL A   1      39.572  33.162  34.227  1.00  0.00     0.031 C 
ATOM     52  C   UNL A   1      38.725  30.547  30.013  1.00  0.00     0.029 A 
ATOM     53  N   UNL A   1      40.677  30.219  31.057  1.00  0.00    -0.354 N 
ATOM     54  C   UNL A   1      41.652  32.333  34.691  1.00  0.00     0.074 A 
ATOM     55  C   UNL A   1      40.599  33.253  35.059  1.00  0.00     0.031 C 
ATOM     56  C   UNL A   1      39.424  29.652  29.294  1.00  0.00     0.029 A 
ATOM     57  C   UNL A   1      40.722  29.432  29.931  1.00  0.00     0.049 A 
ATOM     58  H   UNL A   1      41.405  30.256  31.719  1.00  0.00     0.167 HD
ATOM     59  C   UNL A   1      42.789  32.158  35.404  1.00  0.00     0.034 A 
ATOM     60  C   UNL A   1      41.703  28.634  29.463  1.00  0.00     0.034 A 
ATOM     61  C   UNL A   1      43.825  31.223  35.056  1.00  0.00     0.049 A 
ATOM     62  C   UNL A   1      42.970  28.475  30.263  1.00  0.00     0.074 A 
ATOM     63  C   UNL A   1      44.995  30.942  35.740  1.00  0.00     0.029 A 
ATOM     64  N   UNL A   1      43.823  30.424  33.924  1.00  0.00    -0.354 N 
ATOM     65  N   UNL A   1      43.286  28.997  31.425  1.00  0.00    -0.248 NA
ATOM     66  C   UNL A   1      44.003  27.588  29.707  1.00  0.00     0.031 C 
ATOM     67  C   UNL A   1      45.713  29.991  35.008  1.00  0.00     0.029 A 
ATOM     68  C   UNL A   1      44.976  29.660  33.882  1.00  0.00     0.049 A 
ATOM     69  H   UNL A   1      43.107  30.404  33.249  1.00  0.00     0.167 HD
ATOM     70  C   UNL A   1      44.533  28.475  31.753  1.00  0.00     0.074 A 
ATOM     71  C   UNL A   1      44.905  27.577  30.679  1.00  0.00     0.031 C 
ATOM     72  C   UNL A   1      45.309  28.727  32.836  1.00  0.00     0.034 A 
BRANCH  59  73
ATOM     73  C   UNL A   1      42.963  32.973  36.659  1.00  0.00     0.023 A 
ATOM     74  C   UNL A   1      43.461  34.289  36.569  1.00  0.00     0.012 A 
ATOM     75  C   UNL A   1      42.576  32.463  37.914  1.00  0.00     0.148 A 
ATOM     76  C   UNL A   1      43.596  35.076  37.712  1.00  0.00     0.002 A 
ATOM     77  C   UNL A   1      42.675  33.268  39.043  1.00  0.00     0.091 A 
ATOM     78  F   UNL A   1      42.126  31.203  37.980  1.00  0.00    -0.205 F 
ATOM     79  C   UNL A   1      43.193  34.571  38.945  1.00  0.00     0.022 A 
BRANCH  77  80
ATOM     80  S   UNL A   1      42.111  32.738  40.664  1.00  0.00     0.127 S 
ATOM     81  O   UNL A   1      40.755  32.279  40.370  1.00  0.00    -0.237 OA
ATOM     82  O   UNL A   1      43.059  31.671  40.985  1.00  0.00    -0.237 OA
ATOM     83  O   UNL A   1      42.201  33.909  41.524  1.00  0.00    -0.744 OA
ENDBRANCH  77  80
ENDBRANCH  59  73
BRANCH  60  84
ATOM     84  C   UNL A   1      41.517  27.890  28.184  1.00  0.00     0.023 A 
ATOM     85  C   UNL A   1      41.922  28.477  26.969  1.00  0.00     0.012 A 
ATOM     86  C   UNL A   1      40.938  26.607  28.166  1.00  0.00     0.148 A 
ATOM     87  C   UNL A   1      41.722  27.814  25.757  1.00  0.00     0.002 A 
ATOM     88  C   UNL A   1      40.794  25.928  26.962  1.00  0.00     0.091 A 
ATOM     89  F   UNL A   1      40.539  26.073  29.329  1.00  0.00    -0.205 F 
ATOM     90  C   UNL A   1      41.169  26.536  25.754  1.00  0.00     0.022 A 
BRANCH  88  91
ATOM     91  S   UNL A   1      40.211  24.231  26.882  1.00  0.00     0.127 S 
ATOM     92  O   UNL A   1      41.417  23.518  26.470  1.00  0.00    -0.237 OA
ATOM     93  O   UNL A   1      39.792  23.988  28.262  1.00  0.00    -0.237 OA
ATOM     94  O   UNL A   1      39.118  24.239  25.919  1.00  0.00    -0.744 OA
ENDBRANCH  88  91
ENDBRANCH  60  84
BRANCH  72  95
ATOM     95  C   UNL A   1      46.626  28.002  32.940  1.00  0.00     0.023 A 
ATOM     96  C   UNL A   1      47.776  28.548  32.336  1.00  0.00     0.012 A 
ATOM     97  C   UNL A   1      46.740  26.820  33.699  1.00  0.00     0.148 A 
ATOM     98  C   UNL A   1      49.010  27.912  32.456  1.00  0.00     0.002 A 
ATOM     99  C   UNL A   1      47.984  26.218  33.855  1.00  0.00     0.091 A 
ATOM    100  F   UNL A   1      45.634  26.306  34.254  1.00  0.00    -0.205 F 
ATOM    101  C   UNL A   1      49.117  26.755  33.224  1.00  0.00     0.022 A 
BRANCH  99 102
ATOM    102  S   UNL A   1      48.233  24.780  34.904  1.00  0.00     0.127 S 
ATOM    103  O   UNL A   1      49.673  24.838  35.151  1.00  0.00    -0.237 OA
ATOM    104  O   UNL A   1      47.402  25.095  36.066  1.00  0.00    -0.237 OA
ATOM    105  O   UNL A   1      47.776  23.634  34.128  1.00  0.00    -0.744 OA
ENDBRANCH  99 102
ENDBRANCH  72  95
ENDBRANCH  46  47
ENDBRANCH  39  41
ENDBRANCH  38  39
ENDBRANCH  37  38
ENDBRANCH  36  37
ENDBRANCH  35  36
ENDBRANCH  34  35
ENDBRANCH  33  34
ENDBRANCH   1  33
TORSDOF 27
ENDMDL
