MODEL 1
REMARK VINA RESULT:      -7.8      0.000      0.000
REMARK SMILES CCOc1ccc(N2C[C@H](C(=O)OCCOCCOC(=O)c3ccc(-c4c5nc(c(-c6cccc(S(=O)(=O)[O-])c6F)c6ccc([nH]6)c(-c6cccc(S(=O)(=O)[O-])c6F)c6nc(c(-c7cccc(S(=O)(=O)[O-])c7F)c7ccc4[nH]7)C=C6)C=C5)cc3)CC2=O)cc1C(F)(F)F
REMARK SMILES IDX 16 1 15 2 14 3 13 4 11 5 12 6 10 7 8 8 9 9 86 10 85 11 87 12
REMARK SMILES IDX 7 13 4 14 5 15 89 16 6 17 88 18 3 19 2 20 1 21 90 22 91 23
REMARK SMILES IDX 92 24 93 25 17 26 18 27 19 28 20 29 21 30 22 31 23 32 84 33
REMARK SMILES IDX 24 34 83 35 25 36 26 37 27 38 77 39 28 40 82 41 76 42 78 43
REMARK SMILES IDX 29 44 81 45 75 46 74 47 30 49 62 50 42 51 61 52 43 53 46 54
REMARK SMILES IDX 60 55 79 56 44 57 45 58 59 60 80 61 47 62 31 63 32 64 40 65
REMARK SMILES IDX 33 66 35 67 41 68 34 69 36 70 37 71 38 72 39 73 63 74 64 75
REMARK SMILES IDX 72 76 65 77 67 78 73 79 66 80 68 81 69 82 70 83 71 84 48 85
REMARK SMILES IDX 49 86 57 87 50 88 52 89 58 90 51 91 53 92 54 93 55 94 56 95
REMARK H PARENT 78 48 46 59
REMARK Flexibility Score: inf
ROOT
ATOM      1  O   UNL A   1      51.414  19.542  35.978  1.00  0.00    -0.374 OA
ENDROOT
BRANCH   1   2
ATOM      2  C   UNL A   1      51.008  20.458  36.996  1.00  0.00     0.202 C 
BRANCH   2   3
ATOM      3  C   UNL A   1      50.487  19.838  38.296  1.00  0.00     0.261 C 
BRANCH   3   4
ATOM      4  O   UNL A   1      49.054  19.692  38.280  1.00  0.00    -0.463 OA
BRANCH   4   5
ATOM      5  C   UNL A   1      48.374  20.348  39.251  1.00  0.00     0.311 C 
ATOM      6  O   UNL A   1      48.858  20.764  40.298  1.00  0.00    -0.252 OA
BRANCH   5   7
ATOM      7  C   UNL A   1      46.909  20.510  38.933  1.00  0.00     0.128 C 
ATOM      8  N   UNL A   1      46.062  21.242  36.849  1.00  0.00    -0.312 N 
ATOM      9  C   UNL A   1      46.548  21.735  38.110  1.00  0.00     0.141 C 
ATOM     10  C   UNL A   1      46.029  19.847  36.809  1.00  0.00     0.227 C 
ATOM     11  C   UNL A   1      46.406  19.309  38.159  1.00  0.00     0.117 C 
ATOM     12  O   UNL A   1      45.716  19.116  35.882  1.00  0.00    -0.274 OA
BRANCH   8  13
ATOM     13  C   UNL A   1      45.601  22.100  35.815  1.00  0.00     0.044 A 
ATOM     14  C   UNL A   1      44.629  23.817  33.798  1.00  0.00     0.131 A 
ATOM     15  C   UNL A   1      45.808  23.095  33.601  1.00  0.00     0.049 A 
ATOM     16  C   UNL A   1      43.920  23.696  34.991  1.00  0.00     0.100 A 
ATOM     17  C   UNL A   1      46.304  22.260  34.613  1.00  0.00     0.030 A 
ATOM     18  C   UNL A   1      44.423  22.837  35.985  1.00  0.00     0.043 A 
BRANCH  14  19
ATOM     19  O   UNL A   1      44.089  24.531  32.768  1.00  0.00    -0.493 OA
BRANCH  19  20
ATOM     20  C   UNL A   1      44.736  24.333  31.509  1.00  0.00     0.226 C 
ATOM     21  C   UNL A   1      43.680  24.183  30.428  1.00  0.00     0.049 C 
ENDBRANCH  19  20
ENDBRANCH  14  19
BRANCH  16  22
ATOM     22  C   UNL A   1      42.691  24.510  35.295  1.00  0.00     0.420 C 
ATOM     23  F   UNL A   1      42.715  25.083  36.532  1.00  0.00    -0.166 F 
ATOM     24  F   UNL A   1      42.567  25.559  34.426  1.00  0.00    -0.166 F 
ATOM     25  F   UNL A   1      41.513  23.834  35.229  1.00  0.00    -0.166 F 
ENDBRANCH  16  22
ENDBRANCH   8  13
ENDBRANCH   5   7
ENDBRANCH   4   5
ENDBRANCH   3   4
ENDBRANCH   2   3
ENDBRANCH   1   2
BRANCH   1  26
ATOM     26  C   UNL A   1      52.804  19.248  35.868  1.00  0.00     0.202 C 
BRANCH  26  27
ATOM     27  C   UNL A   1      53.435  19.400  34.477  1.00  0.00     0.261 C 
BRANCH  27  28
ATOM     28  O   UNL A   1      53.895  20.739  34.216  1.00  0.00    -0.460 OA
BRANCH  28  29
ATOM     29  C   UNL A   1      53.336  21.311  33.118  1.00  0.00     0.338 C 
ATOM     30  O   UNL A   1      53.542  21.006  31.955  1.00  0.00    -0.246 OA
BRANCH  29  31
ATOM     31  C   UNL A   1      52.286  22.280  33.493  1.00  0.00     0.060 A 
ATOM     32  C   UNL A   1      50.968  21.806  33.512  1.00  0.00     0.016 A 
ATOM     33  C   UNL A   1      52.554  23.634  33.701  1.00  0.00     0.016 A 
ATOM     34  C   UNL A   1      49.908  22.696  33.666  1.00  0.00     0.010 A 
ATOM     35  C   UNL A   1      51.483  24.529  33.854  1.00  0.00     0.010 A 
ATOM     36  C   UNL A   1      50.155  24.071  33.788  1.00  0.00    -0.014 A 
BRANCH  36  37
ATOM     37  C   UNL A   1      49.008  25.010  33.693  1.00  0.00     0.031 A 
ATOM     38  C   UNL A   1      48.586  25.525  32.340  1.00  0.00     0.074 A 
ATOM     39  C   UNL A   1      48.302  25.348  34.788  1.00  0.00     0.049 A 
ATOM     40  N   UNL A   1      47.550  26.257  32.019  1.00  0.00    -0.248 NA
ATOM     41  C   UNL A   1      49.438  25.160  31.196  1.00  0.00     0.031 C 
ATOM     42  C   UNL A   1      48.607  24.923  36.153  1.00  0.00     0.029 A 
ATOM     43  N   UNL A   1      47.179  26.126  34.920  1.00  0.00    -0.354 N 
ATOM     44  C   UNL A   1      47.630  26.449  30.645  1.00  0.00     0.074 A 
ATOM     45  C   UNL A   1      48.829  25.778  30.194  1.00  0.00     0.031 C 
ATOM     46  C   UNL A   1      47.697  25.454  36.988  1.00  0.00     0.029 A 
ATOM     47  C   UNL A   1      46.747  26.256  36.218  1.00  0.00     0.049 A 
ATOM     48  H   UNL A   1      46.726  26.552  34.156  1.00  0.00     0.167 HD
ATOM     49  C   UNL A   1      46.769  27.099  29.824  1.00  0.00     0.034 A 
ATOM     50  C   UNL A   1      45.703  26.940  36.727  1.00  0.00     0.034 A 
ATOM     51  C   UNL A   1      45.565  27.751  30.264  1.00  0.00     0.049 A 
ATOM     52  C   UNL A   1      44.767  27.664  35.792  1.00  0.00     0.074 A 
ATOM     53  C   UNL A   1      44.615  28.409  29.503  1.00  0.00     0.029 A 
ATOM     54  N   UNL A   1      45.146  27.833  31.583  1.00  0.00    -0.354 N 
ATOM     55  N   UNL A   1      44.786  27.719  34.483  1.00  0.00    -0.248 NA
ATOM     56  C   UNL A   1      43.642  28.384  36.407  1.00  0.00     0.031 C 
ATOM     57  C   UNL A   1      43.626  28.898  30.363  1.00  0.00     0.029 A 
ATOM     58  C   UNL A   1      43.953  28.531  31.659  1.00  0.00     0.049 A 
ATOM     59  H   UNL A   1      45.626  27.450  32.352  1.00  0.00     0.167 HD
ATOM     60  C   UNL A   1      43.657  28.447  34.115  1.00  0.00     0.074 A 
ATOM     61  C   UNL A   1      42.965  28.789  35.341  1.00  0.00     0.031 C 
ATOM     62  C   UNL A   1      43.240  28.813  32.878  1.00  0.00     0.034 A 
BRANCH  49  63
ATOM     63  C   UNL A   1      47.074  27.091  28.349  1.00  0.00     0.023 A 
ATOM     64  C   UNL A   1      47.878  28.113  27.807  1.00  0.00     0.012 A 
ATOM     65  C   UNL A   1      46.621  26.052  27.514  1.00  0.00     0.148 A 
ATOM     66  C   UNL A   1      48.205  28.118  26.452  1.00  0.00     0.002 A 
ATOM     67  C   UNL A   1      46.981  26.043  26.170  1.00  0.00     0.091 A 
ATOM     68  F   UNL A   1      45.838  25.100  28.042  1.00  0.00    -0.205 F 
ATOM     69  C   UNL A   1      47.766  27.080  25.637  1.00  0.00     0.022 A 
BRANCH  67  70
ATOM     70  S   UNL A   1      46.522  24.713  25.054  1.00  0.00     0.127 S 
ATOM     71  O   UNL A   1      47.420  24.953  23.925  1.00  0.00    -0.237 OA
ATOM     72  O   UNL A   1      46.841  23.522  25.842  1.00  0.00    -0.237 OA
ATOM     73  O   UNL A   1      45.104  24.895  24.777  1.00  0.00    -0.744 OA
ENDBRANCH  67  70
ENDBRANCH  49  63
BRANCH  50  74
ATOM     74  C   UNL A   1      45.439  26.917  38.194  1.00  0.00     0.023 A 
ATOM     75  C   UNL A   1      44.810  25.795  38.768  1.00  0.00     0.012 A 
ATOM     76  C   UNL A   1      45.809  27.995  39.022  1.00  0.00     0.148 A 
ATOM     77  C   UNL A   1      44.526  25.760  40.134  1.00  0.00     0.002 A 
ATOM     78  C   UNL A   1      45.570  27.930  40.389  1.00  0.00     0.091 A 
ATOM     79  F   UNL A   1      46.385  29.064  38.454  1.00  0.00    -0.205 F 
ATOM     80  C   UNL A   1      44.915  26.822  40.946  1.00  0.00     0.022 A 
BRANCH  78  81
ATOM     81  S   UNL A   1      46.149  29.198  41.523  1.00  0.00     0.127 S 
ATOM     82  O   UNL A   1      45.185  30.270  41.290  1.00  0.00    -0.237 OA
ATOM     83  O   UNL A   1      46.024  28.529  42.819  1.00  0.00    -0.237 OA
ATOM     84  O   UNL A   1      47.522  29.475  41.124  1.00  0.00    -0.744 OA
ENDBRANCH  78  81
ENDBRANCH  50  74
BRANCH  62  85
ATOM     85  C   UNL A   1      41.960  29.602  32.777  1.00  0.00     0.023 A 
ATOM     86  C   UNL A   1      41.998  31.008  32.855  1.00  0.00     0.012 A 
ATOM     87  C   UNL A   1      40.728  28.956  32.543  1.00  0.00     0.148 A 
ATOM     88  C   UNL A   1      40.827  31.757  32.739  1.00  0.00     0.002 A 
ATOM     89  C   UNL A   1      39.572  29.713  32.384  1.00  0.00     0.091 A 
ATOM     90  F   UNL A   1      40.705  27.616  32.491  1.00  0.00    -0.205 F 
ATOM     91  C   UNL A   1      39.618  31.112  32.492  1.00  0.00     0.022 A 
BRANCH  89  92
ATOM     92  S   UNL A   1      37.992  28.963  31.974  1.00  0.00     0.127 S 
ATOM     93  O   UNL A   1      37.667  28.253  33.209  1.00  0.00    -0.237 OA
ATOM     94  O   UNL A   1      37.150  30.128  31.701  1.00  0.00    -0.237 OA
ATOM     95  O   UNL A   1      38.245  28.123  30.810  1.00  0.00    -0.744 OA
ENDBRANCH  89  92
ENDBRANCH  62  85
ENDBRANCH  36  37
ENDBRANCH  29  31
ENDBRANCH  28  29
ENDBRANCH  27  28
ENDBRANCH  26  27
ENDBRANCH   1  26
TORSDOF 21
ENDMDL
MODEL 2
REMARK VINA RESULT:      -7.6      5.002     14.031
REMARK SMILES CCOc1ccc(N2C[C@H](C(=O)OCCOCCOC(=O)c3ccc(-c4c5nc(c(-c6cccc(S(=O)(=O)[O-])c6F)c6ccc([nH]6)c(-c6cccc(S(=O)(=O)[O-])c6F)c6nc(c(-c7cccc(S(=O)(=O)[O-])c7F)c7ccc4[nH]7)C=C6)C=C5)cc3)CC2=O)cc1C(F)(F)F
REMARK SMILES IDX 16 1 15 2 14 3 13 4 11 5 12 6 10 7 8 8 9 9 86 10 85 11 87 12
REMARK SMILES IDX 7 13 4 14 5 15 89 16 6 17 88 18 3 19 2 20 1 21 90 22 91 23
REMARK SMILES IDX 92 24 93 25 17 26 18 27 19 28 20 29 21 30 22 31 23 32 84 33
REMARK SMILES IDX 24 34 83 35 25 36 26 37 27 38 77 39 28 40 82 41 76 42 78 43
REMARK SMILES IDX 29 44 81 45 75 46 74 47 30 49 62 50 42 51 61 52 43 53 46 54
REMARK SMILES IDX 60 55 79 56 44 57 45 58 59 60 80 61 47 62 31 63 32 64 40 65
REMARK SMILES IDX 33 66 35 67 41 68 34 69 36 70 37 71 38 72 39 73 63 74 64 75
REMARK SMILES IDX 72 76 65 77 67 78 73 79 66 80 68 81 69 82 70 83 71 84 48 85
REMARK SMILES IDX 49 86 57 87 50 88 52 89 58 90 51 91 53 92 54 93 55 94 56 95
REMARK H PARENT 78 48 46 59
REMARK Flexibility Score: inf
ROOT
ATOM      1  O   UNL A   1      33.137  34.740  30.065  1.00  0.00    -0.374 OA
ENDROOT
BRANCH   1   2
ATOM      2  C   UNL A   1      33.153  35.687  31.135  1.00  0.00     0.202 C 
BRANCH   2   3
ATOM      3  C   UNL A   1      33.488  35.135  32.523  1.00  0.00     0.261 C 
BRANCH   3   4
ATOM      4  O   UNL A   1      33.711  33.712  32.493  1.00  0.00    -0.463 OA
BRANCH   4   5
ATOM      5  C   UNL A   1      34.909  33.284  32.957  1.00  0.00     0.311 C 
ATOM      6  O   UNL A   1      35.385  32.169  32.774  1.00  0.00    -0.252 OA
BRANCH   5   7
ATOM      7  C   UNL A   1      35.629  34.331  33.770  1.00  0.00     0.128 C 
ATOM      8  N   UNL A   1      37.021  33.868  35.626  1.00  0.00    -0.312 N 
ATOM      9  C   UNL A   1      35.646  34.100  35.272  1.00  0.00     0.141 C 
ATOM     10  C   UNL A   1      37.872  33.980  34.525  1.00  0.00     0.227 C 
ATOM     11  C   UNL A   1      37.076  34.430  33.334  1.00  0.00     0.117 C 
ATOM     12  O   UNL A   1      39.078  33.800  34.470  1.00  0.00    -0.274 OA
BRANCH   8  13
ATOM     13  C   UNL A   1      37.441  33.635  36.962  1.00  0.00     0.044 A 
ATOM     14  C   UNL A   1      38.228  33.121  39.623  1.00  0.00     0.131 A 
ATOM     15  C   UNL A   1      38.806  34.172  38.907  1.00  0.00     0.049 A 
ATOM     16  C   UNL A   1      37.257  32.317  39.032  1.00  0.00     0.100 A 
ATOM     17  C   UNL A   1      38.432  34.412  37.576  1.00  0.00     0.030 A 
ATOM     18  C   UNL A   1      36.881  32.587  37.703  1.00  0.00     0.043 A 
BRANCH  14  19
ATOM     19  O   UNL A   1      38.507  32.969  40.950  1.00  0.00    -0.493 OA
BRANCH  19  20
ATOM     20  C   UNL A   1      39.656  33.691  41.399  1.00  0.00     0.226 C 
ATOM     21  C   UNL A   1      40.831  32.734  41.504  1.00  0.00     0.049 C 
ENDBRANCH  19  20
ENDBRANCH  14  19
BRANCH  16  22
ATOM     22  C   UNL A   1      36.659  31.120  39.722  1.00  0.00     0.420 C 
ATOM     23  F   UNL A   1      36.283  30.133  38.861  1.00  0.00    -0.166 F 
ATOM     24  F   UNL A   1      37.566  30.529  40.557  1.00  0.00    -0.166 F 
ATOM     25  F   UNL A   1      35.564  31.375  40.487  1.00  0.00    -0.166 F 
ENDBRANCH  16  22
ENDBRANCH   8  13
ENDBRANCH   5   7
ENDBRANCH   4   5
ENDBRANCH   3   4
ENDBRANCH   2   3
ENDBRANCH   1   2
BRANCH   1  26
ATOM     26  C   UNL A   1      34.334  34.575  29.311  1.00  0.00     0.202 C 
BRANCH  26  27
ATOM     27  C   UNL A   1      34.431  33.318  28.433  1.00  0.00     0.261 C 
BRANCH  27  28
ATOM     28  O   UNL A   1      34.957  32.182  29.143  1.00  0.00    -0.460 OA
BRANCH  28  29
ATOM     29  C   UNL A   1      34.842  31.008  28.468  1.00  0.00     0.338 C 
ATOM     30  O   UNL A   1      33.888  30.643  27.800  1.00  0.00    -0.246 OA
BRANCH  29  31
ATOM     31  C   UNL A   1      36.108  30.247  28.494  1.00  0.00     0.060 A 
ATOM     32  C   UNL A   1      36.402  29.550  29.672  1.00  0.00     0.016 A 
ATOM     33  C   UNL A   1      37.040  30.305  27.455  1.00  0.00     0.016 A 
ATOM     34  C   UNL A   1      37.656  28.971  29.847  1.00  0.00     0.010 A 
ATOM     35  C   UNL A   1      38.304  29.722  27.635  1.00  0.00     0.010 A 
ATOM     36  C   UNL A   1      38.634  29.095  28.850  1.00  0.00    -0.014 A 
BRANCH  36  37
ATOM     37  C   UNL A   1      40.029  28.693  29.168  1.00  0.00     0.031 A 
ATOM     38  C   UNL A   1      40.779  29.427  30.251  1.00  0.00     0.074 A 
ATOM     39  C   UNL A   1      40.600  27.641  28.553  1.00  0.00     0.049 A 
ATOM     40  N   UNL A   1      41.955  29.169  30.763  1.00  0.00    -0.248 NA
ATOM     41  C   UNL A   1      40.114  30.601  30.839  1.00  0.00     0.031 C 
ATOM     42  C   UNL A   1      39.985  26.851  27.488  1.00  0.00     0.029 A 
ATOM     43  N   UNL A   1      41.827  27.057  28.741  1.00  0.00    -0.354 N 
ATOM     44  C   UNL A   1      42.176  30.150  31.724  1.00  0.00     0.074 A 
ATOM     45  C   UNL A   1      41.023  31.025  31.706  1.00  0.00     0.031 C 
ATOM     46  C   UNL A   1      40.843  25.887  27.110  1.00  0.00     0.029 A 
ATOM     47  C   UNL A   1      42.067  25.995  27.903  1.00  0.00     0.049 A 
ATOM     48  H   UNL A   1      42.476  27.370  29.413  1.00  0.00     0.167 HD
ATOM     49  C   UNL A   1      43.226  30.296  32.566  1.00  0.00     0.034 A 
ATOM     50  C   UNL A   1      43.147  25.196  27.791  1.00  0.00     0.034 A 
ATOM     51  C   UNL A   1      44.365  29.418  32.602  1.00  0.00     0.049 A 
ATOM     52  C   UNL A   1      44.308  25.387  28.734  1.00  0.00     0.074 A 
ATOM     53  C   UNL A   1      45.465  29.467  33.441  1.00  0.00     0.029 A 
ATOM     54  N   UNL A   1      44.556  28.335  31.759  1.00  0.00    -0.354 N 
ATOM     55  N   UNL A   1      44.438  26.236  29.725  1.00  0.00    -0.248 NA
ATOM     56  C   UNL A   1      45.454  24.480  28.569  1.00  0.00     0.031 C 
ATOM     57  C   UNL A   1      46.326  28.419  33.098  1.00  0.00     0.029 A 
ATOM     58  C   UNL A   1      45.754  27.708  32.055  1.00  0.00     0.049 A 
ATOM     59  H   UNL A   1      43.931  28.051  31.053  1.00  0.00     0.167 HD
ATOM     60  C   UNL A   1      45.660  25.941  30.323  1.00  0.00     0.074 A 
ATOM     61  C   UNL A   1      46.219  24.819  29.598  1.00  0.00     0.031 C 
ATOM     62  C   UNL A   1      46.272  26.553  31.367  1.00  0.00     0.034 A 
BRANCH  49  63
ATOM     63  C   UNL A   1      43.168  31.424  33.562  1.00  0.00     0.023 A 
ATOM     64  C   UNL A   1      43.571  32.714  33.165  1.00  0.00     0.012 A 
ATOM     65  C   UNL A   1      42.665  31.227  34.863  1.00  0.00     0.148 A 
ATOM     66  C   UNL A   1      43.500  33.787  34.053  1.00  0.00     0.002 A 
ATOM     67  C   UNL A   1      42.563  32.308  35.732  1.00  0.00     0.091 A 
ATOM     68  F   UNL A   1      42.308  29.988  35.231  1.00  0.00    -0.205 F 
ATOM     69  C   UNL A   1      42.988  33.586  35.331  1.00  0.00     0.022 A 
BRANCH  67  70
ATOM     70  S   UNL A   1      41.853  32.165  37.375  1.00  0.00     0.127 S 
ATOM     71  O   UNL A   1      42.046  33.517  37.898  1.00  0.00    -0.237 OA
ATOM     72  O   UNL A   1      40.461  31.818  37.083  1.00  0.00    -0.237 OA
ATOM     73  O   UNL A   1      42.609  31.118  38.048  1.00  0.00    -0.744 OA
ENDBRANCH  67  70
ENDBRANCH  49  63
BRANCH  50  74
ATOM     74  C   UNL A   1      43.159  24.091  26.791  1.00  0.00     0.023 A 
ATOM     75  C   UNL A   1      43.876  24.251  25.588  1.00  0.00     0.012 A 
ATOM     76  C   UNL A   1      42.472  22.884  27.024  1.00  0.00     0.148 A 
ATOM     77  C   UNL A   1      43.881  23.243  24.624  1.00  0.00     0.002 A 
ATOM     78  C   UNL A   1      42.526  21.864  26.082  1.00  0.00     0.091 A 
ATOM     79  F   UNL A   1      41.777  22.759  28.163  1.00  0.00    -0.205 F 
ATOM     80  C   UNL A   1      43.215  22.047  24.874  1.00  0.00     0.022 A 
BRANCH  78  81
ATOM     81  S   UNL A   1      41.800  20.248  26.378  1.00  0.00     0.127 S 
ATOM     82  O   UNL A   1      42.342  19.913  27.693  1.00  0.00    -0.237 OA
ATOM     83  O   UNL A   1      40.368  20.549  26.362  1.00  0.00    -0.237 OA
ATOM     84  O   UNL A   1      42.247  19.415  25.271  1.00  0.00    -0.744 OA
ENDBRANCH  78  81
ENDBRANCH  50  74
BRANCH  62  85
ATOM     85  C   UNL A   1      47.605  26.009  31.813  1.00  0.00     0.023 A 
ATOM     86  C   UNL A   1      48.777  26.381  31.126  1.00  0.00     0.012 A 
ATOM     87  C   UNL A   1      47.704  25.179  32.949  1.00  0.00     0.148 A 
ATOM     88  C   UNL A   1      50.023  25.908  31.538  1.00  0.00     0.002 A 
ATOM     89  C   UNL A   1      48.954  24.747  33.380  1.00  0.00     0.091 A 
ATOM     90  F   UNL A   1      46.578  24.817  33.580  1.00  0.00    -0.205 F 
ATOM     91  C   UNL A   1      50.112  25.102  32.670  1.00  0.00     0.022 A 
BRANCH  89  92
ATOM     92  S   UNL A   1      49.162  23.782  34.880  1.00  0.00     0.127 S 
ATOM     93  O   UNL A   1      48.492  24.620  35.872  1.00  0.00    -0.237 OA
ATOM     94  O   UNL A   1      48.458  22.540  34.558  1.00  0.00    -0.237 OA
ATOM     95  O   UNL A   1      50.601  23.626  35.053  1.00  0.00    -0.744 OA
ENDBRANCH  89  92
ENDBRANCH  62  85
ENDBRANCH  36  37
ENDBRANCH  29  31
ENDBRANCH  28  29
ENDBRANCH  27  28
ENDBRANCH  26  27
ENDBRANCH   1  26
TORSDOF 21
ENDMDL
MODEL 3
REMARK VINA RESULT:      -7.5      7.684     12.263
REMARK SMILES CCOc1ccc(N2C[C@H](C(=O)OCCOCCOC(=O)c3ccc(-c4c5nc(c(-c6cccc(S(=O)(=O)[O-])c6F)c6ccc([nH]6)c(-c6cccc(S(=O)(=O)[O-])c6F)c6nc(c(-c7cccc(S(=O)(=O)[O-])c7F)c7ccc4[nH]7)C=C6)C=C5)cc3)CC2=O)cc1C(F)(F)F
REMARK SMILES IDX 16 1 15 2 14 3 13 4 11 5 12 6 10 7 8 8 9 9 86 10 85 11 87 12
REMARK SMILES IDX 7 13 4 14 5 15 89 16 6 17 88 18 3 19 2 20 1 21 90 22 91 23
REMARK SMILES IDX 92 24 93 25 17 26 18 27 19 28 20 29 21 30 22 31 23 32 84 33
REMARK SMILES IDX 24 34 83 35 25 36 26 37 27 38 77 39 28 40 82 41 76 42 78 43
REMARK SMILES IDX 29 44 81 45 75 46 74 47 30 49 62 50 42 51 61 52 43 53 46 54
REMARK SMILES IDX 60 55 79 56 44 57 45 58 59 60 80 61 47 62 31 63 32 64 40 65
REMARK SMILES IDX 33 66 35 67 41 68 34 69 36 70 37 71 38 72 39 73 63 74 64 75
REMARK SMILES IDX 72 76 65 77 67 78 73 79 66 80 68 81 69 82 70 83 71 84 48 85
REMARK SMILES IDX 49 86 57 87 50 88 52 89 58 90 51 91 53 92 54 93 55 94 56 95
REMARK H PARENT 78 48 46 59
REMARK Flexibility Score: inf
ROOT
ATOM      1  O   UNL A   1      38.997  21.387  25.772  1.00  0.00    -0.374 OA
ENDROOT
BRANCH   1   2
ATOM      2  C   UNL A   1      38.092  20.378  25.319  1.00  0.00     0.202 C 
BRANCH   2   3
ATOM      3  C   UNL A   1      36.738  20.868  24.798  1.00  0.00     0.261 C 
BRANCH   3   4
ATOM      4  O   UNL A   1      36.215  21.944  25.599  1.00  0.00    -0.463 OA
BRANCH   4   5
ATOM      5  C   UNL A   1      34.973  21.761  26.109  1.00  0.00     0.311 C 
ATOM      6  O   UNL A   1      34.276  20.767  25.942  1.00  0.00    -0.252 OA
BRANCH   5   7
ATOM      7  C   UNL A   1      34.492  22.943  26.914  1.00  0.00     0.128 C 
ATOM      8  N   UNL A   1      32.814  24.454  26.209  1.00  0.00    -0.312 N 
ATOM      9  C   UNL A   1      34.229  24.213  26.123  1.00  0.00     0.141 C 
ATOM     10  C   UNL A   1      32.168  23.507  27.007  1.00  0.00     0.227 C 
ATOM     11  C   UNL A   1      33.196  22.601  27.621  1.00  0.00     0.117 C 
ATOM     12  O   UNL A   1      30.976  23.395  27.247  1.00  0.00    -0.274 OA
BRANCH   8  13
ATOM     13  C   UNL A   1      32.188  25.577  25.607  1.00  0.00     0.044 A 
ATOM     14  C   UNL A   1      30.977  27.852  24.456  1.00  0.00     0.131 A 
ATOM     15  C   UNL A   1      30.641  26.572  24.009  1.00  0.00     0.049 A 
ATOM     16  C   UNL A   1      31.911  28.019  25.475  1.00  0.00     0.100 A 
ATOM     17  C   UNL A   1      31.261  25.442  24.564  1.00  0.00     0.030 A 
ATOM     18  C   UNL A   1      32.506  26.872  26.033  1.00  0.00     0.043 A 
BRANCH  14  19
ATOM     19  O   UNL A   1      30.284  28.935  23.998  1.00  0.00    -0.493 OA
BRANCH  19  20
ATOM     20  C   UNL A   1      30.547  29.270  22.634  1.00  0.00     0.226 C 
ATOM     21  C   UNL A   1      29.355  30.025  22.071  1.00  0.00     0.049 C 
ENDBRANCH  19  20
ENDBRANCH  14  19
BRANCH  16  22
ATOM     22  C   UNL A   1      32.375  29.372  25.941  1.00  0.00     0.420 C 
ATOM     23  F   UNL A   1      33.314  29.310  26.929  1.00  0.00    -0.166 F 
ATOM     24  F   UNL A   1      32.981  30.062  24.927  1.00  0.00    -0.166 F 
ATOM     25  F   UNL A   1      31.400  30.192  26.415  1.00  0.00    -0.166 F 
ENDBRANCH  16  22
ENDBRANCH   8  13
ENDBRANCH   5   7
ENDBRANCH   4   5
ENDBRANCH   3   4
ENDBRANCH   2   3
ENDBRANCH   1   2
BRANCH   1  26
ATOM     26  C   UNL A   1      40.005  21.001  26.702  1.00  0.00     0.202 C 
BRANCH  26  27
ATOM     27  C   UNL A   1      41.317  20.461  26.116  1.00  0.00     0.261 C 
BRANCH  27  28
ATOM     28  O   UNL A   1      42.470  21.202  26.554  1.00  0.00    -0.460 OA
BRANCH  28  29
ATOM     29  C   UNL A   1      42.728  22.311  25.813  1.00  0.00     0.338 C 
ATOM     30  O   UNL A   1      43.014  22.344  24.628  1.00  0.00    -0.246 OA
BRANCH  29  31
ATOM     31  C   UNL A   1      42.462  23.545  26.581  1.00  0.00     0.060 A 
ATOM     32  C   UNL A   1      42.363  24.735  25.850  1.00  0.00     0.016 A 
ATOM     33  C   UNL A   1      42.429  23.568  27.977  1.00  0.00     0.016 A 
ATOM     34  C   UNL A   1      42.306  25.959  26.512  1.00  0.00     0.010 A 
ATOM     35  C   UNL A   1      42.374  24.803  28.641  1.00  0.00     0.010 A 
ATOM     36  C   UNL A   1      42.361  26.005  27.913  1.00  0.00    -0.014 A 
BRANCH  36  37
ATOM     37  C   UNL A   1      42.556  27.322  28.573  1.00  0.00     0.031 A 
ATOM     38  C   UNL A   1      43.952  27.866  28.736  1.00  0.00     0.074 A 
ATOM     39  C   UNL A   1      41.500  28.061  28.960  1.00  0.00     0.049 A 
ATOM     40  N   UNL A   1      44.338  29.035  29.178  1.00  0.00    -0.248 NA
ATOM     41  C   UNL A   1      45.060  26.980  28.343  1.00  0.00     0.031 C 
ATOM     42  C   UNL A   1      40.100  27.649  28.863  1.00  0.00     0.029 A 
ATOM     43  N   UNL A   1      41.444  29.316  29.512  1.00  0.00    -0.354 N 
ATOM     44  C   UNL A   1      45.727  29.023  29.126  1.00  0.00     0.074 A 
ATOM     45  C   UNL A   1      46.120  27.721  28.634  1.00  0.00     0.031 C 
ATOM     46  C   UNL A   1      39.322  28.632  29.347  1.00  0.00     0.029 A 
ATOM     47  C   UNL A   1      40.167  29.740  29.791  1.00  0.00     0.049 A 
ATOM     48  H   UNL A   1      42.244  29.862  29.692  1.00  0.00     0.167 HD
ATOM     49  C   UNL A   1      46.600  30.014  29.431  1.00  0.00     0.034 A 
ATOM     50  C   UNL A   1      39.728  30.892  30.337  1.00  0.00     0.034 A 
ATOM     51  C   UNL A   1      46.215  31.317  29.902  1.00  0.00     0.049 A 
ATOM     52  C   UNL A   1      40.722  31.974  30.678  1.00  0.00     0.074 A 
ATOM     53  C   UNL A   1      47.026  32.397  30.208  1.00  0.00     0.029 A 
ATOM     54  N   UNL A   1      44.910  31.719  30.141  1.00  0.00    -0.354 N 
ATOM     55  N   UNL A   1      42.020  31.992  30.494  1.00  0.00    -0.248 NA
ATOM     56  C   UNL A   1      40.182  33.211  31.262  1.00  0.00     0.031 C 
ATOM     57  C   UNL A   1      46.211  33.448  30.642  1.00  0.00     0.029 A 
ATOM     58  C   UNL A   1      44.892  33.028  30.592  1.00  0.00     0.049 A 
ATOM     59  H   UNL A   1      44.114  31.156  30.008  1.00  0.00     0.167 HD
ATOM     60  C   UNL A   1      42.446  33.253  30.903  1.00  0.00     0.074 A 
ATOM     61  C   UNL A   1      41.263  33.977  31.322  1.00  0.00     0.031 C 
ATOM     62  C   UNL A   1      43.703  33.760  30.946  1.00  0.00     0.034 A 
BRANCH  49  63
ATOM     63  C   UNL A   1      48.065  29.742  29.212  1.00  0.00     0.023 A 
ATOM     64  C   UNL A   1      48.851  29.294  30.292  1.00  0.00     0.012 A 
ATOM     65  C   UNL A   1      48.651  29.871  27.938  1.00  0.00     0.148 A 
ATOM     66  C   UNL A   1      50.203  29.004  30.117  1.00  0.00     0.002 A 
ATOM     67  C   UNL A   1      49.992  29.544  27.762  1.00  0.00     0.091 A 
ATOM     68  F   UNL A   1      47.894  30.320  26.926  1.00  0.00    -0.205 F 
ATOM     69  C   UNL A   1      50.770  29.120  28.852  1.00  0.00     0.022 A 
BRANCH  67  70
ATOM     70  S   UNL A   1      50.797  29.594  26.157  1.00  0.00     0.127 S 
ATOM     71  O   UNL A   1      49.940  28.709  25.369  1.00  0.00    -0.237 OA
ATOM     72  O   UNL A   1      50.698  31.011  25.803  1.00  0.00    -0.237 OA
ATOM     73  O   UNL A   1      52.156  29.119  26.376  1.00  0.00    -0.744 OA
ENDBRANCH  67  70
ENDBRANCH  49  63
BRANCH  50  74
ATOM     74  C   UNL A   1      38.268  31.118  30.533  1.00  0.00     0.023 A 
ATOM     75  C   UNL A   1      37.663  30.729  31.745  1.00  0.00     0.012 A 
ATOM     76  C   UNL A   1      37.478  31.716  29.533  1.00  0.00     0.148 A 
ATOM     77  C   UNL A   1      36.293  30.903  31.944  1.00  0.00     0.002 A 
ATOM     78  C   UNL A   1      36.124  31.935  29.760  1.00  0.00     0.091 A 
ATOM     79  F   UNL A   1      38.066  32.057  28.378  1.00  0.00    -0.205 F 
ATOM     80  C   UNL A   1      35.526  31.515  30.957  1.00  0.00     0.022 A 
BRANCH  78  81
ATOM     81  S   UNL A   1      35.090  32.826  28.592  1.00  0.00     0.127 S 
ATOM     82  O   UNL A   1      33.851  32.982  29.348  1.00  0.00    -0.237 OA
ATOM     83  O   UNL A   1      35.850  34.061  28.393  1.00  0.00    -0.237 OA
ATOM     84  O   UNL A   1      35.017  31.975  27.413  1.00  0.00    -0.744 OA
ENDBRANCH  78  81
ENDBRANCH  50  74
BRANCH  62  85
ATOM     85  C   UNL A   1      43.870  35.176  31.434  1.00  0.00     0.023 A 
ATOM     86  C   UNL A   1      43.814  36.242  30.515  1.00  0.00     0.012 A 
ATOM     87  C   UNL A   1      44.019  35.455  32.808  1.00  0.00     0.148 A 
ATOM     88  C   UNL A   1      43.942  37.562  30.950  1.00  0.00     0.002 A 
ATOM     89  C   UNL A   1      44.101  36.775  33.239  1.00  0.00     0.091 A 
ATOM     90  F   UNL A   1      44.091  34.429  33.668  1.00  0.00    -0.205 F 
ATOM     91  C   UNL A   1      44.073  37.828  32.311  1.00  0.00     0.022 A 
BRANCH  89  92
ATOM     92  S   UNL A   1      44.181  37.205  34.981  1.00  0.00     0.127 S 
ATOM     93  O   UNL A   1      45.522  36.750  35.341  1.00  0.00    -0.237 OA
ATOM     94  O   UNL A   1      44.017  38.660  34.956  1.00  0.00    -0.237 OA
ATOM     95  O   UNL A   1      43.080  36.491  35.614  1.00  0.00    -0.744 OA
ENDBRANCH  89  92
ENDBRANCH  62  85
ENDBRANCH  36  37
ENDBRANCH  29  31
ENDBRANCH  28  29
ENDBRANCH  27  28
ENDBRANCH  26  27
ENDBRANCH   1  26
TORSDOF 21
ENDMDL
