MODEL 1
REMARK VINA RESULT:     -11.5      0.000      0.000
REMARK SMILES CCn1c(N2CCC(C(=O)OCCOCCOC(=O)c3ccc(-c4c5nc(c(-c6cccc(S(=O)(=O)[O-])c6F)c6ccc([nH]6)c(-c6cccc(S(=O)(=O)[O-])c6F)c6nc(c(-c7cccc(S(=O)(=O)[O-])c7F)c7ccc4[nH]7)C=C6)C=C5)cc3)CC2)nc2cc(C)ccc21
REMARK SMILES IDX 15 1 14 2 13 3 12 4 11 5 9 6 10 7 8 8 5 9 6 10 84 11 7 12
REMARK SMILES IDX 83 13 4 14 3 15 92 16 85 17 86 18 91 19 87 20 90 21 88 22
REMARK SMILES IDX 89 23 2 24 1 25 16 26 17 27 18 28 19 29 20 30 21 31 82 32
REMARK SMILES IDX 22 33 81 34 23 35 24 36 25 37 75 38 26 39 80 40 74 41 76 42
REMARK SMILES IDX 27 43 79 44 73 45 72 46 28 48 60 49 40 50 59 51 41 52 44 53
REMARK SMILES IDX 58 54 77 55 42 56 43 57 57 59 78 60 45 61 29 62 30 63 38 64
REMARK SMILES IDX 31 65 33 66 39 67 32 68 34 69 35 70 36 71 37 72 61 73 62 74
REMARK SMILES IDX 70 75 63 76 65 77 71 78 64 79 66 80 67 81 68 82 69 83 46 84
REMARK SMILES IDX 47 85 55 86 48 87 50 88 56 89 49 90 51 91 52 92 53 93 54 94
REMARK H PARENT 76 47 44 58
REMARK Flexibility Score: inf
ROOT
ATOM      1  C   UNL A   1      39.177  21.326  25.717  1.00  0.00     0.202 C 
ENDROOT
BRANCH   1   2
ATOM      2  O   UNL A   1      37.780  21.614  25.794  1.00  0.00    -0.374 OA
BRANCH   2   3
ATOM      3  C   UNL A   1      36.937  21.185  24.730  1.00  0.00     0.202 C 
BRANCH   3   4
ATOM      4  C   UNL A   1      35.882  20.104  24.990  1.00  0.00     0.261 C 
BRANCH   4   5
ATOM      5  O   UNL A   1      34.636  20.621  25.467  1.00  0.00    -0.463 OA
BRANCH   5   6
ATOM      6  C   UNL A   1      33.558  20.144  24.802  1.00  0.00     0.309 C 
ATOM      7  O   UNL A   1      33.454  19.018  24.324  1.00  0.00    -0.252 OA
BRANCH   6   8
ATOM      8  C   UNL A   1      32.459  21.158  24.656  1.00  0.00     0.103 C 
ATOM      9  N   UNL A   1      30.966  23.539  24.239  1.00  0.00    -0.342 N 
ATOM     10  C   UNL A   1      30.890  22.887  25.548  1.00  0.00     0.120 C 
ATOM     11  C   UNL A   1      31.507  22.797  23.103  1.00  0.00     0.120 C 
ATOM     12  C   UNL A   1      32.121  22.035  25.860  1.00  0.00     0.037 C 
ATOM     13  C   UNL A   1      32.774  22.053  23.469  1.00  0.00     0.037 C 
BRANCH   9  14
ATOM     14  C   UNL A   1      30.909  24.891  24.186  1.00  0.00     0.206 A 
ATOM     15  N   UNL A   1      31.771  25.721  24.874  1.00  0.00    -0.310 N 
ATOM     16  C   UNL A   1      31.364  27.025  24.636  1.00  0.00     0.070 A 
ATOM     17  N   UNL A   1      30.066  25.590  23.456  1.00  0.00    -0.213 NA
ATOM     18  C   UNL A   1      30.294  26.905  23.762  1.00  0.00     0.091 A 
ATOM     19  C   UNL A   1      31.838  28.262  25.089  1.00  0.00     0.029 A 
ATOM     20  C   UNL A   1      29.627  28.064  23.330  1.00  0.00     0.034 A 
ATOM     21  C   UNL A   1      31.165  29.406  24.650  1.00  0.00     0.006 A 
ATOM     22  C   UNL A   1      30.065  29.322  23.787  1.00  0.00    -0.049 A 
ATOM     23  C   UNL A   1      29.336  30.564  23.366  1.00  0.00     0.044 C 
BRANCH  15  24
ATOM     24  C   UNL A   1      32.983  25.459  25.626  1.00  0.00     0.122 C 
ATOM     25  C   UNL A   1      34.267  24.998  24.961  1.00  0.00     0.028 C 
ENDBRANCH  15  24
ENDBRANCH   9  14
ENDBRANCH   6   8
ENDBRANCH   5   6
ENDBRANCH   4   5
ENDBRANCH   3   4
ENDBRANCH   2   3
ENDBRANCH   1   2
BRANCH   1  26
ATOM     26  C   UNL A   1      39.658  19.865  25.791  1.00  0.00     0.261 C 
BRANCH  26  27
ATOM     27  O   UNL A   1      40.899  19.677  25.101  1.00  0.00    -0.460 OA
BRANCH  27  28
ATOM     28  C   UNL A   1      41.933  19.276  25.891  1.00  0.00     0.338 C 
ATOM     29  O   UNL A   1      42.625  18.281  25.751  1.00  0.00    -0.246 OA
BRANCH  28  30
ATOM     30  C   UNL A   1      42.304  20.464  26.681  1.00  0.00     0.060 A 
ATOM     31  C   UNL A   1      41.848  20.616  27.992  1.00  0.00     0.016 A 
ATOM     32  C   UNL A   1      42.839  21.547  25.963  1.00  0.00     0.016 A 
ATOM     33  C   UNL A   1      41.871  21.885  28.561  1.00  0.00     0.010 A 
ATOM     34  C   UNL A   1      42.813  22.819  26.519  1.00  0.00     0.010 A 
ATOM     35  C   UNL A   1      42.307  22.992  27.809  1.00  0.00    -0.014 A 
BRANCH  35  36
ATOM     36  C   UNL A   1      42.483  24.267  28.505  1.00  0.00     0.031 A 
ATOM     37  C   UNL A   1      41.340  25.184  28.248  1.00  0.00     0.074 A 
ATOM     38  C   UNL A   1      43.442  24.581  29.403  1.00  0.00     0.049 A 
ATOM     39  N   UNL A   1      41.350  26.288  27.575  1.00  0.00    -0.248 NA
ATOM     40  C   UNL A   1      39.997  24.723  28.636  1.00  0.00     0.031 C 
ATOM     41  C   UNL A   1      44.453  23.696  29.987  1.00  0.00     0.029 A 
ATOM     42  N   UNL A   1      43.635  25.754  30.083  1.00  0.00    -0.354 N 
ATOM     43  C   UNL A   1      40.047  26.769  27.651  1.00  0.00     0.074 A 
ATOM     44  C   UNL A   1      39.228  25.694  28.147  1.00  0.00     0.031 C 
ATOM     45  C   UNL A   1      44.981  24.285  31.087  1.00  0.00     0.029 A 
ATOM     46  C   UNL A   1      44.454  25.634  31.207  1.00  0.00     0.049 A 
ATOM     47  H   UNL A   1      43.232  26.609  29.804  1.00  0.00     0.167 HD
ATOM     48  C   UNL A   1      39.766  28.096  27.571  1.00  0.00     0.034 A 
ATOM     49  C   UNL A   1      44.630  26.564  32.181  1.00  0.00     0.034 A 
ATOM     50  C   UNL A   1      40.894  28.867  27.146  1.00  0.00     0.049 A 
ATOM     51  C   UNL A   1      44.283  27.877  31.599  1.00  0.00     0.074 A 
ATOM     52  C   UNL A   1      41.556  29.117  25.966  1.00  0.00     0.029 A 
ATOM     53  N   UNL A   1      41.724  29.222  28.175  1.00  0.00    -0.354 N 
ATOM     54  N   UNL A   1      44.978  28.455  30.662  1.00  0.00    -0.248 NA
ATOM     55  C   UNL A   1      42.986  28.477  31.886  1.00  0.00     0.031 C 
ATOM     56  C   UNL A   1      42.895  29.444  26.330  1.00  0.00     0.029 A 
ATOM     57  C   UNL A   1      43.000  29.410  27.720  1.00  0.00     0.049 A 
ATOM     58  H   UNL A   1      41.442  29.328  29.112  1.00  0.00     0.167 HD
ATOM     59  C   UNL A   1      44.038  29.181  29.960  1.00  0.00     0.074 A 
ATOM     60  C   UNL A   1      42.899  29.317  30.854  1.00  0.00     0.031 C 
ATOM     61  C   UNL A   1      44.133  29.308  28.609  1.00  0.00     0.034 A 
BRANCH  48  62
ATOM     62  C   UNL A   1      38.632  28.737  28.321  1.00  0.00     0.023 A 
ATOM     63  C   UNL A   1      37.683  29.492  27.606  1.00  0.00     0.012 A 
ATOM     64  C   UNL A   1      38.621  28.841  29.731  1.00  0.00     0.148 A 
ATOM     65  C   UNL A   1      36.741  30.286  28.271  1.00  0.00     0.002 A 
ATOM     66  C   UNL A   1      37.636  29.564  30.389  1.00  0.00     0.091 A 
ATOM     67  F   UNL A   1      39.647  28.342  30.432  1.00  0.00    -0.205 F 
ATOM     68  C   UNL A   1      36.701  30.303  29.662  1.00  0.00     0.022 A 
BRANCH  66  69
ATOM     69  S   UNL A   1      37.520  29.582  32.180  1.00  0.00     0.127 S 
ATOM     70  O   UNL A   1      36.266  30.300  32.385  1.00  0.00    -0.237 OA
ATOM     71  O   UNL A   1      37.476  28.152  32.488  1.00  0.00    -0.237 OA
ATOM     72  O   UNL A   1      38.729  30.254  32.638  1.00  0.00    -0.744 OA
ENDBRANCH  66  69
ENDBRANCH  48  62
BRANCH  49  73
ATOM     73  C   UNL A   1      44.919  26.467  33.637  1.00  0.00     0.023 A 
ATOM     74  C   UNL A   1      46.144  26.982  34.125  1.00  0.00     0.012 A 
ATOM     75  C   UNL A   1      43.891  26.216  34.567  1.00  0.00     0.148 A 
ATOM     76  C   UNL A   1      46.306  27.325  35.472  1.00  0.00     0.002 A 
ATOM     77  C   UNL A   1      44.060  26.554  35.910  1.00  0.00     0.091 A 
ATOM     78  F   UNL A   1      42.720  25.745  34.119  1.00  0.00    -0.205 F 
ATOM     79  C   UNL A   1      45.256  27.129  36.361  1.00  0.00     0.022 A 
BRANCH  77  80
ATOM     80  S   UNL A   1      42.747  26.353  37.122  1.00  0.00     0.127 S 
ATOM     81  O   UNL A   1      43.435  26.668  38.374  1.00  0.00    -0.237 OA
ATOM     82  O   UNL A   1      41.779  27.355  36.687  1.00  0.00    -0.237 OA
ATOM     83  O   UNL A   1      42.321  24.963  37.009  1.00  0.00    -0.744 OA
ENDBRANCH  77  80
ENDBRANCH  49  73
BRANCH  61  84
ATOM     84  C   UNL A   1      45.488  29.143  27.996  1.00  0.00     0.023 A 
ATOM     85  C   UNL A   1      46.465  30.158  27.998  1.00  0.00     0.012 A 
ATOM     86  C   UNL A   1      45.810  27.872  27.495  1.00  0.00     0.148 A 
ATOM     87  C   UNL A   1      47.747  29.901  27.503  1.00  0.00     0.002 A 
ATOM     88  C   UNL A   1      47.092  27.611  27.042  1.00  0.00     0.091 A 
ATOM     89  F   UNL A   1      44.853  26.932  27.500  1.00  0.00    -0.205 F 
ATOM     90  C   UNL A   1      48.065  28.624  27.039  1.00  0.00     0.022 A 
BRANCH  88  91
ATOM     91  S   UNL A   1      47.587  25.968  26.523  1.00  0.00     0.127 S 
ATOM     92  O   UNL A   1      48.859  26.229  25.854  1.00  0.00    -0.237 OA
ATOM     93  O   UNL A   1      47.697  25.262  27.800  1.00  0.00    -0.237 OA
ATOM     94  O   UNL A   1      46.520  25.476  25.659  1.00  0.00    -0.744 OA
ENDBRANCH  88  91
ENDBRANCH  61  84
ENDBRANCH  35  36
ENDBRANCH  28  30
ENDBRANCH  27  28
ENDBRANCH  26  27
ENDBRANCH   1  26
TORSDOF 19
ENDMDL
MODEL 2
REMARK VINA RESULT:     -11.2      3.234      8.239
REMARK SMILES CCn1c(N2CCC(C(=O)OCCOCCOC(=O)c3ccc(-c4c5nc(c(-c6cccc(S(=O)(=O)[O-])c6F)c6ccc([nH]6)c(-c6cccc(S(=O)(=O)[O-])c6F)c6nc(c(-c7cccc(S(=O)(=O)[O-])c7F)c7ccc4[nH]7)C=C6)C=C5)cc3)CC2)nc2cc(C)ccc21
REMARK SMILES IDX 15 1 14 2 13 3 12 4 11 5 9 6 10 7 8 8 5 9 6 10 84 11 7 12
REMARK SMILES IDX 83 13 4 14 3 15 92 16 85 17 86 18 91 19 87 20 90 21 88 22
REMARK SMILES IDX 89 23 2 24 1 25 16 26 17 27 18 28 19 29 20 30 21 31 82 32
REMARK SMILES IDX 22 33 81 34 23 35 24 36 25 37 75 38 26 39 80 40 74 41 76 42
REMARK SMILES IDX 27 43 79 44 73 45 72 46 28 48 60 49 40 50 59 51 41 52 44 53
REMARK SMILES IDX 58 54 77 55 42 56 43 57 57 59 78 60 45 61 29 62 30 63 38 64
REMARK SMILES IDX 31 65 33 66 39 67 32 68 34 69 35 70 36 71 37 72 61 73 62 74
REMARK SMILES IDX 70 75 63 76 65 77 71 78 64 79 66 80 67 81 68 82 69 83 46 84
REMARK SMILES IDX 47 85 55 86 48 87 50 88 56 89 49 90 51 91 52 92 53 93 54 94
REMARK H PARENT 76 47 44 58
REMARK Flexibility Score: inf
ROOT
ATOM      1  C   UNL A   1      32.912  30.513  27.267  1.00  0.00     0.202 C 
ENDROOT
BRANCH   1   2
ATOM      2  O   UNL A   1      31.822  30.710  26.365  1.00  0.00    -0.374 OA
BRANCH   2   3
ATOM      3  C   UNL A   1      31.872  30.084  25.087  1.00  0.00     0.202 C 
BRANCH   3   4
ATOM      4  C   UNL A   1      31.234  28.703  24.896  1.00  0.00     0.261 C 
BRANCH   4   5
ATOM      5  O   UNL A   1      32.106  27.618  25.224  1.00  0.00    -0.463 OA
BRANCH   5   6
ATOM      6  C   UNL A   1      31.825  27.036  26.414  1.00  0.00     0.309 C 
ATOM      7  O   UNL A   1      31.176  27.544  27.323  1.00  0.00    -0.252 OA
BRANCH   6   8
ATOM      8  C   UNL A   1      32.426  25.666  26.556  1.00  0.00     0.103 C 
ATOM      9  N   UNL A   1      33.348  23.018  26.097  1.00  0.00    -0.342 N 
ATOM     10  C   UNL A   1      32.316  23.231  27.112  1.00  0.00     0.120 C 
ATOM     11  C   UNL A   1      34.110  24.163  25.602  1.00  0.00     0.120 C 
ATOM     12  C   UNL A   1      31.493  24.497  26.866  1.00  0.00     0.037 C 
ATOM     13  C   UNL A   1      33.214  25.344  25.297  1.00  0.00     0.037 C 
BRANCH   9  14
ATOM     14  C   UNL A   1      33.316  21.876  25.371  1.00  0.00     0.206 A 
ATOM     15  N   UNL A   1      32.656  21.756  24.164  1.00  0.00    -0.310 N 
ATOM     16  C   UNL A   1      32.779  20.436  23.758  1.00  0.00     0.070 A 
ATOM     17  N   UNL A   1      33.926  20.754  25.685  1.00  0.00    -0.213 NA
ATOM     18  C   UNL A   1      33.562  19.839  24.734  1.00  0.00     0.091 A 
ATOM     19  C   UNL A   1      32.295  19.740  22.643  1.00  0.00     0.029 A 
ATOM     20  C   UNL A   1      33.865  18.471  24.630  1.00  0.00     0.034 A 
ATOM     21  C   UNL A   1      32.604  18.380  22.554  1.00  0.00     0.006 A 
ATOM     22  C   UNL A   1      33.373  17.737  23.533  1.00  0.00    -0.049 A 
ATOM     23  C   UNL A   1      33.653  16.267  23.432  1.00  0.00     0.044 C 
BRANCH  15  24
ATOM     24  C   UNL A   1      32.028  22.733  23.296  1.00  0.00     0.122 C 
ATOM     25  C   UNL A   1      30.695  23.376  23.628  1.00  0.00     0.028 C 
ENDBRANCH  15  24
ENDBRANCH   9  14
ENDBRANCH   6   8
ENDBRANCH   5   6
ENDBRANCH   4   5
ENDBRANCH   3   4
ENDBRANCH   2   3
ENDBRANCH   1   2
BRANCH   1  26
ATOM     26  C   UNL A   1      33.944  31.638  27.472  1.00  0.00     0.261 C 
BRANCH  26  27
ATOM     27  O   UNL A   1      34.786  31.389  28.603  1.00  0.00    -0.460 OA
BRANCH  27  28
ATOM     28  C   UNL A   1      35.773  32.307  28.788  1.00  0.00     0.338 C 
ATOM     29  O   UNL A   1      35.665  33.415  29.290  1.00  0.00    -0.246 OA
BRANCH  28  30
ATOM     30  C   UNL A   1      37.035  31.558  28.648  1.00  0.00     0.060 A 
ATOM     31  C   UNL A   1      37.026  30.216  28.264  1.00  0.00     0.016 A 
ATOM     32  C   UNL A   1      38.174  32.146  29.224  1.00  0.00     0.016 A 
ATOM     33  C   UNL A   1      38.152  29.443  28.521  1.00  0.00     0.010 A 
ATOM     34  C   UNL A   1      39.277  31.356  29.523  1.00  0.00     0.010 A 
ATOM     35  C   UNL A   1      39.257  30.000  29.193  1.00  0.00    -0.014 A 
BRANCH  35  36
ATOM     36  C   UNL A   1      40.480  29.201  29.278  1.00  0.00     0.031 A 
ATOM     37  C   UNL A   1      40.797  28.848  30.689  1.00  0.00     0.074 A 
ATOM     38  C   UNL A   1      41.189  28.682  28.252  1.00  0.00     0.049 A 
ATOM     39  N   UNL A   1      41.789  29.267  31.404  1.00  0.00    -0.248 NA
ATOM     40  C   UNL A   1      39.790  28.079  31.439  1.00  0.00     0.031 C 
ATOM     41  C   UNL A   1      40.845  28.683  26.829  1.00  0.00     0.029 A 
ATOM     42  N   UNL A   1      42.329  27.923  28.289  1.00  0.00    -0.354 N 
ATOM     43  C   UNL A   1      41.643  28.629  32.632  1.00  0.00     0.074 A 
ATOM     44  C   UNL A   1      40.319  28.066  32.662  1.00  0.00     0.031 C 
ATOM     45  C   UNL A   1      41.610  27.771  26.183  1.00  0.00     0.029 A 
ATOM     46  C   UNL A   1      42.588  27.224  27.109  1.00  0.00     0.049 A 
ATOM     47  H   UNL A   1      42.916  27.875  29.079  1.00  0.00     0.167 HD
ATOM     48  C   UNL A   1      42.709  28.360  33.430  1.00  0.00     0.034 A 
ATOM     49  C   UNL A   1      43.502  26.235  26.940  1.00  0.00     0.034 A 
ATOM     50  C   UNL A   1      43.898  29.027  32.996  1.00  0.00     0.049 A 
ATOM     51  C   UNL A   1      44.524  26.402  27.995  1.00  0.00     0.074 A 
ATOM     52  C   UNL A   1      44.411  30.303  33.042  1.00  0.00     0.029 A 
ATOM     53  N   UNL A   1      44.587  28.333  32.038  1.00  0.00    -0.354 N 
ATOM     54  N   UNL A   1      45.347  27.409  28.046  1.00  0.00    -0.248 NA
ATOM     55  C   UNL A   1      44.490  25.552  29.178  1.00  0.00     0.031 C 
ATOM     56  C   UNL A   1      45.299  30.408  31.930  1.00  0.00     0.029 A 
ATOM     57  C   UNL A   1      45.319  29.187  31.259  1.00  0.00     0.049 A 
ATOM     58  H   UNL A   1      44.561  27.356  31.926  1.00  0.00     0.167 HD
ATOM     59  C   UNL A   1      45.580  27.571  29.397  1.00  0.00     0.074 A 
ATOM     60  C   UNL A   1      45.201  26.310  30.014  1.00  0.00     0.031 C 
ATOM     61  C   UNL A   1      45.731  28.815  29.926  1.00  0.00     0.034 A 
BRANCH  48  62
ATOM     62  C   UNL A   1      42.785  27.141  34.307  1.00  0.00     0.023 A 
ATOM     63  C   UNL A   1      42.483  27.267  35.676  1.00  0.00     0.012 A 
ATOM     64  C   UNL A   1      43.400  25.941  33.882  1.00  0.00     0.148 A 
ATOM     65  C   UNL A   1      42.747  26.226  36.574  1.00  0.00     0.002 A 
ATOM     66  C   UNL A   1      43.586  24.881  34.758  1.00  0.00     0.091 A 
ATOM     67  F   UNL A   1      43.924  25.874  32.652  1.00  0.00    -0.205 F 
ATOM     68  C   UNL A   1      43.276  25.024  36.112  1.00  0.00     0.022 A 
BRANCH  66  69
ATOM     69  S   UNL A   1      44.226  23.300  34.200  1.00  0.00     0.127 S 
ATOM     70  O   UNL A   1      45.592  23.653  33.824  1.00  0.00    -0.237 OA
ATOM     71  O   UNL A   1      44.104  22.487  35.411  1.00  0.00    -0.237 OA
ATOM     72  O   UNL A   1      43.346  22.889  33.114  1.00  0.00    -0.744 OA
ENDBRANCH  66  69
ENDBRANCH  48  62
BRANCH  49  73
ATOM     73  C   UNL A   1      43.548  25.033  26.066  1.00  0.00     0.023 A 
ATOM     74  C   UNL A   1      44.642  24.874  25.181  1.00  0.00     0.012 A 
ATOM     75  C   UNL A   1      42.753  23.903  26.341  1.00  0.00     0.148 A 
ATOM     76  C   UNL A   1      44.987  23.621  24.666  1.00  0.00     0.002 A 
ATOM     77  C   UNL A   1      43.098  22.656  25.820  1.00  0.00     0.091 A 
ATOM     78  F   UNL A   1      41.725  24.032  27.190  1.00  0.00    -0.205 F 
ATOM     79  C   UNL A   1      44.226  22.507  25.002  1.00  0.00     0.022 A 
BRANCH  77  80
ATOM     80  S   UNL A   1      42.180  21.162  26.220  1.00  0.00     0.127 S 
ATOM     81  O   UNL A   1      42.428  21.026  27.655  1.00  0.00    -0.237 OA
ATOM     82  O   UNL A   1      40.815  21.544  25.869  1.00  0.00    -0.237 OA
ATOM     83  O   UNL A   1      42.776  20.108  25.408  1.00  0.00    -0.744 OA
ENDBRANCH  77  80
ENDBRANCH  49  73
BRANCH  61  84
ATOM     84  C   UNL A   1      46.181  29.905  29.005  1.00  0.00     0.023 A 
ATOM     85  C   UNL A   1      47.536  30.195  28.755  1.00  0.00     0.012 A 
ATOM     86  C   UNL A   1      45.183  30.586  28.290  1.00  0.00     0.148 A 
ATOM     87  C   UNL A   1      47.886  31.155  27.802  1.00  0.00     0.002 A 
ATOM     88  C   UNL A   1      45.535  31.509  27.319  1.00  0.00     0.091 A 
ATOM     89  F   UNL A   1      43.903  30.291  28.560  1.00  0.00    -0.205 F 
ATOM     90  C   UNL A   1      46.886  31.801  27.074  1.00  0.00     0.022 A 
BRANCH  88  91
ATOM     91  S   UNL A   1      44.301  32.300  26.287  1.00  0.00     0.127 S 
ATOM     92  O   UNL A   1      43.358  31.210  26.049  1.00  0.00    -0.237 OA
ATOM     93  O   UNL A   1      43.803  33.362  27.162  1.00  0.00    -0.237 OA
ATOM     94  O   UNL A   1      45.007  32.780  25.106  1.00  0.00    -0.744 OA
ENDBRANCH  88  91
ENDBRANCH  61  84
ENDBRANCH  35  36
ENDBRANCH  28  30
ENDBRANCH  27  28
ENDBRANCH  26  27
ENDBRANCH   1  26
TORSDOF 19
ENDMDL
MODEL 3
REMARK VINA RESULT:     -11.1      3.626      8.025
REMARK SMILES CCn1c(N2CCC(C(=O)OCCOCCOC(=O)c3ccc(-c4c5nc(c(-c6cccc(S(=O)(=O)[O-])c6F)c6ccc([nH]6)c(-c6cccc(S(=O)(=O)[O-])c6F)c6nc(c(-c7cccc(S(=O)(=O)[O-])c7F)c7ccc4[nH]7)C=C6)C=C5)cc3)CC2)nc2cc(C)ccc21
REMARK SMILES IDX 15 1 14 2 13 3 12 4 11 5 9 6 10 7 8 8 5 9 6 10 84 11 7 12
REMARK SMILES IDX 83 13 4 14 3 15 92 16 85 17 86 18 91 19 87 20 90 21 88 22
REMARK SMILES IDX 89 23 2 24 1 25 16 26 17 27 18 28 19 29 20 30 21 31 82 32
REMARK SMILES IDX 22 33 81 34 23 35 24 36 25 37 75 38 26 39 80 40 74 41 76 42
REMARK SMILES IDX 27 43 79 44 73 45 72 46 28 48 60 49 40 50 59 51 41 52 44 53
REMARK SMILES IDX 58 54 77 55 42 56 43 57 57 59 78 60 45 61 29 62 30 63 38 64
REMARK SMILES IDX 31 65 33 66 39 67 32 68 34 69 35 70 36 71 37 72 61 73 62 74
REMARK SMILES IDX 70 75 63 76 65 77 71 78 64 79 66 80 67 81 68 82 69 83 46 84
REMARK SMILES IDX 47 85 55 86 48 87 50 88 56 89 49 90 51 91 52 92 53 93 54 94
REMARK H PARENT 76 47 44 58
REMARK Flexibility Score: inf
ROOT
ATOM      1  C   UNL A   1      38.382  21.232  25.653  1.00  0.00     0.202 C 
ENDROOT
BRANCH   1   2
ATOM      2  O   UNL A   1      37.418  20.836  24.677  1.00  0.00    -0.374 OA
BRANCH   2   3
ATOM      3  C   UNL A   1      36.036  20.957  24.996  1.00  0.00     0.202 C 
BRANCH   3   4
ATOM      4  C   UNL A   1      35.104  19.757  24.790  1.00  0.00     0.261 C 
BRANCH   4   5
ATOM      5  O   UNL A   1      33.796  20.118  24.336  1.00  0.00    -0.463 OA
BRANCH   5   6
ATOM      6  C   UNL A   1      32.821  19.886  25.246  1.00  0.00     0.309 C 
ATOM      7  O   UNL A   1      32.410  18.782  25.588  1.00  0.00    -0.252 OA
BRANCH   6   8
ATOM      8  C   UNL A   1      32.230  21.148  25.811  1.00  0.00     0.103 C 
ATOM      9  N   UNL A   1      31.575  23.855  26.368  1.00  0.00    -0.342 N 
ATOM     10  C   UNL A   1      32.167  23.047  27.435  1.00  0.00     0.120 C 
ATOM     11  C   UNL A   1      31.027  23.190  25.188  1.00  0.00     0.120 C 
ATOM     12  C   UNL A   1      33.005  21.883  26.902  1.00  0.00     0.037 C 
ATOM     13  C   UNL A   1      31.955  22.112  24.669  1.00  0.00     0.037 C 
BRANCH   9  14
ATOM     14  C   UNL A   1      31.885  25.172  26.305  1.00  0.00     0.206 A 
ATOM     15  N   UNL A   1      33.031  25.660  25.711  1.00  0.00    -0.310 N 
ATOM     16  C   UNL A   1      33.042  27.033  25.905  1.00  0.00     0.070 A 
ATOM     17  N   UNL A   1      31.137  26.154  26.758  1.00  0.00    -0.213 NA
ATOM     18  C   UNL A   1      31.857  27.303  26.572  1.00  0.00     0.091 A 
ATOM     19  C   UNL A   1      33.958  28.032  25.551  1.00  0.00     0.029 A 
ATOM     20  C   UNL A   1      31.564  28.627  26.942  1.00  0.00     0.034 A 
ATOM     21  C   UNL A   1      33.653  29.343  25.926  1.00  0.00     0.006 A 
ATOM     22  C   UNL A   1      32.476  29.651  26.622  1.00  0.00    -0.049 A 
ATOM     23  C   UNL A   1      32.195  31.061  27.048  1.00  0.00     0.044 C 
BRANCH  15  24
ATOM     24  C   UNL A   1      34.050  25.029  24.894  1.00  0.00     0.122 C 
ATOM     25  C   UNL A   1      35.311  24.431  25.489  1.00  0.00     0.028 C 
ENDBRANCH  15  24
ENDBRANCH   9  14
ENDBRANCH   6   8
ENDBRANCH   5   6
ENDBRANCH   4   5
ENDBRANCH   3   4
ENDBRANCH   2   3
ENDBRANCH   1   2
BRANCH   1  26
ATOM     26  C   UNL A   1      38.797  22.712  25.757  1.00  0.00     0.261 C 
BRANCH  26  27
ATOM     27  O   UNL A   1      39.522  22.978  26.964  1.00  0.00    -0.460 OA
BRANCH  27  28
ATOM     28  C   UNL A   1      40.849  23.224  26.786  1.00  0.00     0.338 C 
ATOM     29  O   UNL A   1      41.650  22.540  26.171  1.00  0.00    -0.246 OA
BRANCH  28  30
ATOM     30  C   UNL A   1      41.029  24.649  27.119  1.00  0.00     0.060 A 
ATOM     31  C   UNL A   1      41.905  25.035  28.136  1.00  0.00     0.016 A 
ATOM     32  C   UNL A   1      40.064  25.534  26.611  1.00  0.00     0.016 A 
ATOM     33  C   UNL A   1      41.764  26.302  28.690  1.00  0.00     0.010 A 
ATOM     34  C   UNL A   1      39.896  26.780  27.202  1.00  0.00     0.010 A 
ATOM     35  C   UNL A   1      40.730  27.155  28.257  1.00  0.00    -0.014 A 
BRANCH  35  36
ATOM     36  C   UNL A   1      40.735  28.537  28.738  1.00  0.00     0.031 A 
ATOM     37  C   UNL A   1      41.975  29.248  28.324  1.00  0.00     0.074 A 
ATOM     38  C   UNL A   1      39.721  29.195  29.341  1.00  0.00     0.049 A 
ATOM     39  N   UNL A   1      42.939  29.661  29.082  1.00  0.00    -0.248 NA
ATOM     40  C   UNL A   1      42.252  29.349  26.882  1.00  0.00     0.031 C 
ATOM     41  C   UNL A   1      38.346  28.735  29.546  1.00  0.00     0.029 A 
ATOM     42  N   UNL A   1      39.681  30.486  29.796  1.00  0.00    -0.354 N 
ATOM     43  C   UNL A   1      43.839  30.275  28.217  1.00  0.00     0.074 A 
ATOM     44  C   UNL A   1      43.467  29.897  26.879  1.00  0.00     0.031 C 
ATOM     45  C   UNL A   1      37.560  29.795  29.853  1.00  0.00     0.029 A 
ATOM     46  C   UNL A   1      38.392  30.978  30.004  1.00  0.00     0.049 A 
ATOM     47  H   UNL A   1      40.491  31.022  29.961  1.00  0.00     0.167 HD
ATOM     48  C   UNL A   1      44.659  31.277  28.629  1.00  0.00     0.034 A 
ATOM     49  C   UNL A   1      38.047  32.272  30.228  1.00  0.00     0.034 A 
ATOM     50  C   UNL A   1      44.670  31.421  30.053  1.00  0.00     0.049 A 
ATOM     51  C   UNL A   1      39.245  32.957  30.758  1.00  0.00     0.074 A 
ATOM     52  C   UNL A   1      45.225  30.765  31.127  1.00  0.00     0.029 A 
ATOM     53  N   UNL A   1      43.657  32.213  30.523  1.00  0.00    -0.354 N 
ATOM     54  N   UNL A   1      39.763  32.698  31.924  1.00  0.00    -0.248 NA
ATOM     55  C   UNL A   1      40.050  33.794  29.878  1.00  0.00     0.031 C 
ATOM     56  C   UNL A   1      44.370  31.038  32.236  1.00  0.00     0.029 A 
ATOM     57  C   UNL A   1      43.339  31.872  31.809  1.00  0.00     0.049 A 
ATOM     58  H   UNL A   1      43.219  32.928  30.008  1.00  0.00     0.167 HD
ATOM     59  C   UNL A   1      41.108  32.952  31.746  1.00  0.00     0.074 A 
ATOM     60  C   UNL A   1      41.195  33.795  30.564  1.00  0.00     0.031 C 
ATOM     61  C   UNL A   1      42.043  32.181  32.365  1.00  0.00     0.034 A 
BRANCH  48  62
ATOM     62  C   UNL A   1      45.074  32.412  27.735  1.00  0.00     0.023 A 
ATOM     63  C   UNL A   1      44.097  33.056  26.954  1.00  0.00     0.012 A 
ATOM     64  C   UNL A   1      46.430  32.687  27.443  1.00  0.00     0.148 A 
ATOM     65  C   UNL A   1      44.456  33.963  25.949  1.00  0.00     0.002 A 
ATOM     66  C   UNL A   1      46.780  33.646  26.503  1.00  0.00     0.091 A 
ATOM     67  F   UNL A   1      47.385  31.922  27.987  1.00  0.00    -0.205 F 
ATOM     68  C   UNL A   1      45.796  34.277  25.740  1.00  0.00     0.022 A 
BRANCH  66  69
ATOM     69  S   UNL A   1      48.492  34.113  26.229  1.00  0.00     0.127 S 
ATOM     70  O   UNL A   1      48.345  35.232  25.303  1.00  0.00    -0.237 OA
ATOM     71  O   UNL A   1      48.920  34.475  27.581  1.00  0.00    -0.237 OA
ATOM     72  O   UNL A   1      49.136  32.919  25.698  1.00  0.00    -0.744 OA
ENDBRANCH  66  69
ENDBRANCH  48  62
BRANCH  49  73
ATOM     73  C   UNL A   1      36.838  33.073  29.897  1.00  0.00     0.023 A 
ATOM     74  C   UNL A   1      36.216  32.882  28.640  1.00  0.00     0.012 A 
ATOM     75  C   UNL A   1      36.103  33.729  30.904  1.00  0.00     0.148 A 
ATOM     76  C   UNL A   1      34.882  33.244  28.424  1.00  0.00     0.002 A 
ATOM     77  C   UNL A   1      34.775  34.093  30.681  1.00  0.00     0.091 A 
ATOM     78  F   UNL A   1      36.670  33.902  32.105  1.00  0.00    -0.205 F 
ATOM     79  C   UNL A   1      34.155  33.831  29.452  1.00  0.00     0.022 A 
BRANCH  77  80
ATOM     80  S   UNL A   1      33.757  34.839  31.962  1.00  0.00     0.127 S 
ATOM     81  O   UNL A   1      33.555  33.720  32.883  1.00  0.00    -0.237 OA
ATOM     82  O   UNL A   1      34.631  35.894  32.466  1.00  0.00    -0.237 OA
ATOM     83  O   UNL A   1      32.543  35.284  31.289  1.00  0.00    -0.744 OA
ENDBRANCH  77  80
ENDBRANCH  49  73
BRANCH  61  84
ATOM     84  C   UNL A   1      41.627  31.461  33.609  1.00  0.00     0.023 A 
ATOM     85  C   UNL A   1      41.135  30.142  33.609  1.00  0.00     0.012 A 
ATOM     86  C   UNL A   1      41.845  32.120  34.828  1.00  0.00     0.148 A 
ATOM     87  C   UNL A   1      40.866  29.492  34.817  1.00  0.00     0.002 A 
ATOM     88  C   UNL A   1      41.613  31.460  36.023  1.00  0.00     0.091 A 
ATOM     89  F   UNL A   1      42.304  33.380  34.790  1.00  0.00    -0.205 F 
ATOM     90  C   UNL A   1      41.119  30.146  36.024  1.00  0.00     0.022 A 
BRANCH  88  91
ATOM     91  S   UNL A   1      42.008  32.212  37.602  1.00  0.00     0.127 S 
ATOM     92  O   UNL A   1      40.683  32.517  38.135  1.00  0.00    -0.237 OA
ATOM     93  O   UNL A   1      42.713  31.130  38.290  1.00  0.00    -0.237 OA
ATOM     94  O   UNL A   1      42.840  33.372  37.303  1.00  0.00    -0.744 OA
ENDBRANCH  88  91
ENDBRANCH  61  84
ENDBRANCH  35  36
ENDBRANCH  28  30
ENDBRANCH  27  28
ENDBRANCH  26  27
ENDBRANCH   1  26
TORSDOF 19
ENDMDL
