MODEL 1
REMARK VINA RESULT:     -11.8      0.000      0.000
REMARK SMILES C[C@@H]1[C@H](C(=O)OCCOCCOC(=O)c2ccc(-c3c4nc(c(-c5cccc(S(=O)(=O)[O-])c5F)c5ccc([nH]5)c(-c5cccc(S(=O)(=O)[O-])c5F)c5nc(c(-c6cccc(S(=O)(=O)[O-])c6F)c6ccc3[nH]6)C=C5)C=C4)cc2)CCN1C(=O)N1CCc2ccccc21
REMARK SMILES IDX 10 1 9 2 8 3 7 4 6 5 4 6 5 7 3 8 1 9 2 10 80 11 78 12 79 13
REMARK SMILES IDX 81 14 82 15 83 16 84 17 91 18 85 19 86 20 90 21 87 22 89 23
REMARK SMILES IDX 88 24 11 25 12 26 13 27 14 28 15 29 16 30 77 31 17 32 76 33
REMARK SMILES IDX 18 34 19 35 20 36 70 37 21 38 75 39 69 40 71 41 22 42 74 43
REMARK SMILES IDX 68 44 67 45 23 47 55 48 35 49 54 50 36 51 39 52 53 53 72 54
REMARK SMILES IDX 37 55 38 56 52 58 73 59 40 60 24 61 25 62 33 63 26 64 28 65
REMARK SMILES IDX 34 66 27 67 29 68 30 69 31 70 32 71 56 72 57 73 65 74 58 75
REMARK SMILES IDX 60 76 66 77 59 78 61 79 62 80 63 81 64 82 41 83 42 84 50 85
REMARK SMILES IDX 43 86 45 87 51 88 44 89 46 90 47 91 48 92 49 93
REMARK H PARENT 71 46 39 57
REMARK Flexibility Score: inf
ROOT
ATOM      1  C   UNL A   1      31.241  30.399  25.391  1.00  0.00     0.202 C 
ENDROOT
BRANCH   1   2
ATOM      2  O   UNL A   1      31.007  29.756  24.141  1.00  0.00    -0.374 OA
BRANCH   2   3
ATOM      3  C   UNL A   1      29.744  29.930  23.509  1.00  0.00     0.202 C 
BRANCH   3   4
ATOM      4  C   UNL A   1      29.056  28.707  22.894  1.00  0.00     0.261 C 
BRANCH   4   5
ATOM      5  O   UNL A   1      29.781  27.479  23.073  1.00  0.00    -0.463 OA
BRANCH   5   6
ATOM      6  C   UNL A   1      29.225  26.619  23.957  1.00  0.00     0.311 C 
ATOM      7  O   UNL A   1      28.016  26.461  24.106  1.00  0.00    -0.252 OA
BRANCH   6   8
ATOM      8  C   UNL A   1      30.202  25.870  24.820  1.00  0.00     0.123 C 
ATOM      9  C   UNL A   1      30.949  23.968  23.198  1.00  0.00     0.032 C 
ATOM     10  C   UNL A   1      30.612  24.406  24.626  1.00  0.00     0.098 C 
ATOM     11  N   UNL A   1      31.830  24.322  25.459  1.00  0.00    -0.321 N 
ATOM     12  C   UNL A   1      31.539  26.593  24.840  1.00  0.00     0.039 C 
ATOM     13  C   UNL A   1      32.380  25.655  25.681  1.00  0.00     0.122 C 
BRANCH  11  14
ATOM     14  C   UNL A   1      31.919  23.397  26.511  1.00  0.00     0.324 C 
ATOM     15  O   UNL A   1      31.381  23.567  27.601  1.00  0.00    -0.248 OA
BRANCH  14  16
ATOM     16  N   UNL A   1      32.676  22.266  26.182  1.00  0.00    -0.294 N 
ATOM     17  C   UNL A   1      32.110  21.304  25.220  1.00  0.00     0.132 C 
ATOM     18  C   UNL A   1      34.017  22.488  25.808  1.00  0.00     0.049 A 
ATOM     19  C   UNL A   1      33.153  21.097  24.103  1.00  0.00     0.060 C 
ATOM     20  C   UNL A   1      34.229  22.045  24.511  1.00  0.00    -0.022 A 
ATOM     21  C   UNL A   1      34.912  23.308  26.478  1.00  0.00     0.027 A 
ATOM     22  C   UNL A   1      35.250  22.601  23.763  1.00  0.00     0.006 A 
ATOM     23  C   UNL A   1      35.974  23.831  25.747  1.00  0.00     0.002 A 
ATOM     24  C   UNL A   1      36.102  23.527  24.382  1.00  0.00     0.000 A 
ENDBRANCH  14  16
ENDBRANCH  11  14
ENDBRANCH   6   8
ENDBRANCH   5   6
ENDBRANCH   4   5
ENDBRANCH   3   4
ENDBRANCH   2   3
ENDBRANCH   1   2
BRANCH   1  25
ATOM     25  C   UNL A   1      32.660  30.381  25.977  1.00  0.00     0.261 C 
BRANCH  25  26
ATOM     26  O   UNL A   1      32.723  30.770  27.360  1.00  0.00    -0.460 OA
BRANCH  26  27
ATOM     27  C   UNL A   1      33.574  31.799  27.611  1.00  0.00     0.338 C 
ATOM     28  O   UNL A   1      33.288  32.980  27.709  1.00  0.00    -0.246 OA
BRANCH  27  29
ATOM     29  C   UNL A   1      34.919  31.289  27.938  1.00  0.00     0.060 A 
ATOM     30  C   UNL A   1      35.037  29.928  28.245  1.00  0.00     0.016 A 
ATOM     31  C   UNL A   1      36.020  32.140  28.046  1.00  0.00     0.016 A 
ATOM     32  C   UNL A   1      36.245  29.420  28.717  1.00  0.00     0.010 A 
ATOM     33  C   UNL A   1      37.232  31.628  28.526  1.00  0.00     0.010 A 
ATOM     34  C   UNL A   1      37.339  30.276  28.903  1.00  0.00    -0.014 A 
BRANCH  34  35
ATOM     35  C   UNL A   1      38.543  29.780  29.617  1.00  0.00     0.031 A 
ATOM     36  C   UNL A   1      38.864  30.324  30.983  1.00  0.00     0.074 A 
ATOM     37  C   UNL A   1      39.333  28.844  29.062  1.00  0.00     0.049 A 
ATOM     38  N   UNL A   1      39.869  30.041  31.771  1.00  0.00    -0.248 NA
ATOM     39  C   UNL A   1      37.932  31.321  31.534  1.00  0.00     0.031 C 
ATOM     40  C   UNL A   1      39.125  28.233  27.750  1.00  0.00     0.029 A 
ATOM     41  N   UNL A   1      40.484  28.257  29.528  1.00  0.00    -0.354 N 
ATOM     42  C   UNL A   1      39.709  30.842  32.895  1.00  0.00     0.074 A 
ATOM     43  C   UNL A   1      38.518  31.635  32.681  1.00  0.00     0.031 C 
ATOM     44  C   UNL A   1      40.130  27.375  27.504  1.00  0.00     0.029 A 
ATOM     45  C   UNL A   1      41.065  27.397  28.628  1.00  0.00     0.049 A 
ATOM     46  H   UNL A   1      40.857  28.438  30.422  1.00  0.00     0.167 HD
ATOM     47  C   UNL A   1      40.474  30.903  34.011  1.00  0.00     0.034 A 
ATOM     48  C   UNL A   1      42.230  26.720  28.694  1.00  0.00     0.034 A 
ATOM     49  C   UNL A   1      41.647  30.100  34.232  1.00  0.00     0.049 A 
ATOM     50  C   UNL A   1      43.077  26.826  29.935  1.00  0.00     0.074 A 
ATOM     51  C   UNL A   1      42.459  30.055  35.352  1.00  0.00     0.029 A 
ATOM     52  N   UNL A   1      42.186  29.214  33.314  1.00  0.00    -0.354 N 
ATOM     53  N   UNL A   1      42.849  27.501  31.036  1.00  0.00    -0.248 NA
ATOM     54  C   UNL A   1      44.326  26.049  29.956  1.00  0.00     0.031 C 
ATOM     55  C   UNL A   1      43.508  29.166  35.096  1.00  0.00     0.029 A 
ATOM     56  C   UNL A   1      43.328  28.629  33.832  1.00  0.00     0.049 A 
ATOM     57  H   UNL A   1      41.811  29.028  32.422  1.00  0.00     0.167 HD
ATOM     58  C   UNL A   1      43.903  27.200  31.893  1.00  0.00     0.074 A 
ATOM     59  C   UNL A   1      44.759  26.266  31.191  1.00  0.00     0.031 C 
ATOM     60  C   UNL A   1      44.146  27.662  33.145  1.00  0.00     0.034 A 
BRANCH  47  61
ATOM     61  C   UNL A   1      40.057  31.862  35.096  1.00  0.00     0.023 A 
ATOM     62  C   UNL A   1      40.510  33.197  35.065  1.00  0.00     0.012 A 
ATOM     63  C   UNL A   1      39.169  31.457  36.111  1.00  0.00     0.148 A 
ATOM     64  C   UNL A   1      40.111  34.105  36.045  1.00  0.00     0.002 A 
ATOM     65  C   UNL A   1      38.739  32.380  37.057  1.00  0.00     0.091 A 
ATOM     66  F   UNL A   1      38.766  30.179  36.136  1.00  0.00    -0.205 F 
ATOM     67  C   UNL A   1      39.218  33.700  37.033  1.00  0.00     0.022 A 
BRANCH  65  68
ATOM     68  S   UNL A   1      37.530  31.977  38.323  1.00  0.00     0.127 S 
ATOM     69  O   UNL A   1      38.300  32.195  39.547  1.00  0.00    -0.237 OA
ATOM     70  O   UNL A   1      36.484  32.970  38.076  1.00  0.00    -0.237 OA
ATOM     71  O   UNL A   1      37.131  30.599  38.075  1.00  0.00    -0.744 OA
ENDBRANCH  65  68
ENDBRANCH  47  61
BRANCH  48  72
ATOM     72  C   UNL A   1      42.655  25.859  27.553  1.00  0.00     0.023 A 
ATOM     73  C   UNL A   1      43.552  26.365  26.593  1.00  0.00     0.012 A 
ATOM     74  C   UNL A   1      42.181  24.540  27.424  1.00  0.00     0.148 A 
ATOM     75  C   UNL A   1      43.942  25.584  25.505  1.00  0.00     0.002 A 
ATOM     76  C   UNL A   1      42.620  23.747  26.370  1.00  0.00     0.091 A 
ATOM     77  F   UNL A   1      41.316  24.082  28.340  1.00  0.00    -0.205 F 
ATOM     78  C   UNL A   1      43.484  24.272  25.399  1.00  0.00     0.022 A 
BRANCH  76  79
ATOM     79  S   UNL A   1      42.186  22.009  26.228  1.00  0.00     0.127 S 
ATOM     80  O   UNL A   1      40.749  22.078  25.981  1.00  0.00    -0.237 OA
ATOM     81  O   UNL A   1      42.991  21.594  25.078  1.00  0.00    -0.237 OA
ATOM     82  O   UNL A   1      42.584  21.400  27.489  1.00  0.00    -0.744 OA
ENDBRANCH  76  79
ENDBRANCH  48  72
BRANCH  60  83
ATOM     83  C   UNL A   1      45.362  27.136  33.865  1.00  0.00     0.023 A 
ATOM     84  C   UNL A   1      46.580  27.840  33.800  1.00  0.00     0.012 A 
ATOM     85  C   UNL A   1      45.274  25.981  34.669  1.00  0.00     0.148 A 
ATOM     86  C   UNL A   1      47.701  27.383  34.492  1.00  0.00     0.002 A 
ATOM     87  C   UNL A   1      46.380  25.561  35.398  1.00  0.00     0.091 A 
ATOM     88  F   UNL A   1      44.111  25.315  34.707  1.00  0.00    -0.205 F 
ATOM     89  C   UNL A   1      47.598  26.252  35.299  1.00  0.00     0.022 A 
BRANCH  87  90
ATOM     90  S   UNL A   1      46.315  24.175  36.537  1.00  0.00     0.127 S 
ATOM     91  O   UNL A   1      46.103  23.050  35.628  1.00  0.00    -0.237 OA
ATOM     92  O   UNL A   1      47.640  24.219  37.156  1.00  0.00    -0.237 OA
ATOM     93  O   UNL A   1      45.214  24.455  37.449  1.00  0.00    -0.744 OA
ENDBRANCH  87  90
ENDBRANCH  60  83
ENDBRANCH  34  35
ENDBRANCH  27  29
ENDBRANCH  26  27
ENDBRANCH  25  26
ENDBRANCH   1  25
TORSDOF 19
ENDMDL
MODEL 2
REMARK VINA RESULT:     -11.7      4.951     10.266
REMARK SMILES C[C@@H]1[C@H](C(=O)OCCOCCOC(=O)c2ccc(-c3c4nc(c(-c5cccc(S(=O)(=O)[O-])c5F)c5ccc([nH]5)c(-c5cccc(S(=O)(=O)[O-])c5F)c5nc(c(-c6cccc(S(=O)(=O)[O-])c6F)c6ccc3[nH]6)C=C5)C=C4)cc2)CCN1C(=O)N1CCc2ccccc21
REMARK SMILES IDX 10 1 9 2 8 3 7 4 6 5 4 6 5 7 3 8 1 9 2 10 80 11 78 12 79 13
REMARK SMILES IDX 81 14 82 15 83 16 84 17 91 18 85 19 86 20 90 21 87 22 89 23
REMARK SMILES IDX 88 24 11 25 12 26 13 27 14 28 15 29 16 30 77 31 17 32 76 33
REMARK SMILES IDX 18 34 19 35 20 36 70 37 21 38 75 39 69 40 71 41 22 42 74 43
REMARK SMILES IDX 68 44 67 45 23 47 55 48 35 49 54 50 36 51 39 52 53 53 72 54
REMARK SMILES IDX 37 55 38 56 52 58 73 59 40 60 24 61 25 62 33 63 26 64 28 65
REMARK SMILES IDX 34 66 27 67 29 68 30 69 31 70 32 71 56 72 57 73 65 74 58 75
REMARK SMILES IDX 60 76 66 77 59 78 61 79 62 80 63 81 64 82 41 83 42 84 50 85
REMARK SMILES IDX 43 86 45 87 51 88 44 89 46 90 47 91 48 92 49 93
REMARK H PARENT 71 46 39 57
REMARK Flexibility Score: inf
ROOT
ATOM      1  C   UNL A   1      35.826  20.900  24.695  1.00  0.00     0.202 C 
ENDROOT
BRANCH   1   2
ATOM      2  O   UNL A   1      34.784  19.929  24.730  1.00  0.00    -0.374 OA
BRANCH   2   3
ATOM      3  C   UNL A   1      33.686  20.135  25.611  1.00  0.00     0.202 C 
BRANCH   3   4
ATOM      4  C   UNL A   1      32.368  20.661  25.031  1.00  0.00     0.261 C 
BRANCH   4   5
ATOM      5  O   UNL A   1      32.517  21.835  24.216  1.00  0.00    -0.463 OA
BRANCH   5   6
ATOM      6  C   UNL A   1      31.892  22.936  24.694  1.00  0.00     0.311 C 
ATOM      7  O   UNL A   1      31.033  22.921  25.573  1.00  0.00    -0.252 OA
BRANCH   6   8
ATOM      8  C   UNL A   1      32.283  24.229  24.034  1.00  0.00     0.123 C 
ATOM      9  C   UNL A   1      34.508  24.777  25.279  1.00  0.00     0.032 C 
ATOM     10  C   UNL A   1      33.214  25.286  24.639  1.00  0.00     0.098 C 
ATOM     11  N   UNL A   1      33.548  26.105  23.456  1.00  0.00    -0.321 N 
ATOM     12  C   UNL A   1      32.924  23.951  22.684  1.00  0.00     0.039 C 
ATOM     13  C   UNL A   1      33.303  25.346  22.233  1.00  0.00     0.122 C 
BRANCH  11  14
ATOM     14  C   UNL A   1      33.275  27.482  23.433  1.00  0.00     0.324 C 
ATOM     15  O   UNL A   1      33.670  28.229  22.544  1.00  0.00    -0.248 OA
BRANCH  14  16
ATOM     16  N   UNL A   1      32.504  27.904  24.524  1.00  0.00    -0.294 N 
ATOM     17  C   UNL A   1      33.073  28.916  25.430  1.00  0.00     0.132 C 
ATOM     18  C   UNL A   1      31.177  28.290  24.249  1.00  0.00     0.049 A 
ATOM     19  C   UNL A   1      32.053  30.066  25.541  1.00  0.00     0.060 C 
ATOM     20  C   UNL A   1      30.985  29.618  24.599  1.00  0.00    -0.022 A 
ATOM     21  C   UNL A   1      30.283  27.585  23.458  1.00  0.00     0.027 A 
ATOM     22  C   UNL A   1      29.993  30.348  23.973  1.00  0.00     0.006 A 
ATOM     23  C   UNL A   1      29.248  28.301  22.865  1.00  0.00     0.002 A 
ATOM     24  C   UNL A   1      29.145  29.686  23.074  1.00  0.00     0.000 A 
ENDBRANCH  14  16
ENDBRANCH  11  14
ENDBRANCH   6   8
ENDBRANCH   5   6
ENDBRANCH   4   5
ENDBRANCH   3   4
ENDBRANCH   2   3
ENDBRANCH   1   2
BRANCH   1  25
ATOM     25  C   UNL A   1      37.258  20.460  25.031  1.00  0.00     0.261 C 
BRANCH  25  26
ATOM     26  O   UNL A   1      38.185  21.551  25.167  1.00  0.00    -0.460 OA
BRANCH  26  27
ATOM     27  C   UNL A   1      39.220  21.300  26.012  1.00  0.00     0.338 C 
ATOM     28  O   UNL A   1      39.844  20.259  26.118  1.00  0.00    -0.246 OA
BRANCH  27  29
ATOM     29  C   UNL A   1      39.639  22.538  26.697  1.00  0.00     0.060 A 
ATOM     30  C   UNL A   1      38.928  23.710  26.406  1.00  0.00     0.016 A 
ATOM     31  C   UNL A   1      40.764  22.576  27.521  1.00  0.00     0.016 A 
ATOM     32  C   UNL A   1      39.373  24.936  26.893  1.00  0.00     0.010 A 
ATOM     33  C   UNL A   1      41.212  23.811  28.006  1.00  0.00     0.010 A 
ATOM     34  C   UNL A   1      40.544  25.000  27.661  1.00  0.00    -0.014 A 
BRANCH  34  35
ATOM     35  C   UNL A   1      41.136  26.324  27.982  1.00  0.00     0.031 A 
ATOM     36  C   UNL A   1      42.555  26.614  27.574  1.00  0.00     0.074 A 
ATOM     37  C   UNL A   1      40.413  27.264  28.616  1.00  0.00     0.049 A 
ATOM     38  N   UNL A   1      43.268  27.693  27.767  1.00  0.00    -0.248 NA
ATOM     39  C   UNL A   1      43.268  25.545  26.854  1.00  0.00     0.031 C 
ATOM     40  C   UNL A   1      39.027  27.109  29.056  1.00  0.00     0.029 A 
ATOM     41  N   UNL A   1      40.754  28.532  29.018  1.00  0.00    -0.354 N 
ATOM     42  C   UNL A   1      44.518  27.427  27.223  1.00  0.00     0.074 A 
ATOM     43  C   UNL A   1      44.473  26.077  26.703  1.00  0.00     0.031 C 
ATOM     44  C   UNL A   1      38.643  28.230  29.690  1.00  0.00     0.029 A 
ATOM     45  C   UNL A   1      39.762  29.169  29.724  1.00  0.00     0.049 A 
ATOM     46  H   UNL A   1      41.626  28.944  28.819  1.00  0.00     0.167 HD
ATOM     47  C   UNL A   1      45.602  28.235  27.147  1.00  0.00     0.034 A 
ATOM     48  C   UNL A   1      39.765  30.366  30.347  1.00  0.00     0.034 A 
ATOM     49  C   UNL A   1      45.641  29.585  27.645  1.00  0.00     0.049 A 
ATOM     50  C   UNL A   1      40.993  31.235  30.271  1.00  0.00     0.074 A 
ATOM     51  C   UNL A   1      46.677  30.499  27.569  1.00  0.00     0.029 A 
ATOM     52  N   UNL A   1      44.607  30.209  28.323  1.00  0.00    -0.354 N 
ATOM     53  N   UNL A   1      42.127  31.012  29.653  1.00  0.00    -0.248 NA
ATOM     54  C   UNL A   1      40.929  32.537  30.953  1.00  0.00     0.031 C 
ATOM     55  C   UNL A   1      46.281  31.665  28.234  1.00  0.00     0.029 A 
ATOM     56  C   UNL A   1      44.984  31.490  28.688  1.00  0.00     0.049 A 
ATOM     57  H   UNL A   1      43.732  29.801  28.519  1.00  0.00     0.167 HD
ATOM     58  C   UNL A   1      42.894  32.159  29.835  1.00  0.00     0.074 A 
ATOM     59  C   UNL A   1      42.088  33.082  30.607  1.00  0.00     0.031 C 
ATOM     60  C   UNL A   1      44.155  32.420  29.412  1.00  0.00     0.034 A 
BRANCH  47  61
ATOM     61  C   UNL A   1      46.840  27.690  26.483  1.00  0.00     0.023 A 
ATOM     62  C   UNL A   1      47.740  26.893  27.220  1.00  0.00     0.012 A 
ATOM     63  C   UNL A   1      47.080  27.916  25.113  1.00  0.00     0.148 A 
ATOM     64  C   UNL A   1      48.875  26.356  26.613  1.00  0.00     0.002 A 
ATOM     65  C   UNL A   1      48.188  27.339  24.504  1.00  0.00     0.091 A 
ATOM     66  F   UNL A   1      46.225  28.694  24.434  1.00  0.00    -0.205 F 
ATOM     67  C   UNL A   1      49.093  26.570  25.255  1.00  0.00     0.022 A 
BRANCH  65  68
ATOM     68  S   UNL A   1      48.515  27.490  22.745  1.00  0.00     0.127 S 
ATOM     69  O   UNL A   1      49.816  28.157  22.742  1.00  0.00    -0.237 OA
ATOM     70  O   UNL A   1      48.545  26.091  22.317  1.00  0.00    -0.237 OA
ATOM     71  O   UNL A   1      47.413  28.269  22.197  1.00  0.00    -0.744 OA
ENDBRANCH  65  68
ENDBRANCH  47  61
BRANCH  48  72
ATOM     72  C   UNL A   1      38.551  30.825  31.080  1.00  0.00     0.023 A 
ATOM     73  C   UNL A   1      38.452  30.614  32.469  1.00  0.00     0.012 A 
ATOM     74  C   UNL A   1      37.500  31.478  30.408  1.00  0.00     0.148 A 
ATOM     75  C   UNL A   1      37.313  31.013  33.169  1.00  0.00     0.002 A 
ATOM     76  C   UNL A   1      36.395  31.926  31.121  1.00  0.00     0.091 A 
ATOM     77  F   UNL A   1      37.607  31.656  29.084  1.00  0.00    -0.205 F 
ATOM     78  C   UNL A   1      36.290  31.678  32.498  1.00  0.00     0.022 A 
BRANCH  76  79
ATOM     79  S   UNL A   1      35.093  32.905  30.363  1.00  0.00     0.127 S 
ATOM     80  O   UNL A   1      34.576  31.986  29.354  1.00  0.00    -0.237 OA
ATOM     81  O   UNL A   1      34.200  33.144  31.498  1.00  0.00    -0.237 OA
ATOM     82  O   UNL A   1      35.747  34.103  29.854  1.00  0.00    -0.744 OA
ENDBRANCH  76  79
ENDBRANCH  48  72
BRANCH  60  83
ATOM     83  C   UNL A   1      44.738  33.775  29.729  1.00  0.00     0.023 A 
ATOM     84  C   UNL A   1      45.582  33.936  30.844  1.00  0.00     0.012 A 
ATOM     85  C   UNL A   1      44.505  34.872  28.875  1.00  0.00     0.148 A 
ATOM     86  C   UNL A   1      46.156  35.176  31.127  1.00  0.00     0.002 A 
ATOM     87  C   UNL A   1      45.121  36.091  29.132  1.00  0.00     0.091 A 
ATOM     88  F   UNL A   1      43.685  34.704  27.827  1.00  0.00    -0.205 F 
ATOM     89  C   UNL A   1      45.935  36.249  30.265  1.00  0.00     0.022 A 
BRANCH  87  90
ATOM     90  S   UNL A   1      44.974  37.498  28.027  1.00  0.00     0.127 S 
ATOM     91  O   UNL A   1      43.538  37.767  28.075  1.00  0.00    -0.237 OA
ATOM     92  O   UNL A   1      45.807  38.502  28.690  1.00  0.00    -0.237 OA
ATOM     93  O   UNL A   1      45.481  37.051  26.736  1.00  0.00    -0.744 OA
ENDBRANCH  87  90
ENDBRANCH  60  83
ENDBRANCH  34  35
ENDBRANCH  27  29
ENDBRANCH  26  27
ENDBRANCH  25  26
ENDBRANCH   1  25
TORSDOF 19
ENDMDL
MODEL 3
REMARK VINA RESULT:     -11.6      1.569      2.086
REMARK SMILES C[C@@H]1[C@H](C(=O)OCCOCCOC(=O)c2ccc(-c3c4nc(c(-c5cccc(S(=O)(=O)[O-])c5F)c5ccc([nH]5)c(-c5cccc(S(=O)(=O)[O-])c5F)c5nc(c(-c6cccc(S(=O)(=O)[O-])c6F)c6ccc3[nH]6)C=C5)C=C4)cc2)CCN1C(=O)N1CCc2ccccc21
REMARK SMILES IDX 10 1 9 2 8 3 7 4 6 5 4 6 5 7 3 8 1 9 2 10 80 11 78 12 79 13
REMARK SMILES IDX 81 14 82 15 83 16 84 17 91 18 85 19 86 20 90 21 87 22 89 23
REMARK SMILES IDX 88 24 11 25 12 26 13 27 14 28 15 29 16 30 77 31 17 32 76 33
REMARK SMILES IDX 18 34 19 35 20 36 70 37 21 38 75 39 69 40 71 41 22 42 74 43
REMARK SMILES IDX 68 44 67 45 23 47 55 48 35 49 54 50 36 51 39 52 53 53 72 54
REMARK SMILES IDX 37 55 38 56 52 58 73 59 40 60 24 61 25 62 33 63 26 64 28 65
REMARK SMILES IDX 34 66 27 67 29 68 30 69 31 70 32 71 56 72 57 73 65 74 58 75
REMARK SMILES IDX 60 76 66 77 59 78 61 79 62 80 63 81 64 82 41 83 42 84 50 85
REMARK SMILES IDX 43 86 45 87 51 88 44 89 46 90 47 91 48 92 49 93
REMARK H PARENT 71 46 39 57
REMARK Flexibility Score: inf
ROOT
ATOM      1  C   UNL A   1      30.975  30.675  25.006  1.00  0.00     0.202 C 
ENDROOT
BRANCH   1   2
ATOM      2  O   UNL A   1      29.717  30.811  24.353  1.00  0.00    -0.374 OA
BRANCH   2   3
ATOM      3  C   UNL A   1      29.668  30.702  22.934  1.00  0.00     0.202 C 
BRANCH   3   4
ATOM      4  C   UNL A   1      29.226  29.372  22.314  1.00  0.00     0.261 C 
BRANCH   4   5
ATOM      5  O   UNL A   1      30.261  28.377  22.271  1.00  0.00    -0.463 OA
BRANCH   5   6
ATOM      6  C   UNL A   1      30.136  27.392  23.191  1.00  0.00     0.311 C 
ATOM      7  O   UNL A   1      29.064  26.978  23.624  1.00  0.00    -0.252 OA
BRANCH   6   8
ATOM      8  C   UNL A   1      31.433  26.838  23.713  1.00  0.00     0.123 C 
ATOM      9  C   UNL A   1      32.208  25.379  21.695  1.00  0.00     0.032 C 
ATOM     10  C   UNL A   1      32.116  25.561  23.213  1.00  0.00     0.098 C 
ATOM     11  N   UNL A   1      33.478  25.712  23.766  1.00  0.00    -0.321 N 
ATOM     12  C   UNL A   1      32.532  27.880  23.585  1.00  0.00     0.039 C 
ATOM     13  C   UNL A   1      33.739  27.113  24.085  1.00  0.00     0.122 C 
BRANCH  11  14
ATOM     14  C   UNL A   1      34.020  24.738  24.619  1.00  0.00     0.324 C 
ATOM     15  O   UNL A   1      33.779  24.691  25.821  1.00  0.00    -0.248 OA
BRANCH  14  16
ATOM     16  N   UNL A   1      34.853  23.830  23.952  1.00  0.00    -0.294 N 
ATOM     17  C   UNL A   1      36.272  23.771  24.341  1.00  0.00     0.132 C 
ATOM     18  C   UNL A   1      34.392  22.502  23.856  1.00  0.00     0.049 A 
ATOM     19  C   UNL A   1      36.604  22.301  24.667  1.00  0.00     0.060 C 
ATOM     20  C   UNL A   1      35.276  21.644  24.493  1.00  0.00    -0.022 A 
ATOM     21  C   UNL A   1      33.113  22.121  23.483  1.00  0.00     0.027 A 
ATOM     22  C   UNL A   1      34.816  20.434  24.979  1.00  0.00     0.006 A 
ATOM     23  C   UNL A   1      32.658  20.881  23.923  1.00  0.00     0.002 A 
ATOM     24  C   UNL A   1      33.486  20.074  24.719  1.00  0.00     0.000 A 
ENDBRANCH  14  16
ENDBRANCH  11  14
ENDBRANCH   6   8
ENDBRANCH   5   6
ENDBRANCH   4   5
ENDBRANCH   3   4
ENDBRANCH   2   3
ENDBRANCH   1   2
BRANCH   1  25
ATOM     25  C   UNL A   1      31.278  31.567  26.218  1.00  0.00     0.261 C 
BRANCH  25  26
ATOM     26  O   UNL A   1      32.423  31.145  26.979  1.00  0.00    -0.460 OA
BRANCH  26  27
ATOM     27  C   UNL A   1      33.216  32.164  27.405  1.00  0.00     0.338 C 
ATOM     28  O   UNL A   1      32.881  33.318  27.607  1.00  0.00    -0.246 OA
BRANCH  27  29
ATOM     29  C   UNL A   1      34.550  31.658  27.779  1.00  0.00     0.060 A 
ATOM     30  C   UNL A   1      34.681  30.281  28.001  1.00  0.00     0.016 A 
ATOM     31  C   UNL A   1      35.623  32.520  28.012  1.00  0.00     0.016 A 
ATOM     32  C   UNL A   1      35.870  29.765  28.511  1.00  0.00     0.010 A 
ATOM     33  C   UNL A   1      36.815  31.999  28.530  1.00  0.00     0.010 A 
ATOM     34  C   UNL A   1      36.930  30.627  28.820  1.00  0.00    -0.014 A 
BRANCH  34  35
ATOM     35  C   UNL A   1      38.100  30.107  29.572  1.00  0.00     0.031 A 
ATOM     36  C   UNL A   1      38.329  30.565  30.987  1.00  0.00     0.074 A 
ATOM     37  C   UNL A   1      38.942  29.222  29.007  1.00  0.00     0.049 A 
ATOM     38  N   UNL A   1      39.292  30.248  31.814  1.00  0.00    -0.248 NA
ATOM     39  C   UNL A   1      37.345  31.507  31.545  1.00  0.00     0.031 C 
ATOM     40  C   UNL A   1      38.824  28.696  27.648  1.00  0.00     0.029 A 
ATOM     41  N   UNL A   1      40.075  28.627  29.502  1.00  0.00    -0.354 N 
ATOM     42  C   UNL A   1      39.049  30.971  32.976  1.00  0.00     0.074 A 
ATOM     43  C   UNL A   1      37.855  31.755  32.743  1.00  0.00     0.031 C 
ATOM     44  C   UNL A   1      39.860  27.873  27.408  1.00  0.00     0.029 A 
ATOM     45  C   UNL A   1      40.726  27.837  28.585  1.00  0.00     0.049 A 
ATOM     46  H   UNL A   1      40.391  28.754  30.426  1.00  0.00     0.167 HD
ATOM     47  C   UNL A   1      39.745  30.971  34.138  1.00  0.00     0.034 A 
ATOM     48  C   UNL A   1      41.900  27.178  28.677  1.00  0.00     0.034 A 
ATOM     49  C   UNL A   1      40.919  30.176  34.377  1.00  0.00     0.049 A 
ATOM     50  C   UNL A   1      42.670  27.217  29.971  1.00  0.00     0.074 A 
ATOM     51  C   UNL A   1      41.665  30.071  35.539  1.00  0.00     0.029 A 
ATOM     52  N   UNL A   1      41.530  29.361  33.437  1.00  0.00    -0.354 N 
ATOM     53  N   UNL A   1      42.363  27.814  31.097  1.00  0.00    -0.248 NA
ATOM     54  C   UNL A   1      43.931  26.462  30.017  1.00  0.00     0.031 C 
ATOM     55  C   UNL A   1      42.746  29.220  35.289  1.00  0.00     0.029 A 
ATOM     56  C   UNL A   1      42.652  28.763  33.985  1.00  0.00     0.049 A 
ATOM     57  H   UNL A   1      41.213  29.228  32.514  1.00  0.00     0.167 HD
ATOM     58  C   UNL A   1      43.371  27.475  31.996  1.00  0.00     0.074 A 
ATOM     59  C   UNL A   1      44.286  26.605  31.287  1.00  0.00     0.031 C 
ATOM     60  C   UNL A   1      43.529  27.858  33.287  1.00  0.00     0.034 A 
BRANCH  47  61
ATOM     61  C   UNL A   1      39.245  31.850  35.255  1.00  0.00     0.023 A 
ATOM     62  C   UNL A   1      38.321  31.339  36.190  1.00  0.00     0.012 A 
ATOM     63  C   UNL A   1      39.736  33.161  35.414  1.00  0.00     0.148 A 
ATOM     64  C   UNL A   1      37.870  32.130  37.246  1.00  0.00     0.002 A 
ATOM     65  C   UNL A   1      39.317  33.926  36.496  1.00  0.00     0.091 A 
ATOM     66  F   UNL A   1      40.597  33.636  34.504  1.00  0.00    -0.205 F 
ATOM     67  C   UNL A   1      38.375  33.417  37.405  1.00  0.00     0.022 A 
BRANCH  65  68
ATOM     68  S   UNL A   1      39.968  35.566  36.833  1.00  0.00     0.127 S 
ATOM     69  O   UNL A   1      41.407  35.309  36.879  1.00  0.00    -0.237 OA
ATOM     70  O   UNL A   1      39.521  36.321  35.663  1.00  0.00    -0.237 OA
ATOM     71  O   UNL A   1      39.369  35.985  38.093  1.00  0.00    -0.744 OA
ENDBRANCH  65  68
ENDBRANCH  47  61
BRANCH  48  72
ATOM     72  C   UNL A   1      42.409  26.401  27.511  1.00  0.00     0.023 A 
ATOM     73  C   UNL A   1      43.236  27.030  26.561  1.00  0.00     0.012 A 
ATOM     74  C   UNL A   1      42.085  25.041  27.347  1.00  0.00     0.148 A 
ATOM     75  C   UNL A   1      43.702  26.328  25.449  1.00  0.00     0.002 A 
ATOM     76  C   UNL A   1      42.601  24.331  26.270  1.00  0.00     0.091 A 
ATOM     77  F   UNL A   1      41.285  24.465  28.255  1.00  0.00    -0.205 F 
ATOM     78  C   UNL A   1      43.394  24.976  25.309  1.00  0.00     0.022 A 
BRANCH  76  79
ATOM     79  S   UNL A   1      42.364  22.560  26.082  1.00  0.00     0.127 S 
ATOM     80  O   UNL A   1      43.013  22.306  24.799  1.00  0.00    -0.237 OA
ATOM     81  O   UNL A   1      43.076  22.038  27.249  1.00  0.00    -0.237 OA
ATOM     82  O   UNL A   1      40.924  22.350  26.116  1.00  0.00    -0.744 OA
ENDBRANCH  76  79
ENDBRANCH  48  72
BRANCH  60  83
ATOM     83  C   UNL A   1      44.711  27.307  34.044  1.00  0.00     0.023 A 
ATOM     84  C   UNL A   1      45.932  28.010  34.055  1.00  0.00     0.012 A 
ATOM     85  C   UNL A   1      44.588  26.128  34.807  1.00  0.00     0.148 A 
ATOM     86  C   UNL A   1      47.021  27.529  34.781  1.00  0.00     0.002 A 
ATOM     87  C   UNL A   1      45.660  25.682  35.569  1.00  0.00     0.091 A 
ATOM     88  F   UNL A   1      43.423  25.464  34.772  1.00  0.00    -0.205 F 
ATOM     89  C   UNL A   1      46.881  26.373  35.547  1.00  0.00     0.022 A 
BRANCH  87  90
ATOM     90  S   UNL A   1      45.543  24.262  36.661  1.00  0.00     0.127 S 
ATOM     91  O   UNL A   1      44.483  24.676  37.579  1.00  0.00    -0.237 OA
ATOM     92  O   UNL A   1      45.168  23.190  35.738  1.00  0.00    -0.237 OA
ATOM     93  O   UNL A   1      46.861  24.106  37.262  1.00  0.00    -0.744 OA
ENDBRANCH  87  90
ENDBRANCH  60  83
ENDBRANCH  34  35
ENDBRANCH  27  29
ENDBRANCH  26  27
ENDBRANCH  25  26
ENDBRANCH   1  25
TORSDOF 19
ENDMDL
