MODEL 1
REMARK VINA RESULT:     -11.3      0.000      0.000
REMARK SMILES Cc1ccc(Cl)c(Nc2ccccc2C(=O)OCCOCCOC(=O)c2ccc(-c3c4nc(c(-c5cccc(S(=O)(=O)[O-])c5F)c5ccc([nH]5)c(-c5cccc(S(=O)(=O)[O-])c5F)c5nc(c(-c6cccc(S(=O)(=O)[O-])c6F)c6ccc3[nH]6)C=C5)C=C4)cc2)c1Cl
REMARK SMILES IDX 21 1 20 2 19 3 18 4 17 5 15 6 16 7 14 8 9 9 10 10 11 11
REMARK SMILES IDX 13 12 12 13 8 14 7 16 1 17 2 18 3 19 89 20 4 21 90 22 5 23
REMARK SMILES IDX 6 24 22 25 23 26 24 27 25 28 26 29 27 30 88 31 28 32 87 33
REMARK SMILES IDX 29 34 30 35 31 36 81 37 32 38 86 39 80 40 82 41 33 42 85 43
REMARK SMILES IDX 79 44 78 45 34 47 66 48 46 49 65 50 47 51 50 52 64 53 83 54
REMARK SMILES IDX 48 55 49 56 63 58 84 59 51 60 35 61 36 62 44 63 37 64 39 65
REMARK SMILES IDX 45 66 38 67 40 68 41 69 42 70 43 71 67 72 68 73 76 74 69 75
REMARK SMILES IDX 71 76 77 77 70 78 72 79 73 80 74 81 75 82 52 83 53 84 61 85
REMARK SMILES IDX 54 86 56 87 62 88 55 89 57 90 58 91 59 92 60 93
REMARK H PARENT 8 15 82 46 50 57
REMARK Flexibility Score: inf
ROOT
ATOM      1  C   UNL A   1      35.588  21.787  25.663  1.00  0.00     0.202 C 
ENDROOT
BRANCH   1   2
ATOM      2  O   UNL A   1      34.732  21.520  26.772  1.00  0.00    -0.374 OA
BRANCH   2   3
ATOM      3  C   UNL A   1      34.190  22.640  27.473  1.00  0.00     0.202 C 
BRANCH   3   4
ATOM      4  C   UNL A   1      32.764  22.501  28.009  1.00  0.00     0.261 C 
BRANCH   4   5
ATOM      5  O   UNL A   1      31.851  23.388  27.345  1.00  0.00    -0.460 OA
BRANCH   5   6
ATOM      6  C   UNL A   1      31.201  22.857  26.279  1.00  0.00     0.340 C 
ATOM      7  O   UNL A   1      30.091  22.343  26.296  1.00  0.00    -0.246 OA
BRANCH   6   8
ATOM      8  C   UNL A   1      31.916  23.143  25.008  1.00  0.00     0.083 A 
ATOM      9  C   UNL A   1      32.368  24.406  24.576  1.00  0.00     0.053 A 
ATOM     10  C   UNL A   1      32.997  24.469  23.313  1.00  0.00     0.027 A 
ATOM     11  C   UNL A   1      33.189  23.334  22.519  1.00  0.00     0.002 A 
ATOM     12  C   UNL A   1      32.117  22.002  24.201  1.00  0.00     0.018 A 
ATOM     13  C   UNL A   1      32.752  22.096  22.966  1.00  0.00     0.001 A 
BRANCH   9  14
ATOM     14  N   UNL A   1      32.358  25.608  25.310  1.00  0.00    -0.352 N 
ATOM     15  H   UNL A   1      32.840  25.547  26.165  1.00  0.00     0.167 HD
BRANCH  14  16
ATOM     16  C   UNL A   1      31.799  26.888  25.073  1.00  0.00     0.077 A 
ATOM     17  C   UNL A   1      29.133  28.643  22.941  1.00  0.00     0.046 C 
ATOM     18  C   UNL A   1      30.261  28.411  23.909  1.00  0.00    -0.030 A 
ATOM     19  C   UNL A   1      31.017  29.504  24.345  1.00  0.00     0.006 A 
ATOM     20  C   UNL A   1      30.611  27.116  24.342  1.00  0.00     0.069 A 
ATOM     21  C   UNL A   1      32.117  29.312  25.175  1.00  0.00     0.023 A 
ATOM     22  Cl  UNL A   1      29.484  25.815  24.061  1.00  0.00    -0.082 Cl
ATOM     23  C   UNL A   1      32.522  28.021  25.504  1.00  0.00     0.066 A 
ATOM     24  Cl  UNL A   1      33.971  27.840  26.440  1.00  0.00    -0.082 Cl
ENDBRANCH  14  16
ENDBRANCH   9  14
ENDBRANCH   6   8
ENDBRANCH   5   6
ENDBRANCH   4   5
ENDBRANCH   3   4
ENDBRANCH   2   3
ENDBRANCH   1   2
BRANCH   1  25
ATOM     25  C   UNL A   1      36.689  20.765  25.352  1.00  0.00     0.261 C 
BRANCH  25  26
ATOM     26  O   UNL A   1      37.953  21.356  25.004  1.00  0.00    -0.460 OA
BRANCH  26  27
ATOM     27  C   UNL A   1      38.965  21.066  25.855  1.00  0.00     0.338 C 
ATOM     28  O   UNL A   1      39.502  19.976  26.018  1.00  0.00    -0.246 OA
BRANCH  27  29
ATOM     29  C   UNL A   1      39.478  22.289  26.495  1.00  0.00     0.060 A 
ATOM     30  C   UNL A   1      38.939  23.516  26.086  1.00  0.00     0.016 A 
ATOM     31  C   UNL A   1      40.547  22.247  27.392  1.00  0.00     0.016 A 
ATOM     32  C   UNL A   1      39.500  24.710  26.536  1.00  0.00     0.010 A 
ATOM     33  C   UNL A   1      41.112  23.448  27.836  1.00  0.00     0.010 A 
ATOM     34  C   UNL A   1      40.616  24.684  27.382  1.00  0.00    -0.014 A 
BRANCH  34  35
ATOM     35  C   UNL A   1      41.327  25.945  27.706  1.00  0.00     0.031 A 
ATOM     36  C   UNL A   1      40.610  27.026  28.464  1.00  0.00     0.074 A 
ATOM     37  C   UNL A   1      42.599  26.132  27.314  1.00  0.00     0.049 A 
ATOM     38  N   UNL A   1      41.047  28.201  28.833  1.00  0.00    -0.248 NA
ATOM     39  C   UNL A   1      39.220  26.746  28.857  1.00  0.00     0.031 C 
ATOM     40  C   UNL A   1      43.393  25.160  26.570  1.00  0.00     0.029 A 
ATOM     41  N   UNL A   1      43.433  27.212  27.455  1.00  0.00    -0.354 N 
ATOM     42  C   UNL A   1      39.981  28.814  29.480  1.00  0.00     0.074 A 
ATOM     43  C   UNL A   1      38.872  27.884  29.440  1.00  0.00     0.031 C 
ATOM     44  C   UNL A   1      44.586  25.702  26.274  1.00  0.00     0.029 A 
ATOM     45  C   UNL A   1      44.635  27.064  26.804  1.00  0.00     0.049 A 
ATOM     46  H   UNL A   1      43.195  28.016  27.973  1.00  0.00     0.167 HD
ATOM     47  C   UNL A   1      39.936  30.031  30.070  1.00  0.00     0.034 A 
ATOM     48  C   UNL A   1      45.651  27.934  26.638  1.00  0.00     0.034 A 
ATOM     49  C   UNL A   1      41.046  30.945  30.127  1.00  0.00     0.049 A 
ATOM     50  C   UNL A   1      45.573  29.289  27.289  1.00  0.00     0.074 A 
ATOM     51  C   UNL A   1      41.122  32.168  30.770  1.00  0.00     0.029 A 
ATOM     52  N   UNL A   1      42.268  30.745  29.502  1.00  0.00    -0.354 N 
ATOM     53  N   UNL A   1      44.616  29.792  28.032  1.00  0.00    -0.248 NA
ATOM     54  C   UNL A   1      46.727  30.182  27.114  1.00  0.00     0.031 C 
ATOM     55  C   UNL A   1      42.382  32.719  30.511  1.00  0.00     0.029 A 
ATOM     56  C   UNL A   1      43.098  31.830  29.726  1.00  0.00     0.049 A 
ATOM     57  H   UNL A   1      42.509  29.949  28.977  1.00  0.00     0.167 HD
ATOM     58  C   UNL A   1      45.064  31.044  28.437  1.00  0.00     0.074 A 
ATOM     59  C   UNL A   1      46.388  31.215  27.874  1.00  0.00     0.031 C 
ATOM     60  C   UNL A   1      44.430  31.973  29.196  1.00  0.00     0.034 A 
BRANCH  47  61
ATOM     61  C   UNL A   1      38.645  30.434  30.731  1.00  0.00     0.023 A 
ATOM     62  C   UNL A   1      38.415  30.085  32.078  1.00  0.00     0.012 A 
ATOM     63  C   UNL A   1      37.678  31.185  30.036  1.00  0.00     0.148 A 
ATOM     64  C   UNL A   1      37.229  30.450  32.712  1.00  0.00     0.002 A 
ATOM     65  C   UNL A   1      36.516  31.579  30.688  1.00  0.00     0.091 A 
ATOM     66  F   UNL A   1      37.902  31.482  28.747  1.00  0.00    -0.205 F 
ATOM     67  C   UNL A   1      36.285  31.205  32.022  1.00  0.00     0.022 A 
BRANCH  65  68
ATOM     68  S   UNL A   1      35.276  32.612  29.899  1.00  0.00     0.127 S 
ATOM     69  O   UNL A   1      34.784  31.729  28.843  1.00  0.00    -0.237 OA
ATOM     70  O   UNL A   1      34.327  32.847  30.987  1.00  0.00    -0.237 OA
ATOM     71  O   UNL A   1      35.982  33.803  29.447  1.00  0.00    -0.744 OA
ENDBRANCH  65  68
ENDBRANCH  47  61
BRANCH  48  72
ATOM     72  C   UNL A   1      46.847  27.524  25.851  1.00  0.00     0.023 A 
ATOM     73  C   UNL A   1      46.888  27.770  24.466  1.00  0.00     0.012 A 
ATOM     74  C   UNL A   1      47.964  26.939  26.481  1.00  0.00     0.148 A 
ATOM     75  C   UNL A   1      48.013  27.422  23.717  1.00  0.00     0.002 A 
ATOM     76  C   UNL A   1      49.101  26.645  25.738  1.00  0.00     0.091 A 
ATOM     77  F   UNL A   1      47.899  26.701  27.798  1.00  0.00    -0.205 F 
ATOM     78  C   UNL A   1      49.122  26.871  24.353  1.00  0.00     0.022 A 
BRANCH  76  79
ATOM     79  S   UNL A   1      50.624  26.065  26.494  1.00  0.00     0.127 S 
ATOM     80  O   UNL A   1      50.929  27.149  27.422  1.00  0.00    -0.237 OA
ATOM     81  O   UNL A   1      50.188  24.817  27.122  1.00  0.00    -0.237 OA
ATOM     82  O   UNL A   1      51.564  25.886  25.396  1.00  0.00    -0.744 OA
ENDBRANCH  76  79
ENDBRANCH  48  72
BRANCH  60  83
ATOM     83  C   UNL A   1      45.162  33.259  29.482  1.00  0.00     0.023 A 
ATOM     84  C   UNL A   1      46.026  33.337  30.591  1.00  0.00     0.012 A 
ATOM     85  C   UNL A   1      45.056  34.361  28.611  1.00  0.00     0.148 A 
ATOM     86  C   UNL A   1      46.752  34.499  30.845  1.00  0.00     0.002 A 
ATOM     87  C   UNL A   1      45.816  35.501  28.843  1.00  0.00     0.091 A 
ATOM     88  F   UNL A   1      44.211  34.276  27.571  1.00  0.00    -0.205 F 
ATOM     89  C   UNL A   1      46.658  35.575  29.966  1.00  0.00     0.022 A 
BRANCH  87  90
ATOM     90  S   UNL A   1      45.827  36.897  27.712  1.00  0.00     0.127 S 
ATOM     91  O   UNL A   1      46.906  37.717  28.262  1.00  0.00    -0.237 OA
ATOM     92  O   UNL A   1      46.136  36.260  26.432  1.00  0.00    -0.237 OA
ATOM     93  O   UNL A   1      44.494  37.481  27.787  1.00  0.00    -0.744 OA
ENDBRANCH  87  90
ENDBRANCH  60  83
ENDBRANCH  34  35
ENDBRANCH  27  29
ENDBRANCH  26  27
ENDBRANCH  25  26
ENDBRANCH   1  25
TORSDOF 19
ENDMDL
MODEL 2
REMARK VINA RESULT:     -11.2      1.203      8.005
REMARK SMILES Cc1ccc(Cl)c(Nc2ccccc2C(=O)OCCOCCOC(=O)c2ccc(-c3c4nc(c(-c5cccc(S(=O)(=O)[O-])c5F)c5ccc([nH]5)c(-c5cccc(S(=O)(=O)[O-])c5F)c5nc(c(-c6cccc(S(=O)(=O)[O-])c6F)c6ccc3[nH]6)C=C5)C=C4)cc2)c1Cl
REMARK SMILES IDX 21 1 20 2 19 3 18 4 17 5 15 6 16 7 14 8 9 9 10 10 11 11
REMARK SMILES IDX 13 12 12 13 8 14 7 16 1 17 2 18 3 19 89 20 4 21 90 22 5 23
REMARK SMILES IDX 6 24 22 25 23 26 24 27 25 28 26 29 27 30 88 31 28 32 87 33
REMARK SMILES IDX 29 34 30 35 31 36 81 37 32 38 86 39 80 40 82 41 33 42 85 43
REMARK SMILES IDX 79 44 78 45 34 47 66 48 46 49 65 50 47 51 50 52 64 53 83 54
REMARK SMILES IDX 48 55 49 56 63 58 84 59 51 60 35 61 36 62 44 63 37 64 39 65
REMARK SMILES IDX 45 66 38 67 40 68 41 69 42 70 43 71 67 72 68 73 76 74 69 75
REMARK SMILES IDX 71 76 77 77 70 78 72 79 73 80 74 81 75 82 52 83 53 84 61 85
REMARK SMILES IDX 54 86 56 87 62 88 55 89 57 90 58 91 59 92 60 93
REMARK H PARENT 8 15 82 46 50 57
REMARK Flexibility Score: inf
ROOT
ATOM      1  C   UNL A   1      35.499  20.884  25.209  1.00  0.00     0.202 C 
ENDROOT
BRANCH   1   2
ATOM      2  O   UNL A   1      35.190  21.481  26.467  1.00  0.00    -0.374 OA
BRANCH   2   3
ATOM      3  C   UNL A   1      34.721  22.829  26.461  1.00  0.00     0.202 C 
BRANCH   3   4
ATOM      4  C   UNL A   1      33.914  23.278  25.242  1.00  0.00     0.261 C 
BRANCH   4   5
ATOM      5  O   UNL A   1      33.325  24.574  25.434  1.00  0.00    -0.460 OA
BRANCH   5   6
ATOM      6  C   UNL A   1      33.663  25.505  24.508  1.00  0.00     0.340 C 
ATOM      7  O   UNL A   1      34.023  25.281  23.360  1.00  0.00    -0.246 OA
BRANCH   6   8
ATOM      8  C   UNL A   1      33.358  26.880  24.982  1.00  0.00     0.083 A 
ATOM      9  C   UNL A   1      32.408  27.758  24.424  1.00  0.00     0.053 A 
ATOM     10  C   UNL A   1      32.296  29.041  25.005  1.00  0.00     0.027 A 
ATOM     11  C   UNL A   1      33.074  29.434  26.099  1.00  0.00     0.002 A 
ATOM     12  C   UNL A   1      34.135  27.284  26.089  1.00  0.00     0.018 A 
ATOM     13  C   UNL A   1      33.993  28.551  26.646  1.00  0.00     0.001 A 
BRANCH   9  14
ATOM     14  N   UNL A   1      31.474  27.468  23.411  1.00  0.00    -0.352 N 
ATOM     15  H   UNL A   1      31.875  27.028  22.627  1.00  0.00     0.167 HD
BRANCH  14  16
ATOM     16  C   UNL A   1      30.079  27.676  23.284  1.00  0.00     0.077 A 
ATOM     17  C   UNL A   1      27.517  30.449  22.594  1.00  0.00     0.046 C 
ATOM     18  C   UNL A   1      28.115  29.110  22.925  1.00  0.00    -0.030 A 
ATOM     19  C   UNL A   1      27.292  28.110  23.455  1.00  0.00     0.006 A 
ATOM     20  C   UNL A   1      29.493  28.855  22.769  1.00  0.00     0.069 A 
ATOM     21  C   UNL A   1      27.831  26.890  23.847  1.00  0.00     0.023 A 
ATOM     22  Cl  UNL A   1      30.440  29.970  21.821  1.00  0.00    -0.082 Cl
ATOM     23  C   UNL A   1      29.209  26.690  23.796  1.00  0.00     0.066 A 
ATOM     24  Cl  UNL A   1      29.834  25.195  24.412  1.00  0.00    -0.082 Cl
ENDBRANCH  14  16
ENDBRANCH   9  14
ENDBRANCH   6   8
ENDBRANCH   5   6
ENDBRANCH   4   5
ENDBRANCH   3   4
ENDBRANCH   2   3
ENDBRANCH   1   2
BRANCH   1  25
ATOM     25  C   UNL A   1      36.916  20.329  25.013  1.00  0.00     0.261 C 
BRANCH  25  26
ATOM     26  O   UNL A   1      37.941  21.337  25.005  1.00  0.00    -0.460 OA
BRANCH  26  27
ATOM     27  C   UNL A   1      38.961  21.110  25.867  1.00  0.00     0.338 C 
ATOM     28  O   UNL A   1      39.553  20.052  26.047  1.00  0.00    -0.246 OA
BRANCH  27  29
ATOM     29  C   UNL A   1      39.404  22.366  26.496  1.00  0.00     0.060 A 
ATOM     30  C   UNL A   1      38.747  23.548  26.129  1.00  0.00     0.016 A 
ATOM     31  C   UNL A   1      40.517  22.405  27.338  1.00  0.00     0.016 A 
ATOM     32  C   UNL A   1      39.231  24.780  26.565  1.00  0.00     0.010 A 
ATOM     33  C   UNL A   1      41.004  23.644  27.768  1.00  0.00     0.010 A 
ATOM     34  C   UNL A   1      40.386  24.839  27.355  1.00  0.00    -0.014 A 
BRANCH  34  35
ATOM     35  C   UNL A   1      41.008  26.151  27.659  1.00  0.00     0.031 A 
ATOM     36  C   UNL A   1      42.425  26.415  27.234  1.00  0.00     0.074 A 
ATOM     37  C   UNL A   1      40.321  27.096  28.323  1.00  0.00     0.049 A 
ATOM     38  N   UNL A   1      43.153  27.486  27.414  1.00  0.00    -0.248 NA
ATOM     39  C   UNL A   1      43.111  25.331  26.513  1.00  0.00     0.031 C 
ATOM     40  C   UNL A   1      38.945  26.952  28.789  1.00  0.00     0.029 A 
ATOM     41  N   UNL A   1      40.693  28.345  28.750  1.00  0.00    -0.354 N 
ATOM     42  C   UNL A   1      44.391  27.200  26.853  1.00  0.00     0.074 A 
ATOM     43  C   UNL A   1      44.319  25.849  26.338  1.00  0.00     0.031 C 
ATOM     44  C   UNL A   1      38.600  28.050  29.482  1.00  0.00     0.029 A 
ATOM     45  C   UNL A   1      39.736  28.970  29.512  1.00  0.00     0.049 A 
ATOM     46  H   UNL A   1      41.562  28.754  28.531  1.00  0.00     0.167 HD
ATOM     47  C   UNL A   1      45.481  27.995  26.757  1.00  0.00     0.034 A 
ATOM     48  C   UNL A   1      39.776  30.144  30.175  1.00  0.00     0.034 A 
ATOM     49  C   UNL A   1      45.543  29.346  27.250  1.00  0.00     0.049 A 
ATOM     50  C   UNL A   1      41.005  31.006  30.068  1.00  0.00     0.074 A 
ATOM     51  C   UNL A   1      46.576  30.259  27.131  1.00  0.00     0.029 A 
ATOM     52  N   UNL A   1      44.538  29.971  27.974  1.00  0.00    -0.354 N 
ATOM     53  N   UNL A   1      42.111  30.785  29.399  1.00  0.00    -0.248 NA
ATOM     54  C   UNL A   1      40.979  32.296  30.774  1.00  0.00     0.031 C 
ATOM     55  C   UNL A   1      46.205  31.428  27.806  1.00  0.00     0.029 A 
ATOM     56  C   UNL A   1      44.933  31.250  28.327  1.00  0.00     0.049 A 
ATOM     57  H   UNL A   1      43.672  29.564  28.202  1.00  0.00     0.167 HD
ATOM     58  C   UNL A   1      42.899  31.917  29.576  1.00  0.00     0.074 A 
ATOM     59  C   UNL A   1      42.135  32.831  30.401  1.00  0.00     0.031 C 
ATOM     60  C   UNL A   1      44.148  32.169  29.110  1.00  0.00     0.034 A 
BRANCH  47  61
ATOM     61  C   UNL A   1      46.692  27.433  26.063  1.00  0.00     0.023 A 
ATOM     62  C   UNL A   1      46.825  27.581  24.667  1.00  0.00     0.012 A 
ATOM     63  C   UNL A   1      47.712  26.792  26.791  1.00  0.00     0.148 A 
ATOM     64  C   UNL A   1      47.939  27.072  24.002  1.00  0.00     0.002 A 
ATOM     65  C   UNL A   1      48.839  26.322  26.125  1.00  0.00     0.091 A 
ATOM     66  F   UNL A   1      47.554  26.635  28.113  1.00  0.00    -0.205 F 
ATOM     67  C   UNL A   1      48.950  26.452  24.732  1.00  0.00     0.022 A 
BRANCH  65  68
ATOM     68  S   UNL A   1      50.222  25.573  26.993  1.00  0.00     0.127 S 
ATOM     69  O   UNL A   1      51.173  25.358  25.903  1.00  0.00    -0.237 OA
ATOM     70  O   UNL A   1      50.605  26.625  27.936  1.00  0.00    -0.237 OA
ATOM     71  O   UNL A   1      49.693  24.368  27.616  1.00  0.00    -0.744 OA
ENDBRANCH  65  68
ENDBRANCH  47  61
BRANCH  48  72
ATOM     72  C   UNL A   1      38.592  30.583  30.963  1.00  0.00     0.023 A 
ATOM     73  C   UNL A   1      38.551  30.348  32.350  1.00  0.00     0.012 A 
ATOM     74  C   UNL A   1      37.529  31.279  30.351  1.00  0.00     0.148 A 
ATOM     75  C   UNL A   1      37.464  30.780  33.111  1.00  0.00     0.002 A 
ATOM     76  C   UNL A   1      36.477  31.753  31.124  1.00  0.00     0.091 A 
ATOM     77  F   UNL A   1      37.582  31.480  29.027  1.00  0.00    -0.205 F 
ATOM     78  C   UNL A   1      36.434  31.491  32.502  1.00  0.00     0.022 A 
BRANCH  76  79
ATOM     79  S   UNL A   1      35.180  32.798  30.451  1.00  0.00     0.127 S 
ATOM     80  O   UNL A   1      34.609  31.939  29.418  1.00  0.00    -0.237 OA
ATOM     81  O   UNL A   1      34.328  33.006  31.622  1.00  0.00    -0.237 OA
ATOM     82  O   UNL A   1      35.850  34.000  29.976  1.00  0.00    -0.744 OA
ENDBRANCH  76  79
ENDBRANCH  48  72
BRANCH  60  83
ATOM     83  C   UNL A   1      44.770  33.496  29.462  1.00  0.00     0.023 A 
ATOM     84  C   UNL A   1      45.497  33.628  30.661  1.00  0.00     0.012 A 
ATOM     85  C   UNL A   1      44.705  34.585  28.570  1.00  0.00     0.148 A 
ATOM     86  C   UNL A   1      46.126  34.830  30.981  1.00  0.00     0.002 A 
ATOM     87  C   UNL A   1      45.371  35.767  28.874  1.00  0.00     0.091 A 
ATOM     88  F   UNL A   1      43.990  34.447  27.443  1.00  0.00    -0.205 F 
ATOM     89  C   UNL A   1      46.073  35.894  30.084  1.00  0.00     0.022 A 
BRANCH  87  90
ATOM     90  S   UNL A   1      45.435  37.154  27.734  1.00  0.00     0.127 S 
ATOM     91  O   UNL A   1      44.046  37.613  27.746  1.00  0.00    -0.237 OA
ATOM     92  O   UNL A   1      46.381  38.056  28.391  1.00  0.00    -0.237 OA
ATOM     93  O   UNL A   1      45.905  36.608  26.467  1.00  0.00    -0.744 OA
ENDBRANCH  87  90
ENDBRANCH  60  83
ENDBRANCH  34  35
ENDBRANCH  27  29
ENDBRANCH  26  27
ENDBRANCH  25  26
ENDBRANCH   1  25
TORSDOF 19
ENDMDL
MODEL 3
REMARK VINA RESULT:     -11.2      5.026      7.878
REMARK SMILES Cc1ccc(Cl)c(Nc2ccccc2C(=O)OCCOCCOC(=O)c2ccc(-c3c4nc(c(-c5cccc(S(=O)(=O)[O-])c5F)c5ccc([nH]5)c(-c5cccc(S(=O)(=O)[O-])c5F)c5nc(c(-c6cccc(S(=O)(=O)[O-])c6F)c6ccc3[nH]6)C=C5)C=C4)cc2)c1Cl
REMARK SMILES IDX 21 1 20 2 19 3 18 4 17 5 15 6 16 7 14 8 9 9 10 10 11 11
REMARK SMILES IDX 13 12 12 13 8 14 7 16 1 17 2 18 3 19 89 20 4 21 90 22 5 23
REMARK SMILES IDX 6 24 22 25 23 26 24 27 25 28 26 29 27 30 88 31 28 32 87 33
REMARK SMILES IDX 29 34 30 35 31 36 81 37 32 38 86 39 80 40 82 41 33 42 85 43
REMARK SMILES IDX 79 44 78 45 34 47 66 48 46 49 65 50 47 51 50 52 64 53 83 54
REMARK SMILES IDX 48 55 49 56 63 58 84 59 51 60 35 61 36 62 44 63 37 64 39 65
REMARK SMILES IDX 45 66 38 67 40 68 41 69 42 70 43 71 67 72 68 73 76 74 69 75
REMARK SMILES IDX 71 76 77 77 70 78 72 79 73 80 74 81 75 82 52 83 53 84 61 85
REMARK SMILES IDX 54 86 56 87 62 88 55 89 57 90 58 91 59 92 60 93
REMARK H PARENT 8 15 82 46 50 57
REMARK Flexibility Score: inf
ROOT
ATOM      1  C   UNL A   1      31.351  31.920  26.394  1.00  0.00     0.202 C 
ENDROOT
BRANCH   1   2
ATOM      2  O   UNL A   1      31.454  30.670  27.075  1.00  0.00    -0.374 OA
BRANCH   2   3
ATOM      3  C   UNL A   1      32.206  29.634  26.443  1.00  0.00     0.202 C 
BRANCH   3   4
ATOM      4  C   UNL A   1      32.380  28.328  27.221  1.00  0.00     0.261 C 
BRANCH   4   5
ATOM      5  O   UNL A   1      33.001  27.308  26.425  1.00  0.00    -0.460 OA
BRANCH   5   6
ATOM      6  C   UNL A   1      32.211  26.246  26.128  1.00  0.00     0.340 C 
ATOM      7  O   UNL A   1      31.052  26.089  26.487  1.00  0.00    -0.246 OA
BRANCH   6   8
ATOM      8  C   UNL A   1      32.854  25.351  25.132  1.00  0.00     0.083 A 
ATOM      9  C   UNL A   1      32.379  25.079  23.833  1.00  0.00     0.053 A 
ATOM     10  C   UNL A   1      33.123  24.167  23.052  1.00  0.00     0.027 A 
ATOM     11  C   UNL A   1      34.294  23.564  23.523  1.00  0.00     0.002 A 
ATOM     12  C   UNL A   1      34.038  24.740  25.597  1.00  0.00     0.018 A 
ATOM     13  C   UNL A   1      34.755  23.855  24.798  1.00  0.00     0.001 A 
BRANCH   9  14
ATOM     14  N   UNL A   1      31.296  25.695  23.178  1.00  0.00    -0.352 N 
ATOM     15  H   UNL A   1      30.759  25.069  22.641  1.00  0.00     0.167 HD
BRANCH  14  16
ATOM     16  C   UNL A   1      30.816  27.027  23.130  1.00  0.00     0.077 A 
ATOM     17  C   UNL A   1      27.544  29.032  23.126  1.00  0.00     0.046 C 
ATOM     18  C   UNL A   1      29.007  28.689  23.066  1.00  0.00    -0.030 A 
ATOM     19  C   UNL A   1      29.913  29.655  22.615  1.00  0.00     0.006 A 
ATOM     20  C   UNL A   1      29.481  27.403  23.397  1.00  0.00     0.069 A 
ATOM     21  C   UNL A   1      31.260  29.341  22.471  1.00  0.00     0.023 A 
ATOM     22  Cl  UNL A   1      28.413  26.322  24.253  1.00  0.00    -0.082 Cl
ATOM     23  C   UNL A   1      31.699  28.037  22.691  1.00  0.00     0.066 A 
ATOM     24  Cl  UNL A   1      33.366  27.679  22.377  1.00  0.00    -0.082 Cl
ENDBRANCH  14  16
ENDBRANCH   9  14
ENDBRANCH   6   8
ENDBRANCH   5   6
ENDBRANCH   4   5
ENDBRANCH   3   4
ENDBRANCH   2   3
ENDBRANCH   1   2
BRANCH   1  25
ATOM     25  C   UNL A   1      32.122  33.112  26.976  1.00  0.00     0.261 C 
BRANCH  25  26
ATOM     26  O   UNL A   1      33.139  32.744  27.923  1.00  0.00    -0.460 OA
BRANCH  26  27
ATOM     27  C   UNL A   1      34.243  33.528  27.898  1.00  0.00     0.338 C 
ATOM     28  O   UNL A   1      34.282  34.742  27.731  1.00  0.00    -0.246 OA
BRANCH  27  29
ATOM     29  C   UNL A   1      35.444  32.754  28.253  1.00  0.00     0.060 A 
ATOM     30  C   UNL A   1      35.275  31.404  28.590  1.00  0.00     0.016 A 
ATOM     31  C   UNL A   1      36.695  33.363  28.369  1.00  0.00     0.016 A 
ATOM     32  C   UNL A   1      36.348  30.670  29.092  1.00  0.00     0.010 A 
ATOM     33  C   UNL A   1      37.768  32.625  28.880  1.00  0.00     0.010 A 
ATOM     34  C   UNL A   1      37.592  31.287  29.278  1.00  0.00    -0.014 A 
BRANCH  34  35
ATOM     35  C   UNL A   1      38.677  30.564  29.986  1.00  0.00     0.031 A 
ATOM     36  C   UNL A   1      39.034  30.957  31.392  1.00  0.00     0.074 A 
ATOM     37  C   UNL A   1      39.351  29.574  29.376  1.00  0.00     0.049 A 
ATOM     38  N   UNL A   1      39.954  30.462  32.177  1.00  0.00    -0.248 NA
ATOM     39  C   UNL A   1      38.251  32.050  31.991  1.00  0.00     0.031 C 
ATOM     40  C   UNL A   1      39.098  29.111  28.016  1.00  0.00     0.029 A 
ATOM     41  N   UNL A   1      40.404  28.807  29.805  1.00  0.00    -0.354 N 
ATOM     42  C   UNL A   1      39.882  31.197  33.354  1.00  0.00     0.074 A 
ATOM     43  C   UNL A   1      38.835  32.181  33.174  1.00  0.00     0.031 C 
ATOM     44  C   UNL A   1      40.003  28.170  27.698  1.00  0.00     0.029 A 
ATOM     45  C   UNL A   1      40.903  27.972  28.834  1.00  0.00     0.049 A 
ATOM     46  H   UNL A   1      40.767  28.849  30.719  1.00  0.00     0.167 HD
ATOM     47  C   UNL A   1      40.607  31.054  34.487  1.00  0.00     0.034 A 
ATOM     48  C   UNL A   1      41.975  27.154  28.852  1.00  0.00     0.034 A 
ATOM     49  C   UNL A   1      41.632  30.060  34.672  1.00  0.00     0.049 A 
ATOM     50  C   UNL A   1      42.777  27.021  30.118  1.00  0.00     0.074 A 
ATOM     51  C   UNL A   1      42.367  29.785  35.811  1.00  0.00     0.029 A 
ATOM     52  N   UNL A   1      42.080  29.194  33.687  1.00  0.00    -0.354 N 
ATOM     53  N   UNL A   1      42.595  27.612  31.275  1.00  0.00    -0.248 NA
ATOM     54  C   UNL A   1      43.908  26.082  30.097  1.00  0.00     0.031 C 
ATOM     55  C   UNL A   1      43.280  28.768  35.506  1.00  0.00     0.029 A 
ATOM     56  C   UNL A   1      43.097  28.396  34.183  1.00  0.00     0.049 A 
ATOM     57  H   UNL A   1      41.727  29.152  32.769  1.00  0.00     0.167 HD
ATOM     58  C   UNL A   1      43.565  27.095  32.126  1.00  0.00     0.074 A 
ATOM     59  C   UNL A   1      44.321  26.128  31.357  1.00  0.00     0.031 C 
ATOM     60  C   UNL A   1      43.815  27.405  33.423  1.00  0.00     0.034 A 
BRANCH  47  61
ATOM     61  C   UNL A   1      40.293  31.977  35.633  1.00  0.00     0.023 A 
ATOM     62  C   UNL A   1      41.119  33.095  35.872  1.00  0.00     0.012 A 
ATOM     63  C   UNL A   1      39.166  31.764  36.449  1.00  0.00     0.148 A 
ATOM     64  C   UNL A   1      40.847  33.967  36.924  1.00  0.00     0.002 A 
ATOM     65  C   UNL A   1      38.879  32.660  37.472  1.00  0.00     0.091 A 
ATOM     66  F   UNL A   1      38.409  30.679  36.225  1.00  0.00    -0.205 F 
ATOM     67  C   UNL A   1      39.722  33.755  37.718  1.00  0.00     0.022 A 
BRANCH  65  68
ATOM     68  S   UNL A   1      37.413  32.505  38.499  1.00  0.00     0.127 S 
ATOM     69  O   UNL A   1      37.773  33.328  39.653  1.00  0.00    -0.237 OA
ATOM     70  O   UNL A   1      36.372  33.078  37.645  1.00  0.00    -0.237 OA
ATOM     71  O   UNL A   1      37.262  31.081  38.762  1.00  0.00    -0.744 OA
ENDBRANCH  65  68
ENDBRANCH  47  61
BRANCH  48  72
ATOM     72  C   UNL A   1      42.318  26.367  27.635  1.00  0.00     0.023 A 
ATOM     73  C   UNL A   1      43.107  26.951  26.627  1.00  0.00     0.012 A 
ATOM     74  C   UNL A   1      41.908  25.025  27.498  1.00  0.00     0.148 A 
ATOM     75  C   UNL A   1      43.466  26.220  25.494  1.00  0.00     0.002 A 
ATOM     76  C   UNL A   1      42.314  24.287  26.394  1.00  0.00     0.091 A 
ATOM     77  F   UNL A   1      41.146  24.493  28.463  1.00  0.00    -0.205 F 
ATOM     78  C   UNL A   1      43.080  24.887  25.382  1.00  0.00     0.022 A 
BRANCH  76  79
ATOM     79  S   UNL A   1      41.984  22.528  26.234  1.00  0.00     0.127 S 
ATOM     80  O   UNL A   1      42.692  22.202  25.000  1.00  0.00    -0.237 OA
ATOM     81  O   UNL A   1      42.593  21.999  27.455  1.00  0.00    -0.237 OA
ATOM     82  O   UNL A   1      40.534  22.404  26.185  1.00  0.00    -0.744 OA
ENDBRANCH  76  79
ENDBRANCH  48  72
BRANCH  60  83
ATOM     83  C   UNL A   1      44.944  26.681  34.109  1.00  0.00     0.023 A 
ATOM     84  C   UNL A   1      46.253  27.193  34.024  1.00  0.00     0.012 A 
ATOM     85  C   UNL A   1      44.698  25.543  34.903  1.00  0.00     0.148 A 
ATOM     86  C   UNL A   1      47.304  26.569  34.695  1.00  0.00     0.002 A 
ATOM     87  C   UNL A   1      45.742  24.952  35.605  1.00  0.00     0.091 A 
ATOM     88  F   UNL A   1      43.448  25.058  34.955  1.00  0.00    -0.205 F 
ATOM     89  C   UNL A   1      47.048  25.458  35.494  1.00  0.00     0.022 A 
BRANCH  87  90
ATOM     90  S   UNL A   1      45.485  23.576  36.731  1.00  0.00     0.127 S 
ATOM     91  O   UNL A   1      44.592  24.167  37.725  1.00  0.00    -0.237 OA
ATOM     92  O   UNL A   1      44.859  22.575  35.866  1.00  0.00    -0.237 OA
ATOM     93  O   UNL A   1      46.809  23.206  37.217  1.00  0.00    -0.744 OA
ENDBRANCH  87  90
ENDBRANCH  60  83
ENDBRANCH  34  35
ENDBRANCH  27  29
ENDBRANCH  26  27
ENDBRANCH  25  26
ENDBRANCH   1  25
TORSDOF 19
ENDMDL
