MODEL 1
REMARK VINA RESULT:     -10.1      0.000      0.000
REMARK SMILES CCN(C=O)[C@](C)(C(=O)OCCOCCOC(=O)c1ccc(-c2c3nc(c(-c4cccc(S(=O)(=O)[O-])c4F)c4ccc([nH]4)c(-c4cccc(S(=O)(=O)[O-])c4F)c4nc(c(-c5cccc(S(=O)(=O)[O-])c5F)c5ccc2[nH]5)C=C4)C=C3)cc1)c1cc(F)c(C)cc1F
REMARK SMILES IDX 14 1 13 2 12 3 11 4 10 5 8 6 9 7 6 8 7 9 3 10 2 11 1 12 4 13
REMARK SMILES IDX 5 14 82 15 83 16 89 17 84 18 88 19 90 20 85 21 86 22 87 23
REMARK SMILES IDX 15 24 16 25 17 26 18 27 19 28 20 29 81 30 21 31 80 32 22 33
REMARK SMILES IDX 23 34 24 35 74 36 25 37 79 38 73 39 75 40 26 41 78 42 72 43
REMARK SMILES IDX 71 44 27 46 59 47 39 48 58 49 40 50 43 51 57 52 76 53 41 54
REMARK SMILES IDX 42 55 56 57 77 58 44 59 28 60 29 61 37 62 30 63 32 64 38 65
REMARK SMILES IDX 31 66 33 67 34 68 35 69 36 70 60 71 61 72 69 73 62 74 64 75
REMARK SMILES IDX 70 76 63 77 65 78 66 79 67 80 68 81 45 82 46 83 54 84 47 85
REMARK SMILES IDX 49 86 55 87 48 88 50 89 51 90 52 91 53 92
REMARK H PARENT 75 45 43 56
REMARK Flexibility Score: inf
ROOT
ATOM      1  C   UNL A   1      38.830  21.060  26.009  1.00  0.00     0.202 C 
ENDROOT
BRANCH   1   2
ATOM      2  O   UNL A   1      38.333  21.917  24.985  1.00  0.00    -0.374 OA
BRANCH   2   3
ATOM      3  C   UNL A   1      36.989  21.706  24.548  1.00  0.00     0.202 C 
BRANCH   3   4
ATOM      4  C   UNL A   1      36.391  22.728  23.579  1.00  0.00     0.261 C 
BRANCH   4   5
ATOM      5  O   UNL A   1      35.529  23.656  24.258  1.00  0.00    -0.461 OA
BRANCH   5   6
ATOM      6  C   UNL A   1      34.415  24.045  23.567  1.00  0.00     0.336 C 
ATOM      7  O   UNL A   1      34.440  24.654  22.499  1.00  0.00    -0.249 OA
BRANCH   6   8
ATOM      8  C   UNL A   1      33.082  23.620  24.315  1.00  0.00     0.166 C 
ATOM      9  C   UNL A   1      31.971  23.318  23.273  1.00  0.00     0.053 C 
BRANCH   8  10
ATOM     10  N   UNL A   1      33.250  22.369  25.177  1.00  0.00    -0.326 N 
BRANCH  10  11
ATOM     11  C   UNL A   1      33.883  22.438  26.506  1.00  0.00     0.117 C 
ATOM     12  C   UNL A   1      32.937  22.462  27.691  1.00  0.00     0.027 C 
ENDBRANCH  10  11
BRANCH  10  13
ATOM     13  C   UNL A   1      32.491  21.228  24.920  1.00  0.00     0.341 C 
ATOM     14  O   UNL A   1      31.467  20.871  25.482  1.00  0.00    -0.279 OA
ENDBRANCH  10  13
ENDBRANCH   8  10
BRANCH   8  15
ATOM     15  C   UNL A   1      32.732  24.871  25.175  1.00  0.00     0.027 A 
ATOM     16  C   UNL A   1      33.637  25.942  25.299  1.00  0.00     0.049 A 
ATOM     17  C   UNL A   1      31.449  25.076  25.713  1.00  0.00     0.129 A 
ATOM     18  C   UNL A   1      33.303  27.097  26.010  1.00  0.00     0.126 A 
ATOM     19  C   UNL A   1      31.101  26.246  26.394  1.00  0.00     0.046 A 
ATOM     20  F   UNL A   1      30.484  24.162  25.562  1.00  0.00    -0.207 F 
ATOM     21  F   UNL A   1      34.228  28.056  26.158  1.00  0.00    -0.207 F 
ATOM     22  C   UNL A   1      32.033  27.270  26.559  1.00  0.00    -0.012 A 
ATOM     23  C   UNL A   1      31.690  28.498  27.345  1.00  0.00     0.047 C 
ENDBRANCH   8  15
ENDBRANCH   6   8
ENDBRANCH   5   6
ENDBRANCH   4   5
ENDBRANCH   3   4
ENDBRANCH   2   3
ENDBRANCH   1   2
BRANCH   1  24
ATOM     24  C   UNL A   1      39.555  19.779  25.573  1.00  0.00     0.261 C 
BRANCH  24  25
ATOM     25  O   UNL A   1      40.668  19.444  26.416  1.00  0.00    -0.460 OA
BRANCH  25  26
ATOM     26  C   UNL A   1      41.858  19.931  25.992  1.00  0.00     0.338 C 
ATOM     27  O   UNL A   1      42.657  19.387  25.237  1.00  0.00    -0.246 OA
BRANCH  26  28
ATOM     28  C   UNL A   1      42.010  21.328  26.426  1.00  0.00     0.060 A 
ATOM     29  C   UNL A   1      42.083  22.311  25.430  1.00  0.00     0.016 A 
ATOM     30  C   UNL A   1      42.139  21.668  27.774  1.00  0.00     0.016 A 
ATOM     31  C   UNL A   1      42.319  23.638  25.776  1.00  0.00     0.010 A 
ATOM     32  C   UNL A   1      42.390  22.999  28.119  1.00  0.00     0.010 A 
ATOM     33  C   UNL A   1      42.512  23.982  27.119  1.00  0.00    -0.014 A 
BRANCH  33  34
ATOM     34  C   UNL A   1      42.978  25.344  27.463  1.00  0.00     0.031 A 
ATOM     35  C   UNL A   1      42.017  26.299  28.114  1.00  0.00     0.074 A 
ATOM     36  C   UNL A   1      44.242  25.720  27.203  1.00  0.00     0.049 A 
ATOM     37  N   UNL A   1      42.201  27.541  28.474  1.00  0.00    -0.248 NA
ATOM     38  C   UNL A   1      40.667  25.783  28.394  1.00  0.00     0.031 C 
ATOM     39  C   UNL A   1      45.265  24.873  26.592  1.00  0.00     0.029 A 
ATOM     40  N   UNL A   1      44.873  26.923  27.402  1.00  0.00    -0.354 N 
ATOM     41  C   UNL A   1      40.988  27.966  29.002  1.00  0.00     0.074 A 
ATOM     42  C   UNL A   1      40.069  26.852  28.901  1.00  0.00     0.031 C 
ATOM     43  C   UNL A   1      46.391  25.591  26.440  1.00  0.00     0.029 A 
ATOM     44  C   UNL A   1      46.159  26.953  26.919  1.00  0.00     0.049 A 
ATOM     45  H   UNL A   1      44.446  27.688  27.848  1.00  0.00     0.167 HD
ATOM     46  C   UNL A   1      40.671  29.168  29.538  1.00  0.00     0.034 A 
ATOM     47  C   UNL A   1      47.038  27.971  26.850  1.00  0.00     0.034 A 
ATOM     48  C   UNL A   1      41.592  30.267  29.644  1.00  0.00     0.049 A 
ATOM     49  C   UNL A   1      46.644  29.317  27.402  1.00  0.00     0.074 A 
ATOM     50  C   UNL A   1      41.385  31.512  30.210  1.00  0.00     0.029 A 
ATOM     51  N   UNL A   1      42.890  30.260  29.155  1.00  0.00    -0.354 N 
ATOM     52  N   UNL A   1      45.534  29.670  28.005  1.00  0.00    -0.248 NA
ATOM     53  C   UNL A   1      47.634  30.399  27.287  1.00  0.00     0.031 C 
ATOM     54  C   UNL A   1      42.549  32.270  30.034  1.00  0.00     0.029 A 
ATOM     55  C   UNL A   1      43.490  31.486  29.385  1.00  0.00     0.049 A 
ATOM     56  H   UNL A   1      43.322  29.494  28.712  1.00  0.00     0.167 HD
ATOM     57  C   UNL A   1      45.700  31.004  28.365  1.00  0.00     0.074 A 
ATOM     58  C   UNL A   1      47.029  31.388  27.932  1.00  0.00     0.031 C 
ATOM     59  C   UNL A   1      44.828  31.841  28.981  1.00  0.00     0.034 A 
BRANCH  46  60
ATOM     60  C   UNL A   1      39.270  29.347  30.063  1.00  0.00     0.023 A 
ATOM     61  C   UNL A   1      38.930  28.837  31.333  1.00  0.00     0.012 A 
ATOM     62  C   UNL A   1      38.301  30.044  29.316  1.00  0.00     0.148 A 
ATOM     63  C   UNL A   1      37.639  28.985  31.835  1.00  0.00     0.002 A 
ATOM     64  C   UNL A   1      37.026  30.224  29.842  1.00  0.00     0.091 A 
ATOM     65  F   UNL A   1      38.634  30.499  28.100  1.00  0.00    -0.205 F 
ATOM     66  C   UNL A   1      36.690  29.685  31.094  1.00  0.00     0.022 A 
BRANCH  64  67
ATOM     67  S   UNL A   1      35.757  31.172  28.996  1.00  0.00     0.127 S 
ATOM     68  O   UNL A   1      34.994  31.712  30.119  1.00  0.00    -0.237 OA
ATOM     69  O   UNL A   1      36.548  32.161  28.263  1.00  0.00    -0.237 OA
ATOM     70  O   UNL A   1      35.044  30.222  28.153  1.00  0.00    -0.744 OA
ENDBRANCH  64  67
ENDBRANCH  46  60
BRANCH  47  71
ATOM     71  C   UNL A   1      48.387  27.750  26.257  1.00  0.00     0.023 A 
ATOM     72  C   UNL A   1      49.485  27.507  27.103  1.00  0.00     0.012 A 
ATOM     73  C   UNL A   1      48.582  27.750  24.861  1.00  0.00     0.148 A 
ATOM     74  C   UNL A   1      50.757  27.290  26.571  1.00  0.00     0.002 A 
ATOM     75  C   UNL A   1      49.840  27.480  24.337  1.00  0.00     0.091 A 
ATOM     76  F   UNL A   1      47.526  28.001  24.073  1.00  0.00    -0.205 F 
ATOM     77  C   UNL A   1      50.933  27.265  25.190  1.00  0.00     0.022 A 
BRANCH  75  78
ATOM     78  S   UNL A   1      50.134  27.308  22.573  1.00  0.00     0.127 S 
ATOM     79  O   UNL A   1      49.924  28.674  22.099  1.00  0.00    -0.237 OA
ATOM     80  O   UNL A   1      51.524  26.852  22.542  1.00  0.00    -0.237 OA
ATOM     81  O   UNL A   1      49.169  26.323  22.104  1.00  0.00    -0.744 OA
ENDBRANCH  75  78
ENDBRANCH  47  71
BRANCH  59  82
ATOM     82  C   UNL A   1      45.280  33.255  29.240  1.00  0.00     0.023 A 
ATOM     83  C   UNL A   1      45.919  33.569  30.456  1.00  0.00     0.012 A 
ATOM     84  C   UNL A   1      45.145  34.251  28.252  1.00  0.00     0.148 A 
ATOM     85  C   UNL A   1      46.392  34.859  30.696  1.00  0.00     0.002 A 
ATOM     86  C   UNL A   1      45.662  35.521  28.478  1.00  0.00     0.091 A 
ATOM     87  F   UNL A   1      44.521  33.935  27.108  1.00  0.00    -0.205 F 
ATOM     88  C   UNL A   1      46.275  35.831  29.704  1.00  0.00     0.022 A 
BRANCH  86  89
ATOM     89  S   UNL A   1      45.644  36.810  27.228  1.00  0.00     0.127 S 
ATOM     90  O   UNL A   1      46.415  36.190  26.150  1.00  0.00    -0.237 OA
ATOM     91  O   UNL A   1      44.215  36.954  26.951  1.00  0.00    -0.237 OA
ATOM     92  O   UNL A   1      46.262  37.977  27.843  1.00  0.00    -0.744 OA
ENDBRANCH  86  89
ENDBRANCH  59  82
ENDBRANCH  33  34
ENDBRANCH  26  28
ENDBRANCH  25  26
ENDBRANCH  24  25
ENDBRANCH   1  24
TORSDOF 21
ENDMDL
MODEL 2
REMARK VINA RESULT:     -10.1      2.334      8.246
REMARK SMILES CCN(C=O)[C@](C)(C(=O)OCCOCCOC(=O)c1ccc(-c2c3nc(c(-c4cccc(S(=O)(=O)[O-])c4F)c4ccc([nH]4)c(-c4cccc(S(=O)(=O)[O-])c4F)c4nc(c(-c5cccc(S(=O)(=O)[O-])c5F)c5ccc2[nH]5)C=C4)C=C3)cc1)c1cc(F)c(C)cc1F
REMARK SMILES IDX 14 1 13 2 12 3 11 4 10 5 8 6 9 7 6 8 7 9 3 10 2 11 1 12 4 13
REMARK SMILES IDX 5 14 82 15 83 16 89 17 84 18 88 19 90 20 85 21 86 22 87 23
REMARK SMILES IDX 15 24 16 25 17 26 18 27 19 28 20 29 81 30 21 31 80 32 22 33
REMARK SMILES IDX 23 34 24 35 74 36 25 37 79 38 73 39 75 40 26 41 78 42 72 43
REMARK SMILES IDX 71 44 27 46 59 47 39 48 58 49 40 50 43 51 57 52 76 53 41 54
REMARK SMILES IDX 42 55 56 57 77 58 44 59 28 60 29 61 37 62 30 63 32 64 38 65
REMARK SMILES IDX 31 66 33 67 34 68 35 69 36 70 60 71 61 72 69 73 62 74 64 75
REMARK SMILES IDX 70 76 63 77 65 78 66 79 67 80 68 81 45 82 46 83 54 84 47 85
REMARK SMILES IDX 49 86 55 87 48 88 50 89 51 90 52 91 53 92
REMARK H PARENT 75 45 43 56
REMARK Flexibility Score: inf
ROOT
ATOM      1  C   UNL A   1      38.703  21.244  25.572  1.00  0.00     0.202 C 
ENDROOT
BRANCH   1   2
ATOM      2  O   UNL A   1      37.552  21.315  24.736  1.00  0.00    -0.374 OA
BRANCH   2   3
ATOM      3  C   UNL A   1      37.097  22.616  24.354  1.00  0.00     0.202 C 
BRANCH   3   4
ATOM      4  C   UNL A   1      36.546  23.525  25.454  1.00  0.00     0.261 C 
BRANCH   4   5
ATOM      5  O   UNL A   1      35.409  22.934  26.104  1.00  0.00    -0.461 OA
BRANCH   5   6
ATOM      6  C   UNL A   1      34.253  23.662  26.053  1.00  0.00     0.336 C 
ATOM      7  O   UNL A   1      34.183  24.827  25.662  1.00  0.00    -0.249 OA
BRANCH   6   8
ATOM      8  C   UNL A   1      33.008  22.824  26.566  1.00  0.00     0.166 C 
ATOM      9  C   UNL A   1      33.285  22.303  28.003  1.00  0.00     0.053 C 
BRANCH   8  10
ATOM     10  N   UNL A   1      31.716  23.639  26.619  1.00  0.00    -0.326 N 
BRANCH  10  11
ATOM     11  C   UNL A   1      31.685  25.047  26.185  1.00  0.00     0.117 C 
ATOM     12  C   UNL A   1      30.607  25.408  25.181  1.00  0.00     0.027 C 
ENDBRANCH  10  11
BRANCH  10  13
ATOM     13  C   UNL A   1      30.480  22.999  26.706  1.00  0.00     0.341 C 
ATOM     14  O   UNL A   1      29.666  23.070  27.614  1.00  0.00    -0.279 OA
ENDBRANCH  10  13
ENDBRANCH   8  10
BRANCH   8  15
ATOM     15  C   UNL A   1      32.911  21.652  25.545  1.00  0.00     0.027 A 
ATOM     16  C   UNL A   1      32.962  20.311  25.973  1.00  0.00     0.049 A 
ATOM     17  C   UNL A   1      32.591  21.861  24.192  1.00  0.00     0.129 A 
ATOM     18  C   UNL A   1      32.804  19.255  25.073  1.00  0.00     0.126 A 
ATOM     19  C   UNL A   1      32.398  20.804  23.297  1.00  0.00     0.046 A 
ATOM     20  F   UNL A   1      32.420  23.095  23.706  1.00  0.00    -0.207 F 
ATOM     21  F   UNL A   1      32.934  17.998  25.521  1.00  0.00    -0.207 F 
ATOM     22  C   UNL A   1      32.513  19.483  23.729  1.00  0.00    -0.012 A 
ATOM     23  C   UNL A   1      32.375  18.347  22.763  1.00  0.00     0.047 C 
ENDBRANCH   8  15
ENDBRANCH   6   8
ENDBRANCH   5   6
ENDBRANCH   4   5
ENDBRANCH   3   4
ENDBRANCH   2   3
ENDBRANCH   1   2
BRANCH   1  24
ATOM     24  C   UNL A   1      39.375  19.873  25.739  1.00  0.00     0.261 C 
BRANCH  24  25
ATOM     25  O   UNL A   1      40.487  19.895  26.647  1.00  0.00    -0.460 OA
BRANCH  25  26
ATOM     26  C   UNL A   1      41.700  19.868  26.047  1.00  0.00     0.338 C 
ATOM     27  O   UNL A   1      42.147  18.990  25.316  1.00  0.00    -0.246 OA
BRANCH  26  28
ATOM     28  C   UNL A   1      42.386  21.154  26.245  1.00  0.00     0.060 A 
ATOM     29  C   UNL A   1      42.700  21.525  27.560  1.00  0.00     0.016 A 
ATOM     30  C   UNL A   1      42.663  22.009  25.177  1.00  0.00     0.016 A 
ATOM     31  C   UNL A   1      43.264  22.770  27.816  1.00  0.00     0.010 A 
ATOM     32  C   UNL A   1      43.217  23.266  25.438  1.00  0.00     0.010 A 
ATOM     33  C   UNL A   1      43.490  23.662  26.761  1.00  0.00    -0.014 A 
BRANCH  33  34
ATOM     34  C   UNL A   1      43.882  25.058  27.058  1.00  0.00     0.031 A 
ATOM     35  C   UNL A   1      45.308  25.476  26.833  1.00  0.00     0.074 A 
ATOM     36  C   UNL A   1      42.977  25.940  27.516  1.00  0.00     0.049 A 
ATOM     37  N   UNL A   1      45.875  26.634  27.049  1.00  0.00    -0.248 NA
ATOM     38  C   UNL A   1      46.216  24.452  26.293  1.00  0.00     0.031 C 
ATOM     39  C   UNL A   1      41.564  25.650  27.754  1.00  0.00     0.029 A 
ATOM     40  N   UNL A   1      43.120  27.254  27.882  1.00  0.00    -0.354 N 
ATOM     41  C   UNL A   1      47.209  26.474  26.695  1.00  0.00     0.074 A 
ATOM     42  C   UNL A   1      47.371  25.101  26.264  1.00  0.00     0.031 C 
ATOM     43  C   UNL A   1      40.973  26.749  28.254  1.00  0.00     0.029 A 
ATOM     44  C   UNL A   1      41.970  27.808  28.394  1.00  0.00     0.049 A 
ATOM     45  H   UNL A   1      43.963  27.753  27.787  1.00  0.00     0.167 HD
ATOM     46  C   UNL A   1      48.206  27.389  26.712  1.00  0.00     0.034 A 
ATOM     47  C   UNL A   1      41.758  29.023  28.936  1.00  0.00     0.034 A 
ATOM     48  C   UNL A   1      48.035  28.755  27.132  1.00  0.00     0.049 A 
ATOM     49  C   UNL A   1      42.896  30.008  28.995  1.00  0.00     0.074 A 
ATOM     50  C   UNL A   1      48.969  29.774  27.144  1.00  0.00     0.029 A 
ATOM     51  N   UNL A   1      46.856  29.285  27.634  1.00  0.00    -0.354 N 
ATOM     52  N   UNL A   1      44.123  29.881  28.548  1.00  0.00    -0.248 NA
ATOM     53  C   UNL A   1      42.615  31.313  29.611  1.00  0.00     0.031 C 
ATOM     54  C   UNL A   1      48.363  30.914  27.685  1.00  0.00     0.029 A 
ATOM     55  C   UNL A   1      47.042  30.611  27.981  1.00  0.00     0.049 A 
ATOM     56  H   UNL A   1      46.010  28.790  27.727  1.00  0.00     0.167 HD
ATOM     57  C   UNL A   1      44.752  31.096  28.803  1.00  0.00     0.074 A 
ATOM     58  C   UNL A   1      43.762  31.953  29.423  1.00  0.00     0.031 C 
ATOM     59  C   UNL A   1      46.035  31.463  28.563  1.00  0.00     0.034 A 
BRANCH  46  60
ATOM     60  C   UNL A   1      49.567  26.943  26.245  1.00  0.00     0.023 A 
ATOM     61  C   UNL A   1      50.390  26.191  27.109  1.00  0.00     0.012 A 
ATOM     62  C   UNL A   1      50.019  27.239  24.945  1.00  0.00     0.148 A 
ATOM     63  C   UNL A   1      51.655  25.774  26.700  1.00  0.00     0.002 A 
ATOM     64  C   UNL A   1      51.265  26.783  24.529  1.00  0.00     0.091 A 
ATOM     65  F   UNL A   1      49.234  27.976  24.146  1.00  0.00    -0.205 F 
ATOM     66  C   UNL A   1      52.089  26.062  25.409  1.00  0.00     0.022 A 
BRANCH  64  67
ATOM     67  S   UNL A   1      51.882  27.042  22.862  1.00  0.00     0.127 S 
ATOM     68  O   UNL A   1      52.311  28.438  22.920  1.00  0.00    -0.237 OA
ATOM     69  O   UNL A   1      52.973  26.070  22.783  1.00  0.00    -0.237 OA
ATOM     70  O   UNL A   1      50.761  26.767  21.974  1.00  0.00    -0.744 OA
ENDBRANCH  64  67
ENDBRANCH  46  60
BRANCH  47  71
ATOM     71  C   UNL A   1      40.403  29.384  29.442  1.00  0.00     0.023 A 
ATOM     72  C   UNL A   1      39.489  30.024  28.584  1.00  0.00     0.012 A 
ATOM     73  C   UNL A   1      40.007  29.071  30.758  1.00  0.00     0.148 A 
ATOM     74  C   UNL A   1      38.213  30.366  29.033  1.00  0.00     0.002 A 
ATOM     75  C   UNL A   1      38.716  29.365  31.181  1.00  0.00     0.091 A 
ATOM     76  F   UNL A   1      40.898  28.477  31.565  1.00  0.00    -0.205 F 
ATOM     77  C   UNL A   1      37.823  30.027  30.326  1.00  0.00     0.022 A 
BRANCH  75  78
ATOM     78  S   UNL A   1      38.088  28.859  32.786  1.00  0.00     0.127 S 
ATOM     79  O   UNL A   1      38.256  27.409  32.731  1.00  0.00    -0.237 OA
ATOM     80  O   UNL A   1      39.001  29.550  33.699  1.00  0.00    -0.237 OA
ATOM     81  O   UNL A   1      36.712  29.333  32.841  1.00  0.00    -0.744 OA
ENDBRANCH  75  78
ENDBRANCH  47  71
BRANCH  59  82
ATOM     82  C   UNL A   1      46.449  32.858  28.958  1.00  0.00     0.023 A 
ATOM     83  C   UNL A   1      46.287  33.917  28.042  1.00  0.00     0.012 A 
ATOM     84  C   UNL A   1      46.921  33.133  30.257  1.00  0.00     0.148 A 
ATOM     85  C   UNL A   1      46.614  35.223  28.403  1.00  0.00     0.002 A 
ATOM     86  C   UNL A   1      47.199  34.444  30.626  1.00  0.00     0.091 A 
ATOM     87  F   UNL A   1      47.081  32.110  31.108  1.00  0.00    -0.205 F 
ATOM     88  C   UNL A   1      47.058  35.488  29.698  1.00  0.00     0.022 A 
BRANCH  86  89
ATOM     89  S   UNL A   1      47.683  34.897  32.295  1.00  0.00     0.127 S 
ATOM     90  O   UNL A   1      47.884  36.340  32.165  1.00  0.00    -0.237 OA
ATOM     91  O   UNL A   1      46.507  34.512  33.075  1.00  0.00    -0.237 OA
ATOM     92  O   UNL A   1      48.884  34.126  32.589  1.00  0.00    -0.744 OA
ENDBRANCH  86  89
ENDBRANCH  59  82
ENDBRANCH  33  34
ENDBRANCH  26  28
ENDBRANCH  25  26
ENDBRANCH  24  25
ENDBRANCH   1  24
TORSDOF 21
ENDMDL
MODEL 3
REMARK VINA RESULT:     -10.1      1.513      7.669
REMARK SMILES CCN(C=O)[C@](C)(C(=O)OCCOCCOC(=O)c1ccc(-c2c3nc(c(-c4cccc(S(=O)(=O)[O-])c4F)c4ccc([nH]4)c(-c4cccc(S(=O)(=O)[O-])c4F)c4nc(c(-c5cccc(S(=O)(=O)[O-])c5F)c5ccc2[nH]5)C=C4)C=C3)cc1)c1cc(F)c(C)cc1F
REMARK SMILES IDX 14 1 13 2 12 3 11 4 10 5 8 6 9 7 6 8 7 9 3 10 2 11 1 12 4 13
REMARK SMILES IDX 5 14 82 15 83 16 89 17 84 18 88 19 90 20 85 21 86 22 87 23
REMARK SMILES IDX 15 24 16 25 17 26 18 27 19 28 20 29 81 30 21 31 80 32 22 33
REMARK SMILES IDX 23 34 24 35 74 36 25 37 79 38 73 39 75 40 26 41 78 42 72 43
REMARK SMILES IDX 71 44 27 46 59 47 39 48 58 49 40 50 43 51 57 52 76 53 41 54
REMARK SMILES IDX 42 55 56 57 77 58 44 59 28 60 29 61 37 62 30 63 32 64 38 65
REMARK SMILES IDX 31 66 33 67 34 68 35 69 36 70 60 71 61 72 69 73 62 74 64 75
REMARK SMILES IDX 70 76 63 77 65 78 66 79 67 80 68 81 45 82 46 83 54 84 47 85
REMARK SMILES IDX 49 86 55 87 48 88 50 89 51 90 52 91 53 92
REMARK H PARENT 75 45 43 56
REMARK Flexibility Score: inf
ROOT
ATOM      1  C   UNL A   1      38.879  20.356  25.470  1.00  0.00     0.202 C 
ENDROOT
BRANCH   1   2
ATOM      2  O   UNL A   1      37.607  19.935  24.985  1.00  0.00    -0.374 OA
BRANCH   2   3
ATOM      3  C   UNL A   1      36.640  20.950  24.710  1.00  0.00     0.202 C 
BRANCH   3   4
ATOM      4  C   UNL A   1      37.014  22.395  25.046  1.00  0.00     0.261 C 
BRANCH   4   5
ATOM      5  O   UNL A   1      35.931  23.298  24.770  1.00  0.00    -0.461 OA
BRANCH   5   6
ATOM      6  C   UNL A   1      34.917  23.305  25.686  1.00  0.00     0.336 C 
ATOM      7  O   UNL A   1      35.082  23.278  26.904  1.00  0.00    -0.249 OA
BRANCH   6   8
ATOM      8  C   UNL A   1      33.494  23.345  24.986  1.00  0.00     0.166 C 
ATOM      9  C   UNL A   1      33.631  22.925  23.497  1.00  0.00     0.053 C 
BRANCH   8  10
ATOM     10  N   UNL A   1      32.479  22.402  25.632  1.00  0.00    -0.326 N 
BRANCH  10  11
ATOM     11  C   UNL A   1      31.771  22.778  26.869  1.00  0.00     0.117 C 
ATOM     12  C   UNL A   1      30.296  23.099  26.717  1.00  0.00     0.027 C 
ENDBRANCH  10  11
BRANCH  10  13
ATOM     13  C   UNL A   1      31.917  21.359  24.899  1.00  0.00     0.341 C 
ATOM     14  O   UNL A   1      31.926  20.168  25.169  1.00  0.00    -0.279 OA
ENDBRANCH  10  13
ENDBRANCH   8  10
BRANCH   8  15
ATOM     15  C   UNL A   1      33.063  24.836  25.119  1.00  0.00     0.027 A 
ATOM     16  C   UNL A   1      33.867  25.764  25.810  1.00  0.00     0.049 A 
ATOM     17  C   UNL A   1      31.965  25.365  24.418  1.00  0.00     0.129 A 
ATOM     18  C   UNL A   1      33.523  27.116  25.874  1.00  0.00     0.126 A 
ATOM     19  C   UNL A   1      31.640  26.725  24.452  1.00  0.00     0.046 A 
ATOM     20  F   UNL A   1      31.196  24.585  23.650  1.00  0.00    -0.207 F 
ATOM     21  F   UNL A   1      34.284  27.943  26.605  1.00  0.00    -0.207 F 
ATOM     22  C   UNL A   1      32.415  27.617  25.193  1.00  0.00    -0.012 A 
ATOM     23  C   UNL A   1      32.035  29.063  25.289  1.00  0.00     0.047 C 
ENDBRANCH   8  15
ENDBRANCH   6   8
ENDBRANCH   5   6
ENDBRANCH   4   5
ENDBRANCH   3   4
ENDBRANCH   2   3
ENDBRANCH   1   2
BRANCH   1  24
ATOM     24  C   UNL A   1      39.935  19.273  25.729  1.00  0.00     0.261 C 
BRANCH  24  25
ATOM     25  O   UNL A   1      40.770  19.556  26.863  1.00  0.00    -0.460 OA
BRANCH  25  26
ATOM     26  C   UNL A   1      41.977  20.084  26.551  1.00  0.00     0.338 C 
ATOM     27  O   UNL A   1      42.886  19.542  25.931  1.00  0.00    -0.246 OA
BRANCH  26  28
ATOM     28  C   UNL A   1      42.007  21.510  26.908  1.00  0.00     0.060 A 
ATOM     29  C   UNL A   1      41.815  22.440  25.878  1.00  0.00     0.016 A 
ATOM     30  C   UNL A   1      42.277  21.934  28.211  1.00  0.00     0.016 A 
ATOM     31  C   UNL A   1      41.925  23.802  26.139  1.00  0.00     0.010 A 
ATOM     32  C   UNL A   1      42.401  23.302  28.468  1.00  0.00     0.010 A 
ATOM     33  C   UNL A   1      42.256  24.238  27.427  1.00  0.00    -0.014 A 
BRANCH  33  34
ATOM     34  C   UNL A   1      42.587  25.663  27.652  1.00  0.00     0.031 A 
ATOM     35  C   UNL A   1      43.934  26.174  27.225  1.00  0.00     0.074 A 
ATOM     36  C   UNL A   1      41.694  26.490  28.223  1.00  0.00     0.049 A 
ATOM     37  N   UNL A   1      44.442  27.371  27.347  1.00  0.00    -0.248 NA
ATOM     38  C   UNL A   1      44.828  25.203  26.573  1.00  0.00     0.031 C 
ATOM     39  C   UNL A   1      40.352  26.109  28.660  1.00  0.00     0.029 A 
ATOM     40  N   UNL A   1      41.793  27.818  28.552  1.00  0.00    -0.354 N 
ATOM     41  C   UNL A   1      45.722  27.295  26.812  1.00  0.00     0.074 A 
ATOM     42  C   UNL A   1      45.919  25.929  26.376  1.00  0.00     0.031 C 
ATOM     43  C   UNL A   1      39.760  27.174  29.227  1.00  0.00     0.029 A 
ATOM     44  C   UNL A   1      40.690  28.302  29.215  1.00  0.00     0.049 A 
ATOM     45  H   UNL A   1      42.578  28.371  28.335  1.00  0.00     0.167 HD
ATOM     46  C   UNL A   1      46.645  28.278  26.679  1.00  0.00     0.034 A 
ATOM     47  C   UNL A   1      40.470  29.510  29.769  1.00  0.00     0.034 A 
ATOM     48  C   UNL A   1      46.438  29.636  27.105  1.00  0.00     0.049 A 
ATOM     49  C   UNL A   1      41.533  30.572  29.658  1.00  0.00     0.074 A 
ATOM     50  C   UNL A   1      47.291  30.717  26.976  1.00  0.00     0.029 A 
ATOM     51  N   UNL A   1      45.306  30.094  27.762  1.00  0.00    -0.354 N 
ATOM     52  N   UNL A   1      42.692  30.520  29.045  1.00  0.00    -0.248 NA
ATOM     53  C   UNL A   1      41.249  31.867  30.294  1.00  0.00     0.031 C 
ATOM     54  C   UNL A   1      46.687  31.823  27.585  1.00  0.00     0.029 A 
ATOM     55  C   UNL A   1      45.445  31.437  28.067  1.00  0.00     0.049 A 
ATOM     56  H   UNL A   1      44.518  29.545  27.978  1.00  0.00     0.167 HD
ATOM     57  C   UNL A   1      43.263  31.780  29.197  1.00  0.00     0.074 A 
ATOM     58  C   UNL A   1      42.311  32.580  29.941  1.00  0.00     0.031 C 
ATOM     59  C   UNL A   1      44.472  32.229  28.776  1.00  0.00     0.034 A 
BRANCH  46  60
ATOM     60  C   UNL A   1      47.956  27.916  26.031  1.00  0.00     0.023 A 
ATOM     61  C   UNL A   1      49.067  27.590  26.835  1.00  0.00     0.012 A 
ATOM     62  C   UNL A   1      48.080  27.868  24.629  1.00  0.00     0.148 A 
ATOM     63  C   UNL A   1      50.291  27.260  26.256  1.00  0.00     0.002 A 
ATOM     64  C   UNL A   1      49.293  27.496  24.058  1.00  0.00     0.091 A 
ATOM     65  F   UNL A   1      47.021  28.205  23.880  1.00  0.00    -0.205 F 
ATOM     66  C   UNL A   1      50.401  27.204  24.869  1.00  0.00     0.022 A 
BRANCH  64  67
ATOM     67  S   UNL A   1      49.514  27.326  22.284  1.00  0.00     0.127 S 
ATOM     68  O   UNL A   1      49.171  28.667  21.814  1.00  0.00    -0.237 OA
ATOM     69  O   UNL A   1      50.933  26.988  22.181  1.00  0.00    -0.237 OA
ATOM     70  O   UNL A   1      48.607  26.265  21.867  1.00  0.00    -0.744 OA
ENDBRANCH  64  67
ENDBRANCH  46  60
BRANCH  47  71
ATOM     71  C   UNL A   1      39.178  29.788  30.457  1.00  0.00     0.023 A 
ATOM     72  C   UNL A   1      38.967  29.300  31.760  1.00  0.00     0.012 A 
ATOM     73  C   UNL A   1      38.171  30.556  29.840  1.00  0.00     0.148 A 
ATOM     74  C   UNL A   1      37.768  29.553  32.428  1.00  0.00     0.002 A 
ATOM     75  C   UNL A   1      37.001  30.850  30.531  1.00  0.00     0.091 A 
ATOM     76  F   UNL A   1      38.384  30.997  28.591  1.00  0.00    -0.205 F 
ATOM     77  C   UNL A   1      36.790  30.336  31.819  1.00  0.00     0.022 A 
BRANCH  75  78
ATOM     78  S   UNL A   1      35.742  31.949  29.873  1.00  0.00     0.127 S 
ATOM     79  O   UNL A   1      35.192  31.155  28.777  1.00  0.00    -0.237 OA
ATOM     80  O   UNL A   1      34.852  32.111  31.024  1.00  0.00    -0.237 OA
ATOM     81  O   UNL A   1      36.442  33.165  29.481  1.00  0.00    -0.744 OA
ENDBRANCH  75  78
ENDBRANCH  47  71
BRANCH  59  82
ATOM     82  C   UNL A   1      44.837  33.657  29.094  1.00  0.00     0.023 A 
ATOM     83  C   UNL A   1      44.486  34.682  28.193  1.00  0.00     0.012 A 
ATOM     84  C   UNL A   1      45.453  33.991  30.317  1.00  0.00     0.148 A 
ATOM     85  C   UNL A   1      44.767  36.015  28.491  1.00  0.00     0.002 A 
ATOM     86  C   UNL A   1      45.686  35.325  30.628  1.00  0.00     0.091 A 
ATOM     87  F   UNL A   1      45.792  33.000  31.153  1.00  0.00    -0.205 F 
ATOM     88  C   UNL A   1      45.356  36.337  29.713  1.00  0.00     0.022 A 
BRANCH  86  89
ATOM     89  S   UNL A   1      46.351  35.846  32.214  1.00  0.00     0.127 S 
ATOM     90  O   UNL A   1      47.420  34.870  32.423  1.00  0.00    -0.237 OA
ATOM     91  O   UNL A   1      46.812  37.204  31.926  1.00  0.00    -0.237 OA
ATOM     92  O   UNL A   1      45.245  35.770  33.159  1.00  0.00    -0.744 OA
ENDBRANCH  86  89
ENDBRANCH  59  82
ENDBRANCH  33  34
ENDBRANCH  26  28
ENDBRANCH  25  26
ENDBRANCH  24  25
ENDBRANCH   1  24
TORSDOF 21
ENDMDL
