MODEL 1
REMARK VINA RESULT:     -11.7      0.000      0.000
REMARK SMILES O=C(/C=C/c1ccc(C(=O)NC2CC2)cc1)NC1(C(=O)OCCOCCOC(=O)c2ccc(-c3c4nc(c(-c5cccc(S(=O)(=O)[O-])c5F)c5ccc([nH]5)c(-c5cccc(S(=O)(=O)[O-])c5F)c5nc(c(-c6cccc(S(=O)(=O)[O-])c6F)c6ccc3[nH]6)C=C5)C=C4)cc2)CCCC1
REMARK SMILES IDX 23 1 22 2 21 3 19 4 20 5 18 6 93 7 96 8 94 9 95 10 17 11
REMARK SMILES IDX 1 12 2 13 3 15 4 16 5 17 6 18 16 19 7 20 15 21 8 22 9 23
REMARK SMILES IDX 10 24 11 25 12 27 13 28 14 29 24 30 25 31 26 32 27 33 28 34
REMARK SMILES IDX 29 35 30 36 31 37 92 38 32 39 91 40 33 41 34 42 35 43 85 44
REMARK SMILES IDX 36 45 90 46 84 47 86 48 37 49 89 50 83 51 82 52 38 54 70 55
REMARK SMILES IDX 50 56 69 57 51 58 54 59 68 60 87 61 52 62 53 63 67 65 88 66
REMARK SMILES IDX 55 67 39 68 40 69 48 70 41 71 43 72 49 73 42 74 44 75 45 76
REMARK SMILES IDX 46 77 47 78 71 79 72 80 80 81 73 82 75 83 81 84 74 85 76 86
REMARK SMILES IDX 77 87 78 88 79 89 56 90 57 91 65 92 58 93 60 94 66 95 59 96
REMARK SMILES IDX 61 97 62 98 63 99 64 100
REMARK H PARENT 17 14 11 26 86 53 54 64
REMARK Flexibility Score: inf
ROOT
ATOM      1  C   UNL A   1      33.070  30.492  26.089  1.00  0.00     0.202 C 
ENDROOT
BRANCH   1   2
ATOM      2  C   UNL A   1      32.598  29.459  25.057  1.00  0.00     0.261 C 
BRANCH   2   3
ATOM      3  O   UNL A   1      31.212  29.132  25.241  1.00  0.00    -0.461 OA
BRANCH   3   4
ATOM      4  C   UNL A   1      30.358  29.717  24.353  1.00  0.00     0.331 C 
ATOM      5  O   UNL A   1      30.042  30.904  24.370  1.00  0.00    -0.249 OA
BRANCH   4   6
ATOM      6  C   UNL A   1      29.893  28.717  23.245  1.00  0.00     0.138 C 
ATOM      7  C   UNL A   1      30.347  29.301  21.896  1.00  0.00     0.040 C 
ATOM      8  C   UNL A   1      28.372  28.604  23.022  1.00  0.00     0.040 C 
ATOM      9  C   UNL A   1      29.295  30.351  21.580  1.00  0.00     0.003 C 
ATOM     10  C   UNL A   1      27.988  29.761  22.093  1.00  0.00     0.003 C 
BRANCH   6  11
ATOM     11  N   UNL A   1      30.525  27.391  23.422  1.00  0.00    -0.337 N 
ATOM     12  O   UNL A   1      31.069  27.052  21.219  1.00  0.00    -0.270 OA
ATOM     13  C   UNL A   1      31.107  26.714  22.395  1.00  0.00     0.244 C 
ATOM     14  H   UNL A   1      30.524  26.983  24.319  1.00  0.00     0.164 HD
BRANCH  13  15
ATOM     15  C   UNL A   1      31.811  25.455  22.704  1.00  0.00     0.072 C 
ATOM     16  C   UNL A   1      31.344  24.339  23.286  1.00  0.00     0.014 C 
BRANCH  16  17
ATOM     17  C   UNL A   1      32.286  23.296  23.728  1.00  0.00    -0.025 A 
ATOM     18  C   UNL A   1      33.638  23.326  23.389  1.00  0.00     0.009 A 
ATOM     19  C   UNL A   1      31.821  22.204  24.465  1.00  0.00     0.009 A 
ATOM     20  C   UNL A   1      34.488  22.274  23.781  1.00  0.00     0.014 A 
ATOM     21  C   UNL A   1      32.683  21.199  24.899  1.00  0.00     0.014 A 
ATOM     22  C   UNL A   1      34.014  21.175  24.529  1.00  0.00     0.039 A 
BRANCH  22  23
ATOM     23  C   UNL A   1      34.982  20.111  24.909  1.00  0.00     0.251 C 
ATOM     24  O   UNL A   1      36.105  20.481  25.280  1.00  0.00    -0.269 OA
ATOM     25  N   UNL A   1      34.801  18.745  24.897  1.00  0.00    -0.349 N 
ATOM     26  H   UNL A   1      35.600  18.313  25.279  1.00  0.00     0.164 HD
BRANCH  25  27
ATOM     27  C   UNL A   1      33.861  17.738  24.526  1.00  0.00     0.082 C 
ATOM     28  C   UNL A   1      34.260  16.392  23.997  1.00  0.00     0.027 C 
ATOM     29  C   UNL A   1      33.425  16.511  25.252  1.00  0.00     0.027 C 
ENDBRANCH  25  27
ENDBRANCH  22  23
ENDBRANCH  16  17
ENDBRANCH  13  15
ENDBRANCH   6  11
ENDBRANCH   4   6
ENDBRANCH   3   4
ENDBRANCH   2   3
ENDBRANCH   1   2
BRANCH   1  30
ATOM     30  O   UNL A   1      32.121  30.964  27.047  1.00  0.00    -0.374 OA
BRANCH  30  31
ATOM     31  C   UNL A   1      31.463  32.197  26.760  1.00  0.00     0.202 C 
BRANCH  31  32
ATOM     32  C   UNL A   1      32.149  33.481  27.239  1.00  0.00     0.261 C 
BRANCH  32  33
ATOM     33  O   UNL A   1      33.084  33.242  28.303  1.00  0.00    -0.460 OA
BRANCH  33  34
ATOM     34  C   UNL A   1      34.252  33.912  28.187  1.00  0.00     0.338 C 
ATOM     35  O   UNL A   1      34.403  35.121  28.038  1.00  0.00    -0.246 OA
BRANCH  34  36
ATOM     36  C   UNL A   1      35.376  33.003  28.456  1.00  0.00     0.060 A 
ATOM     37  C   UNL A   1      35.076  31.683  28.823  1.00  0.00     0.016 A 
ATOM     38  C   UNL A   1      36.695  33.455  28.425  1.00  0.00     0.016 A 
ATOM     39  C   UNL A   1      36.093  30.820  29.217  1.00  0.00     0.010 A 
ATOM     40  C   UNL A   1      37.713  32.594  28.836  1.00  0.00     0.010 A 
ATOM     41  C   UNL A   1      37.409  31.291  29.276  1.00  0.00    -0.014 A 
BRANCH  41  42
ATOM     42  C   UNL A   1      38.443  30.507  29.985  1.00  0.00     0.031 A 
ATOM     43  C   UNL A   1      38.761  30.874  31.406  1.00  0.00     0.074 A 
ATOM     44  C   UNL A   1      39.113  29.522  29.364  1.00  0.00     0.049 A 
ATOM     45  N   UNL A   1      39.717  30.439  32.181  1.00  0.00    -0.248 NA
ATOM     46  C   UNL A   1      37.888  31.884  32.029  1.00  0.00     0.031 C 
ATOM     47  C   UNL A   1      38.872  29.069  27.997  1.00  0.00     0.029 A 
ATOM     48  N   UNL A   1      40.168  28.759  29.797  1.00  0.00    -0.354 N 
ATOM     49  C   UNL A   1      39.595  31.156  33.364  1.00  0.00     0.074 A 
ATOM     50  C   UNL A   1      38.473  32.056  33.204  1.00  0.00     0.031 C 
ATOM     51  C   UNL A   1      39.791  28.143  27.680  1.00  0.00     0.029 A 
ATOM     52  C   UNL A   1      40.704  27.967  28.810  1.00  0.00     0.049 A 
ATOM     53  H   UNL A   1      40.506  28.776  30.722  1.00  0.00     0.167 HD
ATOM     54  C   UNL A   1      40.348  31.071  34.486  1.00  0.00     0.034 A 
ATOM     55  C   UNL A   1      41.828  27.226  28.805  1.00  0.00     0.034 A 
ATOM     56  C   UNL A   1      41.451  30.162  34.636  1.00  0.00     0.049 A 
ATOM     57  C   UNL A   1      42.668  27.155  30.053  1.00  0.00     0.074 A 
ATOM     58  C   UNL A   1      42.248  29.954  35.746  1.00  0.00     0.029 A 
ATOM     59  N   UNL A   1      41.924  29.324  33.638  1.00  0.00    -0.354 N 
ATOM     60  N   UNL A   1      42.489  27.763  31.201  1.00  0.00    -0.248 NA
ATOM     61  C   UNL A   1      43.845  26.276  30.019  1.00  0.00     0.031 C 
ATOM     62  C   UNL A   1      43.228  29.016  35.406  1.00  0.00     0.029 A 
ATOM     63  C   UNL A   1      43.011  28.606  34.098  1.00  0.00     0.049 A 
ATOM     64  H   UNL A   1      41.540  29.251  32.733  1.00  0.00     0.167 HD
ATOM     65  C   UNL A   1      43.502  27.309  32.039  1.00  0.00     0.074 A 
ATOM     66  C   UNL A   1      44.293  26.374  31.265  1.00  0.00     0.031 C 
ATOM     67  C   UNL A   1      43.753  27.637  33.331  1.00  0.00     0.034 A 
BRANCH  54  68
ATOM     68  C   UNL A   1      40.003  31.992  35.626  1.00  0.00     0.023 A 
ATOM     69  C   UNL A   1      40.739  33.178  35.823  1.00  0.00     0.012 A 
ATOM     70  C   UNL A   1      38.940  31.688  36.498  1.00  0.00     0.148 A 
ATOM     71  C   UNL A   1      40.456  34.020  36.898  1.00  0.00     0.002 A 
ATOM     72  C   UNL A   1      38.631  32.557  37.537  1.00  0.00     0.091 A 
ATOM     73  F   UNL A   1      38.266  30.544  36.313  1.00  0.00    -0.205 F 
ATOM     74  C   UNL A   1      39.398  33.714  37.749  1.00  0.00     0.022 A 
BRANCH  72  75
ATOM     75  S   UNL A   1      37.233  32.286  38.632  1.00  0.00     0.127 S 
ATOM     76  O   UNL A   1      37.667  32.983  39.843  1.00  0.00    -0.237 OA
ATOM     77  O   UNL A   1      36.143  32.942  37.910  1.00  0.00    -0.237 OA
ATOM     78  O   UNL A   1      37.094  30.843  38.752  1.00  0.00    -0.744 OA
ENDBRANCH  72  75
ENDBRANCH  54  68
BRANCH  55  79
ATOM     79  C   UNL A   1      42.204  26.484  27.570  1.00  0.00     0.023 A 
ATOM     80  C   UNL A   1      42.942  27.133  26.563  1.00  0.00     0.012 A 
ATOM     81  C   UNL A   1      41.894  25.117  27.426  1.00  0.00     0.148 A 
ATOM     82  C   UNL A   1      43.352  26.437  25.426  1.00  0.00     0.002 A 
ATOM     83  C   UNL A   1      42.353  24.417  26.318  1.00  0.00     0.091 A 
ATOM     84  F   UNL A   1      41.184  24.522  28.395  1.00  0.00    -0.205 F 
ATOM     85  C   UNL A   1      43.070  25.079  25.308  1.00  0.00     0.022 A 
BRANCH  83  86
ATOM     86  S   UNL A   1      42.154  22.640  26.144  1.00  0.00     0.127 S 
ATOM     87  O   UNL A   1      42.829  22.144  27.341  1.00  0.00    -0.237 OA
ATOM     88  O   UNL A   1      40.698  22.502  26.154  1.00  0.00    -0.237 OA
ATOM     89  O   UNL A   1      42.785  22.290  24.878  1.00  0.00    -0.744 OA
ENDBRANCH  83  86
ENDBRANCH  55  79
BRANCH  67  90
ATOM     90  C   UNL A   1      44.889  26.942  34.033  1.00  0.00     0.023 A 
ATOM     91  C   UNL A   1      46.196  27.461  33.955  1.00  0.00     0.012 A 
ATOM     92  C   UNL A   1      44.628  25.845  34.879  1.00  0.00     0.148 A 
ATOM     93  C   UNL A   1      47.229  26.890  34.699  1.00  0.00     0.002 A 
ATOM     94  C   UNL A   1      45.650  25.313  35.655  1.00  0.00     0.091 A 
ATOM     95  F   UNL A   1      43.379  25.358  34.924  1.00  0.00    -0.205 F 
ATOM     96  C   UNL A   1      46.953  25.828  35.559  1.00  0.00     0.022 A 
BRANCH  94  97
ATOM     97  S   UNL A   1      45.368  24.019  36.868  1.00  0.00     0.127 S 
ATOM     98  O   UNL A   1      44.822  22.946  36.037  1.00  0.00    -0.237 OA
ATOM     99  O   UNL A   1      46.718  23.771  37.375  1.00  0.00    -0.237 OA
ATOM    100  O   UNL A   1      44.445  24.575  37.848  1.00  0.00    -0.744 OA
ENDBRANCH  94  97
ENDBRANCH  67  90
ENDBRANCH  41  42
ENDBRANCH  34  36
ENDBRANCH  33  34
ENDBRANCH  32  33
ENDBRANCH  31  32
ENDBRANCH  30  31
ENDBRANCH   1  30
TORSDOF 22
ENDMDL
MODEL 2
REMARK VINA RESULT:     -11.5      5.066     11.360
REMARK SMILES O=C(/C=C/c1ccc(C(=O)NC2CC2)cc1)NC1(C(=O)OCCOCCOC(=O)c2ccc(-c3c4nc(c(-c5cccc(S(=O)(=O)[O-])c5F)c5ccc([nH]5)c(-c5cccc(S(=O)(=O)[O-])c5F)c5nc(c(-c6cccc(S(=O)(=O)[O-])c6F)c6ccc3[nH]6)C=C5)C=C4)cc2)CCCC1
REMARK SMILES IDX 23 1 22 2 21 3 19 4 20 5 18 6 93 7 96 8 94 9 95 10 17 11
REMARK SMILES IDX 1 12 2 13 3 15 4 16 5 17 6 18 16 19 7 20 15 21 8 22 9 23
REMARK SMILES IDX 10 24 11 25 12 27 13 28 14 29 24 30 25 31 26 32 27 33 28 34
REMARK SMILES IDX 29 35 30 36 31 37 92 38 32 39 91 40 33 41 34 42 35 43 85 44
REMARK SMILES IDX 36 45 90 46 84 47 86 48 37 49 89 50 83 51 82 52 38 54 70 55
REMARK SMILES IDX 50 56 69 57 51 58 54 59 68 60 87 61 52 62 53 63 67 65 88 66
REMARK SMILES IDX 55 67 39 68 40 69 48 70 41 71 43 72 49 73 42 74 44 75 45 76
REMARK SMILES IDX 46 77 47 78 71 79 72 80 80 81 73 82 75 83 81 84 74 85 76 86
REMARK SMILES IDX 77 87 78 88 79 89 56 90 57 91 65 92 58 93 60 94 66 95 59 96
REMARK SMILES IDX 61 97 62 98 63 99 64 100
REMARK H PARENT 17 14 11 26 86 53 54 64
REMARK Flexibility Score: inf
ROOT
ATOM      1  C   UNL A   1      35.288  22.690  23.411  1.00  0.00     0.202 C 
ENDROOT
BRANCH   1   2
ATOM      2  C   UNL A   1      33.889  23.236  23.098  1.00  0.00     0.261 C 
BRANCH   2   3
ATOM      3  O   UNL A   1      33.644  24.473  23.785  1.00  0.00    -0.461 OA
BRANCH   3   4
ATOM      4  C   UNL A   1      32.339  24.712  24.098  1.00  0.00     0.331 C 
ATOM      5  O   UNL A   1      31.404  24.611  23.307  1.00  0.00    -0.249 OA
BRANCH   4   6
ATOM      6  C   UNL A   1      32.153  25.044  25.615  1.00  0.00     0.138 C 
ATOM      7  C   UNL A   1      32.669  23.829  26.404  1.00  0.00     0.040 C 
ATOM      8  C   UNL A   1      30.701  25.132  26.121  1.00  0.00     0.040 C 
ATOM      9  C   UNL A   1      31.519  22.837  26.342  1.00  0.00     0.003 C 
ATOM     10  C   UNL A   1      30.262  23.693  26.417  1.00  0.00     0.003 C 
BRANCH   6  11
ATOM     11  N   UNL A   1      32.946  26.231  26.002  1.00  0.00    -0.337 N 
ATOM     12  O   UNL A   1      31.998  27.691  24.508  1.00  0.00    -0.270 OA
ATOM     13  C   UNL A   1      32.747  27.458  25.448  1.00  0.00     0.244 C 
ATOM     14  H   UNL A   1      33.646  26.128  26.688  1.00  0.00     0.164 HD
BRANCH  13  15
ATOM     15  C   UNL A   1      33.512  28.597  25.990  1.00  0.00     0.072 C 
ATOM     16  C   UNL A   1      34.379  28.631  27.014  1.00  0.00     0.014 C 
BRANCH  16  17
ATOM     17  C   UNL A   1      34.834  29.927  27.545  1.00  0.00    -0.025 A 
ATOM     18  C   UNL A   1      36.110  30.104  28.076  1.00  0.00     0.009 A 
ATOM     19  C   UNL A   1      33.956  31.014  27.578  1.00  0.00     0.009 A 
ATOM     20  C   UNL A   1      36.479  31.345  28.630  1.00  0.00     0.014 A 
ATOM     21  C   UNL A   1      34.352  32.255  28.074  1.00  0.00     0.014 A 
ATOM     22  C   UNL A   1      35.590  32.441  28.658  1.00  0.00     0.039 A 
BRANCH  22  23
ATOM     23  C   UNL A   1      36.064  33.718  29.254  1.00  0.00     0.251 C 
ATOM     24  O   UNL A   1      37.199  34.100  28.935  1.00  0.00    -0.269 OA
ATOM     25  N   UNL A   1      35.406  34.548  30.136  1.00  0.00    -0.349 N 
ATOM     26  H   UNL A   1      35.951  35.355  30.284  1.00  0.00     0.164 HD
BRANCH  25  27
ATOM     27  C   UNL A   1      34.211  34.645  30.911  1.00  0.00     0.082 C 
ATOM     28  C   UNL A   1      33.862  35.845  31.741  1.00  0.00     0.027 C 
ATOM     29  C   UNL A   1      32.940  35.376  30.636  1.00  0.00     0.027 C 
ENDBRANCH  25  27
ENDBRANCH  22  23
ENDBRANCH  16  17
ENDBRANCH  13  15
ENDBRANCH   6  11
ENDBRANCH   4   6
ENDBRANCH   3   4
ENDBRANCH   2   3
ENDBRANCH   1   2
BRANCH   1  30
ATOM     30  O   UNL A   1      35.410  21.708  24.440  1.00  0.00    -0.374 OA
BRANCH  30  31
ATOM     31  C   UNL A   1      36.364  21.957  25.470  1.00  0.00     0.202 C 
BRANCH  31  32
ATOM     32  C   UNL A   1      37.612  21.069  25.495  1.00  0.00     0.261 C 
BRANCH  32  33
ATOM     33  O   UNL A   1      38.830  21.830  25.499  1.00  0.00    -0.460 OA
BRANCH  33  34
ATOM     34  C   UNL A   1      39.610  21.641  26.586  1.00  0.00     0.338 C 
ATOM     35  O   UNL A   1      40.064  20.578  26.998  1.00  0.00    -0.246 OA
BRANCH  34  36
ATOM     36  C   UNL A   1      40.018  22.941  27.139  1.00  0.00     0.060 A 
ATOM     37  C   UNL A   1      39.400  24.092  26.627  1.00  0.00     0.016 A 
ATOM     38  C   UNL A   1      41.041  23.038  28.082  1.00  0.00     0.016 A 
ATOM     39  C   UNL A   1      39.841  25.352  27.017  1.00  0.00     0.010 A 
ATOM     40  C   UNL A   1      41.494  24.302  28.459  1.00  0.00     0.010 A 
ATOM     41  C   UNL A   1      40.925  25.460  27.893  1.00  0.00    -0.014 A 
BRANCH  41  42
ATOM     42  C   UNL A   1      41.607  26.760  28.068  1.00  0.00     0.031 A 
ATOM     43  C   UNL A   1      42.960  26.941  27.441  1.00  0.00     0.074 A 
ATOM     44  C   UNL A   1      41.056  27.739  28.804  1.00  0.00     0.049 A 
ATOM     45  N   UNL A   1      43.811  27.922  27.573  1.00  0.00    -0.248 NA
ATOM     46  C   UNL A   1      43.419  25.855  26.558  1.00  0.00     0.031 C 
ATOM     47  C   UNL A   1      39.742  27.678  29.439  1.00  0.00     0.029 A 
ATOM     48  N   UNL A   1      41.561  28.958  29.177  1.00  0.00    -0.354 N 
ATOM     49  C   UNL A   1      44.926  27.552  26.833  1.00  0.00     0.074 A 
ATOM     50  C   UNL A   1      44.644  26.256  26.256  1.00  0.00     0.031 C 
ATOM     51  C   UNL A   1      39.565  28.790  30.172  1.00  0.00     0.029 A 
ATOM     52  C   UNL A   1      40.767  29.618  30.085  1.00  0.00     0.049 A 
ATOM     53  H   UNL A   1      42.407  29.324  28.830  1.00  0.00     0.167 HD
ATOM     54  C   UNL A   1      46.081  28.233  26.648  1.00  0.00     0.034 A 
ATOM     55  C   UNL A   1      41.006  30.735  30.798  1.00  0.00     0.034 A 
ATOM     56  C   UNL A   1      46.342  29.526  27.216  1.00  0.00     0.049 A 
ATOM     57  C   UNL A   1      42.304  31.473  30.598  1.00  0.00     0.074 A 
ATOM     58  C   UNL A   1      47.456  30.330  27.051  1.00  0.00     0.029 A 
ATOM     59  N   UNL A   1      45.486  30.197  28.076  1.00  0.00    -0.354 N 
ATOM     60  N   UNL A   1      43.314  31.165  29.819  1.00  0.00    -0.248 NA
ATOM     61  C   UNL A   1      42.486  32.725  31.346  1.00  0.00     0.031 C 
ATOM     62  C   UNL A   1      47.288  31.470  27.842  1.00  0.00     0.029 A 
ATOM     63  C   UNL A   1      46.049  31.399  28.463  1.00  0.00     0.049 A 
ATOM     64  H   UNL A   1      44.605  29.866  28.367  1.00  0.00     0.167 HD
ATOM     65  C   UNL A   1      44.230  32.202  29.950  1.00  0.00     0.074 A 
ATOM     66  C   UNL A   1      43.655  33.149  30.884  1.00  0.00     0.031 C 
ATOM     67  C   UNL A   1      45.437  32.356  29.350  1.00  0.00     0.034 A 
BRANCH  54  68
ATOM     68  C   UNL A   1      47.145  27.580  25.805  1.00  0.00     0.023 A 
ATOM     69  C   UNL A   1      47.999  26.612  26.370  1.00  0.00     0.012 A 
ATOM     70  C   UNL A   1      47.291  27.920  24.445  1.00  0.00     0.148 A 
ATOM     71  C   UNL A   1      49.014  26.029  25.610  1.00  0.00     0.002 A 
ATOM     72  C   UNL A   1      48.272  27.298  23.682  1.00  0.00     0.091 A 
ATOM     73  F   UNL A   1      46.488  28.861  23.929  1.00  0.00    -0.205 F 
ATOM     74  C   UNL A   1      49.144  26.366  24.266  1.00  0.00     0.022 A 
BRANCH  72  75
ATOM     75  S   UNL A   1      48.459  27.607  21.923  1.00  0.00     0.127 S 
ATOM     76  O   UNL A   1      49.604  28.516  21.902  1.00  0.00    -0.237 OA
ATOM     77  O   UNL A   1      48.734  26.268  21.400  1.00  0.00    -0.237 OA
ATOM     78  O   UNL A   1      47.194  28.177  21.481  1.00  0.00    -0.744 OA
ENDBRANCH  72  75
ENDBRANCH  54  68
BRANCH  55  79
ATOM     79  C   UNL A   1      39.975  31.221  31.756  1.00  0.00     0.023 A 
ATOM     80  C   UNL A   1      38.797  31.817  31.270  1.00  0.00     0.012 A 
ATOM     81  C   UNL A   1      40.129  31.026  33.143  1.00  0.00     0.148 A 
ATOM     82  C   UNL A   1      37.794  32.225  32.151  1.00  0.00     0.002 A 
ATOM     83  C   UNL A   1      39.104  31.384  34.009  1.00  0.00     0.091 A 
ATOM     84  F   UNL A   1      41.264  30.462  33.582  1.00  0.00    -0.205 F 
ATOM     85  C   UNL A   1      37.941  31.997  33.517  1.00  0.00     0.022 A 
BRANCH  83  86
ATOM     86  S   UNL A   1      39.146  31.010  35.766  1.00  0.00     0.127 S 
ATOM     87  O   UNL A   1      39.629  29.631  35.768  1.00  0.00    -0.237 OA
ATOM     88  O   UNL A   1      40.104  32.000  36.258  1.00  0.00    -0.237 OA
ATOM     89  O   UNL A   1      37.783  31.198  36.246  1.00  0.00    -0.744 OA
ENDBRANCH  83  86
ENDBRANCH  55  79
BRANCH  67  90
ATOM     90  C   UNL A   1      46.210  33.620  29.621  1.00  0.00     0.023 A 
ATOM     91  C   UNL A   1      47.152  33.667  30.665  1.00  0.00     0.012 A 
ATOM     92  C   UNL A   1      46.087  34.720  28.747  1.00  0.00     0.148 A 
ATOM     93  C   UNL A   1      47.953  34.795  30.844  1.00  0.00     0.002 A 
ATOM     94  C   UNL A   1      46.923  35.819  28.899  1.00  0.00     0.091 A 
ATOM     95  F   UNL A   1      45.171  34.658  27.769  1.00  0.00    -0.205 F 
ATOM     96  C   UNL A   1      47.850  35.862  29.953  1.00  0.00     0.022 A 
BRANCH  94  97
ATOM     97  S   UNL A   1      46.936  37.190  27.739  1.00  0.00     0.127 S 
ATOM     98  O   UNL A   1      45.536  37.611  27.759  1.00  0.00    -0.237 OA
ATOM     99  O   UNL A   1      47.864  38.125  28.376  1.00  0.00    -0.237 OA
ATOM    100  O   UNL A   1      47.401  36.644  26.471  1.00  0.00    -0.744 OA
ENDBRANCH  94  97
ENDBRANCH  67  90
ENDBRANCH  41  42
ENDBRANCH  34  36
ENDBRANCH  33  34
ENDBRANCH  32  33
ENDBRANCH  31  32
ENDBRANCH  30  31
ENDBRANCH   1  30
TORSDOF 22
ENDMDL
MODEL 3
REMARK VINA RESULT:     -10.8      5.009     11.443
REMARK SMILES O=C(/C=C/c1ccc(C(=O)NC2CC2)cc1)NC1(C(=O)OCCOCCOC(=O)c2ccc(-c3c4nc(c(-c5cccc(S(=O)(=O)[O-])c5F)c5ccc([nH]5)c(-c5cccc(S(=O)(=O)[O-])c5F)c5nc(c(-c6cccc(S(=O)(=O)[O-])c6F)c6ccc3[nH]6)C=C5)C=C4)cc2)CCCC1
REMARK SMILES IDX 23 1 22 2 21 3 19 4 20 5 18 6 93 7 96 8 94 9 95 10 17 11
REMARK SMILES IDX 1 12 2 13 3 15 4 16 5 17 6 18 16 19 7 20 15 21 8 22 9 23
REMARK SMILES IDX 10 24 11 25 12 27 13 28 14 29 24 30 25 31 26 32 27 33 28 34
REMARK SMILES IDX 29 35 30 36 31 37 92 38 32 39 91 40 33 41 34 42 35 43 85 44
REMARK SMILES IDX 36 45 90 46 84 47 86 48 37 49 89 50 83 51 82 52 38 54 70 55
REMARK SMILES IDX 50 56 69 57 51 58 54 59 68 60 87 61 52 62 53 63 67 65 88 66
REMARK SMILES IDX 55 67 39 68 40 69 48 70 41 71 43 72 49 73 42 74 44 75 45 76
REMARK SMILES IDX 46 77 47 78 71 79 72 80 80 81 73 82 75 83 81 84 74 85 76 86
REMARK SMILES IDX 77 87 78 88 79 89 56 90 57 91 65 92 58 93 60 94 66 95 59 96
REMARK SMILES IDX 61 97 62 98 63 99 64 100
REMARK H PARENT 17 14 11 26 86 53 54 64
REMARK Flexibility Score: inf
ROOT
ATOM      1  C   UNL A   1      37.769  20.568  24.944  1.00  0.00     0.202 C 
ENDROOT
BRANCH   1   2
ATOM      2  C   UNL A   1      36.364  21.151  24.738  1.00  0.00     0.261 C 
BRANCH   2   3
ATOM      3  O   UNL A   1      35.377  20.406  25.469  1.00  0.00    -0.461 OA
BRANCH   3   4
ATOM      4  C   UNL A   1      34.835  19.351  24.796  1.00  0.00     0.331 C 
ATOM      5  O   UNL A   1      35.443  18.324  24.505  1.00  0.00    -0.249 OA
BRANCH   4   6
ATOM      6  C   UNL A   1      33.311  19.560  24.515  1.00  0.00     0.138 C 
ATOM      7  C   UNL A   1      32.546  18.791  25.605  1.00  0.00     0.040 C 
ATOM      8  C   UNL A   1      32.756  18.897  23.239  1.00  0.00     0.040 C 
ATOM      9  C   UNL A   1      32.575  17.349  25.124  1.00  0.00     0.003 C 
ATOM     10  C   UNL A   1      32.454  17.441  23.609  1.00  0.00     0.003 C 
BRANCH   6  11
ATOM     11  N   UNL A   1      32.944  20.990  24.599  1.00  0.00    -0.337 N 
ATOM     12  O   UNL A   1      31.994  21.151  22.516  1.00  0.00    -0.270 OA
ATOM     13  C   UNL A   1      32.264  21.632  23.609  1.00  0.00     0.244 C 
ATOM     14  H   UNL A   1      33.201  21.498  25.403  1.00  0.00     0.164 HD
BRANCH  13  15
ATOM     15  C   UNL A   1      31.846  23.026  23.846  1.00  0.00     0.072 C 
ATOM     16  C   UNL A   1      30.805  23.702  23.334  1.00  0.00     0.014 C 
BRANCH  16  17
ATOM     17  C   UNL A   1      30.724  25.162  23.511  1.00  0.00    -0.025 A 
ATOM     18  C   UNL A   1      29.520  25.810  23.785  1.00  0.00     0.009 A 
ATOM     19  C   UNL A   1      31.867  25.949  23.347  1.00  0.00     0.009 A 
ATOM     20  C   UNL A   1      29.479  27.214  23.882  1.00  0.00     0.014 A 
ATOM     21  C   UNL A   1      31.826  27.333  23.505  1.00  0.00     0.014 A 
ATOM     22  C   UNL A   1      30.638  28.004  23.720  1.00  0.00     0.039 A 
BRANCH  22  23
ATOM     23  C   UNL A   1      30.507  29.481  23.847  1.00  0.00     0.251 C 
ATOM     24  O   UNL A   1      29.837  30.061  22.982  1.00  0.00    -0.269 OA
ATOM     25  N   UNL A   1      31.045  30.308  24.809  1.00  0.00    -0.349 N 
ATOM     26  H   UNL A   1      30.713  31.225  24.665  1.00  0.00     0.164 HD
BRANCH  25  27
ATOM     27  C   UNL A   1      31.915  30.302  25.940  1.00  0.00     0.082 C 
ATOM     28  C   UNL A   1      31.764  29.352  27.091  1.00  0.00     0.027 C 
ATOM     29  C   UNL A   1      33.043  29.389  26.284  1.00  0.00     0.027 C 
ENDBRANCH  25  27
ENDBRANCH  22  23
ENDBRANCH  16  17
ENDBRANCH  13  15
ENDBRANCH   6  11
ENDBRANCH   4   6
ENDBRANCH   3   4
ENDBRANCH   2   3
ENDBRANCH   1   2
BRANCH   1  30
ATOM     30  O   UNL A   1      38.754  21.395  25.565  1.00  0.00    -0.374 OA
BRANCH  30  31
ATOM     31  C   UNL A   1      39.617  20.778  26.518  1.00  0.00     0.202 C 
BRANCH  31  32
ATOM     32  C   UNL A   1      40.398  19.544  26.053  1.00  0.00     0.261 C 
BRANCH  32  33
ATOM     33  O   UNL A   1      41.638  19.379  26.759  1.00  0.00    -0.460 OA
BRANCH  33  34
ATOM     34  C   UNL A   1      42.668  20.102  26.265  1.00  0.00     0.338 C 
ATOM     35  O   UNL A   1      43.565  19.709  25.526  1.00  0.00    -0.246 OA
BRANCH  34  36
ATOM     36  C   UNL A   1      42.477  21.525  26.587  1.00  0.00     0.060 A 
ATOM     37  C   UNL A   1      42.287  22.416  25.521  1.00  0.00     0.016 A 
ATOM     38  C   UNL A   1      42.560  21.987  27.901  1.00  0.00     0.016 A 
ATOM     39  C   UNL A   1      42.234  23.786  25.759  1.00  0.00     0.010 A 
ATOM     40  C   UNL A   1      42.525  23.361  28.136  1.00  0.00     0.010 A 
ATOM     41  C   UNL A   1      42.408  24.264  27.061  1.00  0.00    -0.014 A 
BRANCH  41  42
ATOM     42  C   UNL A   1      42.674  25.701  27.292  1.00  0.00     0.031 A 
ATOM     43  C   UNL A   1      44.028  26.238  26.928  1.00  0.00     0.074 A 
ATOM     44  C   UNL A   1      41.748  26.496  27.852  1.00  0.00     0.049 A 
ATOM     45  N   UNL A   1      44.546  27.412  27.167  1.00  0.00    -0.248 NA
ATOM     46  C   UNL A   1      44.925  25.314  26.212  1.00  0.00     0.031 C 
ATOM     47  C   UNL A   1      40.397  26.085  28.224  1.00  0.00     0.029 A 
ATOM     48  N   UNL A   1      41.829  27.807  28.247  1.00  0.00    -0.354 N 
ATOM     49  C   UNL A   1      45.845  27.354  26.677  1.00  0.00     0.074 A 
ATOM     50  C   UNL A   1      46.036  26.029  26.130  1.00  0.00     0.031 C 
ATOM     51  C   UNL A   1      39.790  27.109  28.846  1.00  0.00     0.029 A 
ATOM     52  C   UNL A   1      40.724  28.231  28.946  1.00  0.00     0.049 A 
ATOM     53  H   UNL A   1      42.600  28.387  28.049  1.00  0.00     0.167 HD
ATOM     54  C   UNL A   1      46.793  28.320  26.681  1.00  0.00     0.034 A 
ATOM     55  C   UNL A   1      40.512  29.372  29.629  1.00  0.00     0.034 A 
ATOM     56  C   UNL A   1      46.584  29.638  27.216  1.00  0.00     0.049 A 
ATOM     57  C   UNL A   1      41.583  30.431  29.641  1.00  0.00     0.074 A 
ATOM     58  C   UNL A   1      47.456  30.711  27.223  1.00  0.00     0.029 A 
ATOM     59  N   UNL A   1      45.427  30.055  27.856  1.00  0.00    -0.354 N 
ATOM     60  N   UNL A   1      42.773  30.406  29.091  1.00  0.00    -0.248 NA
ATOM     61  C   UNL A   1      41.274  31.687  30.339  1.00  0.00     0.031 C 
ATOM     62  C   UNL A   1      46.839  31.765  27.903  1.00  0.00     0.029 A 
ATOM     63  C   UNL A   1      45.564  31.365  28.276  1.00  0.00     0.049 A 
ATOM     64  H   UNL A   1      44.625  29.499  27.990  1.00  0.00     0.167 HD
ATOM     65  C   UNL A   1      43.338  31.651  29.337  1.00  0.00     0.074 A 
ATOM     66  C   UNL A   1      42.359  32.410  30.088  1.00  0.00     0.031 C 
ATOM     67  C   UNL A   1      44.557  32.123  28.974  1.00  0.00     0.034 A 
BRANCH  54  68
ATOM     68  C   UNL A   1      48.137  27.977  26.096  1.00  0.00     0.023 A 
ATOM     69  C   UNL A   1      49.228  27.702  26.946  1.00  0.00     0.012 A 
ATOM     70  C   UNL A   1      48.318  27.914  24.700  1.00  0.00     0.148 A 
ATOM     71  C   UNL A   1      50.488  27.422  26.417  1.00  0.00     0.002 A 
ATOM     72  C   UNL A   1      49.564  27.585  24.181  1.00  0.00     0.091 A 
ATOM     73  F   UNL A   1      47.279  28.203  23.906  1.00  0.00    -0.205 F 
ATOM     74  C   UNL A   1      50.653  27.355  25.037  1.00  0.00     0.022 A 
BRANCH  72  75
ATOM     75  S   UNL A   1      49.850  27.394  22.419  1.00  0.00     0.127 S 
ATOM     76  O   UNL A   1      50.068  28.778  22.002  1.00  0.00    -0.237 OA
ATOM     77  O   UNL A   1      51.047  26.553  22.388  1.00  0.00    -0.237 OA
ATOM     78  O   UNL A   1      48.653  26.758  21.887  1.00  0.00    -0.744 OA
ENDBRANCH  72  75
ENDBRANCH  54  68
BRANCH  55  79
ATOM     79  C   UNL A   1      39.219  29.564  30.341  1.00  0.00     0.023 A 
ATOM     80  C   UNL A   1      39.006  28.936  31.582  1.00  0.00     0.012 A 
ATOM     81  C   UNL A   1      38.230  30.425  29.825  1.00  0.00     0.148 A 
ATOM     82  C   UNL A   1      37.824  29.151  32.291  1.00  0.00     0.002 A 
ATOM     83  C   UNL A   1      37.080  30.677  30.561  1.00  0.00     0.091 A 
ATOM     84  F   UNL A   1      38.452  31.006  28.637  1.00  0.00    -0.205 F 
ATOM     85  C   UNL A   1      36.867  30.029  31.788  1.00  0.00     0.022 A 
BRANCH  83  86
ATOM     86  S   UNL A   1      35.855  31.893  30.059  1.00  0.00     0.127 S 
ATOM     87  O   UNL A   1      36.668  33.100  29.929  1.00  0.00    -0.237 OA
ATOM     88  O   UNL A   1      35.379  31.330  28.796  1.00  0.00    -0.237 OA
ATOM     89  O   UNL A   1      34.860  31.918  31.123  1.00  0.00    -0.744 OA
ENDBRANCH  83  86
ENDBRANCH  55  79
BRANCH  67  90
ATOM     90  C   UNL A   1      44.899  33.549  29.317  1.00  0.00     0.023 A 
ATOM     91  C   UNL A   1      45.470  33.862  30.565  1.00  0.00     0.012 A 
ATOM     92  C   UNL A   1      44.769  34.558  28.341  1.00  0.00     0.148 A 
ATOM     93  C   UNL A   1      45.897  35.161  30.841  1.00  0.00     0.002 A 
ATOM     94  C   UNL A   1      45.243  35.837  28.604  1.00  0.00     0.091 A 
ATOM     95  F   UNL A   1      44.207  34.239  27.166  1.00  0.00    -0.205 F 
ATOM     96  C   UNL A   1      45.797  36.143  29.856  1.00  0.00     0.022 A 
BRANCH  94  97
ATOM     97  S   UNL A   1      45.255  37.136  27.363  1.00  0.00     0.127 S 
ATOM     98  O   UNL A   1      46.167  36.583  26.362  1.00  0.00    -0.237 OA
ATOM     99  O   UNL A   1      43.852  37.183  26.951  1.00  0.00    -0.237 OA
ATOM    100  O   UNL A   1      45.730  38.337  28.037  1.00  0.00    -0.744 OA
ENDBRANCH  94  97
ENDBRANCH  67  90
ENDBRANCH  41  42
ENDBRANCH  34  36
ENDBRANCH  33  34
ENDBRANCH  32  33
ENDBRANCH  31  32
ENDBRANCH  30  31
ENDBRANCH   1  30
TORSDOF 22
ENDMDL
