MODEL 1
REMARK VINA RESULT:     -11.5      0.000      0.000
REMARK SMILES C[C@H](c1ccncc1)N1C[C@H](C(=O)OCCOCCOC(=O)c2ccc(-c3c4nc(c(-c5cccc(S(=O)(=O)[O-])c5F)c5ccc([nH]5)c(-c5cccc(S(=O)(=O)[O-])c5F)c5nc(c(-c6cccc(S(=O)(=O)[O-])c6F)c6ccc3[nH]6)C=C5)C=C4)cc2)CC1=O
REMARK SMILES IDX 18 1 17 2 16 3 15 4 14 5 12 6 13 7 11 8 9 9 10 10 87 11
REMARK SMILES IDX 86 12 88 13 2 14 1 15 3 16 4 17 8 18 5 19 7 20 6 21 19 22
REMARK SMILES IDX 20 23 21 24 22 25 23 26 24 27 85 28 25 29 84 30 26 31 27 32
REMARK SMILES IDX 28 33 78 34 29 35 83 36 77 37 79 38 30 39 82 40 76 41 75 42
REMARK SMILES IDX 31 44 63 45 43 46 62 47 44 48 47 49 61 50 80 51 45 52 46 53
REMARK SMILES IDX 60 55 81 56 48 57 32 58 33 59 41 60 34 61 36 62 42 63 35 64
REMARK SMILES IDX 37 65 38 66 39 67 40 68 64 69 65 70 73 71 66 72 68 73 74 74
REMARK SMILES IDX 67 75 69 76 70 77 71 78 72 79 49 80 50 81 58 82 51 83 53 84
REMARK SMILES IDX 59 85 52 86 54 87 55 88 56 89 57 90
REMARK H PARENT 79 43 47 54
REMARK Flexibility Score: inf
ROOT
ATOM      1  C   UNL A   1      36.104  19.912  24.995  1.00  0.00     0.202 C 
ENDROOT
BRANCH   1   2
ATOM      2  O   UNL A   1      35.308  18.809  24.564  1.00  0.00    -0.374 OA
BRANCH   2   3
ATOM      3  C   UNL A   1      33.890  18.987  24.613  1.00  0.00     0.202 C 
BRANCH   3   4
ATOM      4  C   UNL A   1      33.339  19.968  25.654  1.00  0.00     0.261 C 
BRANCH   4   5
ATOM      5  O   UNL A   1      32.446  20.936  25.073  1.00  0.00    -0.463 OA
BRANCH   5   6
ATOM      6  C   UNL A   1      33.006  22.128  24.741  1.00  0.00     0.311 C 
ATOM      7  O   UNL A   1      33.368  22.434  23.611  1.00  0.00    -0.252 OA
BRANCH   6   8
ATOM      8  C   UNL A   1      33.221  23.031  25.946  1.00  0.00     0.128 C 
ATOM      9  N   UNL A   1      31.459  24.582  25.939  1.00  0.00    -0.335 N 
ATOM     10  C   UNL A   1      32.856  24.463  25.576  1.00  0.00     0.136 C 
ATOM     11  C   UNL A   1      31.108  23.628  26.880  1.00  0.00     0.224 C 
ATOM     12  C   UNL A   1      32.323  22.765  27.152  1.00  0.00     0.117 C 
ATOM     13  O   UNL A   1      30.031  23.485  27.432  1.00  0.00    -0.275 OA
BRANCH   9  14
ATOM     14  C   UNL A   1      30.616  25.647  25.378  1.00  0.00     0.112 C 
ATOM     15  C   UNL A   1      30.260  25.496  23.894  1.00  0.00     0.036 C 
BRANCH  14  16
ATOM     16  C   UNL A   1      31.190  27.029  25.650  1.00  0.00    -0.023 A 
ATOM     17  C   UNL A   1      31.611  27.869  24.615  1.00  0.00     0.026 A 
ATOM     18  C   UNL A   1      31.307  27.507  26.959  1.00  0.00     0.026 A 
ATOM     19  C   UNL A   1      32.119  29.123  24.921  1.00  0.00     0.111 A 
ATOM     20  C   UNL A   1      31.819  28.781  27.167  1.00  0.00     0.111 A 
ATOM     21  N   UNL A   1      32.220  29.604  26.177  1.00  0.00    -0.265 NA
ENDBRANCH  14  16
ENDBRANCH   9  14
ENDBRANCH   6   8
ENDBRANCH   5   6
ENDBRANCH   4   5
ENDBRANCH   3   4
ENDBRANCH   2   3
ENDBRANCH   1   2
BRANCH   1  22
ATOM     22  C   UNL A   1      37.628  19.792  24.906  1.00  0.00     0.261 C 
BRANCH  22  23
ATOM     23  O   UNL A   1      38.297  20.980  25.346  1.00  0.00    -0.460 OA
BRANCH  23  24
ATOM     24  C   UNL A   1      39.409  20.746  26.079  1.00  0.00     0.338 C 
ATOM     25  O   UNL A   1      40.056  19.707  26.133  1.00  0.00    -0.246 OA
BRANCH  24  26
ATOM     26  C   UNL A   1      39.879  22.003  26.681  1.00  0.00     0.060 A 
ATOM     27  C   UNL A   1      39.264  23.184  26.249  1.00  0.00     0.016 A 
ATOM     28  C   UNL A   1      40.925  22.035  27.605  1.00  0.00     0.016 A 
ATOM     29  C   UNL A   1      39.744  24.414  26.684  1.00  0.00     0.010 A 
ATOM     30  C   UNL A   1      41.408  23.272  28.040  1.00  0.00     0.010 A 
ATOM     31  C   UNL A   1      40.849  24.464  27.542  1.00  0.00    -0.014 A 
BRANCH  31  32
ATOM     32  C   UNL A   1      41.516  25.762  27.782  1.00  0.00     0.031 A 
ATOM     33  C   UNL A   1      40.762  26.836  28.517  1.00  0.00     0.074 A 
ATOM     34  C   UNL A   1      42.780  25.968  27.375  1.00  0.00     0.049 A 
ATOM     35  N   UNL A   1      41.144  28.044  28.834  1.00  0.00    -0.248 NA
ATOM     36  C   UNL A   1      39.392  26.506  28.948  1.00  0.00     0.031 C 
ATOM     37  C   UNL A   1      43.606  24.993  26.664  1.00  0.00     0.029 A 
ATOM     38  N   UNL A   1      43.581  27.074  27.488  1.00  0.00    -0.354 N 
ATOM     39  C   UNL A   1      40.058  28.629  29.474  1.00  0.00     0.074 A 
ATOM     40  C   UNL A   1      38.994  27.648  29.488  1.00  0.00     0.031 C 
ATOM     41  C   UNL A   1      44.792  25.556  26.378  1.00  0.00     0.029 A 
ATOM     42  C   UNL A   1      44.799  26.934  26.866  1.00  0.00     0.049 A 
ATOM     43  H   UNL A   1      43.311  27.890  27.968  1.00  0.00     0.167 HD
ATOM     44  C   UNL A   1      39.959  29.865  30.015  1.00  0.00     0.034 A 
ATOM     45  C   UNL A   1      45.794  27.825  26.693  1.00  0.00     0.034 A 
ATOM     46  C   UNL A   1      41.029  30.826  30.017  1.00  0.00     0.049 A 
ATOM     47  C   UNL A   1      45.653  29.202  27.289  1.00  0.00     0.074 A 
ATOM     48  C   UNL A   1      41.051  32.088  30.582  1.00  0.00     0.029 A 
ATOM     49  N   UNL A   1      42.262  30.636  29.412  1.00  0.00    -0.354 N 
ATOM     50  N   UNL A   1      44.665  29.700  27.994  1.00  0.00    -0.248 NA
ATOM     51  C   UNL A   1      46.778  30.128  27.098  1.00  0.00     0.031 C 
ATOM     52  C   UNL A   1      42.287  32.674  30.292  1.00  0.00     0.029 A 
ATOM     53  C   UNL A   1      43.049  31.763  29.577  1.00  0.00     0.049 A 
ATOM     54  H   UNL A   1      42.538  29.820  28.936  1.00  0.00     0.167 HD
ATOM     55  C   UNL A   1      45.064  30.981  28.360  1.00  0.00     0.074 A 
ATOM     56  C   UNL A   1      46.391  31.174  27.815  1.00  0.00     0.031 C 
ATOM     57  C   UNL A   1      44.388  31.918  29.070  1.00  0.00     0.034 A 
BRANCH  44  58
ATOM     58  C   UNL A   1      38.657  30.242  30.669  1.00  0.00     0.023 A 
ATOM     59  C   UNL A   1      38.425  29.905  32.017  1.00  0.00     0.012 A 
ATOM     60  C   UNL A   1      37.683  30.977  29.962  1.00  0.00     0.148 A 
ATOM     61  C   UNL A   1      37.232  30.263  32.644  1.00  0.00     0.002 A 
ATOM     62  C   UNL A   1      36.516  31.370  30.608  1.00  0.00     0.091 A 
ATOM     63  F   UNL A   1      37.911  31.266  28.674  1.00  0.00    -0.205 F 
ATOM     64  C   UNL A   1      36.284  31.005  31.944  1.00  0.00     0.022 A 
BRANCH  62  65
ATOM     65  S   UNL A   1      35.270  32.393  29.815  1.00  0.00     0.127 S 
ATOM     66  O   UNL A   1      34.803  31.512  28.745  1.00  0.00    -0.237 OA
ATOM     67  O   UNL A   1      34.308  32.600  30.898  1.00  0.00    -0.237 OA
ATOM     68  O   UNL A   1      35.959  33.597  29.374  1.00  0.00    -0.744 OA
ENDBRANCH  62  65
ENDBRANCH  44  58
BRANCH  45  69
ATOM     69  C   UNL A   1      47.022  27.432  25.949  1.00  0.00     0.023 A 
ATOM     70  C   UNL A   1      48.052  26.739  26.616  1.00  0.00     0.012 A 
ATOM     71  C   UNL A   1      47.167  27.723  24.578  1.00  0.00     0.148 A 
ATOM     72  C   UNL A   1      49.214  26.369  25.939  1.00  0.00     0.002 A 
ATOM     73  C   UNL A   1      48.301  27.300  23.896  1.00  0.00     0.091 A 
ATOM     74  F   UNL A   1      46.183  28.396  23.965  1.00  0.00    -0.205 F 
ATOM     75  C   UNL A   1      49.335  26.639  24.578  1.00  0.00     0.022 A 
BRANCH  73  76
ATOM     76  S   UNL A   1      48.481  27.489  22.119  1.00  0.00     0.127 S 
ATOM     77  O   UNL A   1      47.227  28.145  21.759  1.00  0.00    -0.237 OA
ATOM     78  O   UNL A   1      49.671  28.337  22.025  1.00  0.00    -0.237 OA
ATOM     79  O   UNL A   1      48.664  26.141  21.597  1.00  0.00    -0.744 OA
ENDBRANCH  73  76
ENDBRANCH  45  69
BRANCH  57  80
ATOM     80  C   UNL A   1      45.083  33.227  29.340  1.00  0.00     0.023 A 
ATOM     81  C   UNL A   1      45.890  33.373  30.486  1.00  0.00     0.012 A 
ATOM     82  C   UNL A   1      44.998  34.288  28.415  1.00  0.00     0.148 A 
ATOM     83  C   UNL A   1      46.572  34.565  30.726  1.00  0.00     0.002 A 
ATOM     84  C   UNL A   1      45.721  35.454  28.634  1.00  0.00     0.091 A 
ATOM     85  F   UNL A   1      44.212  34.136  27.339  1.00  0.00    -0.205 F 
ATOM     86  C   UNL A   1      46.498  35.599  29.795  1.00  0.00     0.022 A 
BRANCH  84  87
ATOM     87  S   UNL A   1      45.764  36.798  27.443  1.00  0.00     0.127 S 
ATOM     88  O   UNL A   1      46.290  36.126  26.256  1.00  0.00    -0.237 OA
ATOM     89  O   UNL A   1      44.354  37.178  27.354  1.00  0.00    -0.237 OA
ATOM     90  O   UNL A   1      46.629  37.817  28.020  1.00  0.00    -0.744 OA
ENDBRANCH  84  87
ENDBRANCH  57  80
ENDBRANCH  31  32
ENDBRANCH  24  26
ENDBRANCH  23  24
ENDBRANCH  22  23
ENDBRANCH   1  22
TORSDOF 19
ENDMDL
MODEL 2
REMARK VINA RESULT:     -11.4      1.784      7.813
REMARK SMILES C[C@H](c1ccncc1)N1C[C@H](C(=O)OCCOCCOC(=O)c2ccc(-c3c4nc(c(-c5cccc(S(=O)(=O)[O-])c5F)c5ccc([nH]5)c(-c5cccc(S(=O)(=O)[O-])c5F)c5nc(c(-c6cccc(S(=O)(=O)[O-])c6F)c6ccc3[nH]6)C=C5)C=C4)cc2)CC1=O
REMARK SMILES IDX 18 1 17 2 16 3 15 4 14 5 12 6 13 7 11 8 9 9 10 10 87 11
REMARK SMILES IDX 86 12 88 13 2 14 1 15 3 16 4 17 8 18 5 19 7 20 6 21 19 22
REMARK SMILES IDX 20 23 21 24 22 25 23 26 24 27 85 28 25 29 84 30 26 31 27 32
REMARK SMILES IDX 28 33 78 34 29 35 83 36 77 37 79 38 30 39 82 40 76 41 75 42
REMARK SMILES IDX 31 44 63 45 43 46 62 47 44 48 47 49 61 50 80 51 45 52 46 53
REMARK SMILES IDX 60 55 81 56 48 57 32 58 33 59 41 60 34 61 36 62 42 63 35 64
REMARK SMILES IDX 37 65 38 66 39 67 40 68 64 69 65 70 73 71 66 72 68 73 74 74
REMARK SMILES IDX 67 75 69 76 70 77 71 78 72 79 49 80 50 81 58 82 51 83 53 84
REMARK SMILES IDX 59 85 52 86 54 87 55 88 56 89 57 90
REMARK H PARENT 79 43 47 54
REMARK Flexibility Score: inf
ROOT
ATOM      1  C   UNL A   1      35.955  21.125  24.841  1.00  0.00     0.202 C 
ENDROOT
BRANCH   1   2
ATOM      2  O   UNL A   1      34.810  20.583  25.498  1.00  0.00    -0.374 OA
BRANCH   2   3
ATOM      3  C   UNL A   1      33.887  19.861  24.679  1.00  0.00     0.202 C 
BRANCH   3   4
ATOM      4  C   UNL A   1      32.521  20.508  24.419  1.00  0.00     0.261 C 
BRANCH   4   5
ATOM      5  O   UNL A   1      32.641  21.828  23.856  1.00  0.00    -0.463 OA
BRANCH   5   6
ATOM      6  C   UNL A   1      31.777  22.756  24.343  1.00  0.00     0.311 C 
ATOM      7  O   UNL A   1      30.970  23.377  23.661  1.00  0.00    -0.252 OA
BRANCH   6   8
ATOM      8  C   UNL A   1      31.968  23.012  25.830  1.00  0.00     0.128 C 
ATOM      9  N   UNL A   1      32.725  25.225  26.032  1.00  0.00    -0.335 N 
ATOM     10  C   UNL A   1      33.215  23.862  26.039  1.00  0.00     0.136 C 
ATOM     11  C   UNL A   1      31.373  25.267  26.331  1.00  0.00     0.224 C 
ATOM     12  C   UNL A   1      30.885  23.844  26.511  1.00  0.00     0.117 C 
ATOM     13  O   UNL A   1      30.667  26.253  26.456  1.00  0.00    -0.275 OA
BRANCH   9  14
ATOM     14  C   UNL A   1      33.630  26.357  25.790  1.00  0.00     0.112 C 
ATOM     15  C   UNL A   1      33.414  27.580  26.689  1.00  0.00     0.036 C 
BRANCH  14  16
ATOM     16  C   UNL A   1      33.647  26.769  24.326  1.00  0.00    -0.023 A 
ATOM     17  C   UNL A   1      33.304  25.878  23.306  1.00  0.00     0.026 A 
ATOM     18  C   UNL A   1      34.004  28.070  23.956  1.00  0.00     0.026 A 
ATOM     19  C   UNL A   1      33.328  26.311  21.987  1.00  0.00     0.111 A 
ATOM     20  C   UNL A   1      33.990  28.415  22.611  1.00  0.00     0.111 A 
ATOM     21  N   UNL A   1      33.651  27.567  21.618  1.00  0.00    -0.265 NA
ENDBRANCH  14  16
ENDBRANCH   9  14
ENDBRANCH   6   8
ENDBRANCH   5   6
ENDBRANCH   4   5
ENDBRANCH   3   4
ENDBRANCH   2   3
ENDBRANCH   1   2
BRANCH   1  22
ATOM     22  C   UNL A   1      37.300  20.414  25.010  1.00  0.00     0.261 C 
BRANCH  22  23
ATOM     23  O   UNL A   1      38.404  21.327  25.033  1.00  0.00    -0.460 OA
BRANCH  23  24
ATOM     24  C   UNL A   1      39.302  21.084  26.013  1.00  0.00     0.338 C 
ATOM     25  O   UNL A   1      39.856  20.019  26.262  1.00  0.00    -0.246 OA
BRANCH  24  26
ATOM     26  C   UNL A   1      39.696  22.349  26.650  1.00  0.00     0.060 A 
ATOM     27  C   UNL A   1      39.021  23.505  26.242  1.00  0.00     0.016 A 
ATOM     28  C   UNL A   1      40.732  22.416  27.585  1.00  0.00     0.016 A 
ATOM     29  C   UNL A   1      39.428  24.748  26.712  1.00  0.00     0.010 A 
ATOM     30  C   UNL A   1      41.142  23.665  28.054  1.00  0.00     0.010 A 
ATOM     31  C   UNL A   1      40.522  24.837  27.581  1.00  0.00    -0.014 A 
BRANCH  31  32
ATOM     32  C   UNL A   1      41.113  26.164  27.859  1.00  0.00     0.031 A 
ATOM     33  C   UNL A   1      42.501  26.456  27.358  1.00  0.00     0.074 A 
ATOM     34  C   UNL A   1      40.414  27.099  28.524  1.00  0.00     0.049 A 
ATOM     35  N   UNL A   1      43.214  27.542  27.486  1.00  0.00    -0.248 NA
ATOM     36  C   UNL A   1      43.176  25.377  26.615  1.00  0.00     0.031 C 
ATOM     37  C   UNL A   1      39.059  26.926  29.046  1.00  0.00     0.029 A 
ATOM     38  N   UNL A   1      40.757  28.375  28.888  1.00  0.00    -0.354 N 
ATOM     39  C   UNL A   1      44.430  27.272  26.870  1.00  0.00     0.074 A 
ATOM     40  C   UNL A   1      44.365  25.913  26.379  1.00  0.00     0.031 C 
ATOM     41  C   UNL A   1      38.695  28.048  29.689  1.00  0.00     0.029 A 
ATOM     42  C   UNL A   1      39.798  29.006  29.642  1.00  0.00     0.049 A 
ATOM     43  H   UNL A   1      41.608  28.799  28.633  1.00  0.00     0.167 HD
ATOM     44  C   UNL A   1      45.499  28.086  26.713  1.00  0.00     0.034 A 
ATOM     45  C   UNL A   1      39.819  30.211  30.245  1.00  0.00     0.034 A 
ATOM     46  C   UNL A   1      45.547  29.444  27.184  1.00  0.00     0.049 A 
ATOM     47  C   UNL A   1      41.029  31.093  30.070  1.00  0.00     0.074 A 
ATOM     48  C   UNL A   1      46.562  30.371  27.033  1.00  0.00     0.029 A 
ATOM     49  N   UNL A   1      44.542  30.064  27.911  1.00  0.00    -0.354 N 
ATOM     50  N   UNL A   1      42.124  30.867  29.384  1.00  0.00    -0.248 NA
ATOM     51  C   UNL A   1      40.991  32.409  30.722  1.00  0.00     0.031 C 
ATOM     52  C   UNL A   1      46.183  31.543  27.697  1.00  0.00     0.029 A 
ATOM     53  C   UNL A   1      44.917  31.357  28.229  1.00  0.00     0.049 A 
ATOM     54  H   UNL A   1      43.688  29.646  28.164  1.00  0.00     0.167 HD
ATOM     55  C   UNL A   1      42.888  32.024  29.492  1.00  0.00     0.074 A 
ATOM     56  C   UNL A   1      42.121  32.955  30.293  1.00  0.00     0.031 C 
ATOM     57  C   UNL A   1      44.118  32.288  28.986  1.00  0.00     0.034 A 
BRANCH  44  58
ATOM     58  C   UNL A   1      46.696  27.539  25.984  1.00  0.00     0.023 A 
ATOM     59  C   UNL A   1      46.819  27.729  24.593  1.00  0.00     0.012 A 
ATOM     60  C   UNL A   1      47.726  26.879  26.685  1.00  0.00     0.148 A 
ATOM     61  C   UNL A   1      47.931  27.246  23.905  1.00  0.00     0.002 A 
ATOM     62  C   UNL A   1      48.853  26.440  25.999  1.00  0.00     0.091 A 
ATOM     63  F   UNL A   1      47.579  26.685  28.003  1.00  0.00    -0.205 F 
ATOM     64  C   UNL A   1      48.952  26.612  24.609  1.00  0.00     0.022 A 
BRANCH  62  65
ATOM     65  S   UNL A   1      50.255  25.683  26.827  1.00  0.00     0.127 S 
ATOM     66  O   UNL A   1      49.655  24.464  27.369  1.00  0.00    -0.237 OA
ATOM     67  O   UNL A   1      51.185  25.464  25.719  1.00  0.00    -0.237 OA
ATOM     68  O   UNL A   1      50.707  26.649  27.819  1.00  0.00    -0.744 OA
ENDBRANCH  62  65
ENDBRANCH  44  58
BRANCH  45  69
ATOM     69  C   UNL A   1      38.646  30.665  31.041  1.00  0.00     0.023 A 
ATOM     70  C   UNL A   1      38.630  30.470  32.436  1.00  0.00     0.012 A 
ATOM     71  C   UNL A   1      37.554  31.308  30.425  1.00  0.00     0.148 A 
ATOM     72  C   UNL A   1      37.536  30.880  33.199  1.00  0.00     0.002 A 
ATOM     73  C   UNL A   1      36.493  31.766  31.198  1.00  0.00     0.091 A 
ATOM     74  F   UNL A   1      37.581  31.470  29.095  1.00  0.00    -0.205 F 
ATOM     75  C   UNL A   1      36.474  31.537  32.583  1.00  0.00     0.022 A 
BRANCH  73  76
ATOM     76  S   UNL A   1      35.149  32.736  30.508  1.00  0.00     0.127 S 
ATOM     77  O   UNL A   1      35.818  33.997  30.197  1.00  0.00    -0.237 OA
ATOM     78  O   UNL A   1      34.768  31.937  29.342  1.00  0.00    -0.237 OA
ATOM     79  O   UNL A   1      34.133  32.797  31.549  1.00  0.00    -0.744 OA
ENDBRANCH  73  76
ENDBRANCH  45  69
BRANCH  57  80
ATOM     80  C   UNL A   1      44.703  33.652  29.245  1.00  0.00     0.023 A 
ATOM     81  C   UNL A   1      45.557  33.854  30.348  1.00  0.00     0.012 A 
ATOM     82  C   UNL A   1      44.467  34.715  28.350  1.00  0.00     0.148 A 
ATOM     83  C   UNL A   1      46.138  35.100  30.575  1.00  0.00     0.002 A 
ATOM     84  C   UNL A   1      45.090  35.940  28.554  1.00  0.00     0.091 A 
ATOM     85  F   UNL A   1      43.638  34.508  27.316  1.00  0.00    -0.205 F 
ATOM     86  C   UNL A   1      45.915  36.138  29.673  1.00  0.00     0.022 A 
BRANCH  84  87
ATOM     87  S   UNL A   1      44.940  37.302  27.392  1.00  0.00     0.127 S 
ATOM     88  O   UNL A   1      45.995  36.989  26.429  1.00  0.00    -0.237 OA
ATOM     89  O   UNL A   1      43.579  37.127  26.884  1.00  0.00    -0.237 OA
ATOM     90  O   UNL A   1      45.143  38.516  28.169  1.00  0.00    -0.744 OA
ENDBRANCH  84  87
ENDBRANCH  57  80
ENDBRANCH  31  32
ENDBRANCH  24  26
ENDBRANCH  23  24
ENDBRANCH  22  23
ENDBRANCH   1  22
TORSDOF 19
ENDMDL
MODEL 3
REMARK VINA RESULT:     -11.3      5.158      8.154
REMARK SMILES C[C@H](c1ccncc1)N1C[C@H](C(=O)OCCOCCOC(=O)c2ccc(-c3c4nc(c(-c5cccc(S(=O)(=O)[O-])c5F)c5ccc([nH]5)c(-c5cccc(S(=O)(=O)[O-])c5F)c5nc(c(-c6cccc(S(=O)(=O)[O-])c6F)c6ccc3[nH]6)C=C5)C=C4)cc2)CC1=O
REMARK SMILES IDX 18 1 17 2 16 3 15 4 14 5 12 6 13 7 11 8 9 9 10 10 87 11
REMARK SMILES IDX 86 12 88 13 2 14 1 15 3 16 4 17 8 18 5 19 7 20 6 21 19 22
REMARK SMILES IDX 20 23 21 24 22 25 23 26 24 27 85 28 25 29 84 30 26 31 27 32
REMARK SMILES IDX 28 33 78 34 29 35 83 36 77 37 79 38 30 39 82 40 76 41 75 42
REMARK SMILES IDX 31 44 63 45 43 46 62 47 44 48 47 49 61 50 80 51 45 52 46 53
REMARK SMILES IDX 60 55 81 56 48 57 32 58 33 59 41 60 34 61 36 62 42 63 35 64
REMARK SMILES IDX 37 65 38 66 39 67 40 68 64 69 65 70 73 71 66 72 68 73 74 74
REMARK SMILES IDX 67 75 69 76 70 77 71 78 72 79 49 80 50 81 58 82 51 83 53 84
REMARK SMILES IDX 59 85 52 86 54 87 55 88 56 89 57 90
REMARK H PARENT 79 43 47 54
REMARK Flexibility Score: inf
ROOT
ATOM      1  C   UNL A   1      31.119  30.575  25.351  1.00  0.00     0.202 C 
ENDROOT
BRANCH   1   2
ATOM      2  O   UNL A   1      32.143  29.640  25.016  1.00  0.00    -0.374 OA
BRANCH   2   3
ATOM      3  C   UNL A   1      31.880  28.775  23.909  1.00  0.00     0.202 C 
BRANCH   3   4
ATOM      4  C   UNL A   1      32.619  27.432  23.873  1.00  0.00     0.261 C 
BRANCH   4   5
ATOM      5  O   UNL A   1      31.750  26.323  24.170  1.00  0.00    -0.463 OA
BRANCH   5   6
ATOM      6  C   UNL A   1      31.990  25.686  25.346  1.00  0.00     0.311 C 
ATOM      7  O   UNL A   1      32.918  25.951  26.101  1.00  0.00    -0.252 OA
BRANCH   6   8
ATOM      8  C   UNL A   1      31.026  24.538  25.599  1.00  0.00     0.128 C 
ATOM      9  N   UNL A   1      32.174  22.569  25.040  1.00  0.00    -0.335 N 
ATOM     10  C   UNL A   1      31.192  23.490  24.506  1.00  0.00     0.136 C 
ATOM     11  C   UNL A   1      32.233  22.652  26.422  1.00  0.00     0.224 C 
ATOM     12  C   UNL A   1      31.266  23.729  26.871  1.00  0.00     0.117 C 
ATOM     13  O   UNL A   1      32.913  21.984  27.182  1.00  0.00    -0.275 OA
BRANCH   9  14
ATOM     14  C   UNL A   1      32.921  21.658  24.160  1.00  0.00     0.112 C 
ATOM     15  C   UNL A   1      32.551  20.175  24.279  1.00  0.00     0.036 C 
BRANCH  14  16
ATOM     16  C   UNL A   1      34.424  21.844  24.293  1.00  0.00    -0.023 A 
ATOM     17  C   UNL A   1      35.067  23.000  23.840  1.00  0.00     0.026 A 
ATOM     18  C   UNL A   1      35.215  20.855  24.887  1.00  0.00     0.026 A 
ATOM     19  C   UNL A   1      36.440  23.120  23.995  1.00  0.00     0.111 A 
ATOM     20  C   UNL A   1      36.582  21.068  25.007  1.00  0.00     0.111 A 
ATOM     21  N   UNL A   1      37.212  22.183  24.582  1.00  0.00    -0.265 NA
ENDBRANCH  14  16
ENDBRANCH   9  14
ENDBRANCH   6   8
ENDBRANCH   5   6
ENDBRANCH   4   5
ENDBRANCH   3   4
ENDBRANCH   2   3
ENDBRANCH   1   2
BRANCH   1  22
ATOM     22  C   UNL A   1      31.405  31.611  26.442  1.00  0.00     0.261 C 
BRANCH  22  23
ATOM     23  O   UNL A   1      32.512  31.241  27.272  1.00  0.00    -0.460 OA
BRANCH  23  24
ATOM     24  C   UNL A   1      33.369  32.254  27.533  1.00  0.00     0.338 C 
ATOM     25  O   UNL A   1      33.102  33.447  27.618  1.00  0.00    -0.246 OA
BRANCH  24  26
ATOM     26  C   UNL A   1      34.682  31.708  27.908  1.00  0.00     0.060 A 
ATOM     27  C   UNL A   1      34.748  30.336  28.178  1.00  0.00     0.016 A 
ATOM     28  C   UNL A   1      35.810  32.520  28.043  1.00  0.00     0.016 A 
ATOM     29  C   UNL A   1      35.927  29.779  28.657  1.00  0.00     0.010 A 
ATOM     30  C   UNL A   1      36.994  31.960  28.526  1.00  0.00     0.010 A 
ATOM     31  C   UNL A   1      37.041  30.599  28.880  1.00  0.00    -0.014 A 
BRANCH  31  32
ATOM     32  C   UNL A   1      38.191  30.058  29.636  1.00  0.00     0.031 A 
ATOM     33  C   UNL A   1      38.392  30.501  31.059  1.00  0.00     0.074 A 
ATOM     34  C   UNL A   1      39.025  29.169  29.071  1.00  0.00     0.049 A 
ATOM     35  N   UNL A   1      39.328  30.162  31.906  1.00  0.00    -0.248 NA
ATOM     36  C   UNL A   1      37.410  31.457  31.600  1.00  0.00     0.031 C 
ATOM     37  C   UNL A   1      38.917  28.664  27.702  1.00  0.00     0.029 A 
ATOM     38  N   UNL A   1      40.137  28.547  29.575  1.00  0.00    -0.354 N 
ATOM     39  C   UNL A   1      39.067  30.881  33.065  1.00  0.00     0.074 A 
ATOM     40  C   UNL A   1      37.893  31.687  32.812  1.00  0.00     0.031 C 
ATOM     41  C   UNL A   1      39.942  27.828  27.466  1.00  0.00     0.029 A 
ATOM     42  C   UNL A   1      40.787  27.758  28.657  1.00  0.00     0.049 A 
ATOM     43  H   UNL A   1      40.441  28.655  30.505  1.00  0.00     0.167 HD
ATOM     44  C   UNL A   1      39.735  30.860  34.242  1.00  0.00     0.034 A 
ATOM     45  C   UNL A   1      41.944  27.075  28.761  1.00  0.00     0.034 A 
ATOM     46  C   UNL A   1      40.888  30.039  34.494  1.00  0.00     0.049 A 
ATOM     47  C   UNL A   1      42.679  27.083  30.077  1.00  0.00     0.074 A 
ATOM     48  C   UNL A   1      41.609  29.905  35.667  1.00  0.00     0.029 A 
ATOM     49  N   UNL A   1      41.496  29.221  33.553  1.00  0.00    -0.354 N 
ATOM     50  N   UNL A   1      42.355  27.675  31.201  1.00  0.00    -0.248 NA
ATOM     51  C   UNL A   1      43.920  26.299  30.149  1.00  0.00     0.031 C 
ATOM     52  C   UNL A   1      42.674  29.030  35.426  1.00  0.00     0.029 A 
ATOM     53  C   UNL A   1      42.594  28.591  34.113  1.00  0.00     0.049 A 
ATOM     54  H   UNL A   1      41.193  29.107  32.624  1.00  0.00     0.167 HD
ATOM     55  C   UNL A   1      43.330  27.307  32.122  1.00  0.00     0.074 A 
ATOM     56  C   UNL A   1      44.245  26.426  31.428  1.00  0.00     0.031 C 
ATOM     57  C   UNL A   1      43.465  27.676  33.420  1.00  0.00     0.034 A 
BRANCH  44  58
ATOM     58  C   UNL A   1      39.224  31.737  35.354  1.00  0.00     0.023 A 
ATOM     59  C   UNL A   1      38.265  31.238  36.257  1.00  0.00     0.012 A 
ATOM     60  C   UNL A   1      39.732  33.040  35.535  1.00  0.00     0.148 A 
ATOM     61  C   UNL A   1      37.796  32.029  37.305  1.00  0.00     0.002 A 
ATOM     62  C   UNL A   1      39.292  33.806  36.608  1.00  0.00     0.091 A 
ATOM     63  F   UNL A   1      40.625  33.506  34.650  1.00  0.00    -0.205 F 
ATOM     64  C   UNL A   1      38.317  33.307  37.486  1.00  0.00     0.022 A 
BRANCH  62  65
ATOM     65  S   UNL A   1      39.959  35.434  36.971  1.00  0.00     0.127 S 
ATOM     66  O   UNL A   1      39.510  36.202  35.811  1.00  0.00    -0.237 OA
ATOM     67  O   UNL A   1      39.283  35.771  38.224  1.00  0.00    -0.237 OA
ATOM     68  O   UNL A   1      41.401  35.262  37.086  1.00  0.00    -0.744 OA
ENDBRANCH  62  65
ENDBRANCH  44  58
BRANCH  45  69
ATOM     69  C   UNL A   1      42.459  26.304  27.597  1.00  0.00     0.023 A 
ATOM     70  C   UNL A   1      43.325  26.924  26.676  1.00  0.00     0.012 A 
ATOM     71  C   UNL A   1      42.112  24.952  27.409  1.00  0.00     0.148 A 
ATOM     72  C   UNL A   1      43.813  26.222  25.574  1.00  0.00     0.002 A 
ATOM     73  C   UNL A   1      42.646  24.240  26.341  1.00  0.00     0.091 A 
ATOM     74  F   UNL A   1      41.273  24.384  28.288  1.00  0.00    -0.205 F 
ATOM     75  C   UNL A   1      43.482  24.878  25.412  1.00  0.00     0.022 A 
BRANCH  73  76
ATOM     76  S   UNL A   1      42.380  22.477  26.131  1.00  0.00     0.127 S 
ATOM     77  O   UNL A   1      40.929  22.407  25.987  1.00  0.00    -0.237 OA
ATOM     78  O   UNL A   1      43.137  22.202  24.908  1.00  0.00    -0.237 OA
ATOM     79  O   UNL A   1      42.929  21.851  27.327  1.00  0.00    -0.744 OA
ENDBRANCH  73  76
ENDBRANCH  45  69
BRANCH  57  80
ATOM     80  C   UNL A   1      44.620  27.098  34.195  1.00  0.00     0.023 A 
ATOM     81  C   UNL A   1      45.831  27.813  34.292  1.00  0.00     0.012 A 
ATOM     82  C   UNL A   1      44.479  25.881  34.892  1.00  0.00     0.148 A 
ATOM     83  C   UNL A   1      46.893  27.310  35.041  1.00  0.00     0.002 A 
ATOM     84  C   UNL A   1      45.524  25.410  35.677  1.00  0.00     0.091 A 
ATOM     85  F   UNL A   1      43.325  25.207  34.774  1.00  0.00    -0.205 F 
ATOM     86  C   UNL A   1      46.736  26.116  35.742  1.00  0.00     0.022 A 
BRANCH  84  87
ATOM     87  S   UNL A   1      45.376  23.936  36.693  1.00  0.00     0.127 S 
ATOM     88  O   UNL A   1      46.779  23.589  36.918  1.00  0.00    -0.237 OA
ATOM     89  O   UNL A   1      44.676  24.442  37.874  1.00  0.00    -0.237 OA
ATOM     90  O   UNL A   1      44.614  22.979  35.903  1.00  0.00    -0.744 OA
ENDBRANCH  84  87
ENDBRANCH  57  80
ENDBRANCH  31  32
ENDBRANCH  24  26
ENDBRANCH  23  24
ENDBRANCH  22  23
ENDBRANCH   1  22
TORSDOF 19
ENDMDL
