MODEL 1
REMARK VINA RESULT:     -11.2      0.000      0.000
REMARK SMILES CC(C)[C@@H](CNC(=O)[C@@H]1CC[C@@H]2CCCC[C@@H]2[NH2+]1)C(=O)OCCOCCOC(=O)c1ccc(-c2c3nc(c(-c4cccc(S(=O)(=O)[O-])c4F)c4ccc([nH]4)c(-c4cccc(S(=O)(=O)[O-])c4F)c4nc(c(-c5cccc(S(=O)(=O)[O-])c5F)c5ccc2[nH]5)C=C4)C=C3)cc1
REMARK SMILES IDX 24 1 23 2 22 3 21 4 19 5 20 6 4 7 2 8 1 9 3 10 5 11 6 12
REMARK SMILES IDX 7 13 8 15 9 16 10 17 18 18 11 19 17 20 12 23 16 24 13 25
REMARK SMILES IDX 15 26 14 27 25 28 26 29 27 30 28 31 29 32 30 33 31 34 92 35
REMARK SMILES IDX 32 36 91 37 33 38 34 39 35 40 85 41 36 42 90 43 84 44 86 45
REMARK SMILES IDX 37 46 89 47 83 48 82 49 38 51 70 52 50 53 69 54 51 55 54 56
REMARK SMILES IDX 68 57 87 58 52 59 53 60 67 62 88 63 55 64 39 65 40 66 48 67
REMARK SMILES IDX 41 68 43 69 49 70 42 71 44 72 45 73 46 74 47 75 71 76 72 77
REMARK SMILES IDX 80 78 73 79 75 80 81 81 74 82 76 83 77 84 78 85 79 86 56 87
REMARK SMILES IDX 57 88 65 89 58 90 60 91 66 92 59 93 61 94 62 95 63 96 64 97
REMARK H PARENT 6 14 18 21 18 22 86 50 54 61
REMARK Flexibility Score: inf
ROOT
ATOM      1  O   UNL A   1      32.240  30.710  26.549  1.00  0.00    -0.374 OA
ENDROOT
BRANCH   1   2
ATOM      2  C   UNL A   1      31.772  29.594  25.808  1.00  0.00     0.202 C 
BRANCH   2   3
ATOM      3  C   UNL A   1      32.799  28.783  25.015  1.00  0.00     0.261 C 
BRANCH   3   4
ATOM      4  O   UNL A   1      32.849  28.971  23.588  1.00  0.00    -0.463 OA
BRANCH   4   5
ATOM      5  C   UNL A   1      31.735  28.566  22.924  1.00  0.00     0.311 C 
ATOM      6  O   UNL A   1      30.994  29.313  22.289  1.00  0.00    -0.252 OA
BRANCH   5   7
ATOM      7  C   UNL A   1      31.394  27.093  23.085  1.00  0.00     0.121 C 
BRANCH   7   8
ATOM      8  C   UNL A   1      29.945  26.701  23.491  1.00  0.00    -0.001 C 
ATOM      9  C   UNL A   1      29.888  26.272  24.966  1.00  0.00     0.008 C 
ATOM     10  C   UNL A   1      28.944  27.845  23.305  1.00  0.00     0.008 C 
ENDBRANCH   7   8
BRANCH   7  11
ATOM     11  C   UNL A   1      31.927  26.363  21.833  1.00  0.00     0.131 C 
BRANCH  11  12
ATOM     12  N   UNL A   1      31.895  24.916  21.938  1.00  0.00    -0.350 N 
ATOM     13  C   UNL A   1      32.660  24.052  22.649  1.00  0.00     0.278 C 
ATOM     14  H   UNL A   1      31.194  24.486  21.397  1.00  0.00     0.163 HD
ATOM     15  O   UNL A   1      32.069  23.029  23.021  1.00  0.00    -0.268 OA
BRANCH  13  16
ATOM     16  C   UNL A   1      34.136  24.303  23.072  1.00  0.00     0.272 C 
ATOM     17  C   UNL A   1      35.076  23.120  23.311  1.00  0.00     0.076 C 
ATOM     18  N   UNL A   1      34.162  25.214  24.255  1.00  0.00    -0.333 N 
ATOM     19  C   UNL A   1      34.845  22.421  24.640  1.00  0.00     0.016 C 
ATOM     20  C   UNL A   1      33.948  24.570  25.571  1.00  0.00     0.186 C 
ATOM     21  H   UNL A   1      33.430  25.913  24.127  1.00  0.00     0.347 HD
ATOM     22  H   UNL A   1      35.106  25.600  24.286  1.00  0.00     0.347 HD
ATOM     23  C   UNL A   1      34.936  23.413  25.796  1.00  0.00     0.048 C 
ATOM     24  C   UNL A   1      32.492  24.145  25.826  1.00  0.00     0.065 C 
ATOM     25  C   UNL A   1      34.707  22.719  27.149  1.00  0.00     0.010 C 
ATOM     26  C   UNL A   1      32.302  23.452  27.170  1.00  0.00     0.006 C 
ATOM     27  C   UNL A   1      33.260  22.284  27.363  1.00  0.00     0.001 C 
ENDBRANCH  13  16
ENDBRANCH  11  12
ENDBRANCH   7  11
ENDBRANCH   5   7
ENDBRANCH   4   5
ENDBRANCH   3   4
ENDBRANCH   2   3
ENDBRANCH   1   2
BRANCH   1  28
ATOM     28  C   UNL A   1      31.380  31.847  26.606  1.00  0.00     0.202 C 
BRANCH  28  29
ATOM     29  C   UNL A   1      32.060  33.209  26.805  1.00  0.00     0.261 C 
BRANCH  29  30
ATOM     30  O   UNL A   1      32.335  33.491  28.196  1.00  0.00    -0.460 OA
BRANCH  30  31
ATOM     31  C   UNL A   1      33.478  34.189  28.407  1.00  0.00     0.338 C 
ATOM     32  O   UNL A   1      33.568  35.388  28.633  1.00  0.00    -0.246 OA
BRANCH  31  33
ATOM     33  C   UNL A   1      34.655  33.303  28.490  1.00  0.00     0.060 A 
ATOM     34  C   UNL A   1      34.485  32.055  29.106  1.00  0.00     0.016 A 
ATOM     35  C   UNL A   1      35.934  33.762  28.169  1.00  0.00     0.016 A 
ATOM     36  C   UNL A   1      35.598  31.301  29.481  1.00  0.00     0.010 A 
ATOM     37  C   UNL A   1      37.051  33.002  28.549  1.00  0.00     0.010 A 
ATOM     38  C   UNL A   1      36.889  31.798  29.259  1.00  0.00    -0.014 A 
BRANCH  38  39
ATOM     39  C   UNL A   1      38.048  31.144  29.929  1.00  0.00     0.031 A 
ATOM     40  C   UNL A   1      38.411  31.543  31.333  1.00  0.00     0.074 A 
ATOM     41  C   UNL A   1      38.762  30.184  29.312  1.00  0.00     0.049 A 
ATOM     42  N   UNL A   1      39.356  31.074  32.106  1.00  0.00    -0.248 NA
ATOM     43  C   UNL A   1      37.603  32.609  31.949  1.00  0.00     0.031 C 
ATOM     44  C   UNL A   1      38.520  29.711  27.956  1.00  0.00     0.029 A 
ATOM     45  N   UNL A   1      39.845  29.454  29.735  1.00  0.00    -0.354 N 
ATOM     46  C   UNL A   1      39.274  31.798  33.288  1.00  0.00     0.074 A 
ATOM     47  C   UNL A   1      38.195  32.750  33.127  1.00  0.00     0.031 C 
ATOM     48  C   UNL A   1      39.446  28.790  27.639  1.00  0.00     0.029 A 
ATOM     49  C   UNL A   1      40.350  28.610  28.773  1.00  0.00     0.049 A 
ATOM     50  H   UNL A   1      40.223  29.526  30.641  1.00  0.00     0.167 HD
ATOM     51  C   UNL A   1      40.012  31.668  34.416  1.00  0.00     0.034 A 
ATOM     52  C   UNL A   1      41.423  27.793  28.798  1.00  0.00     0.034 A 
ATOM     53  C   UNL A   1      41.060  30.702  34.598  1.00  0.00     0.049 A 
ATOM     54  C   UNL A   1      42.228  27.670  30.065  1.00  0.00     0.074 A 
ATOM     55  C   UNL A   1      41.814  30.457  35.733  1.00  0.00     0.029 A 
ATOM     56  N   UNL A   1      41.510  29.828  33.622  1.00  0.00    -0.354 N 
ATOM     57  N   UNL A   1      42.038  28.254  31.223  1.00  0.00    -0.248 NA
ATOM     58  C   UNL A   1      43.371  26.744  30.044  1.00  0.00     0.031 C 
ATOM     59  C   UNL A   1      42.732  29.443  35.437  1.00  0.00     0.029 A 
ATOM     60  C   UNL A   1      42.541  29.049  34.122  1.00  0.00     0.049 A 
ATOM     61  H   UNL A   1      41.150  29.769  32.708  1.00  0.00     0.167 HD
ATOM     62  C   UNL A   1      43.012  27.743  32.074  1.00  0.00     0.074 A 
ATOM     63  C   UNL A   1      43.779  26.786  31.305  1.00  0.00     0.031 C 
ATOM     64  C   UNL A   1      43.260  28.055  33.370  1.00  0.00     0.034 A 
BRANCH  51  65
ATOM     65  C   UNL A   1      39.676  32.571  35.571  1.00  0.00     0.023 A 
ATOM     66  C   UNL A   1      40.207  33.875  35.607  1.00  0.00     0.012 A 
ATOM     67  C   UNL A   1      38.789  32.154  36.582  1.00  0.00     0.148 A 
ATOM     68  C   UNL A   1      39.880  34.746  36.644  1.00  0.00     0.002 A 
ATOM     69  C   UNL A   1      38.439  33.039  37.594  1.00  0.00     0.091 A 
ATOM     70  F   UNL A   1      38.318  30.899  36.543  1.00  0.00    -0.205 F 
ATOM     71  C   UNL A   1      38.987  34.332  37.631  1.00  0.00     0.022 A 
BRANCH  69  72
ATOM     72  S   UNL A   1      37.247  32.619  38.870  1.00  0.00     0.127 S 
ATOM     73  O   UNL A   1      37.612  31.235  39.170  1.00  0.00    -0.237 OA
ATOM     74  O   UNL A   1      37.571  33.577  39.927  1.00  0.00    -0.237 OA
ATOM     75  O   UNL A   1      35.935  32.806  38.267  1.00  0.00    -0.744 OA
ENDBRANCH  69  72
ENDBRANCH  51  65
BRANCH  52  76
ATOM     76  C   UNL A   1      41.772  26.985  27.596  1.00  0.00     0.023 A 
ATOM     77  C   UNL A   1      42.344  27.617  26.475  1.00  0.00     0.012 A 
ATOM     78  C   UNL A   1      41.551  25.594  27.561  1.00  0.00     0.148 A 
ATOM     79  C   UNL A   1      42.665  26.884  25.333  1.00  0.00     0.002 A 
ATOM     80  C   UNL A   1      41.920  24.862  26.439  1.00  0.00     0.091 A 
ATOM     81  F   UNL A   1      40.981  25.015  28.628  1.00  0.00    -0.205 F 
ATOM     82  C   UNL A   1      42.465  25.507  25.318  1.00  0.00     0.022 A 
BRANCH  80  83
ATOM     83  S   UNL A   1      41.804  23.070  26.387  1.00  0.00     0.127 S 
ATOM     84  O   UNL A   1      40.359  22.863  26.428  1.00  0.00    -0.237 OA
ATOM     85  O   UNL A   1      42.436  22.762  25.103  1.00  0.00    -0.237 OA
ATOM     86  O   UNL A   1      42.549  22.603  27.547  1.00  0.00    -0.744 OA
ENDBRANCH  80  83
ENDBRANCH  52  76
BRANCH  64  87
ATOM     87  C   UNL A   1      44.393  27.340  34.060  1.00  0.00     0.023 A 
ATOM     88  C   UNL A   1      45.699  27.861  33.971  1.00  0.00     0.012 A 
ATOM     89  C   UNL A   1      44.154  26.204  34.858  1.00  0.00     0.148 A 
ATOM     90  C   UNL A   1      46.754  27.245  34.643  1.00  0.00     0.002 A 
ATOM     91  C   UNL A   1      45.204  25.622  35.560  1.00  0.00     0.091 A 
ATOM     92  F   UNL A   1      42.909  25.709  34.915  1.00  0.00    -0.205 F 
ATOM     93  C   UNL A   1      46.506  26.136  35.446  1.00  0.00     0.022 A 
BRANCH  91  94
ATOM     94  S   UNL A   1      44.949  24.245  36.686  1.00  0.00     0.127 S 
ATOM     95  O   UNL A   1      46.261  24.127  37.317  1.00  0.00    -0.237 OA
ATOM     96  O   UNL A   1      43.893  24.747  37.567  1.00  0.00    -0.237 OA
ATOM     97  O   UNL A   1      44.545  23.122  35.850  1.00  0.00    -0.744 OA
ENDBRANCH  91  94
ENDBRANCH  64  87
ENDBRANCH  38  39
ENDBRANCH  31  33
ENDBRANCH  30  31
ENDBRANCH  29  30
ENDBRANCH  28  29
ENDBRANCH   1  28
TORSDOF 21
ENDMDL
MODEL 2
REMARK VINA RESULT:     -11.1      4.992     10.519
REMARK SMILES CC(C)[C@@H](CNC(=O)[C@@H]1CC[C@@H]2CCCC[C@@H]2[NH2+]1)C(=O)OCCOCCOC(=O)c1ccc(-c2c3nc(c(-c4cccc(S(=O)(=O)[O-])c4F)c4ccc([nH]4)c(-c4cccc(S(=O)(=O)[O-])c4F)c4nc(c(-c5cccc(S(=O)(=O)[O-])c5F)c5ccc2[nH]5)C=C4)C=C3)cc1
REMARK SMILES IDX 24 1 23 2 22 3 21 4 19 5 20 6 4 7 2 8 1 9 3 10 5 11 6 12
REMARK SMILES IDX 7 13 8 15 9 16 10 17 18 18 11 19 17 20 12 23 16 24 13 25
REMARK SMILES IDX 15 26 14 27 25 28 26 29 27 30 28 31 29 32 30 33 31 34 92 35
REMARK SMILES IDX 32 36 91 37 33 38 34 39 35 40 85 41 36 42 90 43 84 44 86 45
REMARK SMILES IDX 37 46 89 47 83 48 82 49 38 51 70 52 50 53 69 54 51 55 54 56
REMARK SMILES IDX 68 57 87 58 52 59 53 60 67 62 88 63 55 64 39 65 40 66 48 67
REMARK SMILES IDX 41 68 43 69 49 70 42 71 44 72 45 73 46 74 47 75 71 76 72 77
REMARK SMILES IDX 80 78 73 79 75 80 81 81 74 82 76 83 77 84 78 85 79 86 56 87
REMARK SMILES IDX 57 88 65 89 58 90 60 91 66 92 59 93 61 94 62 95 63 96 64 97
REMARK H PARENT 6 14 18 21 18 22 86 50 54 61
REMARK Flexibility Score: inf
ROOT
ATOM      1  O   UNL A   1      37.031  22.342  24.524  1.00  0.00    -0.374 OA
ENDROOT
BRANCH   1   2
ATOM      2  C   UNL A   1      36.300  22.796  23.396  1.00  0.00     0.202 C 
BRANCH   2   3
ATOM      3  C   UNL A   1      34.903  23.373  23.636  1.00  0.00     0.261 C 
BRANCH   3   4
ATOM      4  O   UNL A   1      34.448  23.488  24.998  1.00  0.00    -0.463 OA
BRANCH   4   5
ATOM      5  C   UNL A   1      33.437  22.644  25.331  1.00  0.00     0.311 C 
ATOM      6  O   UNL A   1      33.194  22.269  26.476  1.00  0.00    -0.252 OA
BRANCH   5   7
ATOM      7  C   UNL A   1      32.643  22.100  24.153  1.00  0.00     0.121 C 
BRANCH   7   8
ATOM      8  C   UNL A   1      32.381  20.570  24.072  1.00  0.00    -0.001 C 
ATOM      9  C   UNL A   1      32.157  20.131  22.615  1.00  0.00     0.008 C 
ATOM     10  C   UNL A   1      33.538  19.735  24.631  1.00  0.00     0.008 C 
ENDBRANCH   7   8
BRANCH   7  11
ATOM     11  C   UNL A   1      31.377  22.974  24.016  1.00  0.00     0.131 C 
BRANCH  11  12
ATOM     12  N   UNL A   1      31.428  23.914  22.912  1.00  0.00    -0.350 N 
ATOM     13  C   UNL A   1      31.118  25.231  22.841  1.00  0.00     0.278 C 
ATOM     14  H   UNL A   1      31.746  23.526  22.064  1.00  0.00     0.163 HD
ATOM     15  O   UNL A   1      31.795  25.876  22.028  1.00  0.00    -0.268 OA
BRANCH  13  16
ATOM     16  C   UNL A   1      30.071  25.954  23.738  1.00  0.00     0.272 C 
ATOM     17  C   UNL A   1      29.675  27.400  23.438  1.00  0.00     0.076 C 
ATOM     18  N   UNL A   1      30.477  25.828  25.169  1.00  0.00    -0.333 N 
ATOM     19  C   UNL A   1      30.713  28.416  23.882  1.00  0.00     0.016 C 
ATOM     20  C   UNL A   1      31.482  26.806  25.644  1.00  0.00     0.186 C 
ATOM     21  H   UNL A   1      30.864  24.893  25.303  1.00  0.00     0.347 HD
ATOM     22  H   UNL A   1      29.634  26.012  25.713  1.00  0.00     0.347 HD
ATOM     23  C   UNL A   1      31.034  28.250  25.365  1.00  0.00     0.048 C 
ATOM     24  C   UNL A   1      32.906  26.533  25.128  1.00  0.00     0.065 C 
ATOM     25  C   UNL A   1      32.082  29.276  25.830  1.00  0.00     0.010 C 
ATOM     26  C   UNL A   1      33.917  27.573  25.600  1.00  0.00     0.006 C 
ATOM     27  C   UNL A   1      33.478  28.996  25.282  1.00  0.00     0.001 C 
ENDBRANCH  13  16
ENDBRANCH  11  12
ENDBRANCH   7  11
ENDBRANCH   5   7
ENDBRANCH   4   5
ENDBRANCH   3   4
ENDBRANCH   2   3
ENDBRANCH   1   2
BRANCH   1  28
ATOM     28  C   UNL A   1      36.827  20.986  24.915  1.00  0.00     0.202 C 
BRANCH  28  29
ATOM     29  C   UNL A   1      38.076  20.199  25.334  1.00  0.00     0.261 C 
BRANCH  29  30
ATOM     30  O   UNL A   1      39.285  20.986  25.233  1.00  0.00    -0.460 OA
BRANCH  30  31
ATOM     31  C   UNL A   1      40.128  20.849  26.287  1.00  0.00     0.338 C 
ATOM     32  O   UNL A   1      40.807  19.866  26.552  1.00  0.00    -0.246 OA
BRANCH  31  33
ATOM     33  C   UNL A   1      40.272  22.107  27.043  1.00  0.00     0.060 A 
ATOM     34  C   UNL A   1      39.561  23.224  26.584  1.00  0.00     0.016 A 
ATOM     35  C   UNL A   1      41.238  22.248  28.041  1.00  0.00     0.016 A 
ATOM     36  C   UNL A   1      39.874  24.498  27.059  1.00  0.00     0.010 A 
ATOM     37  C   UNL A   1      41.551  23.530  28.517  1.00  0.00     0.010 A 
ATOM     38  C   UNL A   1      40.913  24.667  27.985  1.00  0.00    -0.014 A 
BRANCH  38  39
ATOM     39  C   UNL A   1      41.440  26.034  28.250  1.00  0.00     0.031 A 
ATOM     40  C   UNL A   1      42.858  26.366  27.871  1.00  0.00     0.074 A 
ATOM     41  C   UNL A   1      40.666  26.988  28.800  1.00  0.00     0.049 A 
ATOM     42  N   UNL A   1      43.498  27.501  27.983  1.00  0.00    -0.248 NA
ATOM     43  C   UNL A   1      43.660  25.277  27.288  1.00  0.00     0.031 C 
ATOM     44  C   UNL A   1      39.284  26.797  29.218  1.00  0.00     0.029 A 
ATOM     45  N   UNL A   1      40.937  28.295  29.121  1.00  0.00    -0.354 N 
ATOM     46  C   UNL A   1      44.781  27.262  27.507  1.00  0.00     0.074 A 
ATOM     47  C   UNL A   1      44.834  25.868  27.119  1.00  0.00     0.031 C 
ATOM     48  C   UNL A   1      38.830  27.934  29.771  1.00  0.00     0.029 A 
ATOM     49  C   UNL A   1      39.894  28.936  29.749  1.00  0.00     0.049 A 
ATOM     50  H   UNL A   1      41.795  28.732  28.920  1.00  0.00     0.167 HD
ATOM     51  C   UNL A   1      45.814  28.127  27.381  1.00  0.00     0.034 A 
ATOM     52  C   UNL A   1      39.808  30.183  30.256  1.00  0.00     0.034 A 
ATOM     53  C   UNL A   1      45.758  29.520  27.729  1.00  0.00     0.049 A 
ATOM     54  C   UNL A   1      40.974  31.124  30.105  1.00  0.00     0.074 A 
ATOM     55  C   UNL A   1      46.739  30.485  27.572  1.00  0.00     0.029 A 
ATOM     56  N   UNL A   1      44.670  30.148  28.314  1.00  0.00    -0.354 N 
ATOM     57  N   UNL A   1      42.126  30.921  29.513  1.00  0.00    -0.248 NA
ATOM     58  C   UNL A   1      40.814  32.480  30.653  1.00  0.00     0.031 C 
ATOM     59  C   UNL A   1      46.247  31.694  28.076  1.00  0.00     0.029 A 
ATOM     60  C   UNL A   1      44.957  31.485  28.535  1.00  0.00     0.049 A 
ATOM     61  H   UNL A   1      43.818  29.708  28.538  1.00  0.00     0.167 HD
ATOM     62  C   UNL A   1      42.812  32.128  29.588  1.00  0.00     0.074 A 
ATOM     63  C   UNL A   1      41.939  33.064  30.264  1.00  0.00     0.031 C 
ATOM     64  C   UNL A   1      44.061  32.427  29.153  1.00  0.00     0.034 A 
BRANCH  51  65
ATOM     65  C   UNL A   1      47.093  27.598  26.792  1.00  0.00     0.023 A 
ATOM     66  C   UNL A   1      48.035  26.973  27.633  1.00  0.00     0.012 A 
ATOM     67  C   UNL A   1      47.333  27.662  25.407  1.00  0.00     0.148 A 
ATOM     68  C   UNL A   1      49.209  26.437  27.107  1.00  0.00     0.002 A 
ATOM     69  C   UNL A   1      48.489  27.094  24.885  1.00  0.00     0.091 A 
ATOM     70  F   UNL A   1      46.437  28.286  24.629  1.00  0.00    -0.205 F 
ATOM     71  C   UNL A   1      49.430  26.488  25.732  1.00  0.00     0.022 A 
BRANCH  69  72
ATOM     72  S   UNL A   1      48.829  27.053  23.121  1.00  0.00     0.127 S 
ATOM     73  O   UNL A   1      48.278  25.752  22.745  1.00  0.00    -0.237 OA
ATOM     74  O   UNL A   1      48.068  28.201  22.629  1.00  0.00    -0.237 OA
ATOM     75  O   UNL A   1      50.273  27.185  22.991  1.00  0.00    -0.744 OA
ENDBRANCH  69  72
ENDBRANCH  51  65
BRANCH  52  76
ATOM     76  C   UNL A   1      38.549  30.633  30.914  1.00  0.00     0.023 A 
ATOM     77  C   UNL A   1      38.353  30.382  32.286  1.00  0.00     0.012 A 
ATOM     78  C   UNL A   1      37.552  31.318  30.192  1.00  0.00     0.148 A 
ATOM     79  C   UNL A   1      37.177  30.782  32.920  1.00  0.00     0.002 A 
ATOM     80  C   UNL A   1      36.405  31.757  30.842  1.00  0.00     0.091 A 
ATOM     81  F   UNL A   1      37.746  31.524  28.881  1.00  0.00    -0.205 F 
ATOM     82  C   UNL A   1      36.208  31.478  32.203  1.00  0.00     0.022 A 
BRANCH  80  83
ATOM     83  S   UNL A   1      35.166  32.763  30.017  1.00  0.00     0.127 S 
ATOM     84  O   UNL A   1      34.689  31.856  28.976  1.00  0.00    -0.237 OA
ATOM     85  O   UNL A   1      34.212  33.018  31.098  1.00  0.00    -0.237 OA
ATOM     86  O   UNL A   1      35.876  33.947  29.556  1.00  0.00    -0.744 OA
ENDBRANCH  80  83
ENDBRANCH  52  76
BRANCH  64  87
ATOM     87  C   UNL A   1      44.562  33.831  29.367  1.00  0.00     0.023 A 
ATOM     88  C   UNL A   1      45.160  34.176  30.594  1.00  0.00     0.012 A 
ATOM     89  C   UNL A   1      44.512  34.784  28.330  1.00  0.00     0.148 A 
ATOM     90  C   UNL A   1      45.678  35.455  30.796  1.00  0.00     0.002 A 
ATOM     91  C   UNL A   1      45.069  36.044  28.524  1.00  0.00     0.091 A 
ATOM     92  F   UNL A   1      43.920  34.447  27.176  1.00  0.00    -0.205 F 
ATOM     93  C   UNL A   1      45.643  36.384  29.760  1.00  0.00     0.022 A 
BRANCH  91  94
ATOM     94  S   UNL A   1      45.145  37.265  27.208  1.00  0.00     0.127 S 
ATOM     95  O   UNL A   1      43.736  37.407  26.849  1.00  0.00    -0.237 OA
ATOM     96  O   UNL A   1      45.721  38.427  27.887  1.00  0.00    -0.237 OA
ATOM     97  O   UNL A   1      46.003  36.686  26.183  1.00  0.00    -0.744 OA
ENDBRANCH  91  94
ENDBRANCH  64  87
ENDBRANCH  38  39
ENDBRANCH  31  33
ENDBRANCH  30  31
ENDBRANCH  29  30
ENDBRANCH  28  29
ENDBRANCH   1  28
TORSDOF 21
ENDMDL
MODEL 3
REMARK VINA RESULT:     -10.8      1.717      2.027
REMARK SMILES CC(C)[C@@H](CNC(=O)[C@@H]1CC[C@@H]2CCCC[C@@H]2[NH2+]1)C(=O)OCCOCCOC(=O)c1ccc(-c2c3nc(c(-c4cccc(S(=O)(=O)[O-])c4F)c4ccc([nH]4)c(-c4cccc(S(=O)(=O)[O-])c4F)c4nc(c(-c5cccc(S(=O)(=O)[O-])c5F)c5ccc2[nH]5)C=C4)C=C3)cc1
REMARK SMILES IDX 24 1 23 2 22 3 21 4 19 5 20 6 4 7 2 8 1 9 3 10 5 11 6 12
REMARK SMILES IDX 7 13 8 15 9 16 10 17 18 18 11 19 17 20 12 23 16 24 13 25
REMARK SMILES IDX 15 26 14 27 25 28 26 29 27 30 28 31 29 32 30 33 31 34 92 35
REMARK SMILES IDX 32 36 91 37 33 38 34 39 35 40 85 41 36 42 90 43 84 44 86 45
REMARK SMILES IDX 37 46 89 47 83 48 82 49 38 51 70 52 50 53 69 54 51 55 54 56
REMARK SMILES IDX 68 57 87 58 52 59 53 60 67 62 88 63 55 64 39 65 40 66 48 67
REMARK SMILES IDX 41 68 43 69 49 70 42 71 44 72 45 73 46 74 47 75 71 76 72 77
REMARK SMILES IDX 80 78 73 79 75 80 81 81 74 82 76 83 77 84 78 85 79 86 56 87
REMARK SMILES IDX 57 88 65 89 58 90 60 91 66 92 59 93 61 94 62 95 63 96 64 97
REMARK H PARENT 6 14 18 21 18 22 86 50 54 61
REMARK Flexibility Score: inf
ROOT
ATOM      1  O   UNL A   1      32.360  30.696  26.745  1.00  0.00    -0.374 OA
ENDROOT
BRANCH   1   2
ATOM      2  C   UNL A   1      31.903  29.557  26.035  1.00  0.00     0.202 C 
BRANCH   2   3
ATOM      3  C   UNL A   1      32.889  28.406  25.823  1.00  0.00     0.261 C 
BRANCH   3   4
ATOM      4  O   UNL A   1      33.522  28.291  24.534  1.00  0.00    -0.463 OA
BRANCH   4   5
ATOM      5  C   UNL A   1      32.668  28.324  23.478  1.00  0.00     0.311 C 
ATOM      6  O   UNL A   1      32.642  29.216  22.633  1.00  0.00    -0.252 OA
BRANCH   5   7
ATOM      7  C   UNL A   1      31.649  27.196  23.444  1.00  0.00     0.121 C 
BRANCH   7   8
ATOM      8  C   UNL A   1      30.204  27.479  23.944  1.00  0.00    -0.001 C 
ATOM      9  C   UNL A   1      29.321  27.997  22.796  1.00  0.00     0.008 C 
ATOM     10  C   UNL A   1      29.520  26.239  24.527  1.00  0.00     0.008 C 
ENDBRANCH   7   8
BRANCH   7  11
ATOM     11  C   UNL A   1      31.726  26.557  22.040  1.00  0.00     0.131 C 
BRANCH  11  12
ATOM     12  N   UNL A   1      31.686  25.106  22.052  1.00  0.00    -0.350 N 
ATOM     13  C   UNL A   1      32.464  24.193  22.684  1.00  0.00     0.278 C 
ATOM     14  H   UNL A   1      30.966  24.716  21.505  1.00  0.00     0.163 HD
ATOM     15  O   UNL A   1      31.876  23.151  23.006  1.00  0.00    -0.268 OA
BRANCH  13  16
ATOM     16  C   UNL A   1      33.954  24.408  23.079  1.00  0.00     0.272 C 
ATOM     17  C   UNL A   1      34.882  23.204  23.249  1.00  0.00     0.076 C 
ATOM     18  N   UNL A   1      34.022  25.272  24.295  1.00  0.00    -0.333 N 
ATOM     19  C   UNL A   1      34.673  22.458  24.555  1.00  0.00     0.016 C 
ATOM     20  C   UNL A   1      33.831  24.581  25.591  1.00  0.00     0.186 C 
ATOM     21  H   UNL A   1      33.297  25.985  24.212  1.00  0.00     0.347 HD
ATOM     22  H   UNL A   1      34.971  25.644  24.317  1.00  0.00     0.347 HD
ATOM     23  C   UNL A   1      34.807  23.403  25.747  1.00  0.00     0.048 C 
ATOM     24  C   UNL A   1      32.375  24.165  25.865  1.00  0.00     0.065 C 
ATOM     25  C   UNL A   1      34.601  22.660  27.077  1.00  0.00     0.010 C 
ATOM     26  C   UNL A   1      32.209  23.424  27.186  1.00  0.00     0.006 C 
ATOM     27  C   UNL A   1      33.154  22.237  27.310  1.00  0.00     0.001 C 
ENDBRANCH  13  16
ENDBRANCH  11  12
ENDBRANCH   7  11
ENDBRANCH   5   7
ENDBRANCH   4   5
ENDBRANCH   3   4
ENDBRANCH   2   3
ENDBRANCH   1   2
BRANCH   1  28
ATOM     28  C   UNL A   1      31.493  31.829  26.764  1.00  0.00     0.202 C 
BRANCH  28  29
ATOM     29  C   UNL A   1      32.169  33.207  26.776  1.00  0.00     0.261 C 
BRANCH  29  30
ATOM     30  O   UNL A   1      32.287  33.754  28.109  1.00  0.00    -0.460 OA
BRANCH  30  31
ATOM     31  C   UNL A   1      33.463  34.387  28.349  1.00  0.00     0.338 C 
ATOM     32  O   UNL A   1      33.615  35.582  28.564  1.00  0.00    -0.246 OA
BRANCH  31  33
ATOM     33  C   UNL A   1      34.582  33.435  28.480  1.00  0.00     0.060 A 
ATOM     34  C   UNL A   1      34.365  32.280  29.244  1.00  0.00     0.016 A 
ATOM     35  C   UNL A   1      35.869  33.764  28.048  1.00  0.00     0.016 A 
ATOM     36  C   UNL A   1      35.446  31.497  29.652  1.00  0.00     0.010 A 
ATOM     37  C   UNL A   1      36.953  32.975  28.462  1.00  0.00     0.010 A 
ATOM     38  C   UNL A   1      36.753  31.873  29.315  1.00  0.00    -0.014 A 
BRANCH  38  39
ATOM     39  C   UNL A   1      37.902  31.220  30.001  1.00  0.00     0.031 A 
ATOM     40  C   UNL A   1      38.225  31.597  31.421  1.00  0.00     0.074 A 
ATOM     41  C   UNL A   1      38.641  30.278  29.386  1.00  0.00     0.049 A 
ATOM     42  N   UNL A   1      39.156  31.125  32.209  1.00  0.00    -0.248 NA
ATOM     43  C   UNL A   1      37.392  32.644  32.035  1.00  0.00     0.031 C 
ATOM     44  C   UNL A   1      38.438  29.827  28.016  1.00  0.00     0.029 A 
ATOM     45  N   UNL A   1      39.721  29.552  29.823  1.00  0.00    -0.354 N 
ATOM     46  C   UNL A   1      39.038  31.826  33.401  1.00  0.00     0.074 A 
ATOM     47  C   UNL A   1      37.953  32.770  33.229  1.00  0.00     0.031 C 
ATOM     48  C   UNL A   1      39.381  28.921  27.706  1.00  0.00     0.029 A 
ATOM     49  C   UNL A   1      40.259  28.730  28.859  1.00  0.00     0.049 A 
ATOM     50  H   UNL A   1      40.076  29.611  30.739  1.00  0.00     0.167 HD
ATOM     51  C   UNL A   1      39.748  31.684  34.545  1.00  0.00     0.034 A 
ATOM     52  C   UNL A   1      41.339  27.924  28.896  1.00  0.00     0.034 A 
ATOM     53  C   UNL A   1      40.802  30.725  34.736  1.00  0.00     0.049 A 
ATOM     54  C   UNL A   1      42.114  27.787  30.181  1.00  0.00     0.074 A 
ATOM     55  C   UNL A   1      41.530  30.468  35.884  1.00  0.00     0.029 A 
ATOM     56  N   UNL A   1      41.285  29.874  33.755  1.00  0.00    -0.354 N 
ATOM     57  N   UNL A   1      41.889  28.348  31.344  1.00  0.00    -0.248 NA
ATOM     58  C   UNL A   1      43.267  26.872  30.172  1.00  0.00     0.031 C 
ATOM     59  C   UNL A   1      42.466  29.469  35.593  1.00  0.00     0.029 A 
ATOM     60  C   UNL A   1      42.312  29.097  34.268  1.00  0.00     0.049 A 
ATOM     61  H   UNL A   1      40.949  29.827  32.832  1.00  0.00     0.167 HD
ATOM     62  C   UNL A   1      42.847  27.832  32.209  1.00  0.00     0.074 A 
ATOM     63  C   UNL A   1      43.643  26.897  31.443  1.00  0.00     0.031 C 
ATOM     64  C   UNL A   1      43.059  28.123  33.516  1.00  0.00     0.034 A 
BRANCH  51  65
ATOM     65  C   UNL A   1      39.374  32.562  35.706  1.00  0.00     0.023 A 
ATOM     66  C   UNL A   1      38.568  32.040  36.737  1.00  0.00     0.012 A 
ATOM     67  C   UNL A   1      39.869  33.876  35.810  1.00  0.00     0.148 A 
ATOM     68  C   UNL A   1      38.240  32.819  37.844  1.00  0.00     0.002 A 
ATOM     69  C   UNL A   1      39.568  34.635  36.934  1.00  0.00     0.091 A 
ATOM     70  F   UNL A   1      40.611  34.362  34.804  1.00  0.00    -0.205 F 
ATOM     71  C   UNL A   1      38.749  34.112  37.948  1.00  0.00     0.022 A 
BRANCH  69  72
ATOM     72  S   UNL A   1      40.231  36.285  37.187  1.00  0.00     0.127 S 
ATOM     73  O   UNL A   1      41.638  35.998  37.463  1.00  0.00    -0.237 OA
ATOM     74  O   UNL A   1      39.982  36.923  35.894  1.00  0.00    -0.237 OA
ATOM     75  O   UNL A   1      39.476  36.852  38.295  1.00  0.00    -0.744 OA
ENDBRANCH  69  72
ENDBRANCH  51  65
BRANCH  52  76
ATOM     76  C   UNL A   1      41.726  27.141  27.689  1.00  0.00     0.023 A 
ATOM     77  C   UNL A   1      42.313  27.800  26.591  1.00  0.00     0.012 A 
ATOM     78  C   UNL A   1      41.528  25.748  27.628  1.00  0.00     0.148 A 
ATOM     79  C   UNL A   1      42.670  27.091  25.445  1.00  0.00     0.002 A 
ATOM     80  C   UNL A   1      41.932  25.040  26.502  1.00  0.00     0.091 A 
ATOM     81  F   UNL A   1      40.944  25.142  28.672  1.00  0.00    -0.205 F 
ATOM     82  C   UNL A   1      42.491  25.711  25.403  1.00  0.00     0.022 A 
BRANCH  80  83
ATOM     83  S   UNL A   1      41.845  23.248  26.418  1.00  0.00     0.127 S 
ATOM     84  O   UNL A   1      40.402  23.019  26.403  1.00  0.00    -0.237 OA
ATOM     85  O   UNL A   1      42.527  22.969  25.154  1.00  0.00    -0.237 OA
ATOM     86  O   UNL A   1      42.554  22.773  27.598  1.00  0.00    -0.744 OA
ENDBRANCH  80  83
ENDBRANCH  52  76
BRANCH  64  87
ATOM     87  C   UNL A   1      44.182  27.408  34.222  1.00  0.00     0.023 A 
ATOM     88  C   UNL A   1      43.933  26.172  34.849  1.00  0.00     0.012 A 
ATOM     89  C   UNL A   1      45.496  27.918  34.196  1.00  0.00     0.148 A 
ATOM     90  C   UNL A   1      44.968  25.467  35.464  1.00  0.00     0.002 A 
ATOM     91  C   UNL A   1      46.530  27.190  34.773  1.00  0.00     0.091 A 
ATOM     92  F   UNL A   1      45.711  29.106  33.613  1.00  0.00    -0.205 F 
ATOM     93  C   UNL A   1      46.266  25.969  35.415  1.00  0.00     0.022 A 
BRANCH  91  94
ATOM     94  S   UNL A   1      48.242  27.724  34.674  1.00  0.00     0.127 S 
ATOM     95  O   UNL A   1      48.126  29.156  34.941  1.00  0.00    -0.237 OA
ATOM     96  O   UNL A   1      48.877  26.954  35.745  1.00  0.00    -0.237 OA
ATOM     97  O   UNL A   1      48.690  27.364  33.335  1.00  0.00    -0.744 OA
ENDBRANCH  91  94
ENDBRANCH  64  87
ENDBRANCH  38  39
ENDBRANCH  31  33
ENDBRANCH  30  31
ENDBRANCH  29  30
ENDBRANCH  28  29
ENDBRANCH   1  28
TORSDOF 21
ENDMDL
