MODEL 1
REMARK VINA RESULT:      -9.0      0.000      0.000
REMARK SMILES C=C(C)CN(CC)c1ccc(F)cc1C(=O)OCCOCCOC(=O)c1ccc(-c2c3nc(c(-c4cccc(S(=O)(=O)[O-])c4F)c4ccc([nH]4)c(-c4cccc(S(=O)(=O)[O-])c4F)c4nc(c(-c5cccc(S(=O)(=O)[O-])c5F)c5ccc2[nH]5)C=C4)C=C3)cc1
REMARK SMILES IDX 20 1 19 2 18 3 17 4 15 5 16 6 14 7 8 8 9 9 10 10 13 11 11 12
REMARK SMILES IDX 12 13 5 14 4 15 2 16 1 17 3 18 6 19 7 20 21 21 22 22 23 23
REMARK SMILES IDX 24 24 25 25 26 26 27 27 88 28 28 29 87 30 29 31 30 32 31 33
REMARK SMILES IDX 81 34 32 35 86 36 80 37 82 38 33 39 85 40 79 41 78 42 34 44
REMARK SMILES IDX 66 45 46 46 65 47 47 48 50 49 64 50 83 51 48 52 49 53 63 55
REMARK SMILES IDX 84 56 51 57 35 58 36 59 44 60 37 61 39 62 45 63 38 64 40 65
REMARK SMILES IDX 41 66 42 67 43 68 67 69 68 70 76 71 69 72 71 73 77 74 70 75
REMARK SMILES IDX 72 76 73 77 74 78 75 79 52 80 53 81 61 82 54 83 56 84 62 85
REMARK SMILES IDX 55 86 57 87 58 88 59 89 60 90
REMARK H PARENT 82 43 50 54
REMARK Flexibility Score: inf
ROOT
ATOM      1  O   UNL A   1      37.461  21.031  25.541  1.00  0.00    -0.374 OA
ENDROOT
BRANCH   1   2
ATOM      2  C   UNL A   1      36.735  21.807  24.586  1.00  0.00     0.202 C 
BRANCH   2   3
ATOM      3  C   UNL A   1      36.829  23.328  24.734  1.00  0.00     0.261 C 
BRANCH   3   4
ATOM      4  O   UNL A   1      35.634  23.887  25.307  1.00  0.00    -0.460 OA
BRANCH   4   5
ATOM      5  C   UNL A   1      34.788  24.434  24.398  1.00  0.00     0.340 C 
ATOM      6  O   UNL A   1      34.734  24.167  23.206  1.00  0.00    -0.246 OA
BRANCH   5   7
ATOM      7  C   UNL A   1      33.744  25.236  25.055  1.00  0.00     0.086 A 
ATOM      8  C   UNL A   1      32.706  24.722  25.863  1.00  0.00     0.052 A 
ATOM      9  C   UNL A   1      31.867  25.691  26.458  1.00  0.00     0.030 A 
ATOM     10  C   UNL A   1      32.010  27.066  26.244  1.00  0.00     0.041 A 
ATOM     11  C   UNL A   1      33.888  26.622  24.828  1.00  0.00     0.057 A 
ATOM     12  C   UNL A   1      33.016  27.518  25.416  1.00  0.00     0.124 A 
ATOM     13  F   UNL A   1      33.161  28.831  25.198  1.00  0.00    -0.207 F 
BRANCH   8  14
ATOM     14  N   UNL A   1      32.478  23.375  26.126  1.00  0.00    -0.367 N 
BRANCH  14  15
ATOM     15  C   UNL A   1      31.424  22.638  25.399  1.00  0.00     0.146 C 
BRANCH  15  16
ATOM     16  C   UNL A   1      31.365  22.943  23.908  1.00  0.00    -0.061 C 
ATOM     17  C   UNL A   1      30.658  23.943  23.351  1.00  0.00     0.009 C 
ATOM     18  C   UNL A   1      32.156  22.013  23.024  1.00  0.00     0.041 C 
ENDBRANCH  15  16
ENDBRANCH  14  15
BRANCH  14  19
ATOM     19  C   UNL A   1      33.138  22.692  27.248  1.00  0.00     0.113 C 
ATOM     20  C   UNL A   1      33.771  21.364  26.867  1.00  0.00     0.027 C 
ENDBRANCH  14  19
ENDBRANCH   8  14
ENDBRANCH   5   7
ENDBRANCH   4   5
ENDBRANCH   3   4
ENDBRANCH   2   3
ENDBRANCH   1   2
BRANCH   1  21
ATOM     21  C   UNL A   1      38.881  21.146  25.529  1.00  0.00     0.202 C 
BRANCH  21  22
ATOM     22  C   UNL A   1      39.696  19.855  25.700  1.00  0.00     0.261 C 
BRANCH  22  23
ATOM     23  O   UNL A   1      40.602  19.857  26.818  1.00  0.00    -0.460 OA
BRANCH  23  24
ATOM     24  C   UNL A   1      41.821  20.391  26.564  1.00  0.00     0.338 C 
ATOM     25  O   UNL A   1      42.788  19.829  26.062  1.00  0.00    -0.246 OA
BRANCH  24  26
ATOM     26  C   UNL A   1      41.844  21.824  26.898  1.00  0.00     0.060 A 
ATOM     27  C   UNL A   1      41.988  22.758  25.865  1.00  0.00     0.016 A 
ATOM     28  C   UNL A   1      41.876  22.233  28.233  1.00  0.00     0.016 A 
ATOM     29  C   UNL A   1      42.183  24.108  26.167  1.00  0.00     0.010 A 
ATOM     30  C   UNL A   1      42.078  23.585  28.532  1.00  0.00     0.010 A 
ATOM     31  C   UNL A   1      42.257  24.527  27.502  1.00  0.00    -0.014 A 
BRANCH  31  32
ATOM     32  C   UNL A   1      42.568  25.940  27.836  1.00  0.00     0.031 A 
ATOM     33  C   UNL A   1      43.988  26.431  27.786  1.00  0.00     0.074 A 
ATOM     34  C   UNL A   1      41.582  26.772  28.216  1.00  0.00     0.049 A 
ATOM     35  N   UNL A   1      44.465  27.605  28.112  1.00  0.00    -0.248 NA
ATOM     36  C   UNL A   1      45.004  25.480  27.308  1.00  0.00     0.031 C 
ATOM     37  C   UNL A   1      40.167  26.416  28.300  1.00  0.00     0.029 A 
ATOM     38  N   UNL A   1      41.627  28.079  28.632  1.00  0.00    -0.354 N 
ATOM     39  C   UNL A   1      45.836  27.531  27.902  1.00  0.00     0.074 A 
ATOM     40  C   UNL A   1      46.118  26.193  27.425  1.00  0.00     0.031 C 
ATOM     41  C   UNL A   1      39.481  27.470  28.768  1.00  0.00     0.029 A 
ATOM     42  C   UNL A   1      40.408  28.566  29.043  1.00  0.00     0.049 A 
ATOM     43  H   UNL A   1      42.452  28.617  28.636  1.00  0.00     0.167 HD
ATOM     44  C   UNL A   1      46.773  28.494  28.073  1.00  0.00     0.034 A 
ATOM     45  C   UNL A   1      40.078  29.750  29.598  1.00  0.00     0.034 A 
ATOM     46  C   UNL A   1      46.491  29.831  28.526  1.00  0.00     0.049 A 
ATOM     47  C   UNL A   1      41.141  30.797  29.798  1.00  0.00     0.074 A 
ATOM     48  C   UNL A   1      47.376  30.882  28.697  1.00  0.00     0.029 A 
ATOM     49  N   UNL A   1      45.238  30.302  28.882  1.00  0.00    -0.354 N 
ATOM     50  N   UNL A   1      42.416  30.744  29.498  1.00  0.00    -0.248 NA
ATOM     51  C   UNL A   1      40.717  32.079  30.384  1.00  0.00     0.031 C 
ATOM     52  C   UNL A   1      46.659  31.985  29.169  1.00  0.00     0.029 A 
ATOM     53  C   UNL A   1      45.325  31.627  29.276  1.00  0.00     0.049 A 
ATOM     54  H   UNL A   1      44.408  29.773  28.859  1.00  0.00     0.167 HD
ATOM     55  C   UNL A   1      42.939  31.992  29.824  1.00  0.00     0.074 A 
ATOM     56  C   UNL A   1      41.840  32.785  30.334  1.00  0.00     0.031 C 
ATOM     57  C   UNL A   1      44.217  32.431  29.722  1.00  0.00     0.034 A 
BRANCH  44  58
ATOM     58  C   UNL A   1      48.200  28.163  27.727  1.00  0.00     0.023 A 
ATOM     59  C   UNL A   1      48.692  28.492  26.449  1.00  0.00     0.012 A 
ATOM     60  C   UNL A   1      49.077  27.628  28.691  1.00  0.00     0.148 A 
ATOM     61  C   UNL A   1      50.033  28.281  26.129  1.00  0.00     0.002 A 
ATOM     62  C   UNL A   1      50.421  27.455  28.377  1.00  0.00     0.091 A 
ATOM     63  F   UNL A   1      48.583  27.302  29.894  1.00  0.00    -0.205 F 
ATOM     64  C   UNL A   1      50.898  27.775  27.096  1.00  0.00     0.022 A 
BRANCH  62  65
ATOM     65  S   UNL A   1      51.628  26.883  29.579  1.00  0.00     0.127 S 
ATOM     66  O   UNL A   1      52.687  26.369  28.711  1.00  0.00    -0.237 OA
ATOM     67  O   UNL A   1      51.968  28.116  30.289  1.00  0.00    -0.237 OA
ATOM     68  O   UNL A   1      50.943  25.886  30.390  1.00  0.00    -0.744 OA
ENDBRANCH  62  65
ENDBRANCH  44  58
BRANCH  45  69
ATOM     69  C   UNL A   1      38.656  30.017  29.949  1.00  0.00     0.023 A 
ATOM     70  C   UNL A   1      38.232  29.859  31.282  1.00  0.00     0.012 A 
ATOM     71  C   UNL A   1      37.743  30.495  28.989  1.00  0.00     0.148 A 
ATOM     72  C   UNL A   1      36.920  30.160  31.651  1.00  0.00     0.002 A 
ATOM     73  C   UNL A   1      36.456  30.851  29.375  1.00  0.00     0.091 A 
ATOM     74  F   UNL A   1      38.160  30.619  27.721  1.00  0.00    -0.205 F 
ATOM     75  C   UNL A   1      36.038  30.671  30.703  1.00  0.00     0.022 A 
BRANCH  73  76
ATOM     76  S   UNL A   1      35.306  31.657  28.254  1.00  0.00     0.127 S 
ATOM     77  O   UNL A   1      35.024  30.593  27.295  1.00  0.00    -0.237 OA
ATOM     78  O   UNL A   1      34.197  31.993  29.149  1.00  0.00    -0.237 OA
ATOM     79  O   UNL A   1      36.017  32.815  27.727  1.00  0.00    -0.744 OA
ENDBRANCH  73  76
ENDBRANCH  45  69
BRANCH  57  80
ATOM     80  C   UNL A   1      44.518  33.848  30.139  1.00  0.00     0.023 A 
ATOM     81  C   UNL A   1      44.914  34.114  31.463  1.00  0.00     0.012 A 
ATOM     82  C   UNL A   1      44.520  34.892  29.192  1.00  0.00     0.148 A 
ATOM     83  C   UNL A   1      45.292  35.402  31.844  1.00  0.00     0.002 A 
ATOM     84  C   UNL A   1      44.938  36.164  29.568  1.00  0.00     0.091 A 
ATOM     85  F   UNL A   1      44.119  34.624  27.940  1.00  0.00    -0.205 F 
ATOM     86  C   UNL A   1      45.318  36.422  30.895  1.00  0.00     0.022 A 
BRANCH  84  87
ATOM     87  S   UNL A   1      45.093  37.511  28.389  1.00  0.00     0.127 S 
ATOM     88  O   UNL A   1      46.138  37.010  27.499  1.00  0.00    -0.237 OA
ATOM     89  O   UNL A   1      43.757  37.562  27.792  1.00  0.00    -0.237 OA
ATOM     90  O   UNL A   1      45.446  38.687  29.174  1.00  0.00    -0.744 OA
ENDBRANCH  84  87
ENDBRANCH  57  80
ENDBRANCH  31  32
ENDBRANCH  24  26
ENDBRANCH  23  24
ENDBRANCH  22  23
ENDBRANCH  21  22
ENDBRANCH   1  21
TORSDOF 21
ENDMDL
MODEL 2
REMARK VINA RESULT:      -8.8      5.685     10.189
REMARK SMILES C=C(C)CN(CC)c1ccc(F)cc1C(=O)OCCOCCOC(=O)c1ccc(-c2c3nc(c(-c4cccc(S(=O)(=O)[O-])c4F)c4ccc([nH]4)c(-c4cccc(S(=O)(=O)[O-])c4F)c4nc(c(-c5cccc(S(=O)(=O)[O-])c5F)c5ccc2[nH]5)C=C4)C=C3)cc1
REMARK SMILES IDX 20 1 19 2 18 3 17 4 15 5 16 6 14 7 8 8 9 9 10 10 13 11 11 12
REMARK SMILES IDX 12 13 5 14 4 15 2 16 1 17 3 18 6 19 7 20 21 21 22 22 23 23
REMARK SMILES IDX 24 24 25 25 26 26 27 27 88 28 28 29 87 30 29 31 30 32 31 33
REMARK SMILES IDX 81 34 32 35 86 36 80 37 82 38 33 39 85 40 79 41 78 42 34 44
REMARK SMILES IDX 66 45 46 46 65 47 47 48 50 49 64 50 83 51 48 52 49 53 63 55
REMARK SMILES IDX 84 56 51 57 35 58 36 59 44 60 37 61 39 62 45 63 38 64 40 65
REMARK SMILES IDX 41 66 42 67 43 68 67 69 68 70 76 71 69 72 71 73 77 74 70 75
REMARK SMILES IDX 72 76 73 77 74 78 75 79 52 80 53 81 61 82 54 83 56 84 62 85
REMARK SMILES IDX 55 86 57 87 58 88 59 89 60 90
REMARK H PARENT 82 43 50 54
REMARK Flexibility Score: inf
ROOT
ATOM      1  O   UNL A   1      34.710  36.000  33.918  1.00  0.00    -0.374 OA
ENDROOT
BRANCH   1   2
ATOM      2  C   UNL A   1      34.105  36.229  32.645  1.00  0.00     0.202 C 
BRANCH   2   3
ATOM      3  C   UNL A   1      33.424  35.025  31.989  1.00  0.00     0.261 C 
BRANCH   3   4
ATOM      4  O   UNL A   1      34.210  34.484  30.912  1.00  0.00    -0.460 OA
BRANCH   4   5
ATOM      5  C   UNL A   1      34.884  33.352  31.235  1.00  0.00     0.340 C 
ATOM      6  O   UNL A   1      34.406  32.337  31.723  1.00  0.00    -0.246 OA
BRANCH   5   7
ATOM      7  C   UNL A   1      36.255  33.377  30.701  1.00  0.00     0.086 A 
ATOM      8  C   UNL A   1      36.671  32.785  29.489  1.00  0.00     0.052 A 
ATOM      9  C   UNL A   1      38.022  33.010  29.139  1.00  0.00     0.030 A 
ATOM     10  C   UNL A   1      38.913  33.730  29.941  1.00  0.00     0.041 A 
ATOM     11  C   UNL A   1      37.152  34.098  31.520  1.00  0.00     0.057 A 
ATOM     12  C   UNL A   1      38.470  34.258  31.135  1.00  0.00     0.124 A 
ATOM     13  F   UNL A   1      39.314  34.945  31.915  1.00  0.00    -0.207 F 
BRANCH   8  14
ATOM     14  N   UNL A   1      35.864  32.045  28.632  1.00  0.00    -0.367 N 
BRANCH  14  15
ATOM     15  C   UNL A   1      36.255  30.679  28.228  1.00  0.00     0.146 C 
BRANCH  15  16
ATOM     16  C   UNL A   1      36.959  29.883  29.319  1.00  0.00    -0.061 C 
ATOM     17  C   UNL A   1      36.408  29.523  30.492  1.00  0.00     0.009 C 
ATOM     18  C   UNL A   1      38.390  29.510  29.028  1.00  0.00     0.041 C 
ENDBRANCH  15  16
ENDBRANCH  14  15
BRANCH  14  19
ATOM     19  C   UNL A   1      34.705  32.650  27.959  1.00  0.00     0.113 C 
ATOM     20  C   UNL A   1      33.605  31.655  27.626  1.00  0.00     0.027 C 
ENDBRANCH  14  19
ENDBRANCH   8  14
ENDBRANCH   5   7
ENDBRANCH   4   5
ENDBRANCH   3   4
ENDBRANCH   2   3
ENDBRANCH   1   2
BRANCH   1  21
ATOM     21  C   UNL A   1      34.792  34.650  34.367  1.00  0.00     0.202 C 
BRANCH  21  22
ATOM     22  C   UNL A   1      36.157  34.152  34.866  1.00  0.00     0.261 C 
BRANCH  22  23
ATOM     23  O   UNL A   1      36.441  32.772  34.573  1.00  0.00    -0.460 OA
BRANCH  23  24
ATOM     24  C   UNL A   1      37.482  32.245  35.260  1.00  0.00     0.338 C 
ATOM     25  O   UNL A   1      37.533  32.005  36.461  1.00  0.00    -0.246 OA
BRANCH  24  26
ATOM     26  C   UNL A   1      38.584  31.892  34.351  1.00  0.00     0.060 A 
ATOM     27  C   UNL A   1      38.316  31.073  33.249  1.00  0.00     0.016 A 
ATOM     28  C   UNL A   1      39.897  32.244  34.671  1.00  0.00     0.016 A 
ATOM     29  C   UNL A   1      39.369  30.586  32.469  1.00  0.00     0.010 A 
ATOM     30  C   UNL A   1      40.949  31.749  33.892  1.00  0.00     0.010 A 
ATOM     31  C   UNL A   1      40.694  30.898  32.801  1.00  0.00    -0.014 A 
BRANCH  31  32
ATOM     32  C   UNL A   1      41.824  30.303  32.045  1.00  0.00     0.031 A 
ATOM     33  C   UNL A   1      42.429  29.001  32.493  1.00  0.00     0.074 A 
ATOM     34  C   UNL A   1      42.330  30.946  30.978  1.00  0.00     0.049 A 
ATOM     35  N   UNL A   1      43.463  28.364  32.008  1.00  0.00    -0.248 NA
ATOM     36  C   UNL A   1      41.788  28.328  33.634  1.00  0.00     0.031 C 
ATOM     37  C   UNL A   1      41.829  32.211  30.443  1.00  0.00     0.029 A 
ATOM     38  N   UNL A   1      43.397  30.638  30.171  1.00  0.00    -0.354 N 
ATOM     39  C   UNL A   1      43.614  27.228  32.795  1.00  0.00     0.074 A 
ATOM     40  C   UNL A   1      42.567  27.266  33.794  1.00  0.00     0.031 C 
ATOM     41  C   UNL A   1      42.605  32.586  29.415  1.00  0.00     0.029 A 
ATOM     42  C   UNL A   1      43.674  31.605  29.234  1.00  0.00     0.049 A 
ATOM     43  H   UNL A   1      43.914  29.803  30.255  1.00  0.00     0.167 HD
ATOM     44  C   UNL A   1      44.529  26.236  32.684  1.00  0.00     0.034 A 
ATOM     45  C   UNL A   1      44.684  31.702  28.346  1.00  0.00     0.034 A 
ATOM     46  C   UNL A   1      45.556  26.187  31.677  1.00  0.00     0.049 A 
ATOM     47  C   UNL A   1      45.702  30.598  28.256  1.00  0.00     0.074 A 
ATOM     48  C   UNL A   1      46.507  25.202  31.470  1.00  0.00     0.029 A 
ATOM     49  N   UNL A   1      45.773  27.157  30.713  1.00  0.00    -0.354 N 
ATOM     50  N   UNL A   1      45.768  29.481  28.941  1.00  0.00    -0.248 NA
ATOM     51  C   UNL A   1      46.767  30.746  27.251  1.00  0.00     0.031 C 
ATOM     52  C   UNL A   1      47.306  25.583  30.389  1.00  0.00     0.029 A 
ATOM     53  C   UNL A   1      46.843  26.799  29.911  1.00  0.00     0.049 A 
ATOM     54  H   UNL A   1      45.243  27.982  30.613  1.00  0.00     0.167 HD
ATOM     55  C   UNL A   1      46.856  28.781  28.428  1.00  0.00     0.074 A 
ATOM     56  C   UNL A   1      47.413  29.593  27.366  1.00  0.00     0.031 C 
ATOM     57  C   UNL A   1      47.353  27.581  28.815  1.00  0.00     0.034 A 
BRANCH  44  58
ATOM     58  C   UNL A   1      44.443  25.084  33.648  1.00  0.00     0.023 A 
ATOM     59  C   UNL A   1      43.818  23.890  33.240  1.00  0.00     0.012 A 
ATOM     60  C   UNL A   1      45.069  25.143  34.909  1.00  0.00     0.148 A 
ATOM     61  C   UNL A   1      43.803  22.774  34.077  1.00  0.00     0.002 A 
ATOM     62  C   UNL A   1      45.082  24.015  35.723  1.00  0.00     0.091 A 
ATOM     63  F   UNL A   1      45.640  26.296  35.287  1.00  0.00    -0.205 F 
ATOM     64  C   UNL A   1      44.446  22.833  35.311  1.00  0.00     0.022 A 
BRANCH  62  65
ATOM     65  S   UNL A   1      45.951  23.969  37.296  1.00  0.00     0.127 S 
ATOM     66  O   UNL A   1      45.654  22.614  37.756  1.00  0.00    -0.237 OA
ATOM     67  O   UNL A   1      47.340  24.184  36.891  1.00  0.00    -0.237 OA
ATOM     68  O   UNL A   1      45.380  25.043  38.099  1.00  0.00    -0.744 OA
ENDBRANCH  62  65
ENDBRANCH  44  58
BRANCH  45  69
ATOM     69  C   UNL A   1      44.739  32.878  27.434  1.00  0.00     0.023 A 
ATOM     70  C   UNL A   1      44.122  32.803  26.171  1.00  0.00     0.012 A 
ATOM     71  C   UNL A   1      45.333  34.090  27.838  1.00  0.00     0.148 A 
ATOM     72  C   UNL A   1      44.106  33.909  25.321  1.00  0.00     0.002 A 
ATOM     73  C   UNL A   1      45.260  35.206  27.012  1.00  0.00     0.091 A 
ATOM     74  F   UNL A   1      45.933  34.135  29.036  1.00  0.00    -0.205 F 
ATOM     75  C   UNL A   1      44.659  35.114  25.747  1.00  0.00     0.022 A 
BRANCH  73  76
ATOM     76  S   UNL A   1      45.810  36.831  27.545  1.00  0.00     0.127 S 
ATOM     77  O   UNL A   1      45.166  36.954  28.849  1.00  0.00    -0.237 OA
ATOM     78  O   UNL A   1      47.263  36.661  27.585  1.00  0.00    -0.237 OA
ATOM     79  O   UNL A   1      45.347  37.758  26.519  1.00  0.00    -0.744 OA
ENDBRANCH  73  76
ENDBRANCH  45  69
BRANCH  57  80
ATOM     80  C   UNL A   1      48.549  27.035  28.077  1.00  0.00     0.023 A 
ATOM     81  C   UNL A   1      48.360  26.313  26.884  1.00  0.00     0.012 A 
ATOM     82  C   UNL A   1      49.858  27.337  28.505  1.00  0.00     0.148 A 
ATOM     83  C   UNL A   1      49.456  25.885  26.134  1.00  0.00     0.002 A 
ATOM     84  C   UNL A   1      50.944  26.944  27.731  1.00  0.00     0.091 A 
ATOM     85  F   UNL A   1      50.018  28.008  29.655  1.00  0.00    -0.205 F 
ATOM     86  C   UNL A   1      50.745  26.212  26.549  1.00  0.00     0.022 A 
BRANCH  84  87
ATOM     87  S   UNL A   1      52.632  27.406  28.141  1.00  0.00     0.127 S 
ATOM     88  O   UNL A   1      52.540  28.864  28.188  1.00  0.00    -0.237 OA
ATOM     89  O   UNL A   1      52.826  26.766  29.443  1.00  0.00    -0.237 OA
ATOM     90  O   UNL A   1      53.462  26.862  27.075  1.00  0.00    -0.744 OA
ENDBRANCH  84  87
ENDBRANCH  57  80
ENDBRANCH  31  32
ENDBRANCH  24  26
ENDBRANCH  23  24
ENDBRANCH  22  23
ENDBRANCH  21  22
ENDBRANCH   1  21
TORSDOF 21
ENDMDL
MODEL 3
REMARK VINA RESULT:      -8.4      3.687      6.622
REMARK SMILES C=C(C)CN(CC)c1ccc(F)cc1C(=O)OCCOCCOC(=O)c1ccc(-c2c3nc(c(-c4cccc(S(=O)(=O)[O-])c4F)c4ccc([nH]4)c(-c4cccc(S(=O)(=O)[O-])c4F)c4nc(c(-c5cccc(S(=O)(=O)[O-])c5F)c5ccc2[nH]5)C=C4)C=C3)cc1
REMARK SMILES IDX 20 1 19 2 18 3 17 4 15 5 16 6 14 7 8 8 9 9 10 10 13 11 11 12
REMARK SMILES IDX 12 13 5 14 4 15 2 16 1 17 3 18 6 19 7 20 21 21 22 22 23 23
REMARK SMILES IDX 24 24 25 25 26 26 27 27 88 28 28 29 87 30 29 31 30 32 31 33
REMARK SMILES IDX 81 34 32 35 86 36 80 37 82 38 33 39 85 40 79 41 78 42 34 44
REMARK SMILES IDX 66 45 46 46 65 47 47 48 50 49 64 50 83 51 48 52 49 53 63 55
REMARK SMILES IDX 84 56 51 57 35 58 36 59 44 60 37 61 39 62 45 63 38 64 40 65
REMARK SMILES IDX 41 66 42 67 43 68 67 69 68 70 76 71 69 72 71 73 77 74 70 75
REMARK SMILES IDX 72 76 73 77 74 78 75 79 52 80 53 81 61 82 54 83 56 84 62 85
REMARK SMILES IDX 55 86 57 87 58 88 59 89 60 90
REMARK H PARENT 82 43 50 54
REMARK Flexibility Score: inf
ROOT
ATOM      1  O   UNL A   1      37.481  20.238  25.206  1.00  0.00    -0.374 OA
ENDROOT
BRANCH   1   2
ATOM      2  C   UNL A   1      38.735  19.554  25.233  1.00  0.00     0.202 C 
BRANCH   2   3
ATOM      3  C   UNL A   1      39.945  20.371  25.695  1.00  0.00     0.261 C 
BRANCH   3   4
ATOM      4  O   UNL A   1      41.172  19.630  25.574  1.00  0.00    -0.460 OA
BRANCH   4   5
ATOM      5  C   UNL A   1      42.136  20.011  26.450  1.00  0.00     0.340 C 
ATOM      6  O   UNL A   1      42.104  19.882  27.665  1.00  0.00    -0.246 OA
BRANCH   5   7
ATOM      7  C   UNL A   1      43.372  20.392  25.749  1.00  0.00     0.086 A 
ATOM      8  C   UNL A   1      43.979  21.665  25.796  1.00  0.00     0.052 A 
ATOM      9  C   UNL A   1      45.209  21.774  25.109  1.00  0.00     0.030 A 
ATOM     10  C   UNL A   1      45.785  20.720  24.392  1.00  0.00     0.041 A 
ATOM     11  C   UNL A   1      43.944  19.325  25.020  1.00  0.00     0.057 A 
ATOM     12  C   UNL A   1      45.136  19.505  24.344  1.00  0.00     0.124 A 
ATOM     13  F   UNL A   1      45.673  18.488  23.657  1.00  0.00    -0.207 F 
BRANCH   8  14
ATOM     14  N   UNL A   1      43.480  22.774  26.471  1.00  0.00    -0.367 N 
BRANCH  14  15
ATOM     15  C   UNL A   1      42.780  23.847  25.735  1.00  0.00     0.146 C 
BRANCH  15  16
ATOM     16  C   UNL A   1      43.641  25.071  25.447  1.00  0.00    -0.061 C 
ATOM     17  C   UNL A   1      44.985  25.100  25.498  1.00  0.00     0.009 C 
ATOM     18  C   UNL A   1      42.885  26.329  25.106  1.00  0.00     0.041 C 
ENDBRANCH  15  16
ENDBRANCH  14  15
BRANCH  14  19
ATOM     19  C   UNL A   1      43.786  23.008  27.890  1.00  0.00     0.113 C 
ATOM     20  C   UNL A   1      42.600  23.517  28.693  1.00  0.00     0.027 C 
ENDBRANCH  14  19
ENDBRANCH   8  14
ENDBRANCH   5   7
ENDBRANCH   4   5
ENDBRANCH   3   4
ENDBRANCH   2   3
ENDBRANCH   1   2
BRANCH   1  21
ATOM     21  C   UNL A   1      37.480  21.579  24.723  1.00  0.00     0.202 C 
BRANCH  21  22
ATOM     22  C   UNL A   1      37.234  22.698  25.747  1.00  0.00     0.261 C 
BRANCH  22  23
ATOM     23  O   UNL A   1      38.245  23.721  25.776  1.00  0.00    -0.460 OA
BRANCH  23  24
ATOM     24  C   UNL A   1      39.104  23.646  26.822  1.00  0.00     0.338 C 
ATOM     25  O   UNL A   1      39.765  22.675  27.170  1.00  0.00    -0.246 OA
BRANCH  24  26
ATOM     26  C   UNL A   1      39.230  24.951  27.490  1.00  0.00     0.060 A 
ATOM     27  C   UNL A   1      39.836  26.008  26.800  1.00  0.00     0.016 A 
ATOM     28  C   UNL A   1      38.890  25.085  28.837  1.00  0.00     0.016 A 
ATOM     29  C   UNL A   1      40.122  27.202  27.467  1.00  0.00     0.010 A 
ATOM     30  C   UNL A   1      39.184  26.281  29.503  1.00  0.00     0.010 A 
ATOM     31  C   UNL A   1      39.823  27.337  28.829  1.00  0.00    -0.014 A 
BRANCH  31  32
ATOM     32  C   UNL A   1      40.215  28.561  29.572  1.00  0.00     0.031 A 
ATOM     33  C   UNL A   1      41.649  28.769  29.979  1.00  0.00     0.074 A 
ATOM     34  C   UNL A   1      39.283  29.468  29.912  1.00  0.00     0.049 A 
ATOM     35  N   UNL A   1      42.170  29.733  30.692  1.00  0.00    -0.248 NA
ATOM     36  C   UNL A   1      42.621  27.763  29.524  1.00  0.00     0.031 C 
ATOM     37  C   UNL A   1      37.863  29.382  29.574  1.00  0.00     0.029 A 
ATOM     38  N   UNL A   1      39.386  30.624  30.645  1.00  0.00    -0.354 N 
ATOM     39  C   UNL A   1      43.525  29.442  30.793  1.00  0.00     0.074 A 
ATOM     40  C   UNL A   1      43.745  28.207  30.071  1.00  0.00     0.031 C 
ATOM     41  C   UNL A   1      37.222  30.425  30.121  1.00  0.00     0.029 A 
ATOM     42  C   UNL A   1      38.177  31.239  30.872  1.00  0.00     0.049 A 
ATOM     43  H   UNL A   1      40.243  30.980  30.975  1.00  0.00     0.167 HD
ATOM     44  C   UNL A   1      44.499  30.148  31.415  1.00  0.00     0.034 A 
ATOM     45  C   UNL A   1      37.869  32.320  31.617  1.00  0.00     0.034 A 
ATOM     46  C   UNL A   1      44.285  31.388  32.113  1.00  0.00     0.049 A 
ATOM     47  C   UNL A   1      38.966  33.077  32.317  1.00  0.00     0.074 A 
ATOM     48  C   UNL A   1      45.221  32.189  32.745  1.00  0.00     0.029 A 
ATOM     49  N   UNL A   1      43.056  32.006  32.278  1.00  0.00    -0.354 N 
ATOM     50  N   UNL A   1      40.256  32.843  32.316  1.00  0.00    -0.248 NA
ATOM     51  C   UNL A   1      38.573  34.263  33.093  1.00  0.00     0.031 C 
ATOM     52  C   UNL A   1      44.556  33.285  33.303  1.00  0.00     0.029 A 
ATOM     53  C   UNL A   1      43.207  33.176  33.003  1.00  0.00     0.049 A 
ATOM     54  H   UNL A   1      42.200  31.664  31.930  1.00  0.00     0.167 HD
ATOM     55  C   UNL A   1      40.832  33.869  33.059  1.00  0.00     0.074 A 
ATOM     56  C   UNL A   1      39.750  34.734  33.485  1.00  0.00     0.031 C 
ATOM     57  C   UNL A   1      42.136  34.066  33.370  1.00  0.00     0.034 A 
BRANCH  44  58
ATOM     58  C   UNL A   1      45.910  29.629  31.335  1.00  0.00     0.023 A 
ATOM     59  C   UNL A   1      46.757  30.094  30.311  1.00  0.00     0.012 A 
ATOM     60  C   UNL A   1      46.426  28.770  32.326  1.00  0.00     0.148 A 
ATOM     61  C   UNL A   1      48.095  29.703  30.265  1.00  0.00     0.002 A 
ATOM     62  C   UNL A   1      47.769  28.413  32.294  1.00  0.00     0.091 A 
ATOM     63  F   UNL A   1      45.596  28.323  33.279  1.00  0.00    -0.205 F 
ATOM     64  C   UNL A   1      48.603  28.874  31.262  1.00  0.00     0.022 A 
BRANCH  62  65
ATOM     65  S   UNL A   1      48.534  27.414  33.577  1.00  0.00     0.127 S 
ATOM     66  O   UNL A   1      49.930  27.395  33.143  1.00  0.00    -0.237 OA
ATOM     67  O   UNL A   1      48.281  28.206  34.780  1.00  0.00    -0.237 OA
ATOM     68  O   UNL A   1      47.850  26.128  33.543  1.00  0.00    -0.744 OA
ENDBRANCH  62  65
ENDBRANCH  44  58
BRANCH  45  69
ATOM     69  C   UNL A   1      36.452  32.776  31.686  1.00  0.00     0.023 A 
ATOM     70  C   UNL A   1      35.775  32.743  32.920  1.00  0.00     0.012 A 
ATOM     71  C   UNL A   1      35.799  33.306  30.556  1.00  0.00     0.148 A 
ATOM     72  C   UNL A   1      34.468  33.221  33.025  1.00  0.00     0.002 A 
ATOM     73  C   UNL A   1      34.520  33.835  30.681  1.00  0.00     0.091 A 
ATOM     74  F   UNL A   1      36.454  33.309  29.386  1.00  0.00    -0.205 F 
ATOM     75  C   UNL A   1      33.847  33.781  31.912  1.00  0.00     0.022 A 
BRANCH  73  76
ATOM     76  S   UNL A   1      33.708  34.712  29.339  1.00  0.00     0.127 S 
ATOM     77  O   UNL A   1      32.506  35.219  29.995  1.00  0.00    -0.237 OA
ATOM     78  O   UNL A   1      34.703  35.730  28.998  1.00  0.00    -0.237 OA
ATOM     79  O   UNL A   1      33.491  33.719  28.296  1.00  0.00    -0.744 OA
ENDBRANCH  73  76
ENDBRANCH  45  69
BRANCH  57  80
ATOM     80  C   UNL A   1      42.498  35.277  34.191  1.00  0.00     0.023 A 
ATOM     81  C   UNL A   1      42.514  35.187  35.595  1.00  0.00     0.012 A 
ATOM     82  C   UNL A   1      42.931  36.465  33.567  1.00  0.00     0.148 A 
ATOM     83  C   UNL A   1      42.941  36.266  36.370  1.00  0.00     0.002 A 
ATOM     84  C   UNL A   1      43.395  37.522  34.344  1.00  0.00     0.091 A 
ATOM     85  F   UNL A   1      42.888  36.540  32.229  1.00  0.00    -0.205 F 
ATOM     86  C   UNL A   1      43.394  37.426  35.745  1.00  0.00     0.022 A 
BRANCH  84  87
ATOM     87  S   UNL A   1      44.085  39.014  33.619  1.00  0.00     0.127 S 
ATOM     88  O   UNL A   1      45.024  38.466  32.643  1.00  0.00    -0.237 OA
ATOM     89  O   UNL A   1      42.906  39.656  33.036  1.00  0.00    -0.237 OA
ATOM     90  O   UNL A   1      44.685  39.751  34.724  1.00  0.00    -0.744 OA
ENDBRANCH  84  87
ENDBRANCH  57  80
ENDBRANCH  31  32
ENDBRANCH  24  26
ENDBRANCH  23  24
ENDBRANCH  22  23
ENDBRANCH  21  22
ENDBRANCH   1  21
TORSDOF 21
ENDMDL
