MODEL 1
REMARK VINA RESULT:     -13.3      0.000      0.000
REMARK SMILES O=C(OCCOCCOC(=O)c1ccc(-c2c3nc(c(-c4cccc(S(=O)(=O)[O-])c4F)c4ccc([nH]4)c(-c4cccc(S(=O)(=O)[O-])c4F)c4nc(c(-c5cccc(S(=O)(=O)[O-])c5F)c5ccc2[nH]5)C=C4)C=C3)cc1)C1=Cc2cc(Cl)cc(-c3ccc(CO)cc3)c2O[C@@H]1C(F)(F)F
REMARK SMILES IDX 6 1 5 2 4 3 3 4 2 5 1 6 75 7 76 8 93 9 77 10 92 11 78 12
REMARK SMILES IDX 91 13 79 14 82 15 80 16 81 17 94 18 95 19 96 20 97 21 83 22
REMARK SMILES IDX 84 23 90 24 85 25 89 26 86 27 87 28 88 29 7 31 8 32 9 33
REMARK SMILES IDX 10 34 11 35 12 36 13 37 74 38 14 39 73 40 15 41 16 42 17 43
REMARK SMILES IDX 67 44 18 45 72 46 66 47 68 48 19 49 71 50 65 51 64 52 20 54
REMARK SMILES IDX 52 55 32 56 51 57 33 58 36 59 50 60 69 61 34 62 35 63 49 65
REMARK SMILES IDX 70 66 37 67 21 68 22 69 30 70 23 71 25 72 31 73 24 74 26 75
REMARK SMILES IDX 27 76 28 77 29 78 53 79 54 80 62 81 55 82 57 83 63 84 56 85
REMARK SMILES IDX 58 86 59 87 60 88 61 89 38 90 39 91 47 92 40 93 42 94 48 95
REMARK SMILES IDX 41 96 43 97 44 98 45 99 46 100
REMARK H PARENT 88 30 68 53 36 64
REMARK Flexibility Score: inf
ROOT
ATOM      1  O   UNL A   1      29.545  32.154  24.355  1.00  0.00    -0.374 OA
ENDROOT
BRANCH   1   2
ATOM      2  C   UNL A   1      28.414  31.295  23.470  1.00  0.00     0.202 C 
BRANCH   2   3
ATOM      3  C   UNL A   1      28.503  29.236  22.769  1.00  0.00     0.261 C 
BRANCH   3   4
ATOM      4  O   UNL A   1      29.249  28.073  23.458  1.00  0.00    -0.460 OA
BRANCH   4   5
ATOM      5  C   UNL A   1      30.432  27.810  22.895  1.00  0.00     0.338 C 
ATOM      6  O   UNL A   1      30.682  27.425  21.781  1.00  0.00    -0.246 OA
BRANCH   5   7
ATOM      7  C   UNL A   1      31.181  27.714  24.135  1.00  0.00     0.087 C 
ATOM      8  C   UNL A   1      30.500  26.918  25.146  1.00  0.00     0.027 C 
ATOM      9  C   UNL A   1      32.831  27.208  23.280  1.00  0.00     0.316 C 
ATOM     10  C   UNL A   1      30.964  25.244  25.597  1.00  0.00     0.019 A 
ATOM     11  O   UNL A   1      33.338  25.365  23.715  1.00  0.00    -0.475 OA
ATOM     12  C   UNL A   1      30.085  24.609  26.432  1.00  0.00     0.032 A 
ATOM     13  C   UNL A   1      32.283  24.366  24.854  1.00  0.00     0.135 A 
ATOM     14  C   UNL A   1      30.279  23.235  26.551  1.00  0.00     0.042 A 
ATOM     15  C   UNL A   1      32.435  22.970  25.118  1.00  0.00     0.026 A 
ATOM     16  Cl  UNL A   1      29.181  22.379  27.584  1.00  0.00    -0.084 Cl
ATOM     17  C   UNL A   1      31.329  22.477  25.901  1.00  0.00     0.033 A 
BRANCH   9  18
ATOM     18  C   UNL A   1      33.467  28.702  23.600  1.00  0.00     0.430 C 
ATOM     19  F   UNL A   1      34.808  28.783  23.668  1.00  0.00    -0.167 F 
ATOM     20  F   UNL A   1      33.162  29.518  22.539  1.00  0.00    -0.167 F 
ATOM     21  F   UNL A   1      32.934  29.352  24.664  1.00  0.00    -0.167 F 
ENDBRANCH   9  18
BRANCH  15  22
ATOM     22  C   UNL A   1      33.590  21.905  24.734  1.00  0.00    -0.015 A 
ATOM     23  C   UNL A   1      35.140  22.837  24.882  1.00  0.00     0.009 A 
ATOM     24  C   UNL A   1      33.775  19.881  24.669  1.00  0.00     0.009 A 
ATOM     25  C   UNL A   1      36.667  21.955  24.989  1.00  0.00     0.007 A 
ATOM     26  C   UNL A   1      35.393  19.127  24.823  1.00  0.00     0.007 A 
ATOM     27  C   UNL A   1      36.780  20.179  24.959  1.00  0.00    -0.023 A 
BRANCH  27  28
ATOM     28  C   UNL A   1      38.103  19.514  24.692  1.00  0.00     0.191 C 
BRANCH  28  29
ATOM     29  O   UNL A   1      39.002  19.852  25.737  1.00  0.00    -0.392 OA
ATOM     30  H   UNL A   1      39.585  20.569  25.442  1.00  0.00     0.211 HD
ENDBRANCH  28  29
ENDBRANCH  27  28
ENDBRANCH  15  22
ENDBRANCH   5   7
ENDBRANCH   4   5
ENDBRANCH   3   4
ENDBRANCH   2   3
ENDBRANCH   1   2
BRANCH   1  31
ATOM     31  C   UNL A   1      30.519  31.784  25.380  1.00  0.00     0.202 C 
BRANCH  31  32
ATOM     32  C   UNL A   1      31.237  32.851  26.198  1.00  0.00     0.261 C 
BRANCH  32  33
ATOM     33  O   UNL A   1      32.152  32.245  27.057  1.00  0.00    -0.460 OA
BRANCH  33  34
ATOM     34  C   UNL A   1      32.825  33.161  27.766  1.00  0.00     0.338 C 
ATOM     35  O   UNL A   1      32.444  34.185  28.298  1.00  0.00    -0.246 OA
BRANCH  34  36
ATOM     36  C   UNL A   1      34.154  32.633  27.821  1.00  0.00     0.060 A 
ATOM     37  C   UNL A   1      34.380  30.875  28.006  1.00  0.00     0.016 A 
ATOM     38  C   UNL A   1      35.588  33.729  28.047  1.00  0.00     0.016 A 
ATOM     39  C   UNL A   1      35.949  30.150  28.458  1.00  0.00     0.010 A 
ATOM     40  C   UNL A   1      37.325  32.830  28.541  1.00  0.00     0.010 A 
ATOM     41  C   UNL A   1      37.406  31.073  28.748  1.00  0.00    -0.014 A 
BRANCH  41  42
ATOM     42  C   UNL A   1      38.649  30.661  29.473  1.00  0.00     0.031 A 
ATOM     43  C   UNL A   1      39.547  29.553  28.935  1.00  0.00     0.074 A 
ATOM     44  C   UNL A   1      38.705  30.925  30.792  1.00  0.00     0.049 A 
ATOM     45  N   UNL A   1      40.526  28.901  29.523  1.00  0.00    -0.248 NA
ATOM     46  C   UNL A   1      39.263  29.052  27.584  1.00  0.00     0.031 C 
ATOM     47  C   UNL A   1      37.742  31.751  31.519  1.00  0.00     0.029 A 
ATOM     48  N   UNL A   1      39.549  30.459  31.770  1.00  0.00    -0.354 N 
ATOM     49  C   UNL A   1      40.943  27.915  28.626  1.00  0.00     0.074 A 
ATOM     50  C   UNL A   1      40.055  27.993  27.491  1.00  0.00     0.031 C 
ATOM     51  C   UNL A   1      38.039  31.725  32.829  1.00  0.00     0.029 A 
ATOM     52  C   UNL A   1      39.221  30.893  33.034  1.00  0.00     0.049 A 
ATOM     53  H   UNL A   1      40.317  29.870  31.586  1.00  0.00     0.167 HD
ATOM     54  C   UNL A   1      41.997  27.061  28.704  1.00  0.00     0.034 A 
ATOM     55  C   UNL A   1      39.814  30.666  34.223  1.00  0.00     0.034 A 
ATOM     56  C   UNL A   1      42.882  26.998  29.836  1.00  0.00     0.049 A 
ATOM     57  C   UNL A   1      41.061  29.823  34.275  1.00  0.00     0.074 A 
ATOM     58  C   UNL A   1      44.083  26.321  29.964  1.00  0.00     0.029 A 
ATOM     59  N   UNL A   1      42.640  27.613  31.053  1.00  0.00    -0.354 N 
ATOM     60  N   UNL A   1      41.629  29.128  33.320  1.00  0.00    -0.248 NA
ATOM     61  C   UNL A   1      41.786  29.787  35.554  1.00  0.00     0.031 C 
ATOM     62  C   UNL A   1      44.541  26.490  31.276  1.00  0.00     0.029 A 
ATOM     63  C   UNL A   1      43.660  27.326  31.941  1.00  0.00     0.049 A 
ATOM     64  H   UNL A   1      41.856  28.173  31.255  1.00  0.00     0.167 HD
ATOM     65  C   UNL A   1      42.804  28.621  33.866  1.00  0.00     0.074 A 
ATOM     66  C   UNL A   1      42.872  29.100  35.230  1.00  0.00     0.031 C 
ATOM     67  C   UNL A   1      43.742  27.832  33.286  1.00  0.00     0.034 A 
BRANCH  54  68
ATOM     68  C   UNL A   1      42.326  26.194  27.500  1.00  0.00     0.023 A 
ATOM     69  C   UNL A   1      43.109  26.736  26.456  1.00  0.00     0.012 A 
ATOM     70  C   UNL A   1      41.968  24.830  27.439  1.00  0.00     0.148 A 
ATOM     71  C   UNL A   1      43.479  25.963  25.355  1.00  0.00     0.002 A 
ATOM     72  C   UNL A   1      42.386  24.050  26.362  1.00  0.00     0.091 A 
ATOM     73  F   UNL A   1      41.234  24.315  28.435  1.00  0.00    -0.205 F 
ATOM     74  C   UNL A   1      43.125  24.619  25.313  1.00  0.00     0.022 A 
BRANCH  72  75
ATOM     75  S   UNL A   1      42.063  22.285  26.241  1.00  0.00     0.127 S 
ATOM     76  O   UNL A   1      40.607  22.261  26.101  1.00  0.00    -0.237 OA
ATOM     77  O   UNL A   1      42.795  21.924  25.026  1.00  0.00    -0.237 OA
ATOM     78  O   UNL A   1      42.578  21.693  27.467  1.00  0.00    -0.744 OA
ENDBRANCH  72  75
ENDBRANCH  54  68
BRANCH  55  79
ATOM     79  C   UNL A   1      39.334  31.380  35.440  1.00  0.00     0.023 A 
ATOM     80  C   UNL A   1      38.262  30.827  36.171  1.00  0.00     0.012 A 
ATOM     81  C   UNL A   1      39.930  32.571  35.890  1.00  0.00     0.148 A 
ATOM     82  C   UNL A   1      37.756  31.476  37.296  1.00  0.00     0.002 A 
ATOM     83  C   UNL A   1      39.454  33.187  37.043  1.00  0.00     0.091 A 
ATOM     84  F   UNL A   1      40.961  33.068  35.192  1.00  0.00    -0.205 F 
ATOM     85  C   UNL A   1      38.355  32.652  37.735  1.00  0.00     0.022 A 
BRANCH  83  86
ATOM     86  S   UNL A   1      40.225  34.644  37.754  1.00  0.00     0.127 S 
ATOM     87  O   UNL A   1      39.061  35.463  38.089  1.00  0.00    -0.237 OA
ATOM     88  O   UNL A   1      40.929  34.076  38.904  1.00  0.00    -0.237 OA
ATOM     89  O   UNL A   1      41.093  35.182  36.717  1.00  0.00    -0.744 OA
ENDBRANCH  83  86
ENDBRANCH  55  79
BRANCH  67  90
ATOM     90  C   UNL A   1      44.965  27.481  34.093  1.00  0.00     0.023 A 
ATOM     91  C   UNL A   1      46.092  28.326  34.093  1.00  0.00     0.012 A 
ATOM     92  C   UNL A   1      44.964  26.332  34.909  1.00  0.00     0.148 A 
ATOM     93  C   UNL A   1      47.215  28.009  34.857  1.00  0.00     0.002 A 
ATOM     94  C   UNL A   1      46.061  26.054  35.712  1.00  0.00     0.091 A 
ATOM     95  F   UNL A   1      43.887  25.533  34.886  1.00  0.00    -0.205 F 
ATOM     96  C   UNL A   1      47.195  26.882  35.674  1.00  0.00     0.022 A 
BRANCH  94  97
ATOM     97  S   UNL A   1      46.087  24.681  36.870  1.00  0.00     0.127 S 
ATOM     98  O   UNL A   1      45.006  25.045  37.785  1.00  0.00    -0.237 OA
ATOM     99  O   UNL A   1      45.793  23.542  36.001  1.00  0.00    -0.237 OA
ATOM    100  O   UNL A   1      47.420  24.671  37.458  1.00  0.00    -0.744 OA
ENDBRANCH  94  97
ENDBRANCH  67  90
ENDBRANCH  41  42
ENDBRANCH  34  36
ENDBRANCH  33  34
ENDBRANCH  32  33
ENDBRANCH  31  32
ENDBRANCH   1  31
TORSDOF 21
ENDMDL
MODEL 2
REMARK VINA RESULT:     -13.1      2.317      3.005
REMARK SMILES O=C(OCCOCCOC(=O)c1ccc(-c2c3nc(c(-c4cccc(S(=O)(=O)[O-])c4F)c4ccc([nH]4)c(-c4cccc(S(=O)(=O)[O-])c4F)c4nc(c(-c5cccc(S(=O)(=O)[O-])c5F)c5ccc2[nH]5)C=C4)C=C3)cc1)C1=Cc2cc(Cl)cc(-c3ccc(CO)cc3)c2O[C@@H]1C(F)(F)F
REMARK SMILES IDX 6 1 5 2 4 3 3 4 2 5 1 6 75 7 76 8 93 9 77 10 92 11 78 12
REMARK SMILES IDX 91 13 79 14 82 15 80 16 81 17 94 18 95 19 96 20 97 21 83 22
REMARK SMILES IDX 84 23 90 24 85 25 89 26 86 27 87 28 88 29 7 31 8 32 9 33
REMARK SMILES IDX 10 34 11 35 12 36 13 37 74 38 14 39 73 40 15 41 16 42 17 43
REMARK SMILES IDX 67 44 18 45 72 46 66 47 68 48 19 49 71 50 65 51 64 52 20 54
REMARK SMILES IDX 52 55 32 56 51 57 33 58 36 59 50 60 69 61 34 62 35 63 49 65
REMARK SMILES IDX 70 66 37 67 21 68 22 69 30 70 23 71 25 72 31 73 24 74 26 75
REMARK SMILES IDX 27 76 28 77 29 78 53 79 54 80 62 81 55 82 57 83 63 84 56 85
REMARK SMILES IDX 58 86 59 87 60 88 61 89 38 90 39 91 47 92 40 93 42 94 48 95
REMARK SMILES IDX 41 96 43 97 44 98 45 99 46 100
REMARK H PARENT 88 30 68 53 36 64
REMARK Flexibility Score: inf
ROOT
ATOM      1  O   UNL A   1      30.517  30.104  24.306  1.00  0.00    -0.374 OA
ENDROOT
BRANCH   1   2
ATOM      2  C   UNL A   1      29.845  28.817  23.474  1.00  0.00     0.202 C 
BRANCH   2   3
ATOM      3  C   UNL A   1      30.847  27.202  22.410  1.00  0.00     0.261 C 
BRANCH   3   4
ATOM      4  O   UNL A   1      30.846  25.712  22.811  1.00  0.00    -0.460 OA
BRANCH   4   5
ATOM      5  C   UNL A   1      32.053  25.147  22.714  1.00  0.00     0.338 C 
ATOM      6  O   UNL A   1      32.620  24.712  21.743  1.00  0.00    -0.246 OA
BRANCH   5   7
ATOM      7  C   UNL A   1      32.206  24.854  24.127  1.00  0.00     0.087 C 
ATOM      8  C   UNL A   1      31.774  23.509  24.475  1.00  0.00     0.027 C 
ATOM      9  C   UNL A   1      34.030  25.469  24.215  1.00  0.00     0.316 C 
ATOM     10  C   UNL A   1      32.889  22.147  24.827  1.00  0.00     0.019 A 
ATOM     11  O   UNL A   1      35.277  23.994  24.549  1.00  0.00    -0.475 OA
ATOM     12  C   UNL A   1      32.284  20.925  24.949  1.00  0.00     0.032 A 
ATOM     13  C   UNL A   1      34.633  22.278  24.772  1.00  0.00     0.135 A 
ATOM     14  C   UNL A   1      33.153  19.837  24.930  1.00  0.00     0.042 A 
ATOM     15  C   UNL A   1      35.430  21.094  24.846  1.00  0.00     0.026 A 
ATOM     16  Cl  UNL A   1      32.435  18.264  25.064  1.00  0.00    -0.084 Cl
ATOM     17  C   UNL A   1      34.596  19.918  24.827  1.00  0.00     0.033 A 
BRANCH   9  18
ATOM     18  C   UNL A   1      33.548  26.807  25.061  1.00  0.00     0.430 C 
ATOM     19  F   UNL A   1      32.388  26.708  25.735  1.00  0.00    -0.167 F 
ATOM     20  F   UNL A   1      34.466  27.018  26.060  1.00  0.00    -0.167 F 
ATOM     21  F   UNL A   1      33.557  27.974  24.371  1.00  0.00    -0.167 F 
ENDBRANCH   9  18
BRANCH  15  22
ATOM     22  C   UNL A   1      37.024  20.856  24.972  1.00  0.00    -0.015 A 
ATOM     23  C   UNL A   1      37.651  22.362  25.767  1.00  0.00     0.009 A 
ATOM     24  C   UNL A   1      38.288  19.264  24.967  1.00  0.00     0.009 A 
ATOM     25  C   UNL A   1      39.260  22.345  26.496  1.00  0.00     0.007 A 
ATOM     26  C   UNL A   1      39.882  19.387  25.779  1.00  0.00     0.007 A 
ATOM     27  C   UNL A   1      40.322  20.916  26.496  1.00  0.00    -0.023 A 
BRANCH  27  28
ATOM     28  C   UNL A   1      41.788  21.069  26.803  1.00  0.00     0.191 C 
BRANCH  28  29
ATOM     29  O   UNL A   1      42.514  21.045  25.584  1.00  0.00    -0.392 OA
ATOM     30  H   UNL A   1      41.937  20.732  24.870  1.00  0.00     0.211 HD
ENDBRANCH  28  29
ENDBRANCH  27  28
ENDBRANCH  15  22
ENDBRANCH   5   7
ENDBRANCH   4   5
ENDBRANCH   3   4
ENDBRANCH   2   3
ENDBRANCH   1   2
BRANCH   1  31
ATOM     31  C   UNL A   1      31.448  30.205  25.429  1.00  0.00     0.202 C 
BRANCH  31  32
ATOM     32  C   UNL A   1      31.452  31.434  26.331  1.00  0.00     0.261 C 
BRANCH  32  33
ATOM     33  O   UNL A   1      32.418  31.280  27.324  1.00  0.00    -0.460 OA
BRANCH  33  34
ATOM     34  C   UNL A   1      33.019  32.447  27.595  1.00  0.00     0.338 C 
ATOM     35  O   UNL A   1      32.555  33.562  27.728  1.00  0.00    -0.246 OA
BRANCH  34  36
ATOM     36  C   UNL A   1      34.394  32.086  27.760  1.00  0.00     0.060 A 
ATOM     37  C   UNL A   1      34.815  30.372  28.007  1.00  0.00     0.016 A 
ATOM     38  C   UNL A   1      35.663  33.353  28.061  1.00  0.00     0.016 A 
ATOM     39  C   UNL A   1      36.422  29.852  28.591  1.00  0.00     0.010 A 
ATOM     40  C   UNL A   1      37.454  32.681  28.703  1.00  0.00     0.010 A 
ATOM     41  C   UNL A   1      37.730  30.952  28.962  1.00  0.00    -0.014 A 
BRANCH  41  42
ATOM     42  C   UNL A   1      38.956  30.707  29.786  1.00  0.00     0.031 A 
ATOM     43  C   UNL A   1      39.926  29.582  29.445  1.00  0.00     0.074 A 
ATOM     44  C   UNL A   1      38.940  31.155  31.056  1.00  0.00     0.049 A 
ATOM     45  N   UNL A   1      40.904  29.068  30.157  1.00  0.00    -0.248 NA
ATOM     46  C   UNL A   1      39.726  28.884  28.168  1.00  0.00     0.031 C 
ATOM     47  C   UNL A   1      37.909  32.025  31.621  1.00  0.00     0.029 A 
ATOM     48  N   UNL A   1      39.758  30.871  32.122  1.00  0.00    -0.354 N 
ATOM     49  C   UNL A   1      41.405  27.988  29.425  1.00  0.00     0.074 A 
ATOM     50  C   UNL A   1      40.567  27.863  28.256  1.00  0.00     0.031 C 
ATOM     51  C   UNL A   1      38.147  32.195  32.931  1.00  0.00     0.029 A 
ATOM     52  C   UNL A   1      39.353  31.460  33.298  1.00  0.00     0.049 A 
ATOM     53  H   UNL A   1      40.558  30.302  32.052  1.00  0.00     0.167 HD
ATOM     54  C   UNL A   1      42.491  27.207  29.664  1.00  0.00     0.034 A 
ATOM     55  C   UNL A   1      39.901  31.430  34.529  1.00  0.00     0.034 A 
ATOM     56  C   UNL A   1      43.326  27.347  30.828  1.00  0.00     0.049 A 
ATOM     57  C   UNL A   1      41.180  30.666  34.749  1.00  0.00     0.074 A 
ATOM     58  C   UNL A   1      44.548  26.755  31.096  1.00  0.00     0.029 A 
ATOM     59  N   UNL A   1      43.001  28.112  31.935  1.00  0.00    -0.354 N 
ATOM     60  N   UNL A   1      41.821  29.875  33.924  1.00  0.00    -0.248 NA
ATOM     61  C   UNL A   1      41.846  30.845  36.048  1.00  0.00     0.031 C 
ATOM     62  C   UNL A   1      44.938  27.127  32.389  1.00  0.00     0.029 A 
ATOM     63  C   UNL A   1      43.991  28.002  32.894  1.00  0.00     0.049 A 
ATOM     64  H   UNL A   1      42.184  28.655  32.025  1.00  0.00     0.167 HD
ATOM     65  C   UNL A   1      42.991  29.508  34.582  1.00  0.00     0.074 A 
ATOM     66  C   UNL A   1      42.976  30.175  35.866  1.00  0.00     0.031 C 
ATOM     67  C   UNL A   1      43.989  28.694  34.156  1.00  0.00     0.034 A 
BRANCH  54  68
ATOM     68  C   UNL A   1      42.913  26.199  28.609  1.00  0.00     0.023 A 
ATOM     69  C   UNL A   1      42.151  25.021  28.440  1.00  0.00     0.012 A 
ATOM     70  C   UNL A   1      43.979  26.448  27.717  1.00  0.00     0.148 A 
ATOM     71  C   UNL A   1      42.470  24.090  27.450  1.00  0.00     0.002 A 
ATOM     72  C   UNL A   1      44.259  25.540  26.698  1.00  0.00     0.091 A 
ATOM     73  F   UNL A   1      44.694  27.571  27.872  1.00  0.00    -0.205 F 
ATOM     74  C   UNL A   1      43.518  24.354  26.575  1.00  0.00     0.022 A 
BRANCH  72  75
ATOM     75  S   UNL A   1      45.530  25.815  25.456  1.00  0.00     0.127 S 
ATOM     76  O   UNL A   1      45.120  27.102  24.894  1.00  0.00    -0.237 OA
ATOM     77  O   UNL A   1      46.745  25.868  26.270  1.00  0.00    -0.237 OA
ATOM     78  O   UNL A   1      45.454  24.686  24.540  1.00  0.00    -0.744 OA
ENDBRANCH  72  75
ENDBRANCH  54  68
BRANCH  55  79
ATOM     79  C   UNL A   1      39.334  32.282  35.614  1.00  0.00     0.023 A 
ATOM     80  C   UNL A   1      38.289  31.764  36.406  1.00  0.00     0.012 A 
ATOM     81  C   UNL A   1      39.826  33.572  35.883  1.00  0.00     0.148 A 
ATOM     82  C   UNL A   1      37.704  32.535  37.409  1.00  0.00     0.002 A 
ATOM     83  C   UNL A   1      39.272  34.317  36.919  1.00  0.00     0.091 A 
ATOM     84  F   UNL A   1      40.834  34.036  35.132  1.00  0.00    -0.205 F 
ATOM     85  C   UNL A   1      38.199  33.808  37.669  1.00  0.00     0.022 A 
BRANCH  83  86
ATOM     86  S   UNL A   1      39.909  35.923  37.408  1.00  0.00     0.127 S 
ATOM     87  O   UNL A   1      39.037  36.259  38.532  1.00  0.00    -0.237 OA
ATOM     88  O   UNL A   1      41.287  35.596  37.775  1.00  0.00    -0.237 OA
ATOM     89  O   UNL A   1      39.780  36.776  36.236  1.00  0.00    -0.744 OA
ENDBRANCH  83  86
ENDBRANCH  55  79
BRANCH  67  90
ATOM     90  C   UNL A   1      45.188  28.521  35.052  1.00  0.00     0.023 A 
ATOM     91  C   UNL A   1      45.243  27.466  35.983  1.00  0.00     0.012 A 
ATOM     92  C   UNL A   1      46.297  29.381  34.917  1.00  0.00     0.148 A 
ATOM     93  C   UNL A   1      46.363  27.296  36.796  1.00  0.00     0.002 A 
ATOM     94  C   UNL A   1      47.432  29.171  35.687  1.00  0.00     0.091 A 
ATOM     95  F   UNL A   1      46.220  30.387  34.034  1.00  0.00    -0.205 F 
ATOM     96  C   UNL A   1      47.460  28.139  36.639  1.00  0.00     0.022 A 
BRANCH  94  97
ATOM     97  S   UNL A   1      48.928  30.143  35.486  1.00  0.00     0.127 S 
ATOM     98  O   UNL A   1      48.482  31.467  35.916  1.00  0.00    -0.237 OA
ATOM     99  O   UNL A   1      49.850  29.480  36.408  1.00  0.00    -0.237 OA
ATOM    100  O   UNL A   1      49.295  30.040  34.079  1.00  0.00    -0.744 OA
ENDBRANCH  94  97
ENDBRANCH  67  90
ENDBRANCH  41  42
ENDBRANCH  34  36
ENDBRANCH  33  34
ENDBRANCH  32  33
ENDBRANCH  31  32
ENDBRANCH   1  31
TORSDOF 21
ENDMDL
MODEL 3
REMARK VINA RESULT:     -12.6      2.320      3.113
REMARK SMILES O=C(OCCOCCOC(=O)c1ccc(-c2c3nc(c(-c4cccc(S(=O)(=O)[O-])c4F)c4ccc([nH]4)c(-c4cccc(S(=O)(=O)[O-])c4F)c4nc(c(-c5cccc(S(=O)(=O)[O-])c5F)c5ccc2[nH]5)C=C4)C=C3)cc1)C1=Cc2cc(Cl)cc(-c3ccc(CO)cc3)c2O[C@@H]1C(F)(F)F
REMARK SMILES IDX 6 1 5 2 4 3 3 4 2 5 1 6 75 7 76 8 93 9 77 10 92 11 78 12
REMARK SMILES IDX 91 13 79 14 82 15 80 16 81 17 94 18 95 19 96 20 97 21 83 22
REMARK SMILES IDX 84 23 90 24 85 25 89 26 86 27 87 28 88 29 7 31 8 32 9 33
REMARK SMILES IDX 10 34 11 35 12 36 13 37 74 38 14 39 73 40 15 41 16 42 17 43
REMARK SMILES IDX 67 44 18 45 72 46 66 47 68 48 19 49 71 50 65 51 64 52 20 54
REMARK SMILES IDX 52 55 32 56 51 57 33 58 36 59 50 60 69 61 34 62 35 63 49 65
REMARK SMILES IDX 70 66 37 67 21 68 22 69 30 70 23 71 25 72 31 73 24 74 26 75
REMARK SMILES IDX 27 76 28 77 29 78 53 79 54 80 62 81 55 82 57 83 63 84 56 85
REMARK SMILES IDX 58 86 59 87 60 88 61 89 38 90 39 91 47 92 40 93 42 94 48 95
REMARK SMILES IDX 41 96 43 97 44 98 45 99 46 100
REMARK H PARENT 88 30 68 53 36 64
REMARK Flexibility Score: inf
ROOT
ATOM      1  O   UNL A   1      30.886  30.247  24.355  1.00  0.00    -0.374 OA
ENDROOT
BRANCH   1   2
ATOM      2  C   UNL A   1      30.009  28.908  23.865  1.00  0.00     0.202 C 
BRANCH   2   3
ATOM      3  C   UNL A   1      30.655  27.221  22.649  1.00  0.00     0.261 C 
BRANCH   3   4
ATOM      4  O   UNL A   1      30.677  25.741  23.087  1.00  0.00    -0.460 OA
BRANCH   4   5
ATOM      5  C   UNL A   1      31.880  25.177  22.950  1.00  0.00     0.338 C 
ATOM      6  O   UNL A   1      32.434  24.784  21.953  1.00  0.00    -0.246 OA
BRANCH   5   7
ATOM      7  C   UNL A   1      32.050  24.821  24.347  1.00  0.00     0.087 C 
ATOM      8  C   UNL A   1      31.659  23.448  24.631  1.00  0.00     0.027 C 
ATOM      9  C   UNL A   1      33.855  25.486  24.457  1.00  0.00     0.316 C 
ATOM     10  C   UNL A   1      32.817  22.105  24.912  1.00  0.00     0.019 A 
ATOM     11  O   UNL A   1      35.147  24.034  24.715  1.00  0.00    -0.475 OA
ATOM     12  C   UNL A   1      32.249  20.861  24.977  1.00  0.00     0.032 A 
ATOM     13  C   UNL A   1      34.556  22.291  24.857  1.00  0.00     0.135 A 
ATOM     14  C   UNL A   1      33.150  19.802  24.902  1.00  0.00     0.042 A 
ATOM     15  C   UNL A   1      35.388  21.130  24.871  1.00  0.00     0.026 A 
ATOM     16  Cl  UNL A   1      32.480  18.204  24.963  1.00  0.00    -0.084 Cl
ATOM     17  C   UNL A   1      34.589  19.931  24.798  1.00  0.00     0.033 A 
BRANCH   9  18
ATOM     18  C   UNL A   1      33.338  26.766  25.369  1.00  0.00     0.430 C 
ATOM     19  F   UNL A   1      32.371  26.512  26.270  1.00  0.00    -0.167 F 
ATOM     20  F   UNL A   1      34.391  27.168  26.153  1.00  0.00    -0.167 F 
ATOM     21  F   UNL A   1      33.011  27.886  24.678  1.00  0.00    -0.167 F 
ENDBRANCH   9  18
BRANCH  15  22
ATOM     22  C   UNL A   1      36.989  20.934  24.979  1.00  0.00    -0.015 A 
ATOM     23  C   UNL A   1      37.597  22.501  25.663  1.00  0.00     0.009 A 
ATOM     24  C   UNL A   1      38.288  19.371  25.051  1.00  0.00     0.009 A 
ATOM     25  C   UNL A   1      39.220  22.564  26.359  1.00  0.00     0.007 A 
ATOM     26  C   UNL A   1      39.894  19.580  25.820  1.00  0.00     0.007 A 
ATOM     27  C   UNL A   1      40.314  21.161  26.429  1.00  0.00    -0.023 A 
BRANCH  27  28
ATOM     28  C   UNL A   1      41.781  21.364  26.695  1.00  0.00     0.191 C 
BRANCH  28  29
ATOM     29  O   UNL A   1      42.435  21.630  25.465  1.00  0.00    -0.392 OA
ATOM     30  H   UNL A   1      43.084  22.341  25.591  1.00  0.00     0.211 HD
ENDBRANCH  28  29
ENDBRANCH  27  28
ENDBRANCH  15  22
ENDBRANCH   5   7
ENDBRANCH   4   5
ENDBRANCH   3   4
ENDBRANCH   2   3
ENDBRANCH   1   2
BRANCH   1  31
ATOM     31  C   UNL A   1      31.029  30.950  25.628  1.00  0.00     0.202 C 
BRANCH  31  32
ATOM     32  C   UNL A   1      31.874  30.364  26.754  1.00  0.00     0.261 C 
BRANCH  32  33
ATOM     33  O   UNL A   1      33.207  30.732  26.577  1.00  0.00    -0.460 OA
BRANCH  33  34
ATOM     34  C   UNL A   1      33.565  31.675  27.459  1.00  0.00     0.338 C 
ATOM     35  O   UNL A   1      32.914  32.563  27.975  1.00  0.00    -0.246 OA
BRANCH  34  36
ATOM     36  C   UNL A   1      34.938  31.375  27.732  1.00  0.00     0.060 A 
ATOM     37  C   UNL A   1      35.396  29.698  28.121  1.00  0.00     0.016 A 
ATOM     38  C   UNL A   1      36.144  32.704  28.023  1.00  0.00     0.016 A 
ATOM     39  C   UNL A   1      36.979  29.275  28.835  1.00  0.00     0.010 A 
ATOM     40  C   UNL A   1      37.911  32.141  28.818  1.00  0.00     0.010 A 
ATOM     41  C   UNL A   1      38.226  30.443  29.210  1.00  0.00    -0.014 A 
BRANCH  41  42
ATOM     42  C   UNL A   1      39.404  30.297  30.121  1.00  0.00     0.031 A 
ATOM     43  C   UNL A   1      40.459  29.223  29.885  1.00  0.00     0.074 A 
ATOM     44  C   UNL A   1      39.275  30.781  31.371  1.00  0.00     0.049 A 
ATOM     45  N   UNL A   1      41.414  28.790  30.677  1.00  0.00    -0.248 NA
ATOM     46  C   UNL A   1      40.388  28.477  28.621  1.00  0.00     0.031 C 
ATOM     47  C   UNL A   1      38.159  31.604  31.836  1.00  0.00     0.029 A 
ATOM     48  N   UNL A   1      40.033  30.580  32.499  1.00  0.00    -0.354 N 
ATOM     49  C   UNL A   1      42.026  27.721  30.018  1.00  0.00     0.074 A 
ATOM     50  C   UNL A   1      41.278  27.511  28.801  1.00  0.00     0.031 C 
ATOM     51  C   UNL A   1      38.296  31.829  33.153  1.00  0.00     0.029 A 
ATOM     52  C   UNL A   1      39.515  31.178  33.625  1.00  0.00     0.049 A 
ATOM     53  H   UNL A   1      40.868  30.058  32.502  1.00  0.00     0.167 HD
ATOM     54  C   UNL A   1      43.136  27.015  30.355  1.00  0.00     0.034 A 
ATOM     55  C   UNL A   1      39.977  31.219  34.890  1.00  0.00     0.034 A 
ATOM     56  C   UNL A   1      43.879  27.239  31.566  1.00  0.00     0.049 A 
ATOM     57  C   UNL A   1      41.281  30.540  35.220  1.00  0.00     0.074 A 
ATOM     58  C   UNL A   1      45.112  26.731  31.936  1.00  0.00     0.029 A 
ATOM     59  N   UNL A   1      43.435  28.016  32.623  1.00  0.00    -0.354 N 
ATOM     60  N   UNL A   1      42.022  29.764  34.467  1.00  0.00    -0.248 NA
ATOM     61  C   UNL A   1      41.845  30.798  36.554  1.00  0.00     0.031 C 
ATOM     62  C   UNL A   1      45.390  27.164  33.238  1.00  0.00     0.029 A 
ATOM     63  C   UNL A   1      44.362  27.995  33.649  1.00  0.00     0.049 A 
ATOM     64  H   UNL A   1      42.585  28.512  32.640  1.00  0.00     0.167 HD
ATOM     65  C   UNL A   1      43.164  29.488  35.214  1.00  0.00     0.074 A 
ATOM     66  C   UNL A   1      43.021  30.191  36.471  1.00  0.00     0.031 C 
ATOM     67  C   UNL A   1      44.233  28.723  34.884  1.00  0.00     0.034 A 
BRANCH  54  68
ATOM     68  C   UNL A   1      43.687  26.002  29.365  1.00  0.00     0.023 A 
ATOM     69  C   UNL A   1      43.319  24.644  29.494  1.00  0.00     0.012 A 
ATOM     70  C   UNL A   1      44.469  26.388  28.255  1.00  0.00     0.148 A 
ATOM     71  C   UNL A   1      43.760  23.686  28.580  1.00  0.00     0.002 A 
ATOM     72  C   UNL A   1      44.862  25.435  27.317  1.00  0.00     0.091 A 
ATOM     73  F   UNL A   1      44.809  27.679  28.128  1.00  0.00    -0.205 F 
ATOM     74  C   UNL A   1      44.523  24.083  27.487  1.00  0.00     0.022 A 
BRANCH  72  75
ATOM     75  S   UNL A   1      45.775  25.843  25.822  1.00  0.00     0.127 S 
ATOM     76  O   UNL A   1      44.758  25.639  24.790  1.00  0.00    -0.237 OA
ATOM     77  O   UNL A   1      46.131  27.243  26.054  1.00  0.00    -0.237 OA
ATOM     78  O   UNL A   1      46.902  24.923  25.771  1.00  0.00    -0.744 OA
ENDBRANCH  72  75
ENDBRANCH  54  68
BRANCH  55  79
ATOM     79  C   UNL A   1      39.290  32.067  35.904  1.00  0.00     0.023 A 
ATOM     80  C   UNL A   1      39.457  33.466  35.844  1.00  0.00     0.012 A 
ATOM     81  C   UNL A   1      38.464  31.516  36.901  1.00  0.00     0.148 A 
ATOM     82  C   UNL A   1      38.861  34.298  36.790  1.00  0.00     0.002 A 
ATOM     83  C   UNL A   1      37.831  32.356  37.812  1.00  0.00     0.091 A 
ATOM     84  F   UNL A   1      38.301  30.186  36.927  1.00  0.00    -0.205 F 
ATOM     85  C   UNL A   1      38.045  33.744  37.770  1.00  0.00     0.022 A 
BRANCH  83  86
ATOM     86  S   UNL A   1      36.672  31.754  39.044  1.00  0.00     0.127 S 
ATOM     87  O   UNL A   1      36.442  30.383  38.591  1.00  0.00    -0.237 OA
ATOM     88  O   UNL A   1      37.456  31.873  40.273  1.00  0.00    -0.237 OA
ATOM     89  O   UNL A   1      35.519  32.641  38.972  1.00  0.00    -0.744 OA
ENDBRANCH  83  86
ENDBRANCH  55  79
BRANCH  67  90
ATOM     90  C   UNL A   1      45.376  28.649  35.863  1.00  0.00     0.023 A 
ATOM     91  C   UNL A   1      46.343  29.672  35.916  1.00  0.00     0.012 A 
ATOM     92  C   UNL A   1      45.449  27.582  36.780  1.00  0.00     0.148 A 
ATOM     93  C   UNL A   1      47.389  29.611  36.837  1.00  0.00     0.002 A 
ATOM     94  C   UNL A   1      46.457  27.557  37.733  1.00  0.00     0.091 A 
ATOM     95  F   UNL A   1      44.526  26.611  36.705  1.00  0.00    -0.205 F 
ATOM     96  C   UNL A   1      47.438  28.562  37.752  1.00  0.00     0.022 A 
BRANCH  94  97
ATOM     97  S   UNL A   1      46.545  26.301  39.014  1.00  0.00     0.127 S 
ATOM     98  O   UNL A   1      47.049  25.150  38.266  1.00  0.00    -0.237 OA
ATOM     99  O   UNL A   1      47.503  26.886  39.951  1.00  0.00    -0.237 OA
ATOM    100  O   UNL A   1      45.192  26.156  39.535  1.00  0.00    -0.744 OA
ENDBRANCH  94  97
ENDBRANCH  67  90
ENDBRANCH  41  42
ENDBRANCH  34  36
ENDBRANCH  33  34
ENDBRANCH  32  33
ENDBRANCH  31  32
ENDBRANCH   1  31
TORSDOF 21
ENDMDL
