MODEL 1
REMARK VINA RESULT:     -12.3      0.000      0.000
REMARK SMILES CC(C)(C)c1cc(Nc2ccccc2C(=O)OCCOCCOC(=O)c2ccc(-c3c4nc(c(-c5cccc(S(=O)(=O)[O-])c5F)c5ccc([nH]5)c(-c5cccc(S(=O)(=O)[O-])c5F)c5nc(c(-c6cccc(S(=O)(=O)[O-])c6F)c6ccc3[nH]6)C=C5)C=C4)cc2)cc2c1OCC2(C)C
REMARK SMILES IDX 20 1 19 2 18 3 17 4 15 5 16 6 14 7 9 8 10 9 11 10 13 11
REMARK SMILES IDX 12 12 8 13 7 15 5 16 6 17 91 18 90 19 92 20 89 21 94 22
REMARK SMILES IDX 93 23 95 24 96 25 2 26 1 27 3 28 4 29 21 30 22 31 23 32
REMARK SMILES IDX 24 33 25 34 26 35 27 36 88 37 28 38 87 39 29 40 30 41 31 42
REMARK SMILES IDX 81 43 32 44 86 45 80 46 82 47 33 48 85 49 79 50 78 51 34 53
REMARK SMILES IDX 66 54 46 55 65 56 47 57 50 58 64 59 83 60 48 61 49 62 63 64
REMARK SMILES IDX 84 65 51 66 35 67 36 68 44 69 37 70 39 71 45 72 38 73 40 74
REMARK SMILES IDX 41 75 42 76 43 77 67 78 68 79 76 80 69 81 71 82 77 83 70 84
REMARK SMILES IDX 72 85 73 86 74 87 75 88 52 89 53 90 61 91 54 92 56 93 62 94
REMARK SMILES IDX 55 95 57 96 58 97 59 98 60 99
REMARK H PARENT 8 14 82 52 50 63
REMARK Flexibility Score: inf
ROOT
ATOM      1  O   UNL A   1      33.515  27.477  25.592  1.00  0.00    -0.374 OA
ENDROOT
BRANCH   1   2
ATOM      2  C   UNL A   1      34.046  26.728  24.498  1.00  0.00     0.202 C 
BRANCH   2   3
ATOM      3  C   UNL A   1      33.772  27.277  23.096  1.00  0.00     0.261 C 
BRANCH   3   4
ATOM      4  O   UNL A   1      34.008  26.265  22.103  1.00  0.00    -0.460 OA
BRANCH   4   5
ATOM      5  C   UNL A   1      32.915  25.916  21.386  1.00  0.00     0.340 C 
ATOM      6  O   UNL A   1      32.906  25.588  20.208  1.00  0.00    -0.246 OA
BRANCH   5   7
ATOM      7  C   UNL A   1      31.700  25.813  22.237  1.00  0.00     0.083 A 
ATOM      8  C   UNL A   1      31.238  24.653  22.889  1.00  0.00     0.053 A 
ATOM      9  C   UNL A   1      30.134  24.806  23.755  1.00  0.00     0.027 A 
ATOM     10  C   UNL A   1      29.415  26.001  23.850  1.00  0.00     0.002 A 
ATOM     11  C   UNL A   1      30.959  27.014  22.328  1.00  0.00     0.018 A 
ATOM     12  C   UNL A   1      29.806  27.098  23.103  1.00  0.00     0.001 A 
BRANCH   8  13
ATOM     13  N   UNL A   1      31.729  23.351  22.617  1.00  0.00    -0.355 N 
ATOM     14  H   UNL A   1      31.377  22.924  21.803  1.00  0.00     0.167 HD
BRANCH  13  15
ATOM     15  C   UNL A   1      32.661  22.579  23.359  1.00  0.00     0.039 A 
ATOM     16  C   UNL A   1      33.453  20.343  24.143  1.00  0.00     0.002 A 
ATOM     17  C   UNL A   1      32.502  21.177  23.486  1.00  0.00     0.034 A 
ATOM     18  C   UNL A   1      34.582  20.998  24.638  1.00  0.00     0.127 A 
ATOM     19  C   UNL A   1      34.758  22.366  24.525  1.00  0.00     0.006 A 
ATOM     20  O   UNL A   1      35.637  20.387  25.267  1.00  0.00    -0.492 OA
ATOM     21  C   UNL A   1      33.801  23.160  23.919  1.00  0.00     0.034 A 
ATOM     22  C   UNL A   1      36.090  22.774  25.051  1.00  0.00     0.028 C 
ATOM     23  C   UNL A   1      36.501  21.450  25.721  1.00  0.00     0.240 C 
ATOM     24  C   UNL A   1      37.022  23.136  23.887  1.00  0.00     0.020 C 
ATOM     25  C   UNL A   1      36.019  23.924  26.057  1.00  0.00     0.020 C 
BRANCH  16  26
ATOM     26  C   UNL A   1      33.226  18.834  24.381  1.00  0.00    -0.009 C 
ATOM     27  C   UNL A   1      34.504  17.981  24.279  1.00  0.00     0.016 C 
ATOM     28  C   UNL A   1      32.199  18.212  23.411  1.00  0.00     0.016 C 
ATOM     29  C   UNL A   1      32.656  18.660  25.793  1.00  0.00     0.016 C 
ENDBRANCH  16  26
ENDBRANCH  13  15
ENDBRANCH   8  13
ENDBRANCH   5   7
ENDBRANCH   4   5
ENDBRANCH   3   4
ENDBRANCH   2   3
ENDBRANCH   1   2
BRANCH   1  30
ATOM     30  C   UNL A   1      32.172  27.945  25.454  1.00  0.00     0.202 C 
BRANCH  30  31
ATOM     31  C   UNL A   1      31.875  29.372  25.933  1.00  0.00     0.261 C 
BRANCH  31  32
ATOM     32  O   UNL A   1      33.019  30.236  25.845  1.00  0.00    -0.460 OA
BRANCH  32  33
ATOM     33  C   UNL A   1      33.177  31.109  26.873  1.00  0.00     0.338 C 
ATOM     34  O   UNL A   1      32.350  31.895  27.307  1.00  0.00    -0.246 OA
BRANCH  33  35
ATOM     35  C   UNL A   1      34.471  30.831  27.523  1.00  0.00     0.060 A 
ATOM     36  C   UNL A   1      34.746  29.558  27.999  1.00  0.00     0.016 A 
ATOM     37  C   UNL A   1      35.418  31.856  27.663  1.00  0.00     0.016 A 
ATOM     38  C   UNL A   1      35.971  29.329  28.625  1.00  0.00     0.010 A 
ATOM     39  C   UNL A   1      36.634  31.621  28.323  1.00  0.00     0.010 A 
ATOM     40  C   UNL A   1      36.925  30.354  28.838  1.00  0.00    -0.014 A 
BRANCH  40  41
ATOM     41  C   UNL A   1      38.213  30.047  29.549  1.00  0.00     0.031 A 
ATOM     42  C   UNL A   1      38.576  30.633  30.903  1.00  0.00     0.074 A 
ATOM     43  C   UNL A   1      39.061  29.150  29.001  1.00  0.00     0.049 A 
ATOM     44  N   UNL A   1      39.591  30.331  31.680  1.00  0.00    -0.248 NA
ATOM     45  C   UNL A   1      37.691  31.662  31.472  1.00  0.00     0.031 C 
ATOM     46  C   UNL A   1      38.872  28.509  27.700  1.00  0.00     0.029 A 
ATOM     47  N   UNL A   1      40.234  28.609  29.470  1.00  0.00    -0.354 N 
ATOM     48  C   UNL A   1      39.460  31.110  32.826  1.00  0.00     0.074 A 
ATOM     49  C   UNL A   1      38.277  31.923  32.637  1.00  0.00     0.031 C 
ATOM     50  C   UNL A   1      39.862  27.630  27.495  1.00  0.00     0.029 A 
ATOM     51  C   UNL A   1      40.799  27.697  28.611  1.00  0.00     0.049 A 
ATOM     52  H   UNL A   1      40.632  28.852  30.338  1.00  0.00     0.167 HD
ATOM     53  C   UNL A   1      40.230  31.134  33.944  1.00  0.00     0.034 A 
ATOM     54  C   UNL A   1      41.954  27.006  28.676  1.00  0.00     0.034 A 
ATOM     55  C   UNL A   1      41.431  30.362  34.142  1.00  0.00     0.049 A 
ATOM     56  C   UNL A   1      42.855  27.150  29.864  1.00  0.00     0.074 A 
ATOM     57  C   UNL A   1      42.259  30.340  35.254  1.00  0.00     0.029 A 
ATOM     58  N   UNL A   1      41.997  29.509  33.212  1.00  0.00    -0.354 N 
ATOM     59  N   UNL A   1      42.649  27.816  30.972  1.00  0.00    -0.248 NA
ATOM     60  C   UNL A   1      44.143  26.441  29.815  1.00  0.00     0.031 C 
ATOM     61  C   UNL A   1      43.349  29.509  34.979  1.00  0.00     0.029 A 
ATOM     62  C   UNL A   1      43.182  28.987  33.708  1.00  0.00     0.049 A 
ATOM     63  H   UNL A   1      41.615  29.304  32.328  1.00  0.00     0.167 HD
ATOM     64  C   UNL A   1      43.775  27.599  31.758  1.00  0.00     0.074 A 
ATOM     65  C   UNL A   1      44.652  26.724  31.008  1.00  0.00     0.031 C 
ATOM     66  C   UNL A   1      44.052  28.099  32.984  1.00  0.00     0.034 A 
BRANCH  53  67
ATOM     67  C   UNL A   1      39.801  32.005  35.098  1.00  0.00     0.023 A 
ATOM     68  C   UNL A   1      40.055  33.390  35.040  1.00  0.00     0.012 A 
ATOM     69  C   UNL A   1      39.002  31.489  36.138  1.00  0.00     0.148 A 
ATOM     70  C   UNL A   1      39.519  34.250  35.999  1.00  0.00     0.002 A 
ATOM     71  C   UNL A   1      38.455  32.356  37.080  1.00  0.00     0.091 A 
ATOM     72  F   UNL A   1      38.770  30.170  36.167  1.00  0.00    -0.205 F 
ATOM     73  C   UNL A   1      38.712  33.735  37.011  1.00  0.00     0.022 A 
BRANCH  71  74
ATOM     74  S   UNL A   1      37.367  31.803  38.399  1.00  0.00     0.127 S 
ATOM     75  O   UNL A   1      38.193  32.048  39.581  1.00  0.00    -0.237 OA
ATOM     76  O   UNL A   1      36.225  32.704  38.255  1.00  0.00    -0.237 OA
ATOM     77  O   UNL A   1      37.083  30.401  38.126  1.00  0.00    -0.744 OA
ENDBRANCH  71  74
ENDBRANCH  53  67
BRANCH  54  78
ATOM     78  C   UNL A   1      42.315  26.113  27.543  1.00  0.00     0.023 A 
ATOM     79  C   UNL A   1      43.234  26.552  26.572  1.00  0.00     0.012 A 
ATOM     80  C   UNL A   1      41.815  24.798  27.483  1.00  0.00     0.148 A 
ATOM     81  C   UNL A   1      43.656  25.687  25.562  1.00  0.00     0.002 A 
ATOM     82  C   UNL A   1      42.276  23.928  26.506  1.00  0.00     0.091 A 
ATOM     83  F   UNL A   1      40.932  24.416  28.418  1.00  0.00    -0.205 F 
ATOM     84  C   UNL A   1      43.189  24.374  25.538  1.00  0.00     0.022 A 
BRANCH  82  85
ATOM     85  S   UNL A   1      41.824  22.192  26.472  1.00  0.00     0.127 S 
ATOM     86  O   UNL A   1      42.595  21.707  25.329  1.00  0.00    -0.237 OA
ATOM     87  O   UNL A   1      42.299  21.735  27.778  1.00  0.00    -0.237 OA
ATOM     88  O   UNL A   1      40.377  22.160  26.308  1.00  0.00    -0.744 OA
ENDBRANCH  82  85
ENDBRANCH  54  78
BRANCH  66  89
ATOM     89  C   UNL A   1      45.362  27.723  33.623  1.00  0.00     0.023 A 
ATOM     90  C   UNL A   1      46.500  28.520  33.390  1.00  0.00     0.012 A 
ATOM     91  C   UNL A   1      45.447  26.640  34.520  1.00  0.00     0.148 A 
ATOM     92  C   UNL A   1      47.706  28.238  34.031  1.00  0.00     0.002 A 
ATOM     93  C   UNL A   1      46.643  26.384  35.180  1.00  0.00     0.091 A 
ATOM     94  F   UNL A   1      44.353  25.891  34.719  1.00  0.00    -0.205 F 
ATOM     95  C   UNL A   1      47.775  27.178  34.932  1.00  0.00     0.022 A 
BRANCH  93  96
ATOM     96  S   UNL A   1      46.818  25.080  36.404  1.00  0.00     0.127 S 
ATOM     97  O   UNL A   1      46.821  23.882  35.564  1.00  0.00    -0.237 OA
ATOM     98  O   UNL A   1      48.109  25.401  37.014  1.00  0.00    -0.237 OA
ATOM     99  O   UNL A   1      45.674  25.207  37.297  1.00  0.00    -0.744 OA
ENDBRANCH  93  96
ENDBRANCH  66  89
ENDBRANCH  40  41
ENDBRANCH  33  35
ENDBRANCH  32  33
ENDBRANCH  31  32
ENDBRANCH  30  31
ENDBRANCH   1  30
TORSDOF 20
ENDMDL
MODEL 2
REMARK VINA RESULT:     -12.3      4.843      8.253
REMARK SMILES CC(C)(C)c1cc(Nc2ccccc2C(=O)OCCOCCOC(=O)c2ccc(-c3c4nc(c(-c5cccc(S(=O)(=O)[O-])c5F)c5ccc([nH]5)c(-c5cccc(S(=O)(=O)[O-])c5F)c5nc(c(-c6cccc(S(=O)(=O)[O-])c6F)c6ccc3[nH]6)C=C5)C=C4)cc2)cc2c1OCC2(C)C
REMARK SMILES IDX 20 1 19 2 18 3 17 4 15 5 16 6 14 7 9 8 10 9 11 10 13 11
REMARK SMILES IDX 12 12 8 13 7 15 5 16 6 17 91 18 90 19 92 20 89 21 94 22
REMARK SMILES IDX 93 23 95 24 96 25 2 26 1 27 3 28 4 29 21 30 22 31 23 32
REMARK SMILES IDX 24 33 25 34 26 35 27 36 88 37 28 38 87 39 29 40 30 41 31 42
REMARK SMILES IDX 81 43 32 44 86 45 80 46 82 47 33 48 85 49 79 50 78 51 34 53
REMARK SMILES IDX 66 54 46 55 65 56 47 57 50 58 64 59 83 60 48 61 49 62 63 64
REMARK SMILES IDX 84 65 51 66 35 67 36 68 44 69 37 70 39 71 45 72 38 73 40 74
REMARK SMILES IDX 41 75 42 76 43 77 67 78 68 79 76 80 69 81 71 82 77 83 70 84
REMARK SMILES IDX 72 85 73 86 74 87 75 88 52 89 53 90 61 91 54 92 56 93 62 94
REMARK SMILES IDX 55 95 57 96 58 97 59 98 60 99
REMARK H PARENT 8 14 82 52 50 63
REMARK Flexibility Score: inf
ROOT
ATOM      1  O   UNL A   1      35.302  22.214  26.495  1.00  0.00    -0.374 OA
ENDROOT
BRANCH   1   2
ATOM      2  C   UNL A   1      34.397  21.573  27.395  1.00  0.00     0.202 C 
BRANCH   2   3
ATOM      3  C   UNL A   1      33.333  22.463  28.043  1.00  0.00     0.261 C 
BRANCH   3   4
ATOM      4  O   UNL A   1      32.831  23.420  27.095  1.00  0.00    -0.460 OA
BRANCH   4   5
ATOM      5  C   UNL A   1      31.586  23.156  26.635  1.00  0.00     0.340 C 
ATOM      6  O   UNL A   1      30.546  23.302  27.262  1.00  0.00    -0.246 OA
BRANCH   5   7
ATOM      7  C   UNL A   1      31.589  22.807  25.190  1.00  0.00     0.083 A 
ATOM      8  C   UNL A   1      31.038  23.579  24.148  1.00  0.00     0.053 A 
ATOM      9  C   UNL A   1      31.265  23.126  22.830  1.00  0.00     0.027 A 
ATOM     10  C   UNL A   1      31.860  21.892  22.555  1.00  0.00     0.002 A 
ATOM     11  C   UNL A   1      32.176  21.554  24.903  1.00  0.00     0.018 A 
ATOM     12  C   UNL A   1      32.282  21.084  23.597  1.00  0.00     0.001 A 
BRANCH   8  13
ATOM     13  N   UNL A   1      30.173  24.682  24.361  1.00  0.00    -0.355 N 
ATOM     14  H   UNL A   1      29.221  24.460  24.479  1.00  0.00     0.167 HD
BRANCH  13  15
ATOM     15  C   UNL A   1      30.492  26.064  24.428  1.00  0.00     0.039 A 
ATOM     16  C   UNL A   1      29.954  28.423  23.809  1.00  0.00     0.002 A 
ATOM     17  C   UNL A   1      29.733  27.019  23.709  1.00  0.00     0.034 A 
ATOM     18  C   UNL A   1      30.962  28.809  24.694  1.00  0.00     0.127 A 
ATOM     19  C   UNL A   1      31.716  27.892  25.407  1.00  0.00     0.006 A 
ATOM     20  O   UNL A   1      31.315  30.104  24.974  1.00  0.00    -0.492 OA
ATOM     21  C   UNL A   1      31.511  26.532  25.262  1.00  0.00     0.034 A 
ATOM     22  C   UNL A   1      32.647  28.585  26.342  1.00  0.00     0.028 C 
ATOM     23  C   UNL A   1      32.476  30.026  25.828  1.00  0.00     0.240 C 
ATOM     24  C   UNL A   1      32.147  28.432  27.784  1.00  0.00     0.020 C 
ATOM     25  C   UNL A   1      34.094  28.105  26.223  1.00  0.00     0.020 C 
BRANCH  16  26
ATOM     26  C   UNL A   1      29.203  29.457  22.942  1.00  0.00    -0.009 C 
ATOM     27  C   UNL A   1      29.962  29.885  21.673  1.00  0.00     0.016 C 
ATOM     28  C   UNL A   1      28.849  30.751  23.706  1.00  0.00     0.016 C 
ATOM     29  C   UNL A   1      27.874  28.829  22.505  1.00  0.00     0.016 C 
ENDBRANCH  16  26
ENDBRANCH  13  15
ENDBRANCH   8  13
ENDBRANCH   5   7
ENDBRANCH   4   5
ENDBRANCH   3   4
ENDBRANCH   2   3
ENDBRANCH   1   2
BRANCH   1  30
ATOM     30  C   UNL A   1      35.876  21.395  25.475  1.00  0.00     0.202 C 
BRANCH  30  31
ATOM     31  C   UNL A   1      37.407  21.386  25.364  1.00  0.00     0.261 C 
BRANCH  31  32
ATOM     32  O   UNL A   1      37.995  22.652  25.701  1.00  0.00    -0.460 OA
BRANCH  32  33
ATOM     33  C   UNL A   1      39.133  22.594  26.438  1.00  0.00     0.338 C 
ATOM     34  O   UNL A   1      39.855  21.623  26.607  1.00  0.00    -0.246 OA
BRANCH  33  35
ATOM     35  C   UNL A   1      39.479  23.962  26.867  1.00  0.00     0.060 A 
ATOM     36  C   UNL A   1      40.049  24.846  25.964  1.00  0.00     0.016 A 
ATOM     37  C   UNL A   1      39.236  24.363  28.189  1.00  0.00     0.016 A 
ATOM     38  C   UNL A   1      40.382  26.128  26.402  1.00  0.00     0.010 A 
ATOM     39  C   UNL A   1      39.603  25.645  28.626  1.00  0.00     0.010 A 
ATOM     40  C   UNL A   1      40.206  26.547  27.744  1.00  0.00    -0.014 A 
BRANCH  40  41
ATOM     41  C   UNL A   1      40.615  27.932  28.159  1.00  0.00     0.031 A 
ATOM     42  C   UNL A   1      39.629  28.984  28.635  1.00  0.00     0.074 A 
ATOM     43  C   UNL A   1      41.930  28.240  28.186  1.00  0.00     0.049 A 
ATOM     44  N   UNL A   1      39.878  30.165  29.156  1.00  0.00    -0.248 NA
ATOM     45  C   UNL A   1      38.192  28.679  28.542  1.00  0.00     0.031 C 
ATOM     46  C   UNL A   1      43.006  27.352  27.746  1.00  0.00     0.029 A 
ATOM     47  N   UNL A   1      42.586  29.369  28.616  1.00  0.00    -0.354 N 
ATOM     48  C   UNL A   1      38.644  30.730  29.467  1.00  0.00     0.074 A 
ATOM     49  C   UNL A   1      37.638  29.775  29.053  1.00  0.00     0.031 C 
ATOM     50  C   UNL A   1      44.185  27.946  27.970  1.00  0.00     0.029 A 
ATOM     51  C   UNL A   1      43.953  29.286  28.498  1.00  0.00     0.049 A 
ATOM     52  H   UNL A   1      42.122  30.161  28.972  1.00  0.00     0.167 HD
ATOM     53  C   UNL A   1      38.367  31.918  30.062  1.00  0.00     0.034 A 
ATOM     54  C   UNL A   1      44.927  30.183  28.748  1.00  0.00     0.034 A 
ATOM     55  C   UNL A   1      39.347  32.901  30.451  1.00  0.00     0.049 A 
ATOM     56  C   UNL A   1      44.585  31.540  29.283  1.00  0.00     0.074 A 
ATOM     57  C   UNL A   1      39.132  34.128  31.060  1.00  0.00     0.029 A 
ATOM     58  N   UNL A   1      40.711  32.798  30.242  1.00  0.00    -0.354 N 
ATOM     59  N   UNL A   1      43.420  32.001  29.660  1.00  0.00    -0.248 NA
ATOM     60  C   UNL A   1      45.692  32.496  29.436  1.00  0.00     0.031 C 
ATOM     61  C   UNL A   1      40.361  34.784  31.180  1.00  0.00     0.029 A 
ATOM     62  C   UNL A   1      41.345  33.952  30.675  1.00  0.00     0.049 A 
ATOM     63  H   UNL A   1      41.164  32.019  29.846  1.00  0.00     0.167 HD
ATOM     64  C   UNL A   1      43.653  33.298  30.105  1.00  0.00     0.074 A 
ATOM     65  C   UNL A   1      45.073  33.542  29.968  1.00  0.00     0.031 C 
ATOM     66  C   UNL A   1      42.758  34.201  30.568  1.00  0.00     0.034 A 
BRANCH  53  67
ATOM     67  C   UNL A   1      36.932  32.247  30.385  1.00  0.00     0.023 A 
ATOM     68  C   UNL A   1      36.444  31.979  31.679  1.00  0.00     0.012 A 
ATOM     69  C   UNL A   1      36.133  32.973  29.479  1.00  0.00     0.148 A 
ATOM     70  C   UNL A   1      35.182  32.431  32.069  1.00  0.00     0.002 A 
ATOM     71  C   UNL A   1      34.883  33.436  29.881  1.00  0.00     0.091 A 
ATOM     72  F   UNL A   1      36.622  33.219  28.255  1.00  0.00    -0.205 F 
ATOM     73  C   UNL A   1      34.408  33.167  31.175  1.00  0.00     0.022 A 
BRANCH  71  74
ATOM     74  S   UNL A   1      33.824  34.429  28.822  1.00  0.00     0.127 S 
ATOM     75  O   UNL A   1      33.408  33.447  27.821  1.00  0.00    -0.237 OA
ATOM     76  O   UNL A   1      32.768  34.845  29.745  1.00  0.00    -0.237 OA
ATOM     77  O   UNL A   1      34.658  35.509  28.315  1.00  0.00    -0.744 OA
ENDBRANCH  71  74
ENDBRANCH  53  67
BRANCH  54  78
ATOM     78  C   UNL A   1      46.337  29.800  28.470  1.00  0.00     0.023 A 
ATOM     79  C   UNL A   1      46.929  30.153  27.244  1.00  0.00     0.012 A 
ATOM     80  C   UNL A   1      47.113  29.169  29.462  1.00  0.00     0.148 A 
ATOM     81  C   UNL A   1      48.279  29.888  27.014  1.00  0.00     0.002 A 
ATOM     82  C   UNL A   1      48.466  28.954  29.245  1.00  0.00     0.091 A 
ATOM     83  F   UNL A   1      46.514  28.837  30.615  1.00  0.00    -0.205 F 
ATOM     84  C   UNL A   1      49.049  29.303  28.018  1.00  0.00     0.022 A 
BRANCH  82  85
ATOM     85  S   UNL A   1      49.556  28.319  30.521  1.00  0.00     0.127 S 
ATOM     86  O   UNL A   1      49.379  29.308  31.582  1.00  0.00    -0.237 OA
ATOM     87  O   UNL A   1      48.965  27.009  30.793  1.00  0.00    -0.237 OA
ATOM     88  O   UNL A   1      50.884  28.273  29.925  1.00  0.00    -0.744 OA
ENDBRANCH  82  85
ENDBRANCH  54  78
BRANCH  66  89
ATOM     89  C   UNL A   1      43.266  35.558  30.974  1.00  0.00     0.023 A 
ATOM     90  C   UNL A   1      43.696  35.769  32.298  1.00  0.00     0.012 A 
ATOM     91  C   UNL A   1      43.403  36.593  30.027  1.00  0.00     0.148 A 
ATOM     92  C   UNL A   1      44.243  36.994  32.679  1.00  0.00     0.002 A 
ATOM     93  C   UNL A   1      43.979  37.800  30.405  1.00  0.00     0.091 A 
ATOM     94  F   UNL A   1      42.979  36.371  28.775  1.00  0.00    -0.205 F 
ATOM     95  C   UNL A   1      44.393  38.004  31.732  1.00  0.00     0.022 A 
BRANCH  93  96
ATOM     96  S   UNL A   1      44.271  39.142  29.247  1.00  0.00     0.127 S 
ATOM     97  O   UNL A   1      44.955  40.121  30.092  1.00  0.00    -0.237 OA
ATOM     98  O   UNL A   1      45.121  38.503  28.242  1.00  0.00    -0.237 OA
ATOM     99  O   UNL A   1      42.959  39.552  28.763  1.00  0.00    -0.744 OA
ENDBRANCH  93  96
ENDBRANCH  66  89
ENDBRANCH  40  41
ENDBRANCH  33  35
ENDBRANCH  32  33
ENDBRANCH  31  32
ENDBRANCH  30  31
ENDBRANCH   1  30
TORSDOF 20
ENDMDL
MODEL 3
REMARK VINA RESULT:     -12.0      1.430      7.610
REMARK SMILES CC(C)(C)c1cc(Nc2ccccc2C(=O)OCCOCCOC(=O)c2ccc(-c3c4nc(c(-c5cccc(S(=O)(=O)[O-])c5F)c5ccc([nH]5)c(-c5cccc(S(=O)(=O)[O-])c5F)c5nc(c(-c6cccc(S(=O)(=O)[O-])c6F)c6ccc3[nH]6)C=C5)C=C4)cc2)cc2c1OCC2(C)C
REMARK SMILES IDX 20 1 19 2 18 3 17 4 15 5 16 6 14 7 9 8 10 9 11 10 13 11
REMARK SMILES IDX 12 12 8 13 7 15 5 16 6 17 91 18 90 19 92 20 89 21 94 22
REMARK SMILES IDX 93 23 95 24 96 25 2 26 1 27 3 28 4 29 21 30 22 31 23 32
REMARK SMILES IDX 24 33 25 34 26 35 27 36 88 37 28 38 87 39 29 40 30 41 31 42
REMARK SMILES IDX 81 43 32 44 86 45 80 46 82 47 33 48 85 49 79 50 78 51 34 53
REMARK SMILES IDX 66 54 46 55 65 56 47 57 50 58 64 59 83 60 48 61 49 62 63 64
REMARK SMILES IDX 84 65 51 66 35 67 36 68 44 69 37 70 39 71 45 72 38 73 40 74
REMARK SMILES IDX 41 75 42 76 43 77 67 78 68 79 76 80 69 81 71 82 77 83 70 84
REMARK SMILES IDX 72 85 73 86 74 87 75 88 52 89 53 90 61 91 54 92 56 93 62 94
REMARK SMILES IDX 55 95 57 96 58 97 59 98 60 99
REMARK H PARENT 8 14 82 52 50 63
REMARK Flexibility Score: inf
ROOT
ATOM      1  O   UNL A   1      32.444  30.167  27.335  1.00  0.00    -0.374 OA
ENDROOT
BRANCH   1   2
ATOM      2  C   UNL A   1      32.583  28.825  26.866  1.00  0.00     0.202 C 
BRANCH   2   3
ATOM      3  C   UNL A   1      31.432  27.867  27.183  1.00  0.00     0.261 C 
BRANCH   3   4
ATOM      4  O   UNL A   1      31.761  26.530  26.771  1.00  0.00    -0.460 OA
BRANCH   4   5
ATOM      5  C   UNL A   1      30.773  25.887  26.107  1.00  0.00     0.340 C 
ATOM      6  O   UNL A   1      29.705  25.529  26.585  1.00  0.00    -0.246 OA
BRANCH   5   7
ATOM      7  C   UNL A   1      31.051  25.791  24.650  1.00  0.00     0.083 A 
ATOM      8  C   UNL A   1      31.149  24.603  23.899  1.00  0.00     0.053 A 
ATOM      9  C   UNL A   1      31.290  24.742  22.501  1.00  0.00     0.027 A 
ATOM     10  C   UNL A   1      31.490  25.982  21.888  1.00  0.00     0.002 A 
ATOM     11  C   UNL A   1      31.268  27.040  24.024  1.00  0.00     0.018 A 
ATOM     12  C   UNL A   1      31.519  27.132  22.658  1.00  0.00     0.001 A 
BRANCH   8  13
ATOM     13  N   UNL A   1      31.251  23.313  24.480  1.00  0.00    -0.355 N 
ATOM     14  H   UNL A   1      30.451  22.998  24.959  1.00  0.00     0.167 HD
BRANCH  13  15
ATOM     15  C   UNL A   1      32.349  22.414  24.463  1.00  0.00     0.039 A 
ATOM     16  C   UNL A   1      34.801  22.016  24.723  1.00  0.00     0.002 A 
ATOM     17  C   UNL A   1      33.673  22.883  24.644  1.00  0.00     0.034 A 
ATOM     18  C   UNL A   1      34.515  20.652  24.639  1.00  0.00     0.127 A 
ATOM     19  C   UNL A   1      33.229  20.172  24.463  1.00  0.00     0.006 A 
ATOM     20  O   UNL A   1      35.440  19.644  24.732  1.00  0.00    -0.492 OA
ATOM     21  C   UNL A   1      32.154  21.035  24.346  1.00  0.00     0.034 A 
ATOM     22  C   UNL A   1      33.209  18.683  24.506  1.00  0.00     0.028 C 
ATOM     23  C   UNL A   1      34.725  18.420  24.458  1.00  0.00     0.240 C 
ATOM     24  C   UNL A   1      32.590  18.208  25.827  1.00  0.00     0.020 C 
ATOM     25  C   UNL A   1      32.484  18.051  23.317  1.00  0.00     0.020 C 
BRANCH  16  26
ATOM     26  C   UNL A   1      36.254  22.532  24.807  1.00  0.00    -0.009 C 
ATOM     27  C   UNL A   1      36.928  22.741  23.439  1.00  0.00     0.016 C 
ATOM     28  C   UNL A   1      37.183  21.608  25.623  1.00  0.00     0.016 C 
ATOM     29  C   UNL A   1      36.233  23.883  25.532  1.00  0.00     0.016 C 
ENDBRANCH  16  26
ENDBRANCH  13  15
ENDBRANCH   8  13
ENDBRANCH   5   7
ENDBRANCH   4   5
ENDBRANCH   3   4
ENDBRANCH   2   3
ENDBRANCH   1   2
BRANCH   1  30
ATOM     30  C   UNL A   1      31.705  31.062  26.502  1.00  0.00     0.202 C 
BRANCH  30  31
ATOM     31  C   UNL A   1      31.754  32.553  26.861  1.00  0.00     0.261 C 
BRANCH  31  32
ATOM     32  O   UNL A   1      33.086  33.091  26.818  1.00  0.00    -0.460 OA
BRANCH  32  33
ATOM     33  C   UNL A   1      33.489  33.752  27.933  1.00  0.00     0.338 C 
ATOM     34  O   UNL A   1      32.927  34.688  28.480  1.00  0.00    -0.246 OA
BRANCH  33  35
ATOM     35  C   UNL A   1      34.642  33.034  28.507  1.00  0.00     0.060 A 
ATOM     36  C   UNL A   1      34.437  31.895  29.271  1.00  0.00     0.016 A 
ATOM     37  C   UNL A   1      35.943  33.507  28.282  1.00  0.00     0.016 A 
ATOM     38  C   UNL A   1      35.544  31.247  29.816  1.00  0.00     0.010 A 
ATOM     39  C   UNL A   1      37.047  32.864  28.861  1.00  0.00     0.010 A 
ATOM     40  C   UNL A   1      36.867  31.730  29.660  1.00  0.00    -0.014 A 
BRANCH  40  41
ATOM     41  C   UNL A   1      38.015  31.002  30.300  1.00  0.00     0.031 A 
ATOM     42  C   UNL A   1      38.822  29.931  29.588  1.00  0.00     0.074 A 
ATOM     43  C   UNL A   1      38.403  31.365  31.542  1.00  0.00     0.049 A 
ATOM     44  N   UNL A   1      39.924  29.335  29.985  1.00  0.00    -0.248 NA
ATOM     45  C   UNL A   1      38.362  29.482  28.264  1.00  0.00     0.031 C 
ATOM     46  C   UNL A   1      37.727  32.362  32.371  1.00  0.00     0.029 A 
ATOM     47  N   UNL A   1      39.463  30.955  32.315  1.00  0.00    -0.354 N 
ATOM     48  C   UNL A   1      40.295  28.464  28.964  1.00  0.00     0.074 A 
ATOM     49  C   UNL A   1      39.287  28.587  27.933  1.00  0.00     0.031 C 
ATOM     50  C   UNL A   1      38.411  32.523  33.511  1.00  0.00     0.029 A 
ATOM     51  C   UNL A   1      39.530  31.587  33.533  1.00  0.00     0.049 A 
ATOM     52  H   UNL A   1      40.112  30.273  32.023  1.00  0.00     0.167 HD
ATOM     53  C   UNL A   1      41.383  27.657  28.875  1.00  0.00     0.034 A 
ATOM     54  C   UNL A   1      40.366  31.428  34.577  1.00  0.00     0.034 A 
ATOM     55  C   UNL A   1      42.381  27.491  29.901  1.00  0.00     0.049 A 
ATOM     56  C   UNL A   1      41.484  30.433  34.505  1.00  0.00     0.074 A 
ATOM     57  C   UNL A   1      43.510  26.687  29.873  1.00  0.00     0.029 A 
ATOM     58  N   UNL A   1      42.361  28.100  31.144  1.00  0.00    -0.354 N 
ATOM     59  N   UNL A   1      41.866  29.703  33.488  1.00  0.00    -0.248 NA
ATOM     60  C   UNL A   1      42.291  30.245  35.720  1.00  0.00     0.031 C 
ATOM     61  C   UNL A   1      44.148  26.775  31.114  1.00  0.00     0.029 A 
ATOM     62  C   UNL A   1      43.435  27.661  31.903  1.00  0.00     0.049 A 
ATOM     63  H   UNL A   1      41.685  28.749  31.443  1.00  0.00     0.167 HD
ATOM     64  C   UNL A   1      42.963  28.977  33.935  1.00  0.00     0.074 A 
ATOM     65  C   UNL A   1      43.198  29.368  35.309  1.00  0.00     0.031 C 
ATOM     66  C   UNL A   1      43.695  28.058  33.261  1.00  0.00     0.034 A 
BRANCH  53  67
ATOM     67  C   UNL A   1      41.607  26.886  27.599  1.00  0.00     0.023 A 
ATOM     68  C   UNL A   1      42.083  27.570  26.462  1.00  0.00     0.012 A 
ATOM     69  C   UNL A   1      41.520  25.480  27.576  1.00  0.00     0.148 A 
ATOM     70  C   UNL A   1      42.471  26.867  25.321  1.00  0.00     0.002 A 
ATOM     71  C   UNL A   1      41.927  24.783  26.441  1.00  0.00     0.091 A 
ATOM     72  F   UNL A   1      41.070  24.853  28.671  1.00  0.00    -0.205 F 
ATOM     73  C   UNL A   1      42.403  25.475  25.315  1.00  0.00     0.022 A 
BRANCH  71  74
ATOM     74  S   UNL A   1      41.921  22.989  26.343  1.00  0.00     0.127 S 
ATOM     75  O   UNL A   1      40.487  22.701  26.369  1.00  0.00    -0.237 OA
ATOM     76  O   UNL A   1      42.568  22.748  25.055  1.00  0.00    -0.237 OA
ATOM     77  O   UNL A   1      42.665  22.519  27.504  1.00  0.00    -0.744 OA
ENDBRANCH  71  74
ENDBRANCH  53  67
BRANCH  54  78
ATOM     78  C   UNL A   1      40.147  32.248  35.798  1.00  0.00     0.023 A 
ATOM     79  C   UNL A   1      40.893  33.423  35.995  1.00  0.00     0.012 A 
ATOM     80  C   UNL A   1      39.132  31.906  36.713  1.00  0.00     0.148 A 
ATOM     81  C   UNL A   1      40.625  34.252  37.085  1.00  0.00     0.002 A 
ATOM     82  C   UNL A   1      38.837  32.760  37.766  1.00  0.00     0.091 A 
ATOM     83  F   UNL A   1      38.446  30.773  36.501  1.00  0.00    -0.205 F 
ATOM     84  C   UNL A   1      39.589  33.929  37.960  1.00  0.00     0.022 A 
BRANCH  82  85
ATOM     85  S   UNL A   1      37.447  32.486  38.867  1.00  0.00     0.127 S 
ATOM     86  O   UNL A   1      37.760  33.391  39.971  1.00  0.00    -0.237 OA
ATOM     87  O   UNL A   1      36.319  32.898  38.030  1.00  0.00    -0.237 OA
ATOM     88  O   UNL A   1      37.471  31.067  39.195  1.00  0.00    -0.744 OA
ENDBRANCH  82  85
ENDBRANCH  54  78
BRANCH  66  89
ATOM     89  C   UNL A   1      44.834  27.392  33.983  1.00  0.00     0.023 A 
ATOM     90  C   UNL A   1      46.110  27.989  33.963  1.00  0.00     0.012 A 
ATOM     91  C   UNL A   1      44.625  26.231  34.753  1.00  0.00     0.148 A 
ATOM     92  C   UNL A   1      47.164  27.432  34.688  1.00  0.00     0.002 A 
ATOM     93  C   UNL A   1      45.671  25.700  35.499  1.00  0.00     0.091 A 
ATOM     94  F   UNL A   1      43.404  25.676  34.750  1.00  0.00    -0.205 F 
ATOM     95  C   UNL A   1      46.942  26.296  35.462  1.00  0.00     0.022 A 
BRANCH  93  96
ATOM     96  S   UNL A   1      45.473  24.275  36.574  1.00  0.00     0.127 S 
ATOM     97  O   UNL A   1      44.593  24.807  37.615  1.00  0.00    -0.237 OA
ATOM     98  O   UNL A   1      44.843  23.300  35.683  1.00  0.00    -0.237 OA
ATOM     99  O   UNL A   1      46.812  23.915  37.020  1.00  0.00    -0.744 OA
ENDBRANCH  93  96
ENDBRANCH  66  89
ENDBRANCH  40  41
ENDBRANCH  33  35
ENDBRANCH  32  33
ENDBRANCH  31  32
ENDBRANCH  30  31
ENDBRANCH   1  30
TORSDOF 20
ENDMDL
