MODEL 1
REMARK VINA RESULT:     -11.3      0.000      0.000
REMARK SMILES CCOc1cc2c(cc1/C=C1/C(=O)N(c3cccc(C(=O)OCCOCCOC(=O)c4ccc(-c5c6nc(c(-c7cccc(S(=O)(=O)[O-])c7F)c7ccc([nH]7)c(-c7cccc(S(=O)(=O)[O-])c7F)c7nc(c(-c8cccc(S(=O)(=O)[O-])c8F)c8ccc5[nH]8)C=C7)C=C6)cc4)c3)C(=S)N=C1O)OCO2
REMARK SMILES IDX 24 1 23 2 22 3 20 4 21 5 19 6 15 7 16 8 94 9 17 10 18 11
REMARK SMILES IDX 14 12 10 13 11 14 12 15 98 16 13 17 97 18 95 19 96 20 9 21
REMARK SMILES IDX 4 22 5 23 6 24 8 25 7 26 102 27 100 28 101 29 3 30 2 31 1 32
REMARK SMILES IDX 99 33 25 35 26 36 27 37 28 38 29 39 30 40 31 41 32 42 93 43
REMARK SMILES IDX 33 44 92 45 34 46 35 47 36 48 86 49 37 50 91 51 85 52 87 53
REMARK SMILES IDX 38 54 90 55 84 56 83 57 39 59 71 60 51 61 70 62 52 63 55 64
REMARK SMILES IDX 69 65 88 66 53 67 54 68 68 70 89 71 56 72 40 73 41 74 49 75
REMARK SMILES IDX 42 76 44 77 50 78 43 79 45 80 46 81 47 82 48 83 72 84 73 85
REMARK SMILES IDX 81 86 74 87 76 88 82 89 75 90 77 91 78 92 79 93 80 94 57 95
REMARK SMILES IDX 58 96 66 97 59 98 61 99 67 100 60 101 62 102 63 103 64 104
REMARK SMILES IDX 65 105
REMARK H PARENT 99 34 87 58 55 69
REMARK Flexibility Score: inf
ROOT
ATOM      1  C   UNL A   1      39.246  22.085  26.395  1.00  0.00     0.202 C 
ENDROOT
BRANCH   1   2
ATOM      2  C   UNL A   1      38.638  21.185  25.315  1.00  0.00     0.261 C 
BRANCH   2   3
ATOM      3  O   UNL A   1      37.203  21.198  25.367  1.00  0.00    -0.460 OA
BRANCH   3   4
ATOM      4  C   UNL A   1      36.599  20.053  24.970  1.00  0.00     0.338 C 
ATOM      5  O   UNL A   1      37.109  18.946  24.870  1.00  0.00    -0.246 OA
BRANCH   4   6
ATOM      6  C   UNL A   1      35.136  20.272  24.877  1.00  0.00     0.062 A 
ATOM      7  C   UNL A   1      33.136  21.625  25.172  1.00  0.00     0.052 A 
ATOM      8  C   UNL A   1      32.368  20.514  24.771  1.00  0.00     0.027 A 
ATOM      9  C   UNL A   1      34.532  21.494  25.211  1.00  0.00     0.042 A 
ATOM     10  C   UNL A   1      32.968  19.294  24.452  1.00  0.00     0.003 A 
ATOM     11  C   UNL A   1      34.350  19.174  24.505  1.00  0.00     0.016 A 
BRANCH   7  12
ATOM     12  N   UNL A   1      32.490  22.877  25.493  1.00  0.00    -0.251 N 
ATOM     13  C   UNL A   1      31.327  25.951  23.850  1.00  0.00     0.031 C 
ATOM     14  C   UNL A   1      31.408  24.971  24.786  1.00  0.00     0.103 C 
ATOM     15  C   UNL A   1      32.167  23.728  24.418  1.00  0.00     0.270 C 
ATOM     16  C   UNL A   1      30.823  24.901  26.123  1.00  0.00     0.226 C 
ATOM     17  O   UNL A   1      32.416  23.481  23.238  1.00  0.00    -0.268 OA
ATOM     18  N   UNL A   1      31.151  24.096  27.060  1.00  0.00    -0.184 NA
ATOM     19  C   UNL A   1      32.157  23.191  26.830  1.00  0.00     0.210 C 
ATOM     20  S   UNL A   1      32.933  22.538  28.198  1.00  0.00    -0.038 S 
BRANCH  13  21
ATOM     21  C   UNL A   1      30.626  27.265  23.837  1.00  0.00     0.021 A 
ATOM     22  C   UNL A   1      31.221  28.420  24.422  1.00  0.00     0.130 A 
ATOM     23  C   UNL A   1      30.694  29.703  24.215  1.00  0.00     0.097 A 
ATOM     24  C   UNL A   1      29.513  29.806  23.526  1.00  0.00     0.169 A 
ATOM     25  C   UNL A   1      29.356  27.420  23.259  1.00  0.00     0.062 A 
ATOM     26  C   UNL A   1      28.849  28.693  23.083  1.00  0.00     0.166 A 
ATOM     27  O   UNL A   1      28.868  30.961  23.217  1.00  0.00    -0.453 OA
ATOM     28  O   UNL A   1      27.693  29.005  22.437  1.00  0.00    -0.454 OA
ATOM     29  C   UNL A   1      27.718  30.445  22.519  1.00  0.00     0.468 C 
BRANCH  22  30
ATOM     30  O   UNL A   1      32.379  28.333  25.161  1.00  0.00    -0.493 OA
BRANCH  30  31
ATOM     31  C   UNL A   1      32.121  28.449  26.580  1.00  0.00     0.226 C 
ATOM     32  C   UNL A   1      32.969  29.523  27.254  1.00  0.00     0.049 C 
ENDBRANCH  30  31
ENDBRANCH  22  30
ENDBRANCH  13  21
BRANCH  16  33
ATOM     33  O   UNL A   1      29.794  25.701  26.394  1.00  0.00    -0.493 OA
ATOM     34  H   UNL A   1      28.998  25.621  25.909  1.00  0.00     0.295 HD
ENDBRANCH  16  33
ENDBRANCH   7  12
ENDBRANCH   4   6
ENDBRANCH   3   4
ENDBRANCH   2   3
ENDBRANCH   1   2
BRANCH   1  35
ATOM     35  O   UNL A   1      40.117  21.469  27.346  1.00  0.00    -0.374 OA
BRANCH  35  36
ATOM     36  C   UNL A   1      40.781  20.270  26.947  1.00  0.00     0.202 C 
BRANCH  36  37
ATOM     37  C   UNL A   1      42.105  20.406  26.184  1.00  0.00     0.261 C 
BRANCH  37  38
ATOM     38  O   UNL A   1      42.891  21.523  26.627  1.00  0.00    -0.460 OA
BRANCH  38  39
ATOM     39  C   UNL A   1      42.929  22.554  25.748  1.00  0.00     0.338 C 
ATOM     40  O   UNL A   1      42.986  22.481  24.531  1.00  0.00    -0.246 OA
BRANCH  39  41
ATOM     41  C   UNL A   1      42.706  23.832  26.449  1.00  0.00     0.060 A 
ATOM     42  C   UNL A   1      42.553  24.973  25.653  1.00  0.00     0.016 A 
ATOM     43  C   UNL A   1      42.734  23.933  27.842  1.00  0.00     0.016 A 
ATOM     44  C   UNL A   1      42.504  26.230  26.244  1.00  0.00     0.010 A 
ATOM     45  C   UNL A   1      42.680  25.200  28.434  1.00  0.00     0.010 A 
ATOM     46  C   UNL A   1      42.616  26.357  27.635  1.00  0.00    -0.014 A 
BRANCH  46  47
ATOM     47  C   UNL A   1      42.786  27.712  28.214  1.00  0.00     0.031 A 
ATOM     48  C   UNL A   1      44.157  28.328  28.276  1.00  0.00     0.074 A 
ATOM     49  C   UNL A   1      41.714  28.410  28.633  1.00  0.00     0.049 A 
ATOM     50  N   UNL A   1      44.506  29.528  28.664  1.00  0.00    -0.248 NA
ATOM     51  C   UNL A   1      45.285  27.484  27.849  1.00  0.00     0.031 C 
ATOM     52  C   UNL A   1      40.339  27.913  28.639  1.00  0.00     0.029 A 
ATOM     53  N   UNL A   1      41.619  29.680  29.140  1.00  0.00    -0.354 N 
ATOM     54  C   UNL A   1      45.892  29.574  28.557  1.00  0.00     0.074 A 
ATOM     55  C   UNL A   1      46.321  28.276  28.084  1.00  0.00     0.031 C 
ATOM     56  C   UNL A   1      39.535  28.867  29.138  1.00  0.00     0.029 A 
ATOM     57  C   UNL A   1      40.341  30.030  29.505  1.00  0.00     0.049 A 
ATOM     58  H   UNL A   1      42.391  30.284  29.233  1.00  0.00     0.167 HD
ATOM     59  C   UNL A   1      46.729  30.607  28.815  1.00  0.00     0.034 A 
ATOM     60  C   UNL A   1      39.875  31.155  30.082  1.00  0.00     0.034 A 
ATOM     61  C   UNL A   1      46.296  31.903  29.268  1.00  0.00     0.049 A 
ATOM     62  C   UNL A   1      40.822  32.294  30.346  1.00  0.00     0.074 A 
ATOM     63  C   UNL A   1      47.060  33.035  29.492  1.00  0.00     0.029 A 
ATOM     64  N   UNL A   1      44.988  32.235  29.587  1.00  0.00    -0.354 N 
ATOM     65  N   UNL A   1      42.111  32.367  30.114  1.00  0.00    -0.248 NA
ATOM     66  C   UNL A   1      40.244  33.522  30.909  1.00  0.00     0.031 C 
ATOM     67  C   UNL A   1      46.222  34.036  29.992  1.00  0.00     0.029 A 
ATOM     68  C   UNL A   1      44.925  33.547  30.026  1.00  0.00     0.049 A 
ATOM     69  H   UNL A   1      44.218  31.627  29.513  1.00  0.00     0.167 HD
ATOM     70  C   UNL A   1      42.490  33.657  30.466  1.00  0.00     0.074 A 
ATOM     71  C   UNL A   1      41.289  34.337  30.909  1.00  0.00     0.031 C 
ATOM     72  C   UNL A   1      43.720  34.227  30.429  1.00  0.00     0.034 A 
BRANCH  59  73
ATOM     73  C   UNL A   1      48.206  30.382  28.609  1.00  0.00     0.023 A 
ATOM     74  C   UNL A   1      48.805  30.694  27.371  1.00  0.00     0.012 A 
ATOM     75  C   UNL A   1      49.011  29.907  29.663  1.00  0.00     0.148 A 
ATOM     76  C   UNL A   1      50.172  30.502  27.174  1.00  0.00     0.002 A 
ATOM     77  C   UNL A   1      50.381  29.765  29.476  1.00  0.00     0.091 A 
ATOM     78  F   UNL A   1      48.422  29.593  30.826  1.00  0.00    -0.205 F 
ATOM     79  C   UNL A   1      50.961  30.049  28.229  1.00  0.00     0.022 A 
BRANCH  77  80
ATOM     80  S   UNL A   1      51.492  29.270  30.797  1.00  0.00     0.127 S 
ATOM     81  O   UNL A   1      51.670  27.846  30.515  1.00  0.00    -0.237 OA
ATOM     82  O   UNL A   1      52.670  30.096  30.534  1.00  0.00    -0.237 OA
ATOM     83  O   UNL A   1      50.800  29.578  32.041  1.00  0.00    -0.744 OA
ENDBRANCH  77  80
ENDBRANCH  59  73
BRANCH  60  84
ATOM     84  C   UNL A   1      38.427  31.264  30.413  1.00  0.00     0.023 A 
ATOM     85  C   UNL A   1      37.942  30.761  31.635  1.00  0.00     0.012 A 
ATOM     86  C   UNL A   1      37.536  31.904  29.529  1.00  0.00     0.148 A 
ATOM     87  C   UNL A   1      36.589  30.867  31.959  1.00  0.00     0.002 A 
ATOM     88  C   UNL A   1      36.201  32.060  29.884  1.00  0.00     0.091 A 
ATOM     89  F   UNL A   1      38.017  32.365  28.366  1.00  0.00    -0.205 F 
ATOM     90  C   UNL A   1      35.722  31.525  31.090  1.00  0.00     0.022 A 
BRANCH  88  91
ATOM     91  S   UNL A   1      35.048  33.012  28.891  1.00  0.00     0.127 S 
ATOM     92  O   UNL A   1      35.126  32.330  27.602  1.00  0.00    -0.237 OA
ATOM     93  O   UNL A   1      33.793  32.817  29.619  1.00  0.00    -0.237 OA
ATOM     94  O   UNL A   1      35.543  34.383  28.909  1.00  0.00    -0.744 OA
ENDBRANCH  88  91
ENDBRANCH  60  84
BRANCH  72  95
ATOM     95  C   UNL A   1      43.834  35.677  30.829  1.00  0.00     0.023 A 
ATOM     96  C   UNL A   1      44.140  36.027  32.159  1.00  0.00     0.012 A 
ATOM     97  C   UNL A   1      43.689  36.695  29.865  1.00  0.00     0.148 A 
ATOM     98  C   UNL A   1      44.253  37.366  32.532  1.00  0.00     0.002 A 
ATOM     99  C   UNL A   1      43.858  38.024  30.231  1.00  0.00     0.091 A 
ATOM    100  F   UNL A   1      43.381  36.345  28.607  1.00  0.00    -0.205 F 
ATOM    101  C   UNL A   1      44.124  38.363  31.568  1.00  0.00     0.022 A 
BRANCH  99 102
ATOM    102  S   UNL A   1      43.811  39.364  29.037  1.00  0.00     0.127 S 
ATOM    103  O   UNL A   1      44.097  40.524  29.880  1.00  0.00    -0.237 OA
ATOM    104  O   UNL A   1      44.888  38.999  28.117  1.00  0.00    -0.237 OA
ATOM    105  O   UNL A   1      42.478  39.331  28.449  1.00  0.00    -0.744 OA
ENDBRANCH  99 102
ENDBRANCH  72  95
ENDBRANCH  46  47
ENDBRANCH  39  41
ENDBRANCH  38  39
ENDBRANCH  37  38
ENDBRANCH  36  37
ENDBRANCH  35  36
ENDBRANCH   1  35
TORSDOF 22
ENDMDL
MODEL 2
REMARK VINA RESULT:     -10.2      5.646      7.070
REMARK SMILES CCOc1cc2c(cc1/C=C1/C(=O)N(c3cccc(C(=O)OCCOCCOC(=O)c4ccc(-c5c6nc(c(-c7cccc(S(=O)(=O)[O-])c7F)c7ccc([nH]7)c(-c7cccc(S(=O)(=O)[O-])c7F)c7nc(c(-c8cccc(S(=O)(=O)[O-])c8F)c8ccc5[nH]8)C=C7)C=C6)cc4)c3)C(=S)N=C1O)OCO2
REMARK SMILES IDX 24 1 23 2 22 3 20 4 21 5 19 6 15 7 16 8 94 9 17 10 18 11
REMARK SMILES IDX 14 12 10 13 11 14 12 15 98 16 13 17 97 18 95 19 96 20 9 21
REMARK SMILES IDX 4 22 5 23 6 24 8 25 7 26 102 27 100 28 101 29 3 30 2 31 1 32
REMARK SMILES IDX 99 33 25 35 26 36 27 37 28 38 29 39 30 40 31 41 32 42 93 43
REMARK SMILES IDX 33 44 92 45 34 46 35 47 36 48 86 49 37 50 91 51 85 52 87 53
REMARK SMILES IDX 38 54 90 55 84 56 83 57 39 59 71 60 51 61 70 62 52 63 55 64
REMARK SMILES IDX 69 65 88 66 53 67 54 68 68 70 89 71 56 72 40 73 41 74 49 75
REMARK SMILES IDX 42 76 44 77 50 78 43 79 45 80 46 81 47 82 48 83 72 84 73 85
REMARK SMILES IDX 81 86 74 87 76 88 82 89 75 90 77 91 78 92 79 93 80 94 57 95
REMARK SMILES IDX 58 96 66 97 59 98 61 99 67 100 60 101 62 102 63 103 64 104
REMARK SMILES IDX 65 105
REMARK H PARENT 99 34 87 58 55 69
REMARK Flexibility Score: inf
ROOT
ATOM      1  C   UNL A   1      39.381  22.722  26.391  1.00  0.00     0.202 C 
ENDROOT
BRANCH   1   2
ATOM      2  C   UNL A   1      38.916  21.405  25.760  1.00  0.00     0.261 C 
BRANCH   2   3
ATOM      3  O   UNL A   1      37.543  21.478  25.345  1.00  0.00    -0.460 OA
BRANCH   3   4
ATOM      4  C   UNL A   1      36.993  20.303  24.957  1.00  0.00     0.338 C 
ATOM      5  O   UNL A   1      37.558  19.224  24.850  1.00  0.00    -0.246 OA
BRANCH   4   6
ATOM      6  C   UNL A   1      35.520  20.447  24.883  1.00  0.00     0.062 A 
ATOM      7  C   UNL A   1      33.458  21.699  25.197  1.00  0.00     0.052 A 
ATOM      8  C   UNL A   1      32.742  20.547  24.815  1.00  0.00     0.027 A 
ATOM      9  C   UNL A   1      34.860  21.639  25.217  1.00  0.00     0.042 A 
ATOM     10  C   UNL A   1      33.398  19.357  24.496  1.00  0.00     0.003 A 
ATOM     11  C   UNL A   1      34.786  19.308  24.530  1.00  0.00     0.016 A 
BRANCH   7  12
ATOM     12  N   UNL A   1      32.753  22.920  25.518  1.00  0.00    -0.251 N 
ATOM     13  C   UNL A   1      31.568  25.998  23.901  1.00  0.00     0.031 C 
ATOM     14  C   UNL A   1      31.637  24.996  24.813  1.00  0.00     0.103 C 
ATOM     15  C   UNL A   1      32.455  23.790  24.451  1.00  0.00     0.270 C 
ATOM     16  C   UNL A   1      30.988  24.868  26.116  1.00  0.00     0.226 C 
ATOM     17  O   UNL A   1      32.771  23.585  23.279  1.00  0.00    -0.268 OA
ATOM     18  N   UNL A   1      31.296  24.048  27.047  1.00  0.00    -0.184 NA
ATOM     19  C   UNL A   1      32.343  23.184  26.844  1.00  0.00     0.210 C 
ATOM     20  S   UNL A   1      33.072  22.518  28.232  1.00  0.00    -0.038 S 
BRANCH  13  21
ATOM     21  C   UNL A   1      30.824  27.288  23.887  1.00  0.00     0.021 A 
ATOM     22  C   UNL A   1      31.356  28.449  24.519  1.00  0.00     0.130 A 
ATOM     23  C   UNL A   1      30.793  29.718  24.317  1.00  0.00     0.097 A 
ATOM     24  C   UNL A   1      29.637  29.797  23.585  1.00  0.00     0.169 A 
ATOM     25  C   UNL A   1      29.572  27.413  23.263  1.00  0.00     0.062 A 
ATOM     26  C   UNL A   1      29.029  28.672  23.094  1.00  0.00     0.166 A 
ATOM     27  O   UNL A   1      28.965  30.936  23.275  1.00  0.00    -0.453 OA
ATOM     28  O   UNL A   1      27.888  28.959  22.410  1.00  0.00    -0.454 OA
ATOM     29  C   UNL A   1      27.861  30.397  22.522  1.00  0.00     0.468 C 
BRANCH  22  30
ATOM     30  O   UNL A   1      32.487  28.385  25.299  1.00  0.00    -0.493 OA
BRANCH  30  31
ATOM     31  C   UNL A   1      32.850  29.683  25.826  1.00  0.00     0.226 C 
ATOM     32  C   UNL A   1      33.821  29.600  27.000  1.00  0.00     0.049 C 
ENDBRANCH  30  31
ENDBRANCH  22  30
ENDBRANCH  13  21
BRANCH  16  33
ATOM     33  O   UNL A   1      29.920  25.625  26.356  1.00  0.00    -0.493 OA
ATOM     34  H   UNL A   1      29.063  25.248  26.330  1.00  0.00     0.295 HD
ENDBRANCH  16  33
ENDBRANCH   7  12
ENDBRANCH   4   6
ENDBRANCH   3   4
ENDBRANCH   2   3
ENDBRANCH   1   2
BRANCH   1  35
ATOM     35  O   UNL A   1      40.359  22.640  27.430  1.00  0.00    -0.374 OA
BRANCH  35  36
ATOM     36  C   UNL A   1      41.692  22.298  27.050  1.00  0.00     0.202 C 
BRANCH  36  37
ATOM     37  C   UNL A   1      42.243  22.900  25.751  1.00  0.00     0.261 C 
BRANCH  37  38
ATOM     38  O   UNL A   1      43.235  23.912  25.982  1.00  0.00    -0.460 OA
BRANCH  38  39
ATOM     39  C   UNL A   1      42.755  25.179  25.926  1.00  0.00     0.338 C 
ATOM     40  O   UNL A   1      42.182  25.707  24.985  1.00  0.00    -0.246 OA
BRANCH  39  41
ATOM     41  C   UNL A   1      42.850  25.821  27.249  1.00  0.00     0.060 A 
ATOM     42  C   UNL A   1      44.111  26.285  27.640  1.00  0.00     0.016 A 
ATOM     43  C   UNL A   1      41.763  25.892  28.123  1.00  0.00     0.016 A 
ATOM     44  C   UNL A   1      44.310  26.751  28.934  1.00  0.00     0.010 A 
ATOM     45  C   UNL A   1      41.965  26.366  29.425  1.00  0.00     0.010 A 
ATOM     46  C   UNL A   1      43.250  26.750  29.851  1.00  0.00    -0.014 A 
BRANCH  46  47
ATOM     47  C   UNL A   1      43.543  27.038  31.276  1.00  0.00     0.031 A 
ATOM     48  C   UNL A   1      44.234  26.001  32.119  1.00  0.00     0.074 A 
ATOM     49  C   UNL A   1      43.241  28.240  31.800  1.00  0.00     0.049 A 
ATOM     50  N   UNL A   1      44.654  26.087  33.354  1.00  0.00    -0.248 NA
ATOM     51  C   UNL A   1      44.484  24.693  31.490  1.00  0.00     0.031 C 
ATOM     52  C   UNL A   1      42.556  29.319  31.090  1.00  0.00     0.029 A 
ATOM     53  N   UNL A   1      43.465  28.749  33.054  1.00  0.00    -0.354 N 
ATOM     54  C   UNL A   1      45.189  24.841  33.663  1.00  0.00     0.074 A 
ATOM     55  C   UNL A   1      45.025  24.011  32.489  1.00  0.00     0.031 C 
ATOM     56  C   UNL A   1      42.406  30.361  31.924  1.00  0.00     0.029 A 
ATOM     57  C   UNL A   1      42.963  30.015  33.229  1.00  0.00     0.049 A 
ATOM     58  H   UNL A   1      43.942  28.255  33.760  1.00  0.00     0.167 HD
ATOM     59  C   UNL A   1      45.776  24.429  34.811  1.00  0.00     0.034 A 
ATOM     60  C   UNL A   1      42.943  30.803  34.323  1.00  0.00     0.034 A 
ATOM     61  C   UNL A   1      45.953  25.264  35.971  1.00  0.00     0.049 A 
ATOM     62  C   UNL A   1      43.614  30.330  35.584  1.00  0.00     0.074 A 
ATOM     63  C   UNL A   1      46.596  24.961  37.158  1.00  0.00     0.029 A 
ATOM     64  N   UNL A   1      45.469  26.557  36.098  1.00  0.00    -0.354 N 
ATOM     65  N   UNL A   1      44.232  29.197  35.815  1.00  0.00    -0.248 NA
ATOM     66  C   UNL A   1      43.624  31.260  36.721  1.00  0.00     0.031 C 
ATOM     67  C   UNL A   1      46.458  26.054  38.021  1.00  0.00     0.029 A 
ATOM     68  C   UNL A   1      45.779  27.059  37.350  1.00  0.00     0.049 A 
ATOM     69  H   UNL A   1      44.976  27.046  35.401  1.00  0.00     0.167 HD
ATOM     70  C   UNL A   1      44.737  29.293  37.106  1.00  0.00     0.074 A 
ATOM     71  C   UNL A   1      44.367  30.604  37.600  1.00  0.00     0.031 C 
ATOM     72  C   UNL A   1      45.441  28.379  37.820  1.00  0.00     0.034 A 
BRANCH  59  73
ATOM     73  C   UNL A   1      46.277  23.009  34.874  1.00  0.00     0.023 A 
ATOM     74  C   UNL A   1      45.378  21.951  35.122  1.00  0.00     0.012 A 
ATOM     75  C   UNL A   1      47.635  22.717  34.636  1.00  0.00     0.148 A 
ATOM     76  C   UNL A   1      45.828  20.632  35.169  1.00  0.00     0.002 A 
ATOM     77  C   UNL A   1      48.068  21.397  34.635  1.00  0.00     0.091 A 
ATOM     78  F   UNL A   1      48.480  23.736  34.425  1.00  0.00    -0.205 F 
ATOM     79  C   UNL A   1      47.169  20.354  34.915  1.00  0.00     0.022 A 
BRANCH  77  80
ATOM     80  S   UNL A   1      49.756  20.931  34.235  1.00  0.00     0.127 S 
ATOM     81  O   UNL A   1      50.399  20.999  35.546  1.00  0.00    -0.237 OA
ATOM     82  O   UNL A   1      49.585  19.577  33.709  1.00  0.00    -0.237 OA
ATOM     83  O   UNL A   1      50.221  21.908  33.260  1.00  0.00    -0.744 OA
ENDBRANCH  77  80
ENDBRANCH  59  73
BRANCH  60  84
ATOM     84  C   UNL A   1      42.291  32.140  34.252  1.00  0.00     0.023 A 
ATOM     85  C   UNL A   1      43.035  33.268  33.856  1.00  0.00     0.012 A 
ATOM     86  C   UNL A   1      40.920  32.286  34.541  1.00  0.00     0.148 A 
ATOM     87  C   UNL A   1      42.430  34.523  33.776  1.00  0.00     0.002 A 
ATOM     88  C   UNL A   1      40.311  33.527  34.402  1.00  0.00     0.091 A 
ATOM     89  F   UNL A   1      40.234  31.201  34.927  1.00  0.00    -0.205 F 
ATOM     90  C   UNL A   1      41.069  34.650  34.038  1.00  0.00     0.022 A 
BRANCH  88  91
ATOM     91  S   UNL A   1      38.539  33.754  34.584  1.00  0.00     0.127 S 
ATOM     92  O   UNL A   1      38.383  35.170  34.265  1.00  0.00    -0.237 OA
ATOM     93  O   UNL A   1      38.014  32.832  33.577  1.00  0.00    -0.237 OA
ATOM     94  O   UNL A   1      38.228  33.380  35.958  1.00  0.00    -0.744 OA
ENDBRANCH  88  91
ENDBRANCH  60  84
BRANCH  72  95
ATOM     95  C   UNL A   1      45.908  28.774  39.199  1.00  0.00     0.023 A 
ATOM     96  C   UNL A   1      45.177  28.382  40.338  1.00  0.00     0.012 A 
ATOM     97  C   UNL A   1      47.109  29.493  39.364  1.00  0.00     0.148 A 
ATOM     98  C   UNL A   1      45.610  28.740  41.615  1.00  0.00     0.002 A 
ATOM     99  C   UNL A   1      47.562  29.798  40.641  1.00  0.00     0.091 A 
ATOM    100  F   UNL A   1      47.782  29.874  38.269  1.00  0.00    -0.205 F 
ATOM    101  C   UNL A   1      46.806  29.436  41.768  1.00  0.00     0.022 A 
BRANCH  99 102
ATOM    102  S   UNL A   1      49.142  30.601  40.935  1.00  0.00     0.127 S 
ATOM    103  O   UNL A   1      48.924  31.915  40.331  1.00  0.00    -0.237 OA
ATOM    104  O   UNL A   1      49.221  30.607  42.395  1.00  0.00    -0.237 OA
ATOM    105  O   UNL A   1      50.143  29.770  40.279  1.00  0.00    -0.744 OA
ENDBRANCH  99 102
ENDBRANCH  72  95
ENDBRANCH  46  47
ENDBRANCH  39  41
ENDBRANCH  38  39
ENDBRANCH  37  38
ENDBRANCH  36  37
ENDBRANCH  35  36
ENDBRANCH   1  35
TORSDOF 22
ENDMDL
MODEL 3
REMARK VINA RESULT:     -10.2      4.952     11.071
REMARK SMILES CCOc1cc2c(cc1/C=C1/C(=O)N(c3cccc(C(=O)OCCOCCOC(=O)c4ccc(-c5c6nc(c(-c7cccc(S(=O)(=O)[O-])c7F)c7ccc([nH]7)c(-c7cccc(S(=O)(=O)[O-])c7F)c7nc(c(-c8cccc(S(=O)(=O)[O-])c8F)c8ccc5[nH]8)C=C7)C=C6)cc4)c3)C(=S)N=C1O)OCO2
REMARK SMILES IDX 24 1 23 2 22 3 20 4 21 5 19 6 15 7 16 8 94 9 17 10 18 11
REMARK SMILES IDX 14 12 10 13 11 14 12 15 98 16 13 17 97 18 95 19 96 20 9 21
REMARK SMILES IDX 4 22 5 23 6 24 8 25 7 26 102 27 100 28 101 29 3 30 2 31 1 32
REMARK SMILES IDX 99 33 25 35 26 36 27 37 28 38 29 39 30 40 31 41 32 42 93 43
REMARK SMILES IDX 33 44 92 45 34 46 35 47 36 48 86 49 37 50 91 51 85 52 87 53
REMARK SMILES IDX 38 54 90 55 84 56 83 57 39 59 71 60 51 61 70 62 52 63 55 64
REMARK SMILES IDX 69 65 88 66 53 67 54 68 68 70 89 71 56 72 40 73 41 74 49 75
REMARK SMILES IDX 42 76 44 77 50 78 43 79 45 80 46 81 47 82 48 83 72 84 73 85
REMARK SMILES IDX 81 86 74 87 76 88 82 89 75 90 77 91 78 92 79 93 80 94 57 95
REMARK SMILES IDX 58 96 66 97 59 98 61 99 67 100 60 101 62 102 63 103 64 104
REMARK SMILES IDX 65 105
REMARK H PARENT 99 34 87 58 55 69
REMARK Flexibility Score: inf
ROOT
ATOM      1  C   UNL A   1      33.343  35.225  28.850  1.00  0.00     0.202 C 
ENDROOT
BRANCH   1   2
ATOM      2  C   UNL A   1      34.251  34.253  28.089  1.00  0.00     0.261 C 
BRANCH   2   3
ATOM      3  O   UNL A   1      34.910  33.342  28.982  1.00  0.00    -0.460 OA
BRANCH   3   4
ATOM      4  C   UNL A   1      36.219  33.118  28.719  1.00  0.00     0.338 C 
ATOM      5  O   UNL A   1      37.136  33.924  28.800  1.00  0.00    -0.246 OA
BRANCH   4   6
ATOM      6  C   UNL A   1      36.444  31.666  28.524  1.00  0.00     0.062 A 
ATOM      7  C   UNL A   1      37.864  29.692  28.473  1.00  0.00     0.052 A 
ATOM      8  C   UNL A   1      36.760  28.953  28.006  1.00  0.00     0.027 A 
ATOM      9  C   UNL A   1      37.689  31.058  28.740  1.00  0.00     0.042 A 
ATOM     10  C   UNL A   1      35.524  29.560  27.777  1.00  0.00     0.003 A 
ATOM     11  C   UNL A   1      35.367  30.915  28.036  1.00  0.00     0.016 A 
BRANCH   7  12
ATOM     12  N   UNL A   1      39.132  29.037  28.704  1.00  0.00    -0.251 N 
ATOM     13  C   UNL A   1      42.111  27.933  26.860  1.00  0.00     0.031 C 
ATOM     14  C   UNL A   1      41.351  28.327  27.912  1.00  0.00     0.103 C 
ATOM     15  C   UNL A   1      40.007  28.923  27.606  1.00  0.00     0.270 C 
ATOM     16  C   UNL A   1      41.649  28.312  29.343  1.00  0.00     0.226 C 
ATOM     17  O   UNL A   1      39.753  29.327  26.471  1.00  0.00    -0.268 OA
ATOM     18  N   UNL A   1      40.811  28.430  30.300  1.00  0.00    -0.184 NA
ATOM     19  C   UNL A   1      39.481  28.586  29.997  1.00  0.00     0.210 C 
ATOM     20  S   UNL A   1      38.362  28.194  31.219  1.00  0.00    -0.038 S 
BRANCH  13  21
ATOM     21  C   UNL A   1      43.487  27.367  26.777  1.00  0.00     0.021 A 
ATOM     22  C   UNL A   1      43.742  26.007  27.114  1.00  0.00     0.130 A 
ATOM     23  C   UNL A   1      44.970  25.395  26.820  1.00  0.00     0.097 A 
ATOM     24  C   UNL A   1      45.968  26.179  26.302  1.00  0.00     0.169 A 
ATOM     25  C   UNL A   1      44.584  28.146  26.374  1.00  0.00     0.062 A 
ATOM     26  C   UNL A   1      45.788  27.523  26.109  1.00  0.00     0.166 A 
ATOM     27  O   UNL A   1      47.208  25.758  25.941  1.00  0.00    -0.453 OA
ATOM     28  O   UNL A   1      46.898  28.125  25.601  1.00  0.00    -0.454 OA
ATOM     29  C   UNL A   1      47.789  26.996  25.490  1.00  0.00     0.468 C 
BRANCH  22  30
ATOM     30  O   UNL A   1      42.771  25.215  27.682  1.00  0.00    -0.493 OA
BRANCH  30  31
ATOM     31  C   UNL A   1      43.180  23.828  27.749  1.00  0.00     0.226 C 
ATOM     32  C   UNL A   1      42.822  23.165  29.075  1.00  0.00     0.049 C 
ENDBRANCH  30  31
ENDBRANCH  22  30
ENDBRANCH  13  21
BRANCH  16  33
ATOM     33  O   UNL A   1      42.926  28.235  29.712  1.00  0.00    -0.493 OA
ATOM     34  H   UNL A   1      43.156  27.821  30.519  1.00  0.00     0.295 HD
ENDBRANCH  16  33
ENDBRANCH   7  12
ENDBRANCH   4   6
ENDBRANCH   3   4
ENDBRANCH   2   3
ENDBRANCH   1   2
BRANCH   1  35
ATOM     35  O   UNL A   1      33.761  35.622  30.157  1.00  0.00    -0.374 OA
BRANCH  35  36
ATOM     36  C   UNL A   1      32.749  36.058  31.065  1.00  0.00     0.202 C 
BRANCH  36  37
ATOM     37  C   UNL A   1      32.898  35.670  32.542  1.00  0.00     0.261 C 
BRANCH  37  38
ATOM     38  O   UNL A   1      34.185  35.109  32.844  1.00  0.00    -0.460 OA
BRANCH  38  39
ATOM     39  C   UNL A   1      34.157  33.780  33.111  1.00  0.00     0.338 C 
ATOM     40  O   UNL A   1      33.168  33.078  33.251  1.00  0.00    -0.246 OA
BRANCH  39  41
ATOM     41  C   UNL A   1      35.517  33.215  33.038  1.00  0.00     0.060 A 
ATOM     42  C   UNL A   1      36.537  33.937  33.669  1.00  0.00     0.016 A 
ATOM     43  C   UNL A   1      35.808  32.064  32.303  1.00  0.00     0.016 A 
ATOM     44  C   UNL A   1      37.863  33.554  33.503  1.00  0.00     0.010 A 
ATOM     45  C   UNL A   1      37.144  31.679  32.142  1.00  0.00     0.010 A 
ATOM     46  C   UNL A   1      38.180  32.451  32.699  1.00  0.00    -0.014 A 
BRANCH  46  47
ATOM     47  C   UNL A   1      39.603  32.204  32.360  1.00  0.00     0.031 A 
ATOM     48  C   UNL A   1      40.325  31.039  32.980  1.00  0.00     0.074 A 
ATOM     49  C   UNL A   1      40.231  32.983  31.461  1.00  0.00     0.049 A 
ATOM     50  N   UNL A   1      41.536  30.602  32.753  1.00  0.00    -0.248 NA
ATOM     51  C   UNL A   1      39.588  30.264  33.993  1.00  0.00     0.031 C 
ATOM     52  C   UNL A   1      39.643  34.150  30.805  1.00  0.00     0.029 A 
ATOM     53  N   UNL A   1      41.503  32.914  30.953  1.00  0.00    -0.354 N 
ATOM     54  C   UNL A   1      41.720  29.524  33.612  1.00  0.00     0.074 A 
ATOM     55  C   UNL A   1      40.501  29.383  34.378  1.00  0.00     0.031 C 
ATOM     56  C   UNL A   1      40.559  34.696  29.987  1.00  0.00     0.029 A 
ATOM     57  C   UNL A   1      41.800  33.930  30.078  1.00  0.00     0.049 A 
ATOM     58  H   UNL A   1      42.141  32.203  31.191  1.00  0.00     0.167 HD
ATOM     59  C   UNL A   1      42.798  28.715  33.741  1.00  0.00     0.034 A 
ATOM     60  C   UNL A   1      42.947  34.220  29.433  1.00  0.00     0.034 A 
ATOM     61  C   UNL A   1      44.003  28.848  32.965  1.00  0.00     0.049 A 
ATOM     62  C   UNL A   1      44.128  33.299  29.582  1.00  0.00     0.074 A 
ATOM     63  C   UNL A   1      45.125  28.037  32.974  1.00  0.00     0.029 A 
ATOM     64  N   UNL A   1      44.253  29.865  32.056  1.00  0.00    -0.354 N 
ATOM     65  N   UNL A   1      44.238  32.207  30.299  1.00  0.00    -0.248 NA
ATOM     66  C   UNL A   1      45.328  33.625  28.798  1.00  0.00     0.031 C 
ATOM     67  C   UNL A   1      46.072  28.592  32.107  1.00  0.00     0.029 A 
ATOM     68  C   UNL A   1      45.519  29.716  31.514  1.00  0.00     0.049 A 
ATOM     69  H   UNL A   1      43.624  30.587  31.831  1.00  0.00     0.167 HD
ATOM     70  C   UNL A   1      45.501  31.695  30.024  1.00  0.00     0.074 A 
ATOM     71  C   UNL A   1      46.111  32.589  29.060  1.00  0.00     0.031 C 
ATOM     72  C   UNL A   1      46.103  30.588  30.526  1.00  0.00     0.034 A 
BRANCH  59  73
ATOM     73  C   UNL A   1      42.727  27.607  34.761  1.00  0.00     0.023 A 
ATOM     74  C   UNL A   1      41.808  26.551  34.597  1.00  0.00     0.012 A 
ATOM     75  C   UNL A   1      43.610  27.587  35.859  1.00  0.00     0.148 A 
ATOM     76  C   UNL A   1      41.742  25.514  35.527  1.00  0.00     0.002 A 
ATOM     77  C   UNL A   1      43.574  26.525  36.755  1.00  0.00     0.091 A 
ATOM     78  F   UNL A   1      44.463  28.610  36.013  1.00  0.00    -0.205 F 
ATOM     79  C   UNL A   1      42.631  25.495  36.599  1.00  0.00     0.022 A 
BRANCH  77  80
ATOM     80  S   UNL A   1      44.734  26.368  38.117  1.00  0.00     0.127 S 
ATOM     81  O   UNL A   1      46.015  26.340  37.412  1.00  0.00    -0.237 OA
ATOM     82  O   UNL A   1      44.484  27.591  38.878  1.00  0.00    -0.237 OA
ATOM     83  O   UNL A   1      44.376  25.138  38.809  1.00  0.00    -0.744 OA
ENDBRANCH  77  80
ENDBRANCH  59  73
BRANCH  60  84
ATOM     84  C   UNL A   1      43.013  35.423  28.558  1.00  0.00     0.023 A 
ATOM     85  C   UNL A   1      42.603  35.341  27.213  1.00  0.00     0.012 A 
ATOM     86  C   UNL A   1      43.448  36.661  29.071  1.00  0.00     0.148 A 
ATOM     87  C   UNL A   1      42.652  36.465  26.387  1.00  0.00     0.002 A 
ATOM     88  C   UNL A   1      43.437  37.789  28.260  1.00  0.00     0.091 A 
ATOM     89  F   UNL A   1      43.845  36.713  30.350  1.00  0.00    -0.205 F 
ATOM     90  C   UNL A   1      43.057  37.689  26.913  1.00  0.00     0.022 A 
BRANCH  88  91
ATOM     91  S   UNL A   1      43.811  39.429  28.890  1.00  0.00     0.127 S 
ATOM     92  O   UNL A   1      43.402  39.314  30.287  1.00  0.00    -0.237 OA
ATOM     93  O   UNL A   1      45.256  39.511  28.673  1.00  0.00    -0.237 OA
ATOM     94  O   UNL A   1      43.031  40.355  28.079  1.00  0.00    -0.744 OA
ENDBRANCH  88  91
ENDBRANCH  60  84
BRANCH  72  95
ATOM     95  C   UNL A   1      47.477  30.241  30.009  1.00  0.00     0.023 A 
ATOM     96  C   UNL A   1      47.624  29.400  28.888  1.00  0.00     0.012 A 
ATOM     97  C   UNL A   1      48.625  30.797  30.609  1.00  0.00     0.148 A 
ATOM     98  C   UNL A   1      48.892  29.082  28.402  1.00  0.00     0.002 A 
ATOM     99  C   UNL A   1      49.881  30.520  30.085  1.00  0.00     0.091 A 
ATOM    100  F   UNL A   1      48.468  31.581  31.686  1.00  0.00    -0.205 F 
ATOM    101  C   UNL A   1      50.018  29.650  28.992  1.00  0.00     0.022 A 
BRANCH  99 102
ATOM    102  S   UNL A   1      51.377  31.289  30.718  1.00  0.00     0.127 S 
ATOM    103  O   UNL A   1      50.961  32.685  30.848  1.00  0.00    -0.237 OA
ATOM    104  O   UNL A   1      51.572  30.589  31.988  1.00  0.00    -0.237 OA
ATOM    105  O   UNL A   1      52.411  31.033  29.723  1.00  0.00    -0.744 OA
ENDBRANCH  99 102
ENDBRANCH  72  95
ENDBRANCH  46  47
ENDBRANCH  39  41
ENDBRANCH  38  39
ENDBRANCH  37  38
ENDBRANCH  36  37
ENDBRANCH  35  36
ENDBRANCH   1  35
TORSDOF 22
ENDMDL
