MODEL 1
REMARK VINA RESULT:     -13.0      0.000      0.000
REMARK SMILES COc1cc2ccccc2cc1C(=O)Nc1cc(C(=O)OCCOCCOC(=O)c2ccc(-c3c4nc(c(-c5cccc(S(=O)(=O)[O-])c5F)c5ccc([nH]5)c(-c5cccc(S(=O)(=O)[O-])c5F)c5nc(c(-c6cccc(S(=O)(=O)[O-])c6F)c6ccc3[nH]6)C=C5)C=C4)cc2)ccc1C
REMARK SMILES IDX 24 1 23 2 22 3 21 4 19 5 20 6 18 7 16 8 17 9 95 10 94 11
REMARK SMILES IDX 96 12 93 13 15 14 13 15 14 16 12 18 3 19 4 20 5 21 11 22
REMARK SMILES IDX 6 23 10 24 7 25 9 26 8 27 2 28 1 29 25 30 26 31 27 32 28 33
REMARK SMILES IDX 29 34 30 35 31 36 92 37 32 38 91 39 33 40 34 41 35 42 85 43
REMARK SMILES IDX 36 44 90 45 84 46 86 47 37 48 89 49 83 50 82 51 38 53 70 54
REMARK SMILES IDX 50 55 69 56 51 57 54 58 68 59 87 60 52 61 53 62 67 64 88 65
REMARK SMILES IDX 55 66 39 67 40 68 48 69 41 70 43 71 49 72 42 73 44 74 45 75
REMARK SMILES IDX 46 76 47 77 71 78 72 79 80 80 73 81 75 82 81 83 74 84 76 85
REMARK SMILES IDX 77 86 78 87 79 88 56 89 57 90 65 91 58 92 60 93 66 94 59 95
REMARK SMILES IDX 61 96 62 97 63 98 64 99
REMARK H PARENT 15 17 86 52 54 63
REMARK Flexibility Score: inf
ROOT
ATOM      1  O   UNL A   1      39.652  20.085  25.749  1.00  0.00    -0.374 OA
ENDROOT
BRANCH   1   2
ATOM      2  C   UNL A   1      39.113  21.330  26.095  1.00  0.00     0.202 C 
BRANCH   2   3
ATOM      3  C   UNL A   1      37.962  21.900  25.219  1.00  0.00     0.261 C 
BRANCH   3   4
ATOM      4  O   UNL A   1      36.669  21.869  25.775  1.00  0.00    -0.460 OA
BRANCH   4   5
ATOM      5  C   UNL A   1      35.896  21.030  25.075  1.00  0.00     0.338 C 
ATOM      6  O   UNL A   1      35.979  19.817  24.987  1.00  0.00    -0.246 OA
BRANCH   5   7
ATOM      7  C   UNL A   1      34.754  21.789  24.618  1.00  0.00     0.062 A 
ATOM      8  C   UNL A   1      33.691  23.603  23.503  1.00  0.00     0.045 A 
ATOM      9  C   UNL A   1      34.814  23.094  24.126  1.00  0.00     0.042 A 
ATOM     10  C   UNL A   1      32.453  22.950  23.700  1.00  0.00    -0.027 A 
ATOM     11  C   UNL A   1      32.414  21.676  24.297  1.00  0.00     0.006 A 
ATOM     12  C   UNL A   1      31.150  23.416  23.129  1.00  0.00     0.046 C 
ATOM     13  C   UNL A   1      33.577  21.066  24.686  1.00  0.00     0.016 A 
BRANCH   8  14
ATOM     14  N   UNL A   1      33.770  24.705  22.637  1.00  0.00    -0.322 N 
ATOM     15  C   UNL A   1      33.384  26.039  22.740  1.00  0.00     0.259 C 
ATOM     16  O   UNL A   1      33.626  26.716  21.728  1.00  0.00    -0.269 OA
ATOM     17  H   UNL A   1      34.186  24.488  21.770  1.00  0.00     0.170 HD
BRANCH  15  18
ATOM     18  C   UNL A   1      32.711  26.747  23.907  1.00  0.00     0.082 A 
ATOM     19  C   UNL A   1      31.395  27.280  23.961  1.00  0.00     0.132 A 
ATOM     20  C   UNL A   1      31.026  28.325  24.863  1.00  0.00     0.056 A 
ATOM     21  C   UNL A   1      31.976  29.029  25.646  1.00  0.00    -0.015 A 
ATOM     22  C   UNL A   1      33.616  26.989  24.987  1.00  0.00     0.026 A 
ATOM     23  C   UNL A   1      31.865  30.713  26.458  1.00  0.00     0.009 A 
ATOM     24  C   UNL A   1      33.476  28.094  25.837  1.00  0.00    -0.017 A 
ATOM     25  C   UNL A   1      33.243  31.366  27.455  1.00  0.00     0.001 A 
ATOM     26  C   UNL A   1      34.804  28.718  26.873  1.00  0.00     0.009 A 
ATOM     27  C   UNL A   1      34.738  30.352  27.650  1.00  0.00     0.001 A 
BRANCH  19  28
ATOM     28  O   UNL A   1      30.416  27.093  23.014  1.00  0.00    -0.496 OA
ATOM     29  C   UNL A   1      29.542  28.174  22.753  1.00  0.00     0.278 C 
ENDBRANCH  19  28
ENDBRANCH  15  18
ENDBRANCH   8  14
ENDBRANCH   5   7
ENDBRANCH   4   5
ENDBRANCH   3   4
ENDBRANCH   2   3
ENDBRANCH   1   2
BRANCH   1  30
ATOM     30  C   UNL A   1      40.810  19.821  26.501  1.00  0.00     0.202 C 
BRANCH  30  31
ATOM     31  C   UNL A   1      42.099  20.710  26.352  1.00  0.00     0.261 C 
BRANCH  31  32
ATOM     32  O   UNL A   1      42.288  22.259  26.581  1.00  0.00    -0.460 OA
BRANCH  32  33
ATOM     33  C   UNL A   1      42.377  23.599  26.817  1.00  0.00     0.338 C 
ATOM     34  O   UNL A   1      43.459  24.009  27.245  1.00  0.00    -0.246 OA
BRANCH  33  35
ATOM     35  C   UNL A   1      41.246  24.652  26.758  1.00  0.00     0.060 A 
ATOM     36  C   UNL A   1      41.261  25.662  25.800  1.00  0.00     0.016 A 
ATOM     37  C   UNL A   1      40.249  24.847  27.684  1.00  0.00     0.016 A 
ATOM     38  C   UNL A   1      40.959  26.987  26.177  1.00  0.00     0.010 A 
ATOM     39  C   UNL A   1      40.084  26.154  28.154  1.00  0.00     0.010 A 
ATOM     40  C   UNL A   1      40.711  27.220  27.501  1.00  0.00    -0.014 A 
BRANCH  40  41
ATOM     41  C   UNL A   1      41.169  28.416  28.271  1.00  0.00     0.031 A 
ATOM     42  C   UNL A   1      40.112  29.415  28.633  1.00  0.00     0.074 A 
ATOM     43  C   UNL A   1      42.294  28.290  29.028  1.00  0.00     0.049 A 
ATOM     44  N   UNL A   1      40.157  30.392  29.481  1.00  0.00    -0.248 NA
ATOM     45  C   UNL A   1      38.865  29.386  27.867  1.00  0.00     0.031 C 
ATOM     46  C   UNL A   1      42.357  28.236  30.480  1.00  0.00     0.029 A 
ATOM     47  N   UNL A   1      43.630  28.055  28.668  1.00  0.00    -0.354 N 
ATOM     48  C   UNL A   1      38.921  31.050  29.419  1.00  0.00     0.074 A 
ATOM     49  C   UNL A   1      38.154  30.356  28.428  1.00  0.00     0.031 C 
ATOM     50  C   UNL A   1      43.618  27.924  30.839  1.00  0.00     0.029 A 
ATOM     51  C   UNL A   1      44.536  28.255  29.772  1.00  0.00     0.049 A 
ATOM     52  H   UNL A   1      43.915  27.784  27.765  1.00  0.00     0.167 HD
ATOM     53  C   UNL A   1      38.642  32.150  30.173  1.00  0.00     0.034 A 
ATOM     54  C   UNL A   1      45.544  29.333  29.830  1.00  0.00     0.034 A 
ATOM     55  C   UNL A   1      39.887  32.646  30.794  1.00  0.00     0.049 A 
ATOM     56  C   UNL A   1      45.689  31.431  30.327  1.00  0.00     0.074 A 
ATOM     57  C   UNL A   1      40.453  32.519  32.047  1.00  0.00     0.029 A 
ATOM     58  N   UNL A   1      40.896  33.169  29.982  1.00  0.00    -0.354 N 
ATOM     59  N   UNL A   1      44.774  32.321  30.980  1.00  0.00    -0.248 NA
ATOM     60  C   UNL A   1      46.633  32.684  29.788  1.00  0.00     0.031 C 
ATOM     61  C   UNL A   1      41.804  32.984  31.972  1.00  0.00     0.029 A 
ATOM     62  C   UNL A   1      42.075  33.441  30.689  1.00  0.00     0.049 A 
ATOM     63  H   UNL A   1      40.790  33.331  29.017  1.00  0.00     0.167 HD
ATOM     64  C   UNL A   1      44.494  33.442  30.182  1.00  0.00     0.074 A 
ATOM     65  C   UNL A   1      45.734  33.623  29.485  1.00  0.00     0.031 C 
ATOM     66  C   UNL A   1      43.250  34.048  30.001  1.00  0.00     0.034 A 
BRANCH  53  67
ATOM     67  C   UNL A   1      37.240  32.783  30.435  1.00  0.00     0.023 A 
ATOM     68  C   UNL A   1      36.506  33.144  29.280  1.00  0.00     0.012 A 
ATOM     69  C   UNL A   1      36.612  33.156  31.669  1.00  0.00     0.148 A 
ATOM     70  C   UNL A   1      35.293  33.854  29.323  1.00  0.00     0.002 A 
ATOM     71  C   UNL A   1      35.379  33.843  31.714  1.00  0.00     0.091 A 
ATOM     72  F   UNL A   1      37.201  32.904  32.837  1.00  0.00    -0.205 F 
ATOM     73  C   UNL A   1      34.730  34.209  30.537  1.00  0.00     0.022 A 
BRANCH  71  74
ATOM     74  S   UNL A   1      34.551  34.349  33.250  1.00  0.00     0.127 S 
ATOM     75  O   UNL A   1      35.089  35.694  33.463  1.00  0.00    -0.237 OA
ATOM     76  O   UNL A   1      33.137  34.324  32.876  1.00  0.00    -0.237 OA
ATOM     77  O   UNL A   1      34.927  33.376  34.269  1.00  0.00    -0.744 OA
ENDBRANCH  71  74
ENDBRANCH  53  67
BRANCH  54  78
ATOM     78  C   UNL A   1      46.570  28.280  28.891  1.00  0.00     0.023 A 
ATOM     79  C   UNL A   1      46.773  26.987  29.448  1.00  0.00     0.012 A 
ATOM     80  C   UNL A   1      46.553  28.389  27.468  1.00  0.00     0.148 A 
ATOM     81  C   UNL A   1      46.638  25.845  28.651  1.00  0.00     0.002 A 
ATOM     82  C   UNL A   1      46.323  27.257  26.709  1.00  0.00     0.091 A 
ATOM     83  F   UNL A   1      46.582  29.584  26.865  1.00  0.00    -0.205 F 
ATOM     84  C   UNL A   1      46.337  25.983  27.302  1.00  0.00     0.022 A 
BRANCH  82  85
ATOM     85  S   UNL A   1      45.189  27.405  25.322  1.00  0.00     0.127 S 
ATOM     86  O   UNL A   1      44.176  28.344  25.783  1.00  0.00    -0.237 OA
ATOM     87  O   UNL A   1      46.167  27.944  24.382  1.00  0.00    -0.237 OA
ATOM     88  O   UNL A   1      44.710  26.067  25.007  1.00  0.00    -0.744 OA
ENDBRANCH  82  85
ENDBRANCH  54  78
BRANCH  66  89
ATOM     89  C   UNL A   1      43.038  35.302  29.076  1.00  0.00     0.023 A 
ATOM     90  C   UNL A   1      42.556  35.190  27.754  1.00  0.00     0.012 A 
ATOM     91  C   UNL A   1      43.395  36.635  29.431  1.00  0.00     0.148 A 
ATOM     92  C   UNL A   1      42.284  36.269  26.904  1.00  0.00     0.002 A 
ATOM     93  C   UNL A   1      43.200  37.716  28.557  1.00  0.00     0.091 A 
ATOM     94  F   UNL A   1      44.006  36.880  30.593  1.00  0.00    -0.205 F 
ATOM     95  C   UNL A   1      42.612  37.540  27.307  1.00  0.00     0.022 A 
BRANCH  93  96
ATOM     96  S   UNL A   1      43.777  39.382  28.917  1.00  0.00     0.127 S 
ATOM     97  O   UNL A   1      43.009  40.163  27.947  1.00  0.00    -0.237 OA
ATOM     98  O   UNL A   1      43.356  39.556  30.308  1.00  0.00    -0.237 OA
ATOM     99  O   UNL A   1      45.216  39.357  28.713  1.00  0.00    -0.744 OA
ENDBRANCH  93  96
ENDBRANCH  66  89
ENDBRANCH  40  41
ENDBRANCH  33  35
ENDBRANCH  32  33
ENDBRANCH  31  32
ENDBRANCH  30  31
ENDBRANCH   1  30
TORSDOF 20
ENDMDL
MODEL 2
REMARK VINA RESULT:     -11.5      4.640      9.453
REMARK SMILES COc1cc2ccccc2cc1C(=O)Nc1cc(C(=O)OCCOCCOC(=O)c2ccc(-c3c4nc(c(-c5cccc(S(=O)(=O)[O-])c5F)c5ccc([nH]5)c(-c5cccc(S(=O)(=O)[O-])c5F)c5nc(c(-c6cccc(S(=O)(=O)[O-])c6F)c6ccc3[nH]6)C=C5)C=C4)cc2)ccc1C
REMARK SMILES IDX 24 1 23 2 22 3 21 4 19 5 20 6 18 7 16 8 17 9 95 10 94 11
REMARK SMILES IDX 96 12 93 13 15 14 13 15 14 16 12 18 3 19 4 20 5 21 11 22
REMARK SMILES IDX 6 23 10 24 7 25 9 26 8 27 2 28 1 29 25 30 26 31 27 32 28 33
REMARK SMILES IDX 29 34 30 35 31 36 92 37 32 38 91 39 33 40 34 41 35 42 85 43
REMARK SMILES IDX 36 44 90 45 84 46 86 47 37 48 89 49 83 50 82 51 38 53 70 54
REMARK SMILES IDX 50 55 69 56 51 57 54 58 68 59 87 60 52 61 53 62 67 64 88 65
REMARK SMILES IDX 55 66 39 67 40 68 48 69 41 70 43 71 49 72 42 73 44 74 45 75
REMARK SMILES IDX 46 76 47 77 71 78 72 79 80 80 73 81 75 82 81 83 74 84 76 85
REMARK SMILES IDX 77 86 78 87 79 88 56 89 57 90 65 91 58 92 60 93 66 94 59 95
REMARK SMILES IDX 61 96 62 97 63 98 64 99
REMARK H PARENT 15 17 86 52 54 63
REMARK Flexibility Score: inf
ROOT
ATOM      1  O   UNL A   1      40.413  21.128  27.470  1.00  0.00    -0.374 OA
ENDROOT
BRANCH   1   2
ATOM      2  C   UNL A   1      39.843  21.442  26.230  1.00  0.00     0.202 C 
BRANCH   2   3
ATOM      3  C   UNL A   1      38.831  22.620  26.164  1.00  0.00     0.261 C 
BRANCH   3   4
ATOM      4  O   UNL A   1      37.746  22.474  25.279  1.00  0.00    -0.460 OA
BRANCH   4   5
ATOM      5  C   UNL A   1      36.710  23.204  25.709  1.00  0.00     0.338 C 
ATOM      6  O   UNL A   1      36.627  24.416  25.812  1.00  0.00    -0.246 OA
BRANCH   5   7
ATOM      7  C   UNL A   1      35.576  22.313  25.806  1.00  0.00     0.062 A 
ATOM      8  C   UNL A   1      33.386  21.698  26.507  1.00  0.00     0.045 A 
ATOM      9  C   UNL A   1      34.509  22.481  26.691  1.00  0.00     0.042 A 
ATOM     10  C   UNL A   1      33.490  20.546  25.693  1.00  0.00    -0.027 A 
ATOM     11  C   UNL A   1      34.628  20.350  24.889  1.00  0.00     0.006 A 
ATOM     12  C   UNL A   1      32.373  19.581  25.447  1.00  0.00     0.046 C 
ATOM     13  C   UNL A   1      35.637  21.278  24.892  1.00  0.00     0.016 A 
BRANCH   8  14
ATOM     14  N   UNL A   1      32.144  22.057  27.053  1.00  0.00    -0.322 N 
ATOM     15  C   UNL A   1      31.167  22.984  26.696  1.00  0.00     0.259 C 
ATOM     16  O   UNL A   1      30.188  23.006  27.457  1.00  0.00    -0.269 OA
ATOM     17  H   UNL A   1      31.914  21.545  27.862  1.00  0.00     0.170 HD
BRANCH  15  18
ATOM     18  C   UNL A   1      31.161  23.955  25.524  1.00  0.00     0.082 A 
ATOM     19  C   UNL A   1      31.423  23.672  24.157  1.00  0.00     0.132 A 
ATOM     20  C   UNL A   1      31.876  24.669  23.240  1.00  0.00     0.056 A 
ATOM     21  C   UNL A   1      32.267  25.968  23.655  1.00  0.00    -0.015 A 
ATOM     22  C   UNL A   1      31.003  25.312  25.948  1.00  0.00     0.026 A 
ATOM     23  C   UNL A   1      33.358  27.233  22.807  1.00  0.00     0.009 A 
ATOM     24  C   UNL A   1      31.565  26.380  25.235  1.00  0.00    -0.017 A 
ATOM     25  C   UNL A   1      33.664  28.863  23.561  1.00  0.00     0.001 A 
ATOM     26  C   UNL A   1      31.821  28.012  25.940  1.00  0.00     0.009 A 
ATOM     27  C   UNL A   1      32.891  29.246  25.159  1.00  0.00     0.001 A 
BRANCH  19  28
ATOM     28  O   UNL A   1      31.558  22.418  23.611  1.00  0.00    -0.496 OA
ATOM     29  C   UNL A   1      32.491  22.258  22.560  1.00  0.00     0.278 C 
ENDBRANCH  19  28
ENDBRANCH  15  18
ENDBRANCH   8  14
ENDBRANCH   5   7
ENDBRANCH   4   5
ENDBRANCH   3   4
ENDBRANCH   2   3
ENDBRANCH   1   2
BRANCH   1  30
ATOM     30  C   UNL A   1      41.543  20.310  27.302  1.00  0.00     0.202 C 
BRANCH  30  31
ATOM     31  C   UNL A   1      42.637  20.643  26.222  1.00  0.00     0.261 C 
BRANCH  31  32
ATOM     32  O   UNL A   1      43.148  22.041  25.702  1.00  0.00    -0.460 OA
BRANCH  32  33
ATOM     33  C   UNL A   1      43.665  23.214  25.237  1.00  0.00     0.338 C 
ATOM     34  O   UNL A   1      44.817  23.169  24.798  1.00  0.00    -0.246 OA
BRANCH  33  35
ATOM     35  C   UNL A   1      43.044  24.628  25.324  1.00  0.00     0.060 A 
ATOM     36  C   UNL A   1      43.808  25.760  25.054  1.00  0.00     0.016 A 
ATOM     37  C   UNL A   1      41.809  24.959  25.828  1.00  0.00     0.016 A 
ATOM     38  C   UNL A   1      43.720  26.881  25.905  1.00  0.00     0.010 A 
ATOM     39  C   UNL A   1      41.782  25.972  26.791  1.00  0.00     0.010 A 
ATOM     40  C   UNL A   1      42.908  26.774  27.000  1.00  0.00    -0.014 A 
BRANCH  40  41
ATOM     41  C   UNL A   1      43.212  27.315  28.359  1.00  0.00     0.031 A 
ATOM     42  C   UNL A   1      44.515  26.890  28.965  1.00  0.00     0.074 A 
ATOM     43  C   UNL A   1      42.632  28.495  28.716  1.00  0.00     0.049 A 
ATOM     44  N   UNL A   1      45.146  27.375  29.986  1.00  0.00    -0.248 NA
ATOM     45  C   UNL A   1      45.154  25.692  28.419  1.00  0.00     0.031 C 
ATOM     46  C   UNL A   1      43.298  29.780  28.852  1.00  0.00     0.029 A 
ATOM     47  N   UNL A   1      41.286  28.840  28.919  1.00  0.00    -0.354 N 
ATOM     48  C   UNL A   1      46.300  26.599  30.164  1.00  0.00     0.074 A 
ATOM     49  C   UNL A   1      46.264  25.597  29.140  1.00  0.00     0.031 C 
ATOM     50  C   UNL A   1      42.360  30.729  29.038  1.00  0.00     0.029 A 
ATOM     51  C   UNL A   1      41.143  30.132  29.544  1.00  0.00     0.049 A 
ATOM     52  H   UNL A   1      40.528  28.265  28.664  1.00  0.00     0.167 HD
ATOM     53  C   UNL A   1      47.182  26.827  31.177  1.00  0.00     0.034 A 
ATOM     54  C   UNL A   1      40.603  30.338  30.903  1.00  0.00     0.034 A 
ATOM     55  C   UNL A   1      46.587  27.775  32.140  1.00  0.00     0.049 A 
ATOM     56  C   UNL A   1      41.251  30.266  32.963  1.00  0.00     0.074 A 
ATOM     57  C   UNL A   1      46.720  29.132  32.359  1.00  0.00     0.029 A 
ATOM     58  N   UNL A   1      45.472  27.387  32.885  1.00  0.00    -0.354 N 
ATOM     59  N   UNL A   1      42.557  30.182  33.549  1.00  0.00    -0.248 NA
ATOM     60  C   UNL A   1      40.507  29.886  34.396  1.00  0.00     0.031 C 
ATOM     61  C   UNL A   1      45.679  29.541  33.251  1.00  0.00     0.029 A 
ATOM     62  C   UNL A   1      44.919  28.439  33.626  1.00  0.00     0.049 A 
ATOM     63  H   UNL A   1      45.112  26.470  32.890  1.00  0.00     0.167 HD
ATOM     64  C   UNL A   1      42.663  29.075  34.406  1.00  0.00     0.074 A 
ATOM     65  C   UNL A   1      41.329  28.978  34.925  1.00  0.00     0.031 C 
ATOM     66  C   UNL A   1      43.749  28.207  34.521  1.00  0.00     0.034 A 
BRANCH  53  67
ATOM     67  C   UNL A   1      48.630  26.261  31.311  1.00  0.00     0.023 A 
ATOM     68  C   UNL A   1      49.535  26.645  30.291  1.00  0.00     0.012 A 
ATOM     69  C   UNL A   1      49.171  25.323  32.252  1.00  0.00     0.148 A 
ATOM     70  C   UNL A   1      50.833  26.120  30.169  1.00  0.00     0.002 A 
ATOM     71  C   UNL A   1      50.486  24.818  32.147  1.00  0.00     0.091 A 
ATOM     72  F   UNL A   1      48.426  24.852  33.250  1.00  0.00    -0.205 F 
ATOM     73  C   UNL A   1      51.310  25.204  31.092  1.00  0.00     0.022 A 
BRANCH  71  74
ATOM     74  S   UNL A   1      51.211  23.620  33.304  1.00  0.00     0.127 S 
ATOM     75  O   UNL A   1      51.029  24.288  34.594  1.00  0.00    -0.237 OA
ATOM     76  O   UNL A   1      50.365  22.441  33.117  1.00  0.00    -0.237 OA
ATOM     77  O   UNL A   1      52.602  23.440  32.904  1.00  0.00    -0.744 OA
ENDBRANCH  71  74
ENDBRANCH  53  67
BRANCH  54  78
ATOM     78  C   UNL A   1      39.021  30.270  30.171  1.00  0.00     0.023 A 
ATOM     79  C   UNL A   1      38.256  29.117  30.502  1.00  0.00     0.012 A 
ATOM     80  C   UNL A   1      38.313  31.488  29.944  1.00  0.00     0.148 A 
ATOM     81  C   UNL A   1      36.921  29.246  30.900  1.00  0.00     0.002 A 
ATOM     82  C   UNL A   1      37.026  31.619  30.433  1.00  0.00     0.091 A 
ATOM     83  F   UNL A   1      38.926  32.559  29.424  1.00  0.00    -0.205 F 
ATOM     84  C   UNL A   1      36.336  30.505  30.938  1.00  0.00     0.022 A 
BRANCH  82  85
ATOM     85  S   UNL A   1      36.599  33.170  31.236  1.00  0.00     0.127 S 
ATOM     86  O   UNL A   1      36.369  34.095  30.136  1.00  0.00    -0.237 OA
ATOM     87  O   UNL A   1      35.400  32.671  31.902  1.00  0.00    -0.237 OA
ATOM     88  O   UNL A   1      37.696  33.513  32.129  1.00  0.00    -0.744 OA
ENDBRANCH  82  85
ENDBRANCH  54  78
BRANCH  66  89
ATOM     89  C   UNL A   1      43.767  26.985  35.510  1.00  0.00     0.023 A 
ATOM     90  C   UNL A   1      42.975  25.836  35.303  1.00  0.00     0.012 A 
ATOM     91  C   UNL A   1      44.489  26.955  36.738  1.00  0.00     0.148 A 
ATOM     92  C   UNL A   1      42.995  24.692  36.109  1.00  0.00     0.002 A 
ATOM     93  C   UNL A   1      44.455  25.843  37.594  1.00  0.00     0.091 A 
ATOM     94  F   UNL A   1      45.165  28.032  37.148  1.00  0.00    -0.205 F 
ATOM     95  C   UNL A   1      43.736  24.696  37.264  1.00  0.00     0.022 A 
BRANCH  93  96
ATOM     96  S   UNL A   1      45.232  25.832  39.217  1.00  0.00     0.127 S 
ATOM     97  O   UNL A   1      46.561  26.355  38.899  1.00  0.00    -0.237 OA
ATOM     98  O   UNL A   1      44.380  26.754  39.969  1.00  0.00    -0.237 OA
ATOM     99  O   UNL A   1      45.187  24.451  39.670  1.00  0.00    -0.744 OA
ENDBRANCH  93  96
ENDBRANCH  66  89
ENDBRANCH  40  41
ENDBRANCH  33  35
ENDBRANCH  32  33
ENDBRANCH  31  32
ENDBRANCH  30  31
ENDBRANCH   1  30
TORSDOF 20
ENDMDL
MODEL 3
REMARK VINA RESULT:     -11.3      3.929      5.793
REMARK SMILES COc1cc2ccccc2cc1C(=O)Nc1cc(C(=O)OCCOCCOC(=O)c2ccc(-c3c4nc(c(-c5cccc(S(=O)(=O)[O-])c5F)c5ccc([nH]5)c(-c5cccc(S(=O)(=O)[O-])c5F)c5nc(c(-c6cccc(S(=O)(=O)[O-])c6F)c6ccc3[nH]6)C=C5)C=C4)cc2)ccc1C
REMARK SMILES IDX 24 1 23 2 22 3 21 4 19 5 20 6 18 7 16 8 17 9 95 10 94 11
REMARK SMILES IDX 96 12 93 13 15 14 13 15 14 16 12 18 3 19 4 20 5 21 11 22
REMARK SMILES IDX 6 23 10 24 7 25 9 26 8 27 2 28 1 29 25 30 26 31 27 32 28 33
REMARK SMILES IDX 29 34 30 35 31 36 92 37 32 38 91 39 33 40 34 41 35 42 85 43
REMARK SMILES IDX 36 44 90 45 84 46 86 47 37 48 89 49 83 50 82 51 38 53 70 54
REMARK SMILES IDX 50 55 69 56 51 57 54 58 68 59 87 60 52 61 53 62 67 64 88 65
REMARK SMILES IDX 55 66 39 67 40 68 48 69 41 70 43 71 49 72 42 73 44 74 45 75
REMARK SMILES IDX 46 76 47 77 71 78 72 79 80 80 73 81 75 82 81 83 74 84 76 85
REMARK SMILES IDX 77 86 78 87 79 88 56 89 57 90 65 91 58 92 60 93 66 94 59 95
REMARK SMILES IDX 61 96 62 97 63 98 64 99
REMARK H PARENT 15 17 86 52 54 63
REMARK Flexibility Score: inf
ROOT
ATOM      1  O   UNL A   1      37.948  20.810  24.589  1.00  0.00    -0.374 OA
ENDROOT
BRANCH   1   2
ATOM      2  C   UNL A   1      37.611  21.732  25.588  1.00  0.00     0.202 C 
BRANCH   2   3
ATOM      3  C   UNL A   1      36.540  22.810  25.260  1.00  0.00     0.261 C 
BRANCH   3   4
ATOM      4  O   UNL A   1      35.827  23.346  26.350  1.00  0.00    -0.460 OA
BRANCH   4   5
ATOM      5  C   UNL A   1      34.808  22.539  26.664  1.00  0.00     0.338 C 
ATOM      6  O   UNL A   1      34.446  22.169  27.768  1.00  0.00    -0.246 OA
BRANCH   5   7
ATOM      7  C   UNL A   1      34.023  22.361  25.464  1.00  0.00     0.062 A 
ATOM      8  C   UNL A   1      33.182  23.013  23.335  1.00  0.00     0.045 A 
ATOM      9  C   UNL A   1      33.729  23.376  24.550  1.00  0.00     0.042 A 
ATOM     10  C   UNL A   1      32.619  21.723  23.203  1.00  0.00    -0.027 A 
ATOM     11  C   UNL A   1      32.844  20.750  24.195  1.00  0.00     0.006 A 
ATOM     12  C   UNL A   1      31.949  21.215  21.966  1.00  0.00     0.046 C 
ATOM     13  C   UNL A   1      33.612  21.052  25.289  1.00  0.00     0.016 A 
BRANCH   8  14
ATOM     14  N   UNL A   1      33.232  23.870  22.224  1.00  0.00    -0.322 N 
ATOM     15  C   UNL A   1      32.636  25.094  21.925  1.00  0.00     0.259 C 
ATOM     16  O   UNL A   1      32.934  25.541  20.806  1.00  0.00    -0.269 OA
ATOM     17  H   UNL A   1      33.812  23.535  21.502  1.00  0.00     0.170 HD
BRANCH  15  18
ATOM     18  C   UNL A   1      31.682  25.920  22.775  1.00  0.00     0.082 A 
ATOM     19  C   UNL A   1      30.670  25.451  23.655  1.00  0.00     0.132 A 
ATOM     20  C   UNL A   1      29.536  26.243  24.013  1.00  0.00     0.056 A 
ATOM     21  C   UNL A   1      29.241  27.481  23.386  1.00  0.00    -0.015 A 
ATOM     22  C   UNL A   1      31.783  27.319  22.496  1.00  0.00     0.026 A 
ATOM     23  C   UNL A   1      27.624  28.420  23.264  1.00  0.00     0.009 A 
ATOM     24  C   UNL A   1      30.686  28.180  22.623  1.00  0.00    -0.017 A 
ATOM     25  C   UNL A   1      27.538  30.032  22.420  1.00  0.00     0.001 A 
ATOM     26  C   UNL A   1      30.605  29.799  21.850  1.00  0.00     0.009 A 
ATOM     27  C   UNL A   1      29.054  30.720  21.692  1.00  0.00     0.001 A 
BRANCH  19  28
ATOM     28  O   UNL A   1      30.486  24.144  24.038  1.00  0.00    -0.496 OA
ATOM     29  C   UNL A   1      30.436  23.868  25.425  1.00  0.00     0.278 C 
ENDBRANCH  19  28
ENDBRANCH  15  18
ENDBRANCH   8  14
ENDBRANCH   5   7
ENDBRANCH   4   5
ENDBRANCH   3   4
ENDBRANCH   2   3
ENDBRANCH   1   2
BRANCH   1  30
ATOM     30  C   UNL A   1      38.536  19.665  25.152  1.00  0.00     0.202 C 
BRANCH  30  31
ATOM     31  C   UNL A   1      39.966  19.720  25.805  1.00  0.00     0.261 C 
BRANCH  31  32
ATOM     32  O   UNL A   1      40.919  20.954  26.043  1.00  0.00    -0.460 OA
BRANCH  32  33
ATOM     33  C   UNL A   1      41.700  22.036  26.320  1.00  0.00     0.338 C 
ATOM     34  O   UNL A   1      41.228  22.867  27.100  1.00  0.00    -0.246 OA
BRANCH  33  35
ATOM     35  C   UNL A   1      43.044  22.432  25.665  1.00  0.00     0.060 A 
ATOM     36  C   UNL A   1      44.249  21.928  26.149  1.00  0.00     0.016 A 
ATOM     37  C   UNL A   1      43.247  23.406  24.717  1.00  0.00     0.016 A 
ATOM     38  C   UNL A   1      45.351  22.793  26.313  1.00  0.00     0.010 A 
ATOM     39  C   UNL A   1      44.247  24.343  24.993  1.00  0.00     0.010 A 
ATOM     40  C   UNL A   1      45.156  24.116  26.030  1.00  0.00    -0.014 A 
BRANCH  40  41
ATOM     41  C   UNL A   1      45.718  25.260  26.810  1.00  0.00     0.031 A 
ATOM     42  C   UNL A   1      44.809  25.873  27.834  1.00  0.00     0.074 A 
ATOM     43  C   UNL A   1      47.070  25.328  26.954  1.00  0.00     0.049 A 
ATOM     44  N   UNL A   1      45.088  26.685  28.802  1.00  0.00    -0.248 NA
ATOM     45  C   UNL A   1      43.373  25.626  27.695  1.00  0.00     0.031 C 
ATOM     46  C   UNL A   1      47.825  25.074  28.171  1.00  0.00     0.029 A 
ATOM     47  N   UNL A   1      48.092  25.517  26.010  1.00  0.00    -0.354 N 
ATOM     48  C   UNL A   1      43.880  26.989  29.446  1.00  0.00     0.074 A 
ATOM     49  C   UNL A   1      42.863  26.273  28.736  1.00  0.00     0.031 C 
ATOM     50  C   UNL A   1      49.136  25.060  27.863  1.00  0.00     0.029 A 
ATOM     51  C   UNL A   1      49.366  25.784  26.632  1.00  0.00     0.049 A 
ATOM     52  H   UNL A   1      47.954  25.473  25.036  1.00  0.00     0.167 HD
ATOM     53  C   UNL A   1      43.813  27.846  30.503  1.00  0.00     0.034 A 
ATOM     54  C   UNL A   1      50.083  27.071  26.530  1.00  0.00     0.034 A 
ATOM     55  C   UNL A   1      45.100  28.559  30.637  1.00  0.00     0.049 A 
ATOM     56  C   UNL A   1      50.092  29.030  27.441  1.00  0.00     0.074 A 
ATOM     57  C   UNL A   1      46.206  28.400  31.448  1.00  0.00     0.029 A 
ATOM     58  N   UNL A   1      45.498  29.450  29.638  1.00  0.00    -0.354 N 
ATOM     59  N   UNL A   1      49.463  29.532  28.628  1.00  0.00    -0.248 NA
ATOM     60  C   UNL A   1      50.440  30.557  26.895  1.00  0.00     0.031 C 
ATOM     61  C   UNL A   1      47.259  29.216  30.927  1.00  0.00     0.029 A 
ATOM     62  C   UNL A   1      46.806  29.918  29.817  1.00  0.00     0.049 A 
ATOM     63  H   UNL A   1      44.920  29.722  28.888  1.00  0.00     0.167 HD
ATOM     64  C   UNL A   1      48.654  30.644  28.346  1.00  0.00     0.074 A 
ATOM     65  C   UNL A   1      49.363  31.255  27.259  1.00  0.00     0.031 C 
ATOM     66  C   UNL A   1      47.392  30.915  28.876  1.00  0.00     0.034 A 
BRANCH  53  67
ATOM     67  C   UNL A   1      42.621  28.032  31.492  1.00  0.00     0.023 A 
ATOM     68  C   UNL A   1      42.895  27.727  32.846  1.00  0.00     0.012 A 
ATOM     69  C   UNL A   1      41.250  28.366  31.232  1.00  0.00     0.148 A 
ATOM     70  C   UNL A   1      41.909  27.698  33.849  1.00  0.00     0.002 A 
ATOM     71  C   UNL A   1      40.266  28.367  32.244  1.00  0.00     0.091 A 
ATOM     72  F   UNL A   1      40.840  28.649  29.997  1.00  0.00    -0.205 F 
ATOM     73  C   UNL A   1      40.594  28.013  33.551  1.00  0.00     0.022 A 
BRANCH  71  74
ATOM     74  S   UNL A   1      38.516  28.769  31.962  1.00  0.00     0.127 S 
ATOM     75  O   UNL A   1      37.890  28.307  33.203  1.00  0.00    -0.237 OA
ATOM     76  O   UNL A   1      38.542  30.224  31.812  1.00  0.00    -0.237 OA
ATOM     77  O   UNL A   1      38.107  28.042  30.767  1.00  0.00    -0.744 OA
ENDBRANCH  71  74
ENDBRANCH  53  67
BRANCH  54  78
ATOM     78  C   UNL A   1      50.699  26.487  25.006  1.00  0.00     0.023 A 
ATOM     79  C   UNL A   1      50.350  27.277  23.875  1.00  0.00     0.012 A 
ATOM     80  C   UNL A   1      51.961  25.822  24.982  1.00  0.00     0.148 A 
ATOM     81  C   UNL A   1      51.326  27.641  22.941  1.00  0.00     0.002 A 
ATOM     82  C   UNL A   1      52.939  26.266  24.111  1.00  0.00     0.091 A 
ATOM     83  F   UNL A   1      52.274  24.896  25.898  1.00  0.00    -0.205 F 
ATOM     84  C   UNL A   1      52.632  27.197  23.106  1.00  0.00     0.022 A 
BRANCH  82  85
ATOM     85  S   UNL A   1      54.615  26.403  24.748  1.00  0.00     0.127 S 
ATOM     86  O   UNL A   1      55.310  27.219  23.764  1.00  0.00    -0.237 OA
ATOM     87  O   UNL A   1      54.252  27.083  25.988  1.00  0.00    -0.237 OA
ATOM     88  O   UNL A   1      55.126  25.052  24.921  1.00  0.00    -0.744 OA
ENDBRANCH  82  85
ENDBRANCH  54  78
BRANCH  66  89
ATOM     89  C   UNL A   1      46.558  32.191  28.489  1.00  0.00     0.023 A 
ATOM     90  C   UNL A   1      46.208  33.178  29.435  1.00  0.00     0.012 A 
ATOM     91  C   UNL A   1      45.998  32.426  27.200  1.00  0.00     0.148 A 
ATOM     92  C   UNL A   1      45.525  34.365  29.142  1.00  0.00     0.002 A 
ATOM     93  C   UNL A   1      45.245  33.575  26.914  1.00  0.00     0.091 A 
ATOM     94  F   UNL A   1      46.114  31.506  26.238  1.00  0.00    -0.205 F 
ATOM     95  C   UNL A   1      45.037  34.564  27.874  1.00  0.00     0.022 A 
BRANCH  93  96
ATOM     96  S   UNL A   1      44.402  33.829  25.345  1.00  0.00     0.127 S 
ATOM     97  O   UNL A   1      45.516  34.230  24.485  1.00  0.00    -0.237 OA
ATOM     98  O   UNL A   1      43.869  32.494  25.067  1.00  0.00    -0.237 OA
ATOM     99  O   UNL A   1      43.396  34.849  25.594  1.00  0.00    -0.744 OA
ENDBRANCH  93  96
ENDBRANCH  66  89
ENDBRANCH  40  41
ENDBRANCH  33  35
ENDBRANCH  32  33
ENDBRANCH  31  32
ENDBRANCH  30  31
ENDBRANCH   1  30
TORSDOF 20
ENDMDL
