MODEL 1
REMARK VINA RESULT:      -9.9      0.000      0.000
REMARK SMILES CN(C)c1ccc(C(=O)NCCCC(=O)OCCOCCOC(=O)c2ccc(-c3c4nc(c(-c5cccc(S(=O)(=O)[O-])c5F)c5ccc([nH]5)c(-c5cccc(S(=O)(=O)[O-])c5F)c5nc(c(-c6cccc(S(=O)(=O)[O-])c6F)c6ccc3[nH]6)C=C5)C=C4)cc2)cn1
REMARK SMILES IDX 18 1 17 2 16 3 14 4 15 5 13 6 12 7 11 8 10 9 8 10 9 11 7 13
REMARK SMILES IDX 4 14 5 15 89 16 6 17 88 18 2 19 1 20 3 21 19 22 20 23 21 24
REMARK SMILES IDX 22 25 23 26 24 27 25 28 26 29 87 30 27 31 86 32 28 33 29 34
REMARK SMILES IDX 30 35 80 36 31 37 85 38 79 39 81 40 32 41 84 42 78 43 77 44
REMARK SMILES IDX 33 46 65 47 45 48 64 49 46 50 49 51 63 52 82 53 47 54 48 55
REMARK SMILES IDX 62 57 83 58 50 59 34 60 35 61 43 62 36 63 38 64 44 65 37 66
REMARK SMILES IDX 39 67 40 68 41 69 42 70 66 71 67 72 75 73 68 74 70 75 76 76
REMARK SMILES IDX 69 77 71 78 72 79 73 80 74 81 51 82 52 83 60 84 53 85 55 86
REMARK SMILES IDX 61 87 54 88 56 89 57 90 58 91 59 92
REMARK H PARENT 10 12 81 45 49 56
REMARK Flexibility Score: inf
ROOT
ATOM      1  C   UNL A   1      33.982  19.762  24.664  1.00  0.00     0.202 C 
ENDROOT
BRANCH   1   2
ATOM      2  C   UNL A   1      32.902  20.156  25.678  1.00  0.00     0.261 C 
BRANCH   2   3
ATOM      3  O   UNL A   1      31.905  20.981  25.045  1.00  0.00    -0.463 OA
BRANCH   3   4
ATOM      4  C   UNL A   1      32.055  22.326  25.099  1.00  0.00     0.305 C 
ATOM      5  O   UNL A   1      32.294  22.970  26.111  1.00  0.00    -0.252 OA
BRANCH   4   6
ATOM      6  C   UNL A   1      31.889  22.956  23.728  1.00  0.00     0.124 C 
BRANCH   6   7
ATOM      7  C   UNL A   1      30.566  23.701  23.489  1.00  0.00     0.033 C 
BRANCH   7   8
ATOM      8  C   UNL A   1      30.722  25.128  22.949  1.00  0.00     0.117 C 
BRANCH   8   9
ATOM      9  N   UNL A   1      32.027  25.282  22.347  1.00  0.00    -0.352 N 
ATOM     10  C   UNL A   1      33.147  26.011  22.632  1.00  0.00     0.252 C 
ATOM     11  O   UNL A   1      34.027  26.000  21.767  1.00  0.00    -0.269 OA
ATOM     12  H   UNL A   1      32.135  24.729  21.540  1.00  0.00     0.163 HD
BRANCH  10  13
ATOM     13  C   UNL A   1      33.392  26.780  23.878  1.00  0.00     0.058 A 
ATOM     14  C   UNL A   1      33.852  28.548  25.999  1.00  0.00     0.127 A 
ATOM     15  C   UNL A   1      33.849  27.173  26.217  1.00  0.00     0.048 A 
ATOM     16  N   UNL A   1      33.597  29.043  24.775  1.00  0.00    -0.239 NA
ATOM     17  C   UNL A   1      33.580  26.290  25.164  1.00  0.00     0.019 A 
ATOM     18  C   UNL A   1      33.407  28.166  23.751  1.00  0.00     0.127 A 
BRANCH  14  19
ATOM     19  N   UNL A   1      34.098  29.423  27.060  1.00  0.00    -0.363 N 
ATOM     20  C   UNL A   1      35.510  29.703  27.295  1.00  0.00     0.144 C 
ATOM     21  C   UNL A   1      33.177  30.546  27.151  1.00  0.00     0.144 C 
ENDBRANCH  14  19
ENDBRANCH  10  13
ENDBRANCH   8   9
ENDBRANCH   7   8
ENDBRANCH   6   7
ENDBRANCH   4   6
ENDBRANCH   3   4
ENDBRANCH   2   3
ENDBRANCH   1   2
BRANCH   1  22
ATOM     22  O   UNL A   1      35.273  20.339  24.891  1.00  0.00    -0.374 OA
BRANCH  22  23
ATOM     23  C   UNL A   1      36.371  19.433  24.908  1.00  0.00     0.202 C 
BRANCH  23  24
ATOM     24  C   UNL A   1      37.756  20.053  24.686  1.00  0.00     0.261 C 
BRANCH  24  25
ATOM     25  O   UNL A   1      38.074  21.039  25.683  1.00  0.00    -0.460 OA
BRANCH  25  26
ATOM     26  C   UNL A   1      39.327  20.941  26.186  1.00  0.00     0.338 C 
ATOM     27  O   UNL A   1      40.069  19.967  26.129  1.00  0.00    -0.246 OA
BRANCH  26  28
ATOM     28  C   UNL A   1      39.783  22.247  26.690  1.00  0.00     0.060 A 
ATOM     29  C   UNL A   1      39.185  23.390  26.142  1.00  0.00     0.016 A 
ATOM     30  C   UNL A   1      40.814  22.367  27.625  1.00  0.00     0.016 A 
ATOM     31  C   UNL A   1      39.643  24.657  26.497  1.00  0.00     0.010 A 
ATOM     32  C   UNL A   1      41.275  23.641  27.976  1.00  0.00     0.010 A 
ATOM     33  C   UNL A   1      40.713  24.791  27.391  1.00  0.00    -0.014 A 
BRANCH  33  34
ATOM     34  C   UNL A   1      41.297  26.133  27.640  1.00  0.00     0.031 A 
ATOM     35  C   UNL A   1      42.672  26.453  27.125  1.00  0.00     0.074 A 
ATOM     36  C   UNL A   1      40.602  27.060  28.324  1.00  0.00     0.049 A 
ATOM     37  N   UNL A   1      43.368  27.553  27.255  1.00  0.00    -0.248 NA
ATOM     38  C   UNL A   1      43.356  25.396  26.364  1.00  0.00     0.031 C 
ATOM     39  C   UNL A   1      39.263  26.869  28.878  1.00  0.00     0.029 A 
ATOM     40  N   UNL A   1      40.942  28.337  28.694  1.00  0.00    -0.354 N 
ATOM     41  C   UNL A   1      44.582  27.313  26.624  1.00  0.00     0.074 A 
ATOM     42  C   UNL A   1      44.531  25.958  26.115  1.00  0.00     0.031 C 
ATOM     43  C   UNL A   1      38.907  27.979  29.548  1.00  0.00     0.029 A 
ATOM     44  C   UNL A   1      40.002  28.945  29.492  1.00  0.00     0.049 A 
ATOM     45  H   UNL A   1      41.778  28.776  28.414  1.00  0.00     0.167 HD
ATOM     46  C   UNL A   1      45.639  28.147  26.470  1.00  0.00     0.034 A 
ATOM     47  C   UNL A   1      40.033  30.131  30.131  1.00  0.00     0.034 A 
ATOM     48  C   UNL A   1      45.680  29.499  26.958  1.00  0.00     0.049 A 
ATOM     49  C   UNL A   1      41.230  31.031  29.965  1.00  0.00     0.074 A 
ATOM     50  C   UNL A   1      46.679  30.443  26.788  1.00  0.00     0.029 A 
ATOM     51  N   UNL A   1      44.694  30.095  27.728  1.00  0.00    -0.354 N 
ATOM     52  N   UNL A   1      42.311  30.842  29.248  1.00  0.00    -0.248 NA
ATOM     53  C   UNL A   1      41.197  32.320  30.672  1.00  0.00     0.031 C 
ATOM     54  C   UNL A   1      46.313  31.598  27.489  1.00  0.00     0.029 A 
ATOM     55  C   UNL A   1      45.071  31.386  28.064  1.00  0.00     0.049 A 
ATOM     56  H   UNL A   1      43.851  29.665  27.998  1.00  0.00     0.167 HD
ATOM     57  C   UNL A   1      43.073  31.996  29.395  1.00  0.00     0.074 A 
ATOM     58  C   UNL A   1      42.318  32.889  30.249  1.00  0.00     0.031 C 
ATOM     59  C   UNL A   1      44.294  32.285  28.880  1.00  0.00     0.034 A 
BRANCH  46  60
ATOM     60  C   UNL A   1      46.841  27.624  25.728  1.00  0.00     0.023 A 
ATOM     61  C   UNL A   1      46.951  27.829  24.338  1.00  0.00     0.012 A 
ATOM     62  C   UNL A   1      47.890  26.985  26.418  1.00  0.00     0.148 A 
ATOM     63  C   UNL A   1      48.071  27.377  23.641  1.00  0.00     0.002 A 
ATOM     64  C   UNL A   1      49.022  26.577  25.723  1.00  0.00     0.091 A 
ATOM     65  F   UNL A   1      47.758  26.779  27.736  1.00  0.00    -0.205 F 
ATOM     66  C   UNL A   1      49.109  26.762  24.333  1.00  0.00     0.022 A 
BRANCH  64  67
ATOM     67  S   UNL A   1      50.445  25.842  26.538  1.00  0.00     0.127 S 
ATOM     68  O   UNL A   1      51.328  25.575  25.404  1.00  0.00    -0.237 OA
ATOM     69  O   UNL A   1      50.890  26.925  27.416  1.00  0.00    -0.237 OA
ATOM     70  O   UNL A   1      49.944  24.665  27.232  1.00  0.00    -0.744 OA
ENDBRANCH  64  67
ENDBRANCH  46  60
BRANCH  47  71
ATOM     71  C   UNL A   1      38.881  30.542  30.982  1.00  0.00     0.023 A 
ATOM     72  C   UNL A   1      38.848  30.172  32.340  1.00  0.00     0.012 A 
ATOM     73  C   UNL A   1      37.832  31.320  30.456  1.00  0.00     0.148 A 
ATOM     74  C   UNL A   1      37.777  30.548  33.153  1.00  0.00     0.002 A 
ATOM     75  C   UNL A   1      36.799  31.740  31.283  1.00  0.00     0.091 A 
ATOM     76  F   UNL A   1      37.875  31.646  29.155  1.00  0.00    -0.205 F 
ATOM     77  C   UNL A   1      36.760  31.341  32.628  1.00  0.00     0.022 A 
BRANCH  75  78
ATOM     78  S   UNL A   1      35.521  32.873  30.729  1.00  0.00     0.127 S 
ATOM     79  O   UNL A   1      36.310  33.925  30.094  1.00  0.00    -0.237 OA
ATOM     80  O   UNL A   1      34.756  32.032  29.806  1.00  0.00    -0.237 OA
ATOM     81  O   UNL A   1      34.795  33.263  31.929  1.00  0.00    -0.744 OA
ENDBRANCH  75  78
ENDBRANCH  47  71
BRANCH  59  82
ATOM     82  C   UNL A   1      44.892  33.632  29.199  1.00  0.00     0.023 A 
ATOM     83  C   UNL A   1      45.619  33.811  30.393  1.00  0.00     0.012 A 
ATOM     84  C   UNL A   1      44.799  34.697  28.281  1.00  0.00     0.148 A 
ATOM     85  C   UNL A   1      46.216  35.037  30.683  1.00  0.00     0.002 A 
ATOM     86  C   UNL A   1      45.439  35.901  28.554  1.00  0.00     0.091 A 
ATOM     87  F   UNL A   1      44.090  34.513  27.158  1.00  0.00    -0.205 F 
ATOM     88  C   UNL A   1      46.137  36.077  29.759  1.00  0.00     0.022 A 
BRANCH  86  89
ATOM     89  S   UNL A   1      45.473  37.264  27.384  1.00  0.00     0.127 S 
ATOM     90  O   UNL A   1      46.099  36.642  26.218  1.00  0.00    -0.237 OA
ATOM     91  O   UNL A   1      44.051  37.569  27.222  1.00  0.00    -0.237 OA
ATOM     92  O   UNL A   1      46.249  38.321  28.018  1.00  0.00    -0.744 OA
ENDBRANCH  86  89
ENDBRANCH  59  82
ENDBRANCH  33  34
ENDBRANCH  26  28
ENDBRANCH  25  26
ENDBRANCH  24  25
ENDBRANCH  23  24
ENDBRANCH  22  23
ENDBRANCH   1  22
TORSDOF 22
ENDMDL
MODEL 2
REMARK VINA RESULT:      -9.4      1.639      7.982
REMARK SMILES CN(C)c1ccc(C(=O)NCCCC(=O)OCCOCCOC(=O)c2ccc(-c3c4nc(c(-c5cccc(S(=O)(=O)[O-])c5F)c5ccc([nH]5)c(-c5cccc(S(=O)(=O)[O-])c5F)c5nc(c(-c6cccc(S(=O)(=O)[O-])c6F)c6ccc3[nH]6)C=C5)C=C4)cc2)cn1
REMARK SMILES IDX 18 1 17 2 16 3 14 4 15 5 13 6 12 7 11 8 10 9 8 10 9 11 7 13
REMARK SMILES IDX 4 14 5 15 89 16 6 17 88 18 2 19 1 20 3 21 19 22 20 23 21 24
REMARK SMILES IDX 22 25 23 26 24 27 25 28 26 29 87 30 27 31 86 32 28 33 29 34
REMARK SMILES IDX 30 35 80 36 31 37 85 38 79 39 81 40 32 41 84 42 78 43 77 44
REMARK SMILES IDX 33 46 65 47 45 48 64 49 46 50 49 51 63 52 82 53 47 54 48 55
REMARK SMILES IDX 62 57 83 58 50 59 34 60 35 61 43 62 36 63 38 64 44 65 37 66
REMARK SMILES IDX 39 67 40 68 41 69 42 70 66 71 67 72 75 73 68 74 70 75 76 76
REMARK SMILES IDX 69 77 71 78 72 79 73 80 74 81 51 82 52 83 60 84 53 85 55 86
REMARK SMILES IDX 61 87 54 88 56 89 57 90 58 91 59 92
REMARK H PARENT 10 12 81 45 49 56
REMARK Flexibility Score: inf
ROOT
ATOM      1  C   UNL A   1      34.247  21.116  24.487  1.00  0.00     0.202 C 
ENDROOT
BRANCH   1   2
ATOM      2  C   UNL A   1      32.726  21.099  24.677  1.00  0.00     0.261 C 
BRANCH   2   3
ATOM      3  O   UNL A   1      32.089  21.890  23.655  1.00  0.00    -0.463 OA
BRANCH   3   4
ATOM      4  C   UNL A   1      31.401  22.994  24.032  1.00  0.00     0.305 C 
ATOM      5  O   UNL A   1      30.755  23.713  23.283  1.00  0.00    -0.252 OA
BRANCH   4   6
ATOM      6  C   UNL A   1      31.529  23.241  25.524  1.00  0.00     0.124 C 
BRANCH   6   7
ATOM      7  C   UNL A   1      30.642  24.359  26.097  1.00  0.00     0.033 C 
BRANCH   7   8
ATOM      8  C   UNL A   1      31.336  25.719  26.236  1.00  0.00     0.117 C 
BRANCH   8   9
ATOM      9  N   UNL A   1      32.296  25.889  25.169  1.00  0.00    -0.352 N 
ATOM     10  C   UNL A   1      32.383  26.682  24.059  1.00  0.00     0.252 C 
ATOM     11  O   UNL A   1      33.301  26.414  23.280  1.00  0.00    -0.269 OA
ATOM     12  H   UNL A   1      33.072  25.292  25.265  1.00  0.00     0.163 HD
BRANCH  10  13
ATOM     13  C   UNL A   1      31.494  27.826  23.734  1.00  0.00     0.058 A 
ATOM     14  C   UNL A   1      29.783  29.819  22.767  1.00  0.00     0.127 A 
ATOM     15  C   UNL A   1      30.341  29.927  24.038  1.00  0.00     0.048 A 
ATOM     16  N   UNL A   1      30.030  28.738  22.005  1.00  0.00    -0.239 NA
ATOM     17  C   UNL A   1      31.166  28.911  24.537  1.00  0.00     0.019 A 
ATOM     18  C   UNL A   1      30.889  27.796  22.481  1.00  0.00     0.127 A 
BRANCH  14  19
ATOM     19  N   UNL A   1      28.943  30.826  22.285  1.00  0.00    -0.363 N 
ATOM     20  C   UNL A   1      28.013  30.392  21.250  1.00  0.00     0.144 C 
ATOM     21  C   UNL A   1      28.427  31.729  23.304  1.00  0.00     0.144 C 
ENDBRANCH  14  19
ENDBRANCH  10  13
ENDBRANCH   8   9
ENDBRANCH   7   8
ENDBRANCH   6   7
ENDBRANCH   4   6
ENDBRANCH   3   4
ENDBRANCH   2   3
ENDBRANCH   1   2
BRANCH   1  22
ATOM     22  O   UNL A   1      34.987  20.309  25.410  1.00  0.00    -0.374 OA
BRANCH  22  23
ATOM     23  C   UNL A   1      36.225  19.788  24.935  1.00  0.00     0.202 C 
BRANCH  23  24
ATOM     24  C   UNL A   1      37.285  20.826  24.547  1.00  0.00     0.261 C 
BRANCH  24  25
ATOM     25  O   UNL A   1      37.695  21.626  25.670  1.00  0.00    -0.460 OA
BRANCH  25  26
ATOM     26  C   UNL A   1      38.953  21.374  26.105  1.00  0.00     0.338 C 
ATOM     27  O   UNL A   1      39.598  20.345  25.937  1.00  0.00    -0.246 OA
BRANCH  26  28
ATOM     28  C   UNL A   1      39.549  22.588  26.688  1.00  0.00     0.060 A 
ATOM     29  C   UNL A   1      38.974  23.816  26.335  1.00  0.00     0.016 A 
ATOM     30  C   UNL A   1      40.680  22.544  27.506  1.00  0.00     0.016 A 
ATOM     31  C   UNL A   1      39.553  25.008  26.767  1.00  0.00     0.010 A 
ATOM     32  C   UNL A   1      41.262  23.743  27.933  1.00  0.00     0.010 A 
ATOM     33  C   UNL A   1      40.720  24.981  27.541  1.00  0.00    -0.014 A 
BRANCH  33  34
ATOM     34  C   UNL A   1      41.417  26.251  27.862  1.00  0.00     0.031 A 
ATOM     35  C   UNL A   1      40.714  27.300  28.679  1.00  0.00     0.074 A 
ATOM     36  C   UNL A   1      42.671  26.468  27.427  1.00  0.00     0.049 A 
ATOM     37  N   UNL A   1      41.138  28.481  29.048  1.00  0.00    -0.248 NA
ATOM     38  C   UNL A   1      39.355  26.977  29.141  1.00  0.00     0.031 C 
ATOM     39  C   UNL A   1      43.456  25.532  26.624  1.00  0.00     0.029 A 
ATOM     40  N   UNL A   1      43.492  27.558  27.574  1.00  0.00    -0.354 N 
ATOM     41  C   UNL A   1      40.090  29.057  29.755  1.00  0.00     0.074 A 
ATOM     42  C   UNL A   1      39.006  28.097  29.760  1.00  0.00     0.031 C 
ATOM     43  C   UNL A   1      44.635  26.102  26.320  1.00  0.00     0.029 A 
ATOM     44  C   UNL A   1      44.675  27.450  26.883  1.00  0.00     0.049 A 
ATOM     45  H   UNL A   1      43.256  28.341  28.122  1.00  0.00     0.167 HD
ATOM     46  C   UNL A   1      40.037  30.270  30.358  1.00  0.00     0.034 A 
ATOM     47  C   UNL A   1      45.665  28.346  26.698  1.00  0.00     0.034 A 
ATOM     48  C   UNL A   1      41.122  31.214  30.371  1.00  0.00     0.049 A 
ATOM     49  C   UNL A   1      45.573  29.697  27.358  1.00  0.00     0.074 A 
ATOM     50  C   UNL A   1      41.187  32.438  31.016  1.00  0.00     0.029 A 
ATOM     51  N   UNL A   1      42.320  31.055  29.694  1.00  0.00    -0.354 N 
ATOM     52  N   UNL A   1      44.633  30.172  28.139  1.00  0.00    -0.248 NA
ATOM     53  C   UNL A   1      46.692  30.625  27.135  1.00  0.00     0.031 C 
ATOM     54  C   UNL A   1      42.411  33.035  30.697  1.00  0.00     0.029 A 
ATOM     55  C   UNL A   1      43.123  32.169  29.884  1.00  0.00     0.049 A 
ATOM     56  H   UNL A   1      42.566  30.268  29.157  1.00  0.00     0.167 HD
ATOM     57  C   UNL A   1      45.059  31.439  28.523  1.00  0.00     0.074 A 
ATOM     58  C   UNL A   1      46.353  31.648  27.907  1.00  0.00     0.031 C 
ATOM     59  C   UNL A   1      44.429  32.352  29.303  1.00  0.00     0.034 A 
BRANCH  46  60
ATOM     60  C   UNL A   1      38.763  30.643  31.070  1.00  0.00     0.023 A 
ATOM     61  C   UNL A   1      38.633  30.394  32.451  1.00  0.00     0.012 A 
ATOM     62  C   UNL A   1      37.721  31.297  30.384  1.00  0.00     0.148 A 
ATOM     63  C   UNL A   1      37.472  30.760  33.132  1.00  0.00     0.002 A 
ATOM     64  C   UNL A   1      36.586  31.698  31.078  1.00  0.00     0.091 A 
ATOM     65  F   UNL A   1      37.854  31.505  29.067  1.00  0.00    -0.205 F 
ATOM     66  C   UNL A   1      36.455  31.420  32.449  1.00  0.00     0.022 A 
BRANCH  64  67
ATOM     67  S   UNL A   1      35.253  32.620  30.302  1.00  0.00     0.127 S 
ATOM     68  O   UNL A   1      34.330  32.801  31.422  1.00  0.00    -0.237 OA
ATOM     69  O   UNL A   1      35.934  33.841  29.871  1.00  0.00    -0.237 OA
ATOM     70  O   UNL A   1      34.765  31.782  29.217  1.00  0.00    -0.744 OA
ENDBRANCH  64  67
ENDBRANCH  46  60
BRANCH  47  71
ATOM     71  C   UNL A   1      46.840  27.986  25.856  1.00  0.00     0.023 A 
ATOM     72  C   UNL A   1      46.729  28.012  24.452  1.00  0.00     0.012 A 
ATOM     73  C   UNL A   1      48.074  27.644  26.441  1.00  0.00     0.148 A 
ATOM     74  C   UNL A   1      47.819  27.679  23.647  1.00  0.00     0.002 A 
ATOM     75  C   UNL A   1      49.171  27.369  25.634  1.00  0.00     0.091 A 
ATOM     76  F   UNL A   1      48.152  27.608  27.780  1.00  0.00    -0.205 F 
ATOM     77  C   UNL A   1      49.041  27.369  24.237  1.00  0.00     0.022 A 
BRANCH  75  78
ATOM     78  S   UNL A   1      50.814  27.095  26.304  1.00  0.00     0.127 S 
ATOM     79  O   UNL A   1      51.211  28.447  26.684  1.00  0.00    -0.237 OA
ATOM     80  O   UNL A   1      50.533  26.196  27.425  1.00  0.00    -0.237 OA
ATOM     81  O   UNL A   1      51.581  26.490  25.225  1.00  0.00    -0.744 OA
ENDBRANCH  75  78
ENDBRANCH  47  71
BRANCH  59  82
ATOM     82  C   UNL A   1      45.133  33.660  29.564  1.00  0.00     0.023 A 
ATOM     83  C   UNL A   1      46.208  33.709  30.473  1.00  0.00     0.012 A 
ATOM     84  C   UNL A   1      44.778  34.824  28.852  1.00  0.00     0.148 A 
ATOM     85  C   UNL A   1      46.898  34.901  30.693  1.00  0.00     0.002 A 
ATOM     86  C   UNL A   1      45.502  35.995  29.039  1.00  0.00     0.091 A 
ATOM     87  F   UNL A   1      43.741  34.762  28.003  1.00  0.00    -0.205 F 
ATOM     88  C   UNL A   1      46.554  36.039  29.968  1.00  0.00     0.022 A 
BRANCH  86  89
ATOM     89  S   UNL A   1      45.194  37.485  28.083  1.00  0.00     0.127 S 
ATOM     90  O   UNL A   1      45.400  37.011  26.716  1.00  0.00    -0.237 OA
ATOM     91  O   UNL A   1      43.802  37.787  28.420  1.00  0.00    -0.237 OA
ATOM     92  O   UNL A   1      46.158  38.471  28.552  1.00  0.00    -0.744 OA
ENDBRANCH  86  89
ENDBRANCH  59  82
ENDBRANCH  33  34
ENDBRANCH  26  28
ENDBRANCH  25  26
ENDBRANCH  24  25
ENDBRANCH  23  24
ENDBRANCH  22  23
ENDBRANCH   1  22
TORSDOF 22
ENDMDL
MODEL 3
REMARK VINA RESULT:      -8.8      2.261      7.930
REMARK SMILES CN(C)c1ccc(C(=O)NCCCC(=O)OCCOCCOC(=O)c2ccc(-c3c4nc(c(-c5cccc(S(=O)(=O)[O-])c5F)c5ccc([nH]5)c(-c5cccc(S(=O)(=O)[O-])c5F)c5nc(c(-c6cccc(S(=O)(=O)[O-])c6F)c6ccc3[nH]6)C=C5)C=C4)cc2)cn1
REMARK SMILES IDX 18 1 17 2 16 3 14 4 15 5 13 6 12 7 11 8 10 9 8 10 9 11 7 13
REMARK SMILES IDX 4 14 5 15 89 16 6 17 88 18 2 19 1 20 3 21 19 22 20 23 21 24
REMARK SMILES IDX 22 25 23 26 24 27 25 28 26 29 87 30 27 31 86 32 28 33 29 34
REMARK SMILES IDX 30 35 80 36 31 37 85 38 79 39 81 40 32 41 84 42 78 43 77 44
REMARK SMILES IDX 33 46 65 47 45 48 64 49 46 50 49 51 63 52 82 53 47 54 48 55
REMARK SMILES IDX 62 57 83 58 50 59 34 60 35 61 43 62 36 63 38 64 44 65 37 66
REMARK SMILES IDX 39 67 40 68 41 69 42 70 66 71 67 72 75 73 68 74 70 75 76 76
REMARK SMILES IDX 69 77 71 78 72 79 73 80 74 81 51 82 52 83 60 84 53 85 55 86
REMARK SMILES IDX 61 87 54 88 56 89 57 90 58 91 59 92
REMARK H PARENT 10 12 81 45 49 56
REMARK Flexibility Score: inf
ROOT
ATOM      1  C   UNL A   1      38.451  22.440  25.878  1.00  0.00     0.202 C 
ENDROOT
BRANCH   1   2
ATOM      2  C   UNL A   1      37.315  22.137  24.894  1.00  0.00     0.261 C 
BRANCH   2   3
ATOM      3  O   UNL A   1      36.157  22.932  25.216  1.00  0.00    -0.463 OA
BRANCH   3   4
ATOM      4  C   UNL A   1      34.978  22.297  25.417  1.00  0.00     0.305 C 
ATOM      5  O   UNL A   1      34.714  21.586  26.376  1.00  0.00    -0.252 OA
BRANCH   4   6
ATOM      6  C   UNL A   1      34.001  22.575  24.289  1.00  0.00     0.124 C 
BRANCH   6   7
ATOM      7  C   UNL A   1      32.906  23.611  24.590  1.00  0.00     0.033 C 
BRANCH   7   8
ATOM      8  C   UNL A   1      31.642  23.475  23.733  1.00  0.00     0.117 C 
BRANCH   8   9
ATOM      9  N   UNL A   1      31.769  24.287  22.544  1.00  0.00    -0.352 N 
ATOM     10  C   UNL A   1      31.857  25.627  22.290  1.00  0.00     0.252 C 
ATOM     11  O   UNL A   1      31.787  25.952  21.102  1.00  0.00    -0.269 OA
ATOM     12  H   UNL A   1      31.800  23.747  21.722  1.00  0.00     0.163 HD
BRANCH  10  13
ATOM     13  C   UNL A   1      32.047  26.695  23.303  1.00  0.00     0.058 A 
ATOM     14  C   UNL A   1      32.783  28.705  25.108  1.00  0.00     0.127 A 
ATOM     15  C   UNL A   1      31.483  28.208  25.100  1.00  0.00     0.048 A 
ATOM     16  N   UNL A   1      33.689  28.252  24.224  1.00  0.00    -0.239 NA
ATOM     17  C   UNL A   1      31.104  27.230  24.171  1.00  0.00     0.019 A 
ATOM     18  C   UNL A   1      33.321  27.253  23.377  1.00  0.00     0.127 A 
BRANCH  14  19
ATOM     19  N   UNL A   1      33.146  29.697  26.022  1.00  0.00    -0.363 N 
ATOM     20  C   UNL A   1      32.028  30.468  26.552  1.00  0.00     0.144 C 
ATOM     21  C   UNL A   1      34.187  29.307  26.963  1.00  0.00     0.144 C 
ENDBRANCH  14  19
ENDBRANCH  10  13
ENDBRANCH   8   9
ENDBRANCH   7   8
ENDBRANCH   6   7
ENDBRANCH   4   6
ENDBRANCH   3   4
ENDBRANCH   2   3
ENDBRANCH   1   2
BRANCH   1  22
ATOM     22  O   UNL A   1      39.238  21.309  26.270  1.00  0.00    -0.374 OA
BRANCH  22  23
ATOM     23  C   UNL A   1      38.846  20.053  25.725  1.00  0.00     0.202 C 
BRANCH  23  24
ATOM     24  C   UNL A   1      39.959  19.009  25.579  1.00  0.00     0.261 C 
BRANCH  24  25
ATOM     25  O   UNL A   1      41.037  19.234  26.505  1.00  0.00    -0.460 OA
BRANCH  25  26
ATOM     26  C   UNL A   1      42.182  19.677  25.931  1.00  0.00     0.338 C 
ATOM     27  O   UNL A   1      42.862  19.091  25.097  1.00  0.00    -0.246 OA
BRANCH  26  28
ATOM     28  C   UNL A   1      42.443  21.074  26.318  1.00  0.00     0.060 A 
ATOM     29  C   UNL A   1      42.604  22.005  25.283  1.00  0.00     0.016 A 
ATOM     30  C   UNL A   1      42.596  21.462  27.651  1.00  0.00     0.016 A 
ATOM     31  C   UNL A   1      42.958  23.321  25.577  1.00  0.00     0.010 A 
ATOM     32  C   UNL A   1      42.956  22.783  27.942  1.00  0.00     0.010 A 
ATOM     33  C   UNL A   1      43.169  23.711  26.906  1.00  0.00    -0.014 A 
BRANCH  33  34
ATOM     34  C   UNL A   1      43.697  25.067  27.198  1.00  0.00     0.031 A 
ATOM     35  C   UNL A   1      42.782  26.116  27.764  1.00  0.00     0.074 A 
ATOM     36  C   UNL A   1      44.988  25.360  26.958  1.00  0.00     0.049 A 
ATOM     37  N   UNL A   1      43.040  27.362  28.066  1.00  0.00    -0.248 NA
ATOM     38  C   UNL A   1      41.391  25.711  28.023  1.00  0.00     0.031 C 
ATOM     39  C   UNL A   1      45.973  24.431  26.407  1.00  0.00     0.029 A 
ATOM     40  N   UNL A   1      45.683  26.532  27.120  1.00  0.00    -0.354 N 
ATOM     41  C   UNL A   1      41.842  27.901  28.519  1.00  0.00     0.074 A 
ATOM     42  C   UNL A   1      40.852  26.846  28.447  1.00  0.00     0.031 C 
ATOM     43  C   UNL A   1      47.140  25.079  26.245  1.00  0.00     0.029 A 
ATOM     44  C   UNL A   1      46.975  26.472  26.654  1.00  0.00     0.049 A 
ATOM     45  H   UNL A   1      45.294  27.337  27.531  1.00  0.00     0.167 HD
ATOM     46  C   UNL A   1      41.590  29.154  28.967  1.00  0.00     0.034 A 
ATOM     47  C   UNL A   1      47.910  27.437  26.541  1.00  0.00     0.034 A 
ATOM     48  C   UNL A   1      42.579  30.195  29.058  1.00  0.00     0.049 A 
ATOM     49  C   UNL A   1      47.597  28.830  27.023  1.00  0.00     0.074 A 
ATOM     50  C   UNL A   1      42.434  31.475  29.566  1.00  0.00     0.029 A 
ATOM     51  N   UNL A   1      43.887  30.088  28.614  1.00  0.00    -0.354 N 
ATOM     52  N   UNL A   1      46.500  29.285  27.578  1.00  0.00    -0.248 NA
ATOM     53  C   UNL A   1      48.663  29.835  26.890  1.00  0.00     0.031 C 
ATOM     54  C   UNL A   1      43.645  32.154  29.393  1.00  0.00     0.029 A 
ATOM     55  C   UNL A   1      44.555  31.286  28.812  1.00  0.00     0.049 A 
ATOM     56  H   UNL A   1      44.284  29.280  28.216  1.00  0.00     0.167 HD
ATOM     57  C   UNL A   1      46.752  30.617  27.885  1.00  0.00     0.074 A 
ATOM     58  C   UNL A   1      48.115  30.890  27.477  1.00  0.00     0.031 C 
ATOM     59  C   UNL A   1      45.925  31.536  28.443  1.00  0.00     0.034 A 
BRANCH  46  60
ATOM     60  C   UNL A   1      40.185  29.471  29.408  1.00  0.00     0.023 A 
ATOM     61  C   UNL A   1      39.222  29.862  28.456  1.00  0.00     0.012 A 
ATOM     62  C   UNL A   1      39.803  29.321  30.756  1.00  0.00     0.148 A 
ATOM     63  C   UNL A   1      37.909  30.130  28.843  1.00  0.00     0.002 A 
ATOM     64  C   UNL A   1      38.484  29.548  31.127  1.00  0.00     0.091 A 
ATOM     65  F   UNL A   1      40.738  28.970  31.650  1.00  0.00    -0.205 F 
ATOM     66  C   UNL A   1      37.538  29.963  30.174  1.00  0.00     0.022 A 
BRANCH  64  67
ATOM     67  S   UNL A   1      37.892  29.287  32.803  1.00  0.00     0.127 S 
ATOM     68  O   UNL A   1      37.792  27.829  32.857  1.00  0.00    -0.237 OA
ATOM     69  O   UNL A   1      38.977  29.854  33.605  1.00  0.00    -0.237 OA
ATOM     70  O   UNL A   1      36.629  30.005  32.897  1.00  0.00    -0.744 OA
ENDBRANCH  64  67
ENDBRANCH  46  60
BRANCH  47  71
ATOM     71  C   UNL A   1      49.239  27.112  25.953  1.00  0.00     0.023 A 
ATOM     72  C   UNL A   1      50.204  26.444  26.731  1.00  0.00     0.012 A 
ATOM     73  C   UNL A   1      49.540  27.440  24.616  1.00  0.00     0.148 A 
ATOM     74  C   UNL A   1      51.455  26.131  26.197  1.00  0.00     0.002 A 
ATOM     75  C   UNL A   1      50.765  27.074  24.074  1.00  0.00     0.091 A 
ATOM     76  F   UNL A   1      48.613  28.091  23.899  1.00  0.00    -0.205 F 
ATOM     77  C   UNL A   1      51.730  26.435  24.867  1.00  0.00     0.022 A 
BRANCH  75  78
ATOM     78  S   UNL A   1      51.155  27.302  22.336  1.00  0.00     0.127 S 
ATOM     79  O   UNL A   1      51.184  28.758  22.225  1.00  0.00    -0.237 OA
ATOM     80  O   UNL A   1      52.461  26.649  22.235  1.00  0.00    -0.237 OA
ATOM     81  O   UNL A   1      50.089  26.634  21.604  1.00  0.00    -0.744 OA
ENDBRANCH  75  78
ENDBRANCH  47  71
BRANCH  59  82
ATOM     82  C   UNL A   1      46.468  32.924  28.672  1.00  0.00     0.023 A 
ATOM     83  C   UNL A   1      47.049  33.254  29.913  1.00  0.00     0.012 A 
ATOM     84  C   UNL A   1      46.470  33.878  27.634  1.00  0.00     0.148 A 
ATOM     85  C   UNL A   1      47.595  34.519  30.127  1.00  0.00     0.002 A 
ATOM     86  C   UNL A   1      47.061  35.119  27.839  1.00  0.00     0.091 A 
ATOM     87  F   UNL A   1      45.898  33.552  26.466  1.00  0.00    -0.205 F 
ATOM     88  C   UNL A   1      47.613  35.446  29.088  1.00  0.00     0.022 A 
BRANCH  86  89
ATOM     89  S   UNL A   1      47.216  36.343  26.532  1.00  0.00     0.127 S 
ATOM     90  O   UNL A   1      47.941  37.415  27.211  1.00  0.00    -0.237 OA
ATOM     91  O   UNL A   1      47.995  35.623  25.524  1.00  0.00    -0.237 OA
ATOM     92  O   UNL A   1      45.856  36.671  26.124  1.00  0.00    -0.744 OA
ENDBRANCH  86  89
ENDBRANCH  59  82
ENDBRANCH  33  34
ENDBRANCH  26  28
ENDBRANCH  25  26
ENDBRANCH  24  25
ENDBRANCH  23  24
ENDBRANCH  22  23
ENDBRANCH   1  22
TORSDOF 22
ENDMDL
