MODEL 1
REMARK VINA RESULT:     -10.6      0.000      0.000
REMARK SMILES CC(C)(C)c1cc2c(cc1Cl)C=C(C(=O)OCCOCCOC(=O)c1ccc(-c3c4nc(c(-c5cccc(S(=O)(=O)[O-])c5F)c5ccc([nH]5)c(-c5cccc(S(=O)(=O)[O-])c5F)c5nc(c(-c6cccc(S(=O)(=O)[O-])c6F)c6ccc3[nH]6)C=C5)C=C4)cc1)[C@@H](C(F)(F)F)O2
REMARK SMILES IDX 20 1 19 2 18 3 17 4 16 5 14 6 15 7 13 8 5 9 6 10 10 11 7 12
REMARK SMILES IDX 9 13 11 14 8 15 93 16 12 17 88 18 2 19 1 20 3 21 4 22 89 23
REMARK SMILES IDX 90 24 91 25 92 26 21 27 22 28 23 29 24 30 25 31 26 32 87 33
REMARK SMILES IDX 27 34 86 35 28 36 29 37 30 38 80 39 31 40 85 41 79 42 81 43
REMARK SMILES IDX 32 44 84 45 78 46 77 47 33 49 65 50 45 51 64 52 46 53 49 54
REMARK SMILES IDX 63 55 82 56 47 57 48 58 62 60 83 61 50 62 34 63 35 64 43 65
REMARK SMILES IDX 36 66 38 67 44 68 37 69 39 70 40 71 41 72 42 73 66 74 67 75
REMARK SMILES IDX 75 76 68 77 70 78 76 79 69 80 71 81 72 82 73 83 74 84 51 85
REMARK SMILES IDX 52 86 60 87 53 88 55 89 61 90 54 91 56 92 57 93 58 94 59 95
REMARK H PARENT 81 48 49 59
REMARK Flexibility Score: inf
ROOT
ATOM      1  C   UNL A   1      33.589  35.264  28.690  1.00  0.00     0.202 C 
ENDROOT
BRANCH   1   2
ATOM      2  O   UNL A   1      32.465  35.809  29.378  1.00  0.00    -0.374 OA
BRANCH   2   3
ATOM      3  C   UNL A   1      32.679  36.431  30.645  1.00  0.00     0.202 C 
BRANCH   3   4
ATOM      4  C   UNL A   1      33.886  35.971  31.467  1.00  0.00     0.261 C 
BRANCH   4   5
ATOM      5  O   UNL A   1      33.652  34.707  32.108  1.00  0.00    -0.460 OA
BRANCH   5   6
ATOM      6  C   UNL A   1      34.525  33.734  31.760  1.00  0.00     0.338 C 
ATOM      7  O   UNL A   1      34.280  32.710  31.143  1.00  0.00    -0.246 OA
BRANCH   6   8
ATOM      8  C   UNL A   1      35.898  34.150  32.105  1.00  0.00     0.087 C 
ATOM      9  C   UNL A   1      40.931  34.586  32.058  1.00  0.00    -0.020 A 
ATOM     10  C   UNL A   1      39.904  34.778  33.016  1.00  0.00     0.053 A 
ATOM     11  C   UNL A   1      40.502  34.375  30.727  1.00  0.00     0.045 A 
ATOM     12  C   UNL A   1      38.545  34.672  32.697  1.00  0.00     0.128 A 
ATOM     13  C   UNL A   1      39.139  34.257  30.412  1.00  0.00     0.032 A 
ATOM     14  Cl  UNL A   1      41.557  34.261  29.361  1.00  0.00    -0.084 Cl
ATOM     15  C   UNL A   1      38.165  34.369  31.399  1.00  0.00     0.019 A 
ATOM     16  O   UNL A   1      37.661  34.873  33.717  1.00  0.00    -0.475 OA
ATOM     17  C   UNL A   1      36.774  34.108  31.093  1.00  0.00     0.027 C 
ATOM     18  C   UNL A   1      36.253  34.554  33.509  1.00  0.00     0.316 C 
BRANCH   9  19
ATOM     19  C   UNL A   1      42.414  34.614  32.505  1.00  0.00    -0.012 C 
ATOM     20  C   UNL A   1      43.283  35.516  31.594  1.00  0.00     0.016 C 
ATOM     21  C   UNL A   1      43.102  33.221  32.444  1.00  0.00     0.016 C 
ATOM     22  C   UNL A   1      42.508  35.084  33.969  1.00  0.00     0.016 C 
ENDBRANCH   9  19
BRANCH  18  23
ATOM     23  C   UNL A   1      35.846  33.497  34.548  1.00  0.00     0.430 C 
ATOM     24  F   UNL A   1      36.785  32.526  34.650  1.00  0.00    -0.167 F 
ATOM     25  F   UNL A   1      35.699  34.031  35.781  1.00  0.00    -0.167 F 
ATOM     26  F   UNL A   1      34.678  32.899  34.220  1.00  0.00    -0.167 F 
ENDBRANCH  18  23
ENDBRANCH   6   8
ENDBRANCH   5   6
ENDBRANCH   4   5
ENDBRANCH   3   4
ENDBRANCH   2   3
ENDBRANCH   1   2
BRANCH   1  27
ATOM     27  C   UNL A   1      33.431  33.921  27.966  1.00  0.00     0.261 C 
BRANCH  27  28
ATOM     28  O   UNL A   1      34.651  33.170  27.893  1.00  0.00    -0.460 OA
BRANCH  28  29
ATOM     29  C   UNL A   1      34.491  31.822  27.960  1.00  0.00     0.338 C 
ATOM     30  O   UNL A   1      33.517  31.181  27.597  1.00  0.00    -0.246 OA
BRANCH  29  31
ATOM     31  C   UNL A   1      35.765  31.200  28.367  1.00  0.00     0.060 A 
ATOM     32  C   UNL A   1      36.974  31.883  28.237  1.00  0.00     0.016 A 
ATOM     33  C   UNL A   1      35.730  29.912  28.918  1.00  0.00     0.016 A 
ATOM     34  C   UNL A   1      38.150  31.278  28.683  1.00  0.00     0.010 A 
ATOM     35  C   UNL A   1      36.907  29.314  29.372  1.00  0.00     0.010 A 
ATOM     36  C   UNL A   1      38.124  29.998  29.270  1.00  0.00    -0.014 A 
BRANCH  36  37
ATOM     37  C   UNL A   1      39.363  29.447  29.873  1.00  0.00     0.031 A 
ATOM     38  C   UNL A   1      39.854  29.901  31.215  1.00  0.00     0.074 A 
ATOM     39  C   UNL A   1      40.046  28.508  29.189  1.00  0.00     0.049 A 
ATOM     40  N   UNL A   1      40.833  29.411  31.931  1.00  0.00    -0.248 NA
ATOM     41  C   UNL A   1      39.173  31.049  31.833  1.00  0.00     0.031 C 
ATOM     42  C   UNL A   1      39.709  28.040  27.842  1.00  0.00     0.029 A 
ATOM     43  N   UNL A   1      41.154  27.773  29.529  1.00  0.00    -0.354 N 
ATOM     44  C   UNL A   1      40.888  30.186  33.081  1.00  0.00     0.074 A 
ATOM     45  C   UNL A   1      39.863  31.199  32.958  1.00  0.00     0.031 C 
ATOM     46  C   UNL A   1      40.568  27.072  27.487  1.00  0.00     0.029 A 
ATOM     47  C   UNL A   1      41.526  26.863  28.568  1.00  0.00     0.049 A 
ATOM     48  H   UNL A   1      41.635  27.887  30.381  1.00  0.00     0.167 HD
ATOM     49  C   UNL A   1      41.703  30.046  34.152  1.00  0.00     0.034 A 
ATOM     50  C   UNL A   1      42.518  25.951  28.561  1.00  0.00     0.034 A 
ATOM     51  C   UNL A   1      42.709  29.026  34.280  1.00  0.00     0.049 A 
ATOM     52  C   UNL A   1      43.399  25.807  29.768  1.00  0.00     0.074 A 
ATOM     53  C   UNL A   1      43.528  28.765  35.365  1.00  0.00     0.029 A 
ATOM     54  N   UNL A   1      43.049  28.117  33.292  1.00  0.00    -0.354 N 
ATOM     55  N   UNL A   1      43.331  26.444  30.911  1.00  0.00    -0.248 NA
ATOM     56  C   UNL A   1      44.475  24.807  29.698  1.00  0.00     0.031 C 
ATOM     57  C   UNL A   1      44.380  27.710  35.024  1.00  0.00     0.029 A 
ATOM     58  C   UNL A   1      44.077  27.304  33.735  1.00  0.00     0.049 A 
ATOM     59  H   UNL A   1      42.622  28.058  32.407  1.00  0.00     0.167 HD
ATOM     60  C   UNL A   1      44.344  25.916  31.702  1.00  0.00     0.074 A 
ATOM     61  C   UNL A   1      45.001  24.892  30.914  1.00  0.00     0.031 C 
ATOM     62  C   UNL A   1      44.702  26.263  32.961  1.00  0.00     0.034 A 
BRANCH  49  63
ATOM     63  C   UNL A   1      41.510  30.974  35.319  1.00  0.00     0.023 A 
ATOM     64  C   UNL A   1      42.555  31.850  35.676  1.00  0.00     0.012 A 
ATOM     65  C   UNL A   1      40.267  31.071  35.972  1.00  0.00     0.148 A 
ATOM     66  C   UNL A   1      42.369  32.804  36.674  1.00  0.00     0.002 A 
ATOM     67  C   UNL A   1      40.080  32.043  36.947  1.00  0.00     0.091 A 
ATOM     68  F   UNL A   1      39.291  30.223  35.615  1.00  0.00    -0.205 F 
ATOM     69  C   UNL A   1      41.130  32.908  37.301  1.00  0.00     0.022 A 
BRANCH  67  70
ATOM     70  S   UNL A   1      38.511  32.294  37.786  1.00  0.00     0.127 S 
ATOM     71  O   UNL A   1      38.086  33.580  37.234  1.00  0.00    -0.237 OA
ATOM     72  O   UNL A   1      37.732  31.145  37.328  1.00  0.00    -0.237 OA
ATOM     73  O   UNL A   1      38.812  32.305  39.211  1.00  0.00    -0.744 OA
ENDBRANCH  67  70
ENDBRANCH  49  63
BRANCH  50  74
ATOM     74  C   UNL A   1      42.671  25.059  27.380  1.00  0.00     0.023 A 
ATOM     75  C   UNL A   1      43.421  25.499  26.274  1.00  0.00     0.012 A 
ATOM     76  C   UNL A   1      42.142  23.755  27.385  1.00  0.00     0.148 A 
ATOM     77  C   UNL A   1      43.638  24.654  25.185  1.00  0.00     0.002 A 
ATOM     78  C   UNL A   1      42.392  22.906  26.314  1.00  0.00     0.091 A 
ATOM     79  F   UNL A   1      41.436  23.362  28.455  1.00  0.00    -0.205 F 
ATOM     80  C   UNL A   1      43.133  23.356  25.209  1.00  0.00     0.022 A 
BRANCH  78  81
ATOM     81  S   UNL A   1      41.860  21.191  26.292  1.00  0.00     0.127 S 
ATOM     82  O   UNL A   1      40.475  21.315  25.843  1.00  0.00    -0.237 OA
ATOM     83  O   UNL A   1      42.776  20.610  25.309  1.00  0.00    -0.237 OA
ATOM     84  O   UNL A   1      42.034  20.702  27.651  1.00  0.00    -0.744 OA
ENDBRANCH  78  81
ENDBRANCH  50  74
BRANCH  62  85
ATOM     85  C   UNL A   1      45.862  25.550  33.598  1.00  0.00     0.023 A 
ATOM     86  C   UNL A   1      47.149  26.113  33.503  1.00  0.00     0.012 A 
ATOM     87  C   UNL A   1      45.651  24.428  34.422  1.00  0.00     0.148 A 
ATOM     88  C   UNL A   1      48.211  25.571  34.225  1.00  0.00     0.002 A 
ATOM     89  C   UNL A   1      46.707  23.912  35.164  1.00  0.00     0.091 A 
ATOM     90  F   UNL A   1      44.414  23.913  34.493  1.00  0.00    -0.205 F 
ATOM     91  C   UNL A   1      47.988  24.481  35.065  1.00  0.00     0.022 A 
BRANCH  89  92
ATOM     92  S   UNL A   1      46.508  22.558  36.327  1.00  0.00     0.127 S 
ATOM     93  O   UNL A   1      45.529  23.111  37.264  1.00  0.00    -0.237 OA
ATOM     94  O   UNL A   1      45.997  21.489  35.470  1.00  0.00    -0.237 OA
ATOM     95  O   UNL A   1      47.828  22.311  36.893  1.00  0.00    -0.744 OA
ENDBRANCH  89  92
ENDBRANCH  62  85
ENDBRANCH  36  37
ENDBRANCH  29  31
ENDBRANCH  28  29
ENDBRANCH  27  28
ENDBRANCH   1  27
TORSDOF 19
ENDMDL
MODEL 2
REMARK VINA RESULT:     -10.4      1.368      7.579
REMARK SMILES CC(C)(C)c1cc2c(cc1Cl)C=C(C(=O)OCCOCCOC(=O)c1ccc(-c3c4nc(c(-c5cccc(S(=O)(=O)[O-])c5F)c5ccc([nH]5)c(-c5cccc(S(=O)(=O)[O-])c5F)c5nc(c(-c6cccc(S(=O)(=O)[O-])c6F)c6ccc3[nH]6)C=C5)C=C4)cc1)[C@@H](C(F)(F)F)O2
REMARK SMILES IDX 20 1 19 2 18 3 17 4 16 5 14 6 15 7 13 8 5 9 6 10 10 11 7 12
REMARK SMILES IDX 9 13 11 14 8 15 93 16 12 17 88 18 2 19 1 20 3 21 4 22 89 23
REMARK SMILES IDX 90 24 91 25 92 26 21 27 22 28 23 29 24 30 25 31 26 32 87 33
REMARK SMILES IDX 27 34 86 35 28 36 29 37 30 38 80 39 31 40 85 41 79 42 81 43
REMARK SMILES IDX 32 44 84 45 78 46 77 47 33 49 65 50 45 51 64 52 46 53 49 54
REMARK SMILES IDX 63 55 82 56 47 57 48 58 62 60 83 61 50 62 34 63 35 64 43 65
REMARK SMILES IDX 36 66 38 67 44 68 37 69 39 70 40 71 41 72 42 73 66 74 67 75
REMARK SMILES IDX 75 76 68 77 70 78 76 79 69 80 71 81 72 82 73 83 74 84 51 85
REMARK SMILES IDX 52 86 60 87 53 88 55 89 61 90 54 91 56 92 57 93 58 94 59 95
REMARK H PARENT 81 48 49 59
REMARK Flexibility Score: inf
ROOT
ATOM      1  C   UNL A   1      33.471  35.290  28.723  1.00  0.00     0.202 C 
ENDROOT
BRANCH   1   2
ATOM      2  O   UNL A   1      32.593  36.196  29.386  1.00  0.00    -0.374 OA
BRANCH   2   3
ATOM      3  C   UNL A   1      32.432  36.079  30.799  1.00  0.00     0.202 C 
BRANCH   3   4
ATOM      4  C   UNL A   1      33.701  36.041  31.657  1.00  0.00     0.261 C 
BRANCH   4   5
ATOM      5  O   UNL A   1      33.809  34.819  32.405  1.00  0.00    -0.460 OA
BRANCH   5   6
ATOM      6  C   UNL A   1      34.635  33.900  31.856  1.00  0.00     0.338 C 
ATOM      7  O   UNL A   1      34.329  32.993  31.099  1.00  0.00    -0.246 OA
BRANCH   6   8
ATOM      8  C   UNL A   1      36.036  34.230  32.183  1.00  0.00     0.087 C 
ATOM      9  C   UNL A   1      41.087  34.194  32.221  1.00  0.00    -0.020 A 
ATOM     10  C   UNL A   1      40.068  34.603  33.118  1.00  0.00     0.053 A 
ATOM     11  C   UNL A   1      40.662  33.853  30.916  1.00  0.00     0.045 A 
ATOM     12  C   UNL A   1      38.711  34.580  32.777  1.00  0.00     0.128 A 
ATOM     13  C   UNL A   1      39.299  33.820  30.581  1.00  0.00     0.032 A 
ATOM     14  Cl  UNL A   1      41.723  33.466  29.605  1.00  0.00    -0.084 Cl
ATOM     15  C   UNL A   1      38.324  34.147  31.519  1.00  0.00     0.019 A 
ATOM     16  O   UNL A   1      37.833  34.993  33.738  1.00  0.00    -0.475 OA
ATOM     17  C   UNL A   1      36.920  33.977  31.210  1.00  0.00     0.027 C 
ATOM     18  C   UNL A   1      36.405  34.779  33.534  1.00  0.00     0.316 C 
BRANCH   9  19
ATOM     19  C   UNL A   1      42.560  34.145  32.701  1.00  0.00    -0.012 C 
ATOM     20  C   UNL A   1      42.728  34.712  34.132  1.00  0.00     0.016 C 
ATOM     21  C   UNL A   1      43.521  34.998  31.827  1.00  0.00     0.016 C 
ATOM     22  C   UNL A   1      43.080  32.695  32.636  1.00  0.00     0.016 C 
ENDBRANCH   9  19
BRANCH  18  23
ATOM     23  C   UNL A   1      35.884  33.908  34.687  1.00  0.00     0.430 C 
ATOM     24  F   UNL A   1      36.812  33.790  35.667  1.00  0.00    -0.167 F 
ATOM     25  F   UNL A   1      34.777  34.432  35.257  1.00  0.00    -0.167 F 
ATOM     26  F   UNL A   1      35.576  32.658  34.269  1.00  0.00    -0.167 F 
ENDBRANCH  18  23
ENDBRANCH   6   8
ENDBRANCH   5   6
ENDBRANCH   4   5
ENDBRANCH   3   4
ENDBRANCH   2   3
ENDBRANCH   1   2
BRANCH   1  27
ATOM     27  C   UNL A   1      32.873  34.073  28.006  1.00  0.00     0.261 C 
BRANCH  27  28
ATOM     28  O   UNL A   1      33.837  33.333  27.245  1.00  0.00    -0.460 OA
BRANCH  28  29
ATOM     29  C   UNL A   1      33.676  31.985  27.284  1.00  0.00     0.338 C 
ATOM     30  O   UNL A   1      32.779  31.338  26.765  1.00  0.00    -0.246 OA
BRANCH  29  31
ATOM     31  C   UNL A   1      34.868  31.369  27.897  1.00  0.00     0.060 A 
ATOM     32  C   UNL A   1      36.043  32.099  28.078  1.00  0.00     0.016 A 
ATOM     33  C   UNL A   1      34.784  30.036  28.323  1.00  0.00     0.016 A 
ATOM     34  C   UNL A   1      37.131  31.493  28.709  1.00  0.00     0.010 A 
ATOM     35  C   UNL A   1      35.871  29.437  28.963  1.00  0.00     0.010 A 
ATOM     36  C   UNL A   1      37.048  30.166  29.173  1.00  0.00    -0.014 A 
BRANCH  36  37
ATOM     37  C   UNL A   1      38.162  29.602  29.975  1.00  0.00     0.031 A 
ATOM     38  C   UNL A   1      39.180  28.682  29.370  1.00  0.00     0.074 A 
ATOM     39  C   UNL A   1      38.253  29.944  31.275  1.00  0.00     0.049 A 
ATOM     40  N   UNL A   1      40.284  28.228  29.903  1.00  0.00    -0.248 NA
ATOM     41  C   UNL A   1      38.933  28.204  28.001  1.00  0.00     0.031 C 
ATOM     42  C   UNL A   1      37.281  30.770  31.995  1.00  0.00     0.029 A 
ATOM     43  N   UNL A   1      39.205  29.650  32.219  1.00  0.00    -0.354 N 
ATOM     44  C   UNL A   1      40.864  27.412  28.941  1.00  0.00     0.074 A 
ATOM     45  C   UNL A   1      39.977  27.409  27.799  1.00  0.00     0.031 C 
ATOM     46  C   UNL A   1      37.706  30.948  33.255  1.00  0.00     0.029 A 
ATOM     47  C   UNL A   1      38.966  30.235  33.440  1.00  0.00     0.049 A 
ATOM     48  H   UNL A   1      39.984  29.076  32.038  1.00  0.00     0.167 HD
ATOM     49  C   UNL A   1      42.043  26.749  28.999  1.00  0.00     0.034 A 
ATOM     50  C   UNL A   1      39.687  30.215  34.579  1.00  0.00     0.034 A 
ATOM     51  C   UNL A   1      42.931  26.769  30.129  1.00  0.00     0.049 A 
ATOM     52  C   UNL A   1      40.998  29.484  34.611  1.00  0.00     0.074 A 
ATOM     53  C   UNL A   1      44.183  26.188  30.242  1.00  0.00     0.029 A 
ATOM     54  N   UNL A   1      42.662  27.381  31.341  1.00  0.00    -0.354 N 
ATOM     55  N   UNL A   1      41.605  28.851  33.638  1.00  0.00    -0.248 NA
ATOM     56  C   UNL A   1      41.734  29.481  35.884  1.00  0.00     0.031 C 
ATOM     57  C   UNL A   1      44.660  26.429  31.534  1.00  0.00     0.029 A 
ATOM     58  C   UNL A   1      43.714  27.178  32.216  1.00  0.00     0.049 A 
ATOM     59  H   UNL A   1      41.843  27.887  31.550  1.00  0.00     0.167 HD
ATOM     60  C   UNL A   1      42.800  28.386  34.174  1.00  0.00     0.074 A 
ATOM     61  C   UNL A   1      42.840  28.825  35.554  1.00  0.00     0.031 C 
ATOM     62  C   UNL A   1      43.765  27.648  33.576  1.00  0.00     0.034 A 
BRANCH  49  63
ATOM     63  C   UNL A   1      42.491  25.989  27.782  1.00  0.00     0.023 A 
ATOM     64  C   UNL A   1      43.416  26.588  26.904  1.00  0.00     0.012 A 
ATOM     65  C   UNL A   1      42.101  24.652  27.576  1.00  0.00     0.148 A 
ATOM     66  C   UNL A   1      43.943  25.870  25.832  1.00  0.00     0.002 A 
ATOM     67  C   UNL A   1      42.651  23.933  26.522  1.00  0.00     0.091 A 
ATOM     68  F   UNL A   1      41.216  24.108  28.424  1.00  0.00    -0.205 F 
ATOM     69  C   UNL A   1      43.569  24.541  25.647  1.00  0.00     0.022 A 
BRANCH  67  70
ATOM     70  S   UNL A   1      42.275  22.203  26.219  1.00  0.00     0.127 S 
ATOM     71  O   UNL A   1      43.040  21.946  24.999  1.00  0.00    -0.237 OA
ATOM     72  O   UNL A   1      42.806  21.560  27.420  1.00  0.00    -0.237 OA
ATOM     73  O   UNL A   1      40.829  22.125  26.067  1.00  0.00    -0.744 OA
ENDBRANCH  67  70
ENDBRANCH  49  63
BRANCH  50  74
ATOM     74  C   UNL A   1      39.198  30.980  35.757  1.00  0.00     0.023 A 
ATOM     75  C   UNL A   1      38.158  30.449  36.542  1.00  0.00     0.012 A 
ATOM     76  C   UNL A   1      39.811  32.187  36.143  1.00  0.00     0.148 A 
ATOM     77  C   UNL A   1      37.730  31.112  37.693  1.00  0.00     0.002 A 
ATOM     78  C   UNL A   1      39.406  32.823  37.309  1.00  0.00     0.091 A 
ATOM     79  F   UNL A   1      40.802  32.665  35.378  1.00  0.00    -0.205 F 
ATOM     80  C   UNL A   1      38.359  32.293  38.081  1.00  0.00     0.022 A 
BRANCH  78  81
ATOM     81  S   UNL A   1      40.213  34.299  37.939  1.00  0.00     0.127 S 
ATOM     82  O   UNL A   1      39.689  35.329  37.044  1.00  0.00    -0.237 OA
ATOM     83  O   UNL A   1      39.700  34.354  39.308  1.00  0.00    -0.237 OA
ATOM     84  O   UNL A   1      41.642  34.048  37.831  1.00  0.00    -0.744 OA
ENDBRANCH  78  81
ENDBRANCH  50  74
BRANCH  62  85
ATOM     85  C   UNL A   1      44.965  27.245  34.386  1.00  0.00     0.023 A 
ATOM     86  C   UNL A   1      46.053  28.134  34.490  1.00  0.00     0.012 A 
ATOM     87  C   UNL A   1      44.944  26.075  35.169  1.00  0.00     0.148 A 
ATOM     88  C   UNL A   1      47.102  27.866  35.369  1.00  0.00     0.002 A 
ATOM     89  C   UNL A   1      45.977  25.830  36.066  1.00  0.00     0.091 A 
ATOM     90  F   UNL A   1      43.896  25.247  35.049  1.00  0.00    -0.205 F 
ATOM     91  C   UNL A   1      47.057  26.724  36.165  1.00  0.00     0.022 A 
BRANCH  89  92
ATOM     92  S   UNL A   1      45.979  24.426  37.186  1.00  0.00     0.127 S 
ATOM     93  O   UNL A   1      45.788  23.307  36.262  1.00  0.00    -0.237 OA
ATOM     94  O   UNL A   1      47.313  24.508  37.779  1.00  0.00    -0.237 OA
ATOM     95  O   UNL A   1      44.880  24.646  38.117  1.00  0.00    -0.744 OA
ENDBRANCH  89  92
ENDBRANCH  62  85
ENDBRANCH  36  37
ENDBRANCH  29  31
ENDBRANCH  28  29
ENDBRANCH  27  28
ENDBRANCH   1  27
TORSDOF 19
ENDMDL
MODEL 3
REMARK VINA RESULT:      -9.9      5.098     11.120
REMARK SMILES CC(C)(C)c1cc2c(cc1Cl)C=C(C(=O)OCCOCCOC(=O)c1ccc(-c3c4nc(c(-c5cccc(S(=O)(=O)[O-])c5F)c5ccc([nH]5)c(-c5cccc(S(=O)(=O)[O-])c5F)c5nc(c(-c6cccc(S(=O)(=O)[O-])c6F)c6ccc3[nH]6)C=C5)C=C4)cc1)[C@@H](C(F)(F)F)O2
REMARK SMILES IDX 20 1 19 2 18 3 17 4 16 5 14 6 15 7 13 8 5 9 6 10 10 11 7 12
REMARK SMILES IDX 9 13 11 14 8 15 93 16 12 17 88 18 2 19 1 20 3 21 4 22 89 23
REMARK SMILES IDX 90 24 91 25 92 26 21 27 22 28 23 29 24 30 25 31 26 32 87 33
REMARK SMILES IDX 27 34 86 35 28 36 29 37 30 38 80 39 31 40 85 41 79 42 81 43
REMARK SMILES IDX 32 44 84 45 78 46 77 47 33 49 65 50 45 51 64 52 46 53 49 54
REMARK SMILES IDX 63 55 82 56 47 57 48 58 62 60 83 61 50 62 34 63 35 64 43 65
REMARK SMILES IDX 36 66 38 67 44 68 37 69 39 70 40 71 41 72 42 73 66 74 67 75
REMARK SMILES IDX 75 76 68 77 70 78 76 79 69 80 71 81 72 82 73 83 74 84 51 85
REMARK SMILES IDX 52 86 60 87 53 88 55 89 61 90 54 91 56 92 57 93 58 94 59 95
REMARK H PARENT 81 48 49 59
REMARK Flexibility Score: inf
ROOT
ATOM      1  C   UNL A   1      41.203  18.864  25.510  1.00  0.00     0.202 C 
ENDROOT
BRANCH   1   2
ATOM      2  O   UNL A   1      42.314  18.036  25.845  1.00  0.00    -0.374 OA
BRANCH   2   3
ATOM      3  C   UNL A   1      43.602  18.639  25.960  1.00  0.00     0.202 C 
BRANCH   3   4
ATOM      4  C   UNL A   1      44.149  19.384  24.738  1.00  0.00     0.261 C 
BRANCH   4   5
ATOM      5  O   UNL A   1      44.953  20.515  25.112  1.00  0.00    -0.460 OA
BRANCH   5   6
ATOM      6  C   UNL A   1      44.244  21.621  25.436  1.00  0.00     0.338 C 
ATOM      7  O   UNL A   1      43.078  21.856  25.159  1.00  0.00    -0.246 OA
BRANCH   6   8
ATOM      8  C   UNL A   1      45.043  22.481  26.330  1.00  0.00     0.087 C 
ATOM      9  C   UNL A   1      46.302  25.880  29.849  1.00  0.00    -0.020 A 
ATOM     10  C   UNL A   1      46.932  25.315  28.711  1.00  0.00     0.053 A 
ATOM     11  C   UNL A   1      45.087  25.274  30.247  1.00  0.00     0.045 A 
ATOM     12  C   UNL A   1      46.351  24.286  27.961  1.00  0.00     0.128 A 
ATOM     13  C   UNL A   1      44.502  24.250  29.486  1.00  0.00     0.032 A 
ATOM     14  Cl  UNL A   1      44.208  25.683  31.680  1.00  0.00    -0.084 Cl
ATOM     15  C   UNL A   1      45.113  23.782  28.326  1.00  0.00     0.019 A 
ATOM     16  O   UNL A   1      47.061  23.840  26.884  1.00  0.00    -0.475 OA
ATOM     17  C   UNL A   1      44.438  22.828  27.473  1.00  0.00     0.027 C 
ATOM     18  C   UNL A   1      46.419  22.939  25.934  1.00  0.00     0.316 C 
BRANCH   9  19
ATOM     19  C   UNL A   1      46.953  27.088  30.568  1.00  0.00    -0.012 C 
ATOM     20  C   UNL A   1      48.454  27.237  30.219  1.00  0.00     0.016 C 
ATOM     21  C   UNL A   1      46.923  26.970  32.118  1.00  0.00     0.016 C 
ATOM     22  C   UNL A   1      46.191  28.379  30.212  1.00  0.00     0.016 C 
ENDBRANCH   9  19
BRANCH  18  23
ATOM     23  C   UNL A   1      46.444  23.609  24.552  1.00  0.00     0.430 C 
ATOM     24  F   UNL A   1      45.191  23.912  24.133  1.00  0.00    -0.167 F 
ATOM     25  F   UNL A   1      47.144  24.765  24.563  1.00  0.00    -0.167 F 
ATOM     26  F   UNL A   1      46.999  22.804  23.616  1.00  0.00    -0.167 F 
ENDBRANCH  18  23
ENDBRANCH   6   8
ENDBRANCH   5   6
ENDBRANCH   4   5
ENDBRANCH   3   4
ENDBRANCH   2   3
ENDBRANCH   1   2
BRANCH   1  27
ATOM     27  C   UNL A   1      40.168  19.185  26.595  1.00  0.00     0.261 C 
BRANCH  27  28
ATOM     28  O   UNL A   1      40.288  20.517  27.116  1.00  0.00    -0.460 OA
BRANCH  28  29
ATOM     29  C   UNL A   1      39.450  21.424  26.551  1.00  0.00     0.338 C 
ATOM     30  O   UNL A   1      38.381  21.194  26.007  1.00  0.00    -0.246 OA
BRANCH  29  31
ATOM     31  C   UNL A   1      39.927  22.786  26.859  1.00  0.00     0.060 A 
ATOM     32  C   UNL A   1      40.816  23.017  27.908  1.00  0.00     0.016 A 
ATOM     33  C   UNL A   1      39.486  23.843  26.051  1.00  0.00     0.016 A 
ATOM     34  C   UNL A   1      41.283  24.313  28.132  1.00  0.00     0.010 A 
ATOM     35  C   UNL A   1      39.963  25.136  26.272  1.00  0.00     0.010 A 
ATOM     36  C   UNL A   1      40.876  25.379  27.306  1.00  0.00    -0.014 A 
BRANCH  36  37
ATOM     37  C   UNL A   1      41.506  26.712  27.471  1.00  0.00     0.031 A 
ATOM     38  C   UNL A   1      40.852  27.797  28.275  1.00  0.00     0.074 A 
ATOM     39  C   UNL A   1      42.699  26.935  26.886  1.00  0.00     0.049 A 
ATOM     40  N   UNL A   1      41.344  28.956  28.627  1.00  0.00    -0.248 NA
ATOM     41  C   UNL A   1      39.477  27.561  28.740  1.00  0.00     0.031 C 
ATOM     42  C   UNL A   1      43.397  25.984  26.018  1.00  0.00     0.029 A 
ATOM     43  N   UNL A   1      43.539  28.018  26.937  1.00  0.00    -0.354 N 
ATOM     44  C   UNL A   1      40.344  29.590  29.352  1.00  0.00     0.074 A 
ATOM     45  C   UNL A   1      39.204  28.699  29.367  1.00  0.00     0.031 C 
ATOM     46  C   UNL A   1      44.575  26.511  25.649  1.00  0.00     0.029 A 
ATOM     47  C   UNL A   1      44.708  27.841  26.236  1.00  0.00     0.049 A 
ATOM     48  H   UNL A   1      43.324  28.844  27.429  1.00  0.00     0.167 HD
ATOM     49  C   UNL A   1      40.386  30.794  29.969  1.00  0.00     0.034 A 
ATOM     50  C   UNL A   1      45.777  28.649  26.092  1.00  0.00     0.034 A 
ATOM     51  C   UNL A   1      41.527  31.668  29.968  1.00  0.00     0.049 A 
ATOM     52  C   UNL A   1      45.803  29.973  26.800  1.00  0.00     0.074 A 
ATOM     53  C   UNL A   1      41.681  32.872  30.633  1.00  0.00     0.029 A 
ATOM     54  N   UNL A   1      42.695  31.449  29.258  1.00  0.00    -0.354 N 
ATOM     55  N   UNL A   1      44.911  30.484  27.612  1.00  0.00    -0.248 NA
ATOM     56  C   UNL A   1      46.987  30.821  26.595  1.00  0.00     0.031 C 
ATOM     57  C   UNL A   1      42.936  33.393  30.306  1.00  0.00     0.029 A 
ATOM     58  C   UNL A   1      43.569  32.503  29.454  1.00  0.00     0.049 A 
ATOM     59  H   UNL A   1      42.877  30.660  28.697  1.00  0.00     0.167 HD
ATOM     60  C   UNL A   1      45.428  31.705  28.026  1.00  0.00     0.074 A 
ATOM     61  C   UNL A   1      46.721  31.851  27.388  1.00  0.00     0.031 C 
ATOM     62  C   UNL A   1      44.870  32.626  28.847  1.00  0.00     0.034 A 
BRANCH  49  63
ATOM     63  C   UNL A   1      39.186  31.226  30.765  1.00  0.00     0.023 A 
ATOM     64  C   UNL A   1      39.221  31.115  32.169  1.00  0.00     0.012 A 
ATOM     65  C   UNL A   1      38.088  31.851  30.143  1.00  0.00     0.148 A 
ATOM     66  C   UNL A   1      38.176  31.614  32.945  1.00  0.00     0.002 A 
ATOM     67  C   UNL A   1      37.063  32.370  30.925  1.00  0.00     0.091 A 
ATOM     68  F   UNL A   1      38.078  31.939  28.805  1.00  0.00    -0.205 F 
ATOM     69  C   UNL A   1      37.104  32.250  32.324  1.00  0.00     0.022 A 
BRANCH  67  70
ATOM     70  S   UNL A   1      35.658  33.249  30.232  1.00  0.00     0.127 S 
ATOM     71  O   UNL A   1      36.312  34.138  29.272  1.00  0.00    -0.237 OA
ATOM     72  O   UNL A   1      34.885  32.164  29.630  1.00  0.00    -0.237 OA
ATOM     73  O   UNL A   1      35.010  33.920  31.350  1.00  0.00    -0.744 OA
ENDBRANCH  67  70
ENDBRANCH  49  63
BRANCH  50  74
ATOM     74  C   UNL A   1      46.938  28.177  25.291  1.00  0.00     0.023 A 
ATOM     75  C   UNL A   1      46.850  28.171  23.886  1.00  0.00     0.012 A 
ATOM     76  C   UNL A   1      48.146  27.810  25.912  1.00  0.00     0.148 A 
ATOM     77  C   UNL A   1      47.950  27.801  23.111  1.00  0.00     0.002 A 
ATOM     78  C   UNL A   1      49.247  27.477  25.134  1.00  0.00     0.091 A 
ATOM     79  F   UNL A   1      48.200  27.830  27.251  1.00  0.00    -0.205 F 
ATOM     80  C   UNL A   1      49.150  27.464  23.733  1.00  0.00     0.022 A 
BRANCH  78  81
ATOM     81  S   UNL A   1      50.859  27.115  25.839  1.00  0.00     0.127 S 
ATOM     82  O   UNL A   1      51.576  26.580  24.683  1.00  0.00    -0.237 OA
ATOM     83  O   UNL A   1      51.296  28.442  26.275  1.00  0.00    -0.237 OA
ATOM     84  O   UNL A   1      50.619  26.168  26.917  1.00  0.00    -0.744 OA
ENDBRANCH  78  81
ENDBRANCH  50  74
BRANCH  62  85
ATOM     85  C   UNL A   1      45.628  33.893  29.124  1.00  0.00     0.023 A 
ATOM     86  C   UNL A   1      46.544  33.926  30.193  1.00  0.00     0.012 A 
ATOM     87  C   UNL A   1      45.558  34.983  28.234  1.00  0.00     0.148 A 
ATOM     88  C   UNL A   1      47.384  35.023  30.370  1.00  0.00     0.002 A 
ATOM     89  C   UNL A   1      46.421  36.059  28.396  1.00  0.00     0.091 A 
ATOM     90  F   UNL A   1      44.676  34.924  27.224  1.00  0.00    -0.205 F 
ATOM     91  C   UNL A   1      47.333  36.082  29.465  1.00  0.00     0.022 A 
BRANCH  89  92
ATOM     92  S   UNL A   1      46.484  37.438  27.246  1.00  0.00     0.127 S 
ATOM     93  O   UNL A   1      46.892  36.773  26.007  1.00  0.00    -0.237 OA
ATOM     94  O   UNL A   1      45.101  37.912  27.258  1.00  0.00    -0.237 OA
ATOM     95  O   UNL A   1      47.458  38.376  27.788  1.00  0.00    -0.744 OA
ENDBRANCH  89  92
ENDBRANCH  62  85
ENDBRANCH  36  37
ENDBRANCH  29  31
ENDBRANCH  28  29
ENDBRANCH  27  28
ENDBRANCH   1  27
TORSDOF 19
ENDMDL
