MODEL 1
REMARK VINA RESULT:     -10.8      0.000      0.000
REMARK SMILES Cc1ccc(Nc2c(F)cccc2I)c(CC(=O)OCCOCCOC(=O)c2ccc(-c3c4nc(c(-c5cccc(S(=O)(=O)[O-])c5F)c5ccc([nH]5)c(-c5cccc(S(=O)(=O)[O-])c5F)c5nc(c(-c6cccc(S(=O)(=O)[O-])c6F)c6ccc3[nH]6)C=C5)C=C4)cc2)c1
REMARK SMILES IDX 22 1 21 2 20 3 19 4 17 5 18 6 16 7 15 8 1 9 2 10 3 11 91 12
REMARK SMILES IDX 4 13 5 14 6 15 7 17 8 18 13 19 9 20 10 21 12 22 14 23 11 24
REMARK SMILES IDX 23 25 24 26 25 27 26 28 27 29 28 30 29 31 90 32 30 33 89 34
REMARK SMILES IDX 31 35 32 36 33 37 83 38 34 39 88 40 82 41 84 42 35 43 87 44
REMARK SMILES IDX 81 45 80 46 36 48 68 49 48 50 67 51 49 52 52 53 66 54 85 55
REMARK SMILES IDX 50 56 51 57 65 59 86 60 53 61 37 62 38 63 46 64 39 65 41 66
REMARK SMILES IDX 47 67 40 68 42 69 43 70 44 71 45 72 69 73 70 74 78 75 71 76
REMARK SMILES IDX 73 77 79 78 72 79 74 80 75 81 76 82 77 83 54 84 55 85 63 86
REMARK SMILES IDX 56 87 58 88 64 89 57 90 59 91 60 92 61 93 62 94
REMARK H PARENT 6 16 84 47 52 58
REMARK Flexibility Score: inf
ROOT
ATOM      1  O   UNL A   1      34.201  28.573  24.616  1.00  0.00    -0.374 OA
ENDROOT
BRANCH   1   2
ATOM      2  C   UNL A   1      33.323  29.246  23.756  1.00  0.00     0.202 C 
BRANCH   2   3
ATOM      3  C   UNL A   1      33.048  28.626  22.394  1.00  0.00     0.261 C 
BRANCH   3   4
ATOM      4  O   UNL A   1      33.962  27.567  22.084  1.00  0.00    -0.463 OA
BRANCH   4   5
ATOM      5  C   UNL A   1      33.403  26.359  21.904  1.00  0.00     0.310 C 
ATOM      6  O   UNL A   1      33.092  25.907  20.806  1.00  0.00    -0.252 OA
BRANCH   5   7
ATOM      7  C   UNL A   1      33.351  25.501  23.160  1.00  0.00     0.160 C 
BRANCH   7   8
ATOM      8  C   UNL A   1      32.202  25.588  24.174  1.00  0.00    -0.013 A 
ATOM      9  C   UNL A   1      28.492  26.519  23.833  1.00  0.00     0.044 C 
ATOM     10  C   UNL A   1      29.812  26.120  24.428  1.00  0.00    -0.051 A 
ATOM     11  C   UNL A   1      29.882  25.728  25.765  1.00  0.00     0.005 A 
ATOM     12  C   UNL A   1      30.978  26.086  23.655  1.00  0.00     0.009 A 
ATOM     13  C   UNL A   1      31.082  25.266  26.313  1.00  0.00     0.026 A 
ATOM     14  C   UNL A   1      32.249  25.137  25.544  1.00  0.00     0.042 A 
BRANCH  14  15
ATOM     15  N   UNL A   1      33.430  24.661  26.183  1.00  0.00    -0.352 N 
ATOM     16  H   UNL A   1      33.906  25.349  26.702  1.00  0.00     0.167 HD
BRANCH  15  17
ATOM     17  C   UNL A   1      34.064  23.364  26.217  1.00  0.00     0.088 A 
ATOM     18  C   UNL A   1      33.576  22.334  27.021  1.00  0.00     0.147 A 
ATOM     19  C   UNL A   1      34.759  22.893  25.072  1.00  0.00     0.040 A 
ATOM     20  F   UNL A   1      32.973  22.618  28.184  1.00  0.00    -0.205 F 
ATOM     21  C   UNL A   1      33.687  20.979  26.643  1.00  0.00     0.041 A 
ATOM     22  C   UNL A   1      34.662  21.594  24.547  1.00  0.00     0.017 A 
ATOM     23  I   UNL A   1      37.137  23.087  25.476  1.00  0.00    -0.042 I 
ATOM     24  C   UNL A   1      34.157  20.613  25.375  1.00  0.00     0.004 A 
ENDBRANCH  15  17
ENDBRANCH  14  15
ENDBRANCH   7   8
ENDBRANCH   5   7
ENDBRANCH   4   5
ENDBRANCH   3   4
ENDBRANCH   2   3
ENDBRANCH   1   2
BRANCH   1  25
ATOM     25  C   UNL A   1      33.674  28.447  25.930  1.00  0.00     0.202 C 
BRANCH  25  26
ATOM     26  C   UNL A   1      34.479  28.656  27.226  1.00  0.00     0.261 C 
BRANCH  26  27
ATOM     27  O   UNL A   1      34.992  30.019  27.251  1.00  0.00    -0.460 OA
BRANCH  27  28
ATOM     28  C   UNL A   1      34.206  31.059  27.669  1.00  0.00     0.338 C 
ATOM     29  O   UNL A   1      32.991  31.065  27.550  1.00  0.00    -0.246 OA
BRANCH  28  30
ATOM     30  C   UNL A   1      34.975  32.116  28.423  1.00  0.00     0.060 A 
ATOM     31  C   UNL A   1      36.227  32.519  27.993  1.00  0.00     0.016 A 
ATOM     32  C   UNL A   1      34.581  32.600  29.655  1.00  0.00     0.016 A 
ATOM     33  C   UNL A   1      37.222  32.861  28.935  1.00  0.00     0.010 A 
ATOM     34  C   UNL A   1      35.575  32.852  30.616  1.00  0.00     0.010 A 
ATOM     35  C   UNL A   1      36.931  32.749  30.281  1.00  0.00    -0.014 A 
BRANCH  35  36
ATOM     36  C   UNL A   1      37.879  32.176  31.281  1.00  0.00     0.031 A 
ATOM     37  C   UNL A   1      38.180  32.873  32.574  1.00  0.00     0.074 A 
ATOM     38  C   UNL A   1      38.216  30.846  31.235  1.00  0.00     0.049 A 
ATOM     39  N   UNL A   1      39.014  32.414  33.452  1.00  0.00    -0.248 NA
ATOM     40  C   UNL A   1      37.591  34.141  33.002  1.00  0.00     0.031 C 
ATOM     41  C   UNL A   1      38.472  30.012  32.429  1.00  0.00     0.029 A 
ATOM     42  N   UNL A   1      38.338  29.907  30.194  1.00  0.00    -0.354 N 
ATOM     43  C   UNL A   1      38.766  33.050  34.642  1.00  0.00     0.074 A 
ATOM     44  C   UNL A   1      37.995  34.211  34.279  1.00  0.00     0.031 C 
ATOM     45  C   UNL A   1      38.883  28.796  32.074  1.00  0.00     0.029 A 
ATOM     46  C   UNL A   1      39.078  28.795  30.647  1.00  0.00     0.049 A 
ATOM     47  H   UNL A   1      37.964  30.011  29.289  1.00  0.00     0.167 HD
ATOM     48  C   UNL A   1      39.142  32.466  35.817  1.00  0.00     0.034 A 
ATOM     49  C   UNL A   1      40.157  28.200  30.066  1.00  0.00     0.034 A 
ATOM     50  C   UNL A   1      39.985  31.275  35.625  1.00  0.00     0.049 A 
ATOM     51  C   UNL A   1      41.419  28.589  30.841  1.00  0.00     0.074 A 
ATOM     52  C   UNL A   1      39.932  29.929  35.939  1.00  0.00     0.029 A 
ATOM     53  N   UNL A   1      41.096  31.414  34.815  1.00  0.00    -0.354 N 
ATOM     54  N   UNL A   1      41.505  28.762  32.137  1.00  0.00    -0.248 NA
ATOM     55  C   UNL A   1      42.659  28.961  30.157  1.00  0.00     0.031 C 
ATOM     56  C   UNL A   1      40.991  29.267  35.227  1.00  0.00     0.029 A 
ATOM     57  C   UNL A   1      41.720  30.219  34.530  1.00  0.00     0.049 A 
ATOM     58  H   UNL A   1      41.411  32.282  34.473  1.00  0.00     0.167 HD
ATOM     59  C   UNL A   1      42.611  29.550  32.397  1.00  0.00     0.074 A 
ATOM     60  C   UNL A   1      43.330  29.585  31.134  1.00  0.00     0.031 C 
ATOM     61  C   UNL A   1      42.822  30.240  33.568  1.00  0.00     0.034 A 
BRANCH  48  62
ATOM     62  C   UNL A   1      38.738  32.975  37.184  1.00  0.00     0.023 A 
ATOM     63  C   UNL A   1      39.353  34.155  37.656  1.00  0.00     0.012 A 
ATOM     64  C   UNL A   1      37.820  32.344  38.059  1.00  0.00     0.148 A 
ATOM     65  C   UNL A   1      39.049  34.700  38.910  1.00  0.00     0.002 A 
ATOM     66  C   UNL A   1      37.462  32.928  39.278  1.00  0.00     0.091 A 
ATOM     67  F   UNL A   1      37.345  31.128  37.752  1.00  0.00    -0.205 F 
ATOM     68  C   UNL A   1      38.085  34.102  39.711  1.00  0.00     0.022 A 
BRANCH  66  69
ATOM     69  S   UNL A   1      36.160  32.256  40.326  1.00  0.00     0.127 S 
ATOM     70  O   UNL A   1      36.826  31.116  40.955  1.00  0.00    -0.237 OA
ATOM     71  O   UNL A   1      35.875  33.368  41.233  1.00  0.00    -0.237 OA
ATOM     72  O   UNL A   1      35.059  31.919  39.431  1.00  0.00    -0.744 OA
ENDBRANCH  66  69
ENDBRANCH  48  62
BRANCH  49  73
ATOM     73  C   UNL A   1      40.035  28.004  28.601  1.00  0.00     0.023 A 
ATOM     74  C   UNL A   1      40.502  29.057  27.776  1.00  0.00     0.012 A 
ATOM     75  C   UNL A   1      39.907  26.729  28.058  1.00  0.00     0.148 A 
ATOM     76  C   UNL A   1      40.943  28.817  26.470  1.00  0.00     0.002 A 
ATOM     77  C   UNL A   1      40.469  26.473  26.811  1.00  0.00     0.091 A 
ATOM     78  F   UNL A   1      39.513  25.723  28.850  1.00  0.00    -0.205 F 
ATOM     79  C   UNL A   1      40.958  27.513  25.996  1.00  0.00     0.022 A 
BRANCH  77  80
ATOM     80  S   UNL A   1      41.522  25.016  26.789  1.00  0.00     0.127 S 
ATOM     81  O   UNL A   1      42.228  25.096  25.519  1.00  0.00    -0.237 OA
ATOM     82  O   UNL A   1      42.287  25.397  27.965  1.00  0.00    -0.237 OA
ATOM     83  O   UNL A   1      40.641  23.865  26.946  1.00  0.00    -0.744 OA
ENDBRANCH  77  80
ENDBRANCH  49  73
BRANCH  61  84
ATOM     84  C   UNL A   1      44.087  31.080  33.825  1.00  0.00     0.023 A 
ATOM     85  C   UNL A   1      45.119  30.575  34.647  1.00  0.00     0.012 A 
ATOM     86  C   UNL A   1      44.259  32.419  33.377  1.00  0.00     0.148 A 
ATOM     87  C   UNL A   1      46.291  31.297  34.913  1.00  0.00     0.002 A 
ATOM     88  C   UNL A   1      45.381  33.173  33.727  1.00  0.00     0.091 A 
ATOM     89  F   UNL A   1      43.353  32.985  32.577  1.00  0.00    -0.205 F 
ATOM     90  C   UNL A   1      46.419  32.600  34.461  1.00  0.00     0.022 A 
BRANCH  88  91
ATOM     91  S   UNL A   1      45.525  34.932  33.361  1.00  0.00     0.127 S 
ATOM     92  O   UNL A   1      46.764  35.276  34.061  1.00  0.00    -0.237 OA
ATOM     93  O   UNL A   1      45.632  34.929  31.902  1.00  0.00    -0.237 OA
ATOM     94  O   UNL A   1      44.329  35.563  33.898  1.00  0.00    -0.744 OA
ENDBRANCH  88  91
ENDBRANCH  61  84
ENDBRANCH  35  36
ENDBRANCH  28  30
ENDBRANCH  27  28
ENDBRANCH  26  27
ENDBRANCH  25  26
ENDBRANCH   1  25
TORSDOF 20
ENDMDL
MODEL 2
REMARK VINA RESULT:     -10.5      4.834      9.633
REMARK SMILES Cc1ccc(Nc2c(F)cccc2I)c(CC(=O)OCCOCCOC(=O)c2ccc(-c3c4nc(c(-c5cccc(S(=O)(=O)[O-])c5F)c5ccc([nH]5)c(-c5cccc(S(=O)(=O)[O-])c5F)c5nc(c(-c6cccc(S(=O)(=O)[O-])c6F)c6ccc3[nH]6)C=C5)C=C4)cc2)c1
REMARK SMILES IDX 22 1 21 2 20 3 19 4 17 5 18 6 16 7 15 8 1 9 2 10 3 11 91 12
REMARK SMILES IDX 4 13 5 14 6 15 7 17 8 18 13 19 9 20 10 21 12 22 14 23 11 24
REMARK SMILES IDX 23 25 24 26 25 27 26 28 27 29 28 30 29 31 90 32 30 33 89 34
REMARK SMILES IDX 31 35 32 36 33 37 83 38 34 39 88 40 82 41 84 42 35 43 87 44
REMARK SMILES IDX 81 45 80 46 36 48 68 49 48 50 67 51 49 52 52 53 66 54 85 55
REMARK SMILES IDX 50 56 51 57 65 59 86 60 53 61 37 62 38 63 46 64 39 65 41 66
REMARK SMILES IDX 47 67 40 68 42 69 43 70 44 71 45 72 69 73 70 74 78 75 71 76
REMARK SMILES IDX 73 77 79 78 72 79 74 80 75 81 76 82 77 83 54 84 55 85 63 86
REMARK SMILES IDX 56 87 58 88 64 89 57 90 59 91 60 92 61 93 62 94
REMARK H PARENT 6 16 84 47 52 58
REMARK Flexibility Score: inf
ROOT
ATOM      1  O   UNL A   1      33.581  31.833  27.905  1.00  0.00    -0.374 OA
ENDROOT
BRANCH   1   2
ATOM      2  C   UNL A   1      34.793  31.132  27.881  1.00  0.00     0.202 C 
BRANCH   2   3
ATOM      3  C   UNL A   1      35.804  31.424  28.979  1.00  0.00     0.261 C 
BRANCH   3   4
ATOM      4  O   UNL A   1      37.102  30.893  28.681  1.00  0.00    -0.463 OA
BRANCH   4   5
ATOM      5  C   UNL A   1      37.296  29.614  29.042  1.00  0.00     0.310 C 
ATOM      6  O   UNL A   1      37.801  28.767  28.311  1.00  0.00    -0.252 OA
BRANCH   5   7
ATOM      7  C   UNL A   1      37.010  29.329  30.509  1.00  0.00     0.160 C 
BRANCH   7   8
ATOM      8  C   UNL A   1      38.090  29.422  31.596  1.00  0.00    -0.013 A 
ATOM      9  C   UNL A   1      38.153  31.051  35.073  1.00  0.00     0.044 C 
ATOM     10  C   UNL A   1      38.582  30.314  33.837  1.00  0.00    -0.051 A 
ATOM     11  C   UNL A   1      39.817  29.666  33.808  1.00  0.00     0.005 A 
ATOM     12  C   UNL A   1      37.748  30.222  32.717  1.00  0.00     0.009 A 
ATOM     13  C   UNL A   1      40.197  28.899  32.703  1.00  0.00     0.026 A 
ATOM     14  C   UNL A   1      39.348  28.714  31.600  1.00  0.00     0.042 A 
BRANCH  14  15
ATOM     15  N   UNL A   1      39.816  27.920  30.514  1.00  0.00    -0.352 N 
ATOM     16  H   UNL A   1      39.428  27.015  30.489  1.00  0.00     0.167 HD
BRANCH  15  17
ATOM     17  C   UNL A   1      40.747  28.185  29.443  1.00  0.00     0.088 A 
ATOM     18  C   UNL A   1      41.250  29.466  29.215  1.00  0.00     0.147 A 
ATOM     19  C   UNL A   1      41.624  27.158  29.006  1.00  0.00     0.040 A 
ATOM     20  F   UNL A   1      40.502  30.542  29.494  1.00  0.00    -0.205 F 
ATOM     21  C   UNL A   1      42.549  29.674  28.701  1.00  0.00     0.041 A 
ATOM     22  C   UNL A   1      42.993  27.324  28.739  1.00  0.00     0.017 A 
ATOM     23  I   UNL A   1      40.811  26.292  26.897  1.00  0.00    -0.042 I 
ATOM     24  C   UNL A   1      43.446  28.611  28.538  1.00  0.00     0.004 A 
ENDBRANCH  15  17
ENDBRANCH  14  15
ENDBRANCH   7   8
ENDBRANCH   5   7
ENDBRANCH   4   5
ENDBRANCH   3   4
ENDBRANCH   2   3
ENDBRANCH   1   2
BRANCH   1  25
ATOM     25  C   UNL A   1      33.756  33.218  27.632  1.00  0.00     0.202 C 
BRANCH  25  26
ATOM     26  C   UNL A   1      33.017  34.359  28.356  1.00  0.00     0.261 C 
BRANCH  26  27
ATOM     27  O   UNL A   1      33.973  35.111  29.157  1.00  0.00    -0.460 OA
BRANCH  27  28
ATOM     28  C   UNL A   1      33.590  35.714  30.326  1.00  0.00     0.338 C 
ATOM     29  O   UNL A   1      32.809  36.651  30.366  1.00  0.00    -0.246 OA
BRANCH  28  30
ATOM     30  C   UNL A   1      34.109  35.007  31.553  1.00  0.00     0.060 A 
ATOM     31  C   UNL A   1      34.491  35.725  32.673  1.00  0.00     0.016 A 
ATOM     32  C   UNL A   1      34.407  33.659  31.577  1.00  0.00     0.016 A 
ATOM     33  C   UNL A   1      35.582  35.287  33.455  1.00  0.00     0.010 A 
ATOM     34  C   UNL A   1      35.546  33.245  32.287  1.00  0.00     0.010 A 
ATOM     35  C   UNL A   1      36.273  34.158  33.061  1.00  0.00    -0.014 A 
BRANCH  35  36
ATOM     36  C   UNL A   1      37.762  34.056  33.088  1.00  0.00     0.031 A 
ATOM     37  C   UNL A   1      38.564  33.856  31.837  1.00  0.00     0.074 A 
ATOM     38  C   UNL A   1      38.468  34.506  34.177  1.00  0.00     0.049 A 
ATOM     39  N   UNL A   1      39.853  33.741  31.829  1.00  0.00    -0.248 NA
ATOM     40  C   UNL A   1      38.006  33.758  30.489  1.00  0.00     0.031 C 
ATOM     41  C   UNL A   1      39.799  35.144  34.096  1.00  0.00     0.029 A 
ATOM     42  N   UNL A   1      38.188  34.591  35.553  1.00  0.00    -0.354 N 
ATOM     43  C   UNL A   1      40.290  33.967  30.549  1.00  0.00     0.074 A 
ATOM     44  C   UNL A   1      39.113  33.815  29.732  1.00  0.00     0.031 C 
ATOM     45  C   UNL A   1      40.284  35.376  35.315  1.00  0.00     0.029 A 
ATOM     46  C   UNL A   1      39.390  34.769  36.268  1.00  0.00     0.049 A 
ATOM     47  H   UNL A   1      37.291  34.534  35.954  1.00  0.00     0.167 HD
ATOM     48  C   UNL A   1      41.575  34.370  30.328  1.00  0.00     0.034 A 
ATOM     49  C   UNL A   1      39.848  34.072  37.345  1.00  0.00     0.034 A 
ATOM     50  C   UNL A   1      42.415  34.306  31.535  1.00  0.00     0.049 A 
ATOM     51  C   UNL A   1      40.967  33.130  36.891  1.00  0.00     0.074 A 
ATOM     52  C   UNL A   1      43.155  35.182  32.308  1.00  0.00     0.029 A 
ATOM     53  N   UNL A   1      42.429  33.110  32.229  1.00  0.00    -0.354 N 
ATOM     54  N   UNL A   1      41.860  33.384  35.966  1.00  0.00    -0.248 NA
ATOM     55  C   UNL A   1      41.051  31.747  37.366  1.00  0.00     0.031 C 
ATOM     56  C   UNL A   1      43.536  34.495  33.512  1.00  0.00     0.029 A 
ATOM     57  C   UNL A   1      43.079  33.188  33.442  1.00  0.00     0.049 A 
ATOM     58  H   UNL A   1      42.016  32.283  31.889  1.00  0.00     0.167 HD
ATOM     59  C   UNL A   1      42.362  32.180  35.506  1.00  0.00     0.074 A 
ATOM     60  C   UNL A   1      41.873  31.200  36.462  1.00  0.00     0.031 C 
ATOM     61  C   UNL A   1      43.029  32.015  34.315  1.00  0.00     0.034 A 
BRANCH  48  62
ATOM     62  C   UNL A   1      42.098  34.843  28.989  1.00  0.00     0.023 A 
ATOM     63  C   UNL A   1      41.615  36.072  28.489  1.00  0.00     0.012 A 
ATOM     64  C   UNL A   1      43.006  34.135  28.163  1.00  0.00     0.148 A 
ATOM     65  C   UNL A   1      42.035  36.589  27.257  1.00  0.00     0.002 A 
ATOM     66  C   UNL A   1      43.481  34.687  26.970  1.00  0.00     0.091 A 
ATOM     67  F   UNL A   1      43.355  32.883  28.489  1.00  0.00    -0.205 F 
ATOM     68  C   UNL A   1      42.987  35.910  26.508  1.00  0.00     0.022 A 
BRANCH  66  69
ATOM     69  S   UNL A   1      44.777  33.905  25.992  1.00  0.00     0.127 S 
ATOM     70  O   UNL A   1      45.118  34.955  25.033  1.00  0.00    -0.237 OA
ATOM     71  O   UNL A   1      45.811  33.636  26.991  1.00  0.00    -0.237 OA
ATOM     72  O   UNL A   1      44.177  32.706  25.418  1.00  0.00    -0.744 OA
ENDBRANCH  66  69
ENDBRANCH  48  62
BRANCH  49  73
ATOM     73  C   UNL A   1      38.824  33.804  38.383  1.00  0.00     0.023 A 
ATOM     74  C   UNL A   1      37.672  33.089  37.974  1.00  0.00     0.012 A 
ATOM     75  C   UNL A   1      39.152  33.836  39.736  1.00  0.00     0.148 A 
ATOM     76  C   UNL A   1      36.930  32.324  38.880  1.00  0.00     0.002 A 
ATOM     77  C   UNL A   1      38.493  32.971  40.604  1.00  0.00     0.091 A 
ATOM     78  F   UNL A   1      40.268  34.471  40.118  1.00  0.00    -0.205 F 
ATOM     79  C   UNL A   1      37.361  32.238  40.197  1.00  0.00     0.022 A 
BRANCH  77  80
ATOM     80  S   UNL A   1      39.609  32.013  41.640  1.00  0.00     0.127 S 
ATOM     81  O   UNL A   1      40.852  31.960  40.884  1.00  0.00    -0.237 OA
ATOM     82  O   UNL A   1      39.582  32.950  42.751  1.00  0.00    -0.237 OA
ATOM     83  O   UNL A   1      38.959  30.728  41.871  1.00  0.00    -0.744 OA
ENDBRANCH  77  80
ENDBRANCH  49  73
BRANCH  61  84
ATOM     84  C   UNL A   1      43.600  30.659  33.859  1.00  0.00     0.023 A 
ATOM     85  C   UNL A   1      43.285  30.151  32.579  1.00  0.00     0.012 A 
ATOM     86  C   UNL A   1      44.358  29.792  34.694  1.00  0.00     0.148 A 
ATOM     87  C   UNL A   1      43.778  28.925  32.114  1.00  0.00     0.002 A 
ATOM     88  C   UNL A   1      44.763  28.527  34.264  1.00  0.00     0.091 A 
ATOM     89  F   UNL A   1      44.728  30.183  35.914  1.00  0.00    -0.205 F 
ATOM     90  C   UNL A   1      44.510  28.106  32.958  1.00  0.00     0.022 A 
BRANCH  88  91
ATOM     91  S   UNL A   1      45.530  27.323  35.366  1.00  0.00     0.127 S 
ATOM     92  O   UNL A   1      45.514  26.117  34.537  1.00  0.00    -0.237 OA
ATOM     93  O   UNL A   1      46.856  27.904  35.570  1.00  0.00    -0.237 OA
ATOM     94  O   UNL A   1      44.688  27.257  36.551  1.00  0.00    -0.744 OA
ENDBRANCH  88  91
ENDBRANCH  61  84
ENDBRANCH  35  36
ENDBRANCH  28  30
ENDBRANCH  27  28
ENDBRANCH  26  27
ENDBRANCH  25  26
ENDBRANCH   1  25
TORSDOF 20
ENDMDL
MODEL 3
REMARK VINA RESULT:     -10.1      3.668      6.624
REMARK SMILES Cc1ccc(Nc2c(F)cccc2I)c(CC(=O)OCCOCCOC(=O)c2ccc(-c3c4nc(c(-c5cccc(S(=O)(=O)[O-])c5F)c5ccc([nH]5)c(-c5cccc(S(=O)(=O)[O-])c5F)c5nc(c(-c6cccc(S(=O)(=O)[O-])c6F)c6ccc3[nH]6)C=C5)C=C4)cc2)c1
REMARK SMILES IDX 22 1 21 2 20 3 19 4 17 5 18 6 16 7 15 8 1 9 2 10 3 11 91 12
REMARK SMILES IDX 4 13 5 14 6 15 7 17 8 18 13 19 9 20 10 21 12 22 14 23 11 24
REMARK SMILES IDX 23 25 24 26 25 27 26 28 27 29 28 30 29 31 90 32 30 33 89 34
REMARK SMILES IDX 31 35 32 36 33 37 83 38 34 39 88 40 82 41 84 42 35 43 87 44
REMARK SMILES IDX 81 45 80 46 36 48 68 49 48 50 67 51 49 52 52 53 66 54 85 55
REMARK SMILES IDX 50 56 51 57 65 59 86 60 53 61 37 62 38 63 46 64 39 65 41 66
REMARK SMILES IDX 47 67 40 68 42 69 43 70 44 71 45 72 69 73 70 74 78 75 71 76
REMARK SMILES IDX 73 77 79 78 72 79 74 80 75 81 76 82 77 83 54 84 55 85 63 86
REMARK SMILES IDX 56 87 58 88 64 89 57 90 59 91 60 92 61 93 62 94
REMARK H PARENT 6 16 84 47 52 58
REMARK Flexibility Score: inf
ROOT
ATOM      1  O   UNL A   1      40.208  22.230  26.387  1.00  0.00    -0.374 OA
ENDROOT
BRANCH   1   2
ATOM      2  C   UNL A   1      38.999  21.569  26.128  1.00  0.00     0.202 C 
BRANCH   2   3
ATOM      3  C   UNL A   1      37.780  22.420  25.806  1.00  0.00     0.261 C 
BRANCH   3   4
ATOM      4  O   UNL A   1      37.703  22.757  24.415  1.00  0.00    -0.463 OA
BRANCH   4   5
ATOM      5  C   UNL A   1      36.460  22.872  23.920  1.00  0.00     0.310 C 
ATOM      6  O   UNL A   1      36.210  23.266  22.784  1.00  0.00    -0.252 OA
BRANCH   5   7
ATOM      7  C   UNL A   1      35.374  22.295  24.817  1.00  0.00     0.160 C 
BRANCH   7   8
ATOM      8  C   UNL A   1      34.233  21.422  24.278  1.00  0.00    -0.013 A 
ATOM      9  C   UNL A   1      33.198  17.784  24.944  1.00  0.00     0.044 C 
ATOM     10  C   UNL A   1      33.230  19.177  24.382  1.00  0.00    -0.051 A 
ATOM     11  C   UNL A   1      32.191  19.618  23.562  1.00  0.00     0.005 A 
ATOM     12  C   UNL A   1      34.261  20.067  24.699  1.00  0.00     0.009 A 
ATOM     13  C   UNL A   1      32.154  20.938  23.102  1.00  0.00     0.026 A 
ATOM     14  C   UNL A   1      33.126  21.881  23.472  1.00  0.00     0.042 A 
BRANCH  14  15
ATOM     15  N   UNL A   1      33.015  23.204  22.956  1.00  0.00    -0.352 N 
ATOM     16  H   UNL A   1      33.482  23.337  22.100  1.00  0.00     0.167 HD
BRANCH  15  17
ATOM     17  C   UNL A   1      32.350  24.388  23.447  1.00  0.00     0.088 A 
ATOM     18  C   UNL A   1      30.996  24.379  23.782  1.00  0.00     0.147 A 
ATOM     19  C   UNL A   1      33.093  25.364  24.161  1.00  0.00     0.040 A 
ATOM     20  F   UNL A   1      30.148  23.572  23.130  1.00  0.00    -0.205 F 
ATOM     21  C   UNL A   1      30.480  25.196  24.812  1.00  0.00     0.041 A 
ATOM     22  C   UNL A   1      32.671  25.994  25.344  1.00  0.00     0.017 A 
ATOM     23  I   UNL A   1      33.483  27.259  22.706  1.00  0.00    -0.042 I 
ATOM     24  C   UNL A   1      31.325  25.942  25.642  1.00  0.00     0.004 A 
ENDBRANCH  15  17
ENDBRANCH  14  15
ENDBRANCH   7   8
ENDBRANCH   5   7
ENDBRANCH   4   5
ENDBRANCH   3   4
ENDBRANCH   2   3
ENDBRANCH   1   2
BRANCH   1  25
ATOM     25  C   UNL A   1      40.005  23.505  26.983  1.00  0.00     0.202 C 
BRANCH  25  26
ATOM     26  C   UNL A   1      40.195  24.854  26.264  1.00  0.00     0.261 C 
BRANCH  26  27
ATOM     27  O   UNL A   1      41.498  25.400  26.617  1.00  0.00    -0.460 OA
BRANCH  27  28
ATOM     28  C   UNL A   1      41.683  26.069  27.798  1.00  0.00     0.338 C 
ATOM     29  O   UNL A   1      42.206  25.561  28.777  1.00  0.00    -0.246 OA
BRANCH  28  30
ATOM     30  C   UNL A   1      41.319  27.531  27.712  1.00  0.00     0.060 A 
ATOM     31  C   UNL A   1      42.260  28.510  27.977  1.00  0.00     0.016 A 
ATOM     32  C   UNL A   1      40.021  27.976  27.554  1.00  0.00     0.016 A 
ATOM     33  C   UNL A   1      41.873  29.707  28.618  1.00  0.00     0.010 A 
ATOM     34  C   UNL A   1      39.622  29.119  28.267  1.00  0.00     0.010 A 
ATOM     35  C   UNL A   1      40.556  29.861  29.001  1.00  0.00    -0.014 A 
BRANCH  35  36
ATOM     36  C   UNL A   1      40.146  30.437  30.316  1.00  0.00     0.031 A 
ATOM     37  C   UNL A   1      39.396  31.733  30.412  1.00  0.00     0.074 A 
ATOM     38  C   UNL A   1      40.102  29.646  31.437  1.00  0.00     0.049 A 
ATOM     39  N   UNL A   1      39.046  32.270  31.537  1.00  0.00    -0.248 NA
ATOM     40  C   UNL A   1      38.979  32.548  29.272  1.00  0.00     0.031 C 
ATOM     41  C   UNL A   1      39.104  29.791  32.518  1.00  0.00     0.029 A 
ATOM     42  N   UNL A   1      40.829  28.518  31.862  1.00  0.00    -0.354 N 
ATOM     43  C   UNL A   1      38.069  33.197  31.276  1.00  0.00     0.074 A 
ATOM     44  C   UNL A   1      38.175  33.446  29.860  1.00  0.00     0.031 C 
ATOM     45  C   UNL A   1      39.375  28.960  33.523  1.00  0.00     0.029 A 
ATOM     46  C   UNL A   1      40.643  28.334  33.248  1.00  0.00     0.049 A 
ATOM     47  H   UNL A   1      41.382  27.947  31.282  1.00  0.00     0.167 HD
ATOM     48  C   UNL A   1      37.202  33.569  32.262  1.00  0.00     0.034 A 
ATOM     49  C   UNL A   1      41.586  28.158  34.215  1.00  0.00     0.034 A 
ATOM     50  C   UNL A   1      37.581  33.053  33.587  1.00  0.00     0.049 A 
ATOM     51  C   UNL A   1      41.722  29.453  35.021  1.00  0.00     0.074 A 
ATOM     52  C   UNL A   1      37.028  32.238  34.558  1.00  0.00     0.029 A 
ATOM     53  N   UNL A   1      38.875  33.294  34.010  1.00  0.00    -0.354 N 
ATOM     54  N   UNL A   1      40.748  30.275  35.330  1.00  0.00    -0.248 NA
ATOM     55  C   UNL A   1      43.030  29.987  35.408  1.00  0.00     0.031 C 
ATOM     56  C   UNL A   1      38.054  31.939  35.521  1.00  0.00     0.029 A 
ATOM     57  C   UNL A   1      39.209  32.620  35.164  1.00  0.00     0.049 A 
ATOM     58  H   UNL A   1      39.498  33.889  33.532  1.00  0.00     0.167 HD
ATOM     59  C   UNL A   1      41.298  31.512  35.612  1.00  0.00     0.074 A 
ATOM     60  C   UNL A   1      42.725  31.255  35.712  1.00  0.00     0.031 C 
ATOM     61  C   UNL A   1      40.598  32.695  35.617  1.00  0.00     0.034 A 
BRANCH  48  62
ATOM     62  C   UNL A   1      35.970  34.418  32.032  1.00  0.00     0.023 A 
ATOM     63  C   UNL A   1      35.565  35.284  33.070  1.00  0.00     0.012 A 
ATOM     64  C   UNL A   1      35.156  34.390  30.873  1.00  0.00     0.148 A 
ATOM     65  C   UNL A   1      34.435  36.104  32.954  1.00  0.00     0.002 A 
ATOM     66  C   UNL A   1      34.073  35.263  30.728  1.00  0.00     0.091 A 
ATOM     67  F   UNL A   1      35.376  33.460  29.934  1.00  0.00    -0.205 F 
ATOM     68  C   UNL A   1      33.703  36.114  31.774  1.00  0.00     0.022 A 
BRANCH  66  69
ATOM     69  S   UNL A   1      33.133  35.390  29.196  1.00  0.00     0.127 S 
ATOM     70  O   UNL A   1      32.158  36.432  29.516  1.00  0.00    -0.237 OA
ATOM     71  O   UNL A   1      34.154  35.792  28.228  1.00  0.00    -0.237 OA
ATOM     72  O   UNL A   1      32.575  34.064  28.957  1.00  0.00    -0.744 OA
ENDBRANCH  66  69
ENDBRANCH  48  62
BRANCH  49  73
ATOM     73  C   UNL A   1      42.672  27.218  33.849  1.00  0.00     0.023 A 
ATOM     74  C   UNL A   1      43.623  27.678  32.903  1.00  0.00     0.012 A 
ATOM     75  C   UNL A   1      43.013  26.158  34.685  1.00  0.00     0.148 A 
ATOM     76  C   UNL A   1      44.924  27.167  32.873  1.00  0.00     0.002 A 
ATOM     77  C   UNL A   1      44.342  25.749  34.740  1.00  0.00     0.091 A 
ATOM     78  F   UNL A   1      42.134  25.755  35.612  1.00  0.00    -0.205 F 
ATOM     79  C   UNL A   1      45.297  26.221  33.818  1.00  0.00     0.022 A 
BRANCH  77  80
ATOM     80  S   UNL A   1      44.985  25.639  36.415  1.00  0.00     0.127 S 
ATOM     81  O   UNL A   1      46.424  25.502  36.245  1.00  0.00    -0.237 OA
ATOM     82  O   UNL A   1      44.516  26.956  36.815  1.00  0.00    -0.237 OA
ATOM     83  O   UNL A   1      44.316  24.506  37.043  1.00  0.00    -0.744 OA
ENDBRANCH  77  80
ENDBRANCH  49  73
BRANCH  61  84
ATOM     84  C   UNL A   1      41.246  34.047  35.970  1.00  0.00     0.023 A 
ATOM     85  C   UNL A   1      40.913  34.701  37.176  1.00  0.00     0.012 A 
ATOM     86  C   UNL A   1      42.102  34.773  35.095  1.00  0.00     0.148 A 
ATOM     87  C   UNL A   1      41.474  35.931  37.546  1.00  0.00     0.002 A 
ATOM     88  C   UNL A   1      42.580  36.044  35.421  1.00  0.00     0.091 A 
ATOM     89  F   UNL A   1      42.497  34.237  33.939  1.00  0.00    -0.205 F 
ATOM     90  C   UNL A   1      42.301  36.609  36.665  1.00  0.00     0.022 A 
BRANCH  88  91
ATOM     91  S   UNL A   1      43.482  37.075  34.249  1.00  0.00     0.127 S 
ATOM     92  O   UNL A   1      42.701  38.313  34.289  1.00  0.00    -0.237 OA
ATOM     93  O   UNL A   1      44.799  37.166  34.878  1.00  0.00    -0.237 OA
ATOM     94  O   UNL A   1      43.445  36.376  32.974  1.00  0.00    -0.744 OA
ENDBRANCH  88  91
ENDBRANCH  61  84
ENDBRANCH  35  36
ENDBRANCH  28  30
ENDBRANCH  27  28
ENDBRANCH  26  27
ENDBRANCH  25  26
ENDBRANCH   1  25
TORSDOF 20
ENDMDL
