MODEL 1
REMARK VINA RESULT:     -11.7      0.000      0.000
REMARK SMILES O=C(Nc1ccc(N2CC[NH+](CC(=O)N3CCOCC3)CC2)c(C(=O)OCCOCCOC(=O)c2ccc(-c3c4nc(c(-c5cccc(S(=O)(=O)[O-])c5F)c5ccc([nH]5)c(-c5cccc(S(=O)(=O)[O-])c5F)c5nc(c(-c6cccc(S(=O)(=O)[O-])c6F)c6ccc3[nH]6)C=C5)C=C4)cc2)c1)c1cccc(Cl)c1
REMARK SMILES IDX 29 1 28 2 27 3 26 4 24 5 25 6 23 7 4 8 5 9 98 10 6 11 7 12
REMARK SMILES IDX 3 13 1 14 2 15 99 17 100 18 105 19 101 20 103 21 102 22
REMARK SMILES IDX 104 23 8 24 9 25 22 26 10 27 21 28 11 29 12 31 13 32 14 33
REMARK SMILES IDX 15 34 16 35 20 36 17 37 19 38 18 39 30 40 31 41 32 42 33 43
REMARK SMILES IDX 34 44 35 45 36 46 97 47 37 48 96 49 38 50 39 51 40 52 90 53
REMARK SMILES IDX 41 54 95 55 89 56 91 57 42 58 94 59 88 60 87 61 43 63 75 64
REMARK SMILES IDX 55 65 74 66 56 67 59 68 73 69 92 70 57 71 58 72 72 74 93 75
REMARK SMILES IDX 60 76 44 77 45 78 53 79 46 80 48 81 54 82 47 83 49 84 50 85
REMARK SMILES IDX 51 86 52 87 76 88 77 89 85 90 78 91 80 92 86 93 79 94 81 95
REMARK SMILES IDX 82 96 83 97 84 98 61 99 62 100 70 101 63 102 65 103 71 104
REMARK SMILES IDX 64 105 66 106 67 107 68 108 69 109
REMARK H PARENT 3 16 11 30 91 62 59 73
REMARK Flexibility Score: inf
ROOT
ATOM      1  O   UNL A   1      35.904  23.101  26.092  1.00  0.00    -0.374 OA
ENDROOT
BRANCH   1   2
ATOM      2  C   UNL A   1      34.811  23.955  25.713  1.00  0.00     0.202 C 
BRANCH   2   3
ATOM      3  C   UNL A   1      33.650  23.966  26.712  1.00  0.00     0.261 C 
BRANCH   3   4
ATOM      4  O   UNL A   1      32.796  25.073  26.391  1.00  0.00    -0.460 OA
BRANCH   4   5
ATOM      5  C   UNL A   1      31.476  24.787  26.287  1.00  0.00     0.340 C 
ATOM      6  O   UNL A   1      30.761  24.356  27.174  1.00  0.00    -0.246 OA
BRANCH   5   7
ATOM      7  C   UNL A   1      31.022  25.235  24.941  1.00  0.00     0.085 A 
ATOM      8  C   UNL A   1      30.087  27.060  23.670  1.00  0.00     0.042 A 
ATOM      9  C   UNL A   1      30.410  26.395  22.491  1.00  0.00     0.028 A 
ATOM     10  C   UNL A   1      30.268  26.406  24.880  1.00  0.00     0.044 A 
ATOM     11  C   UNL A   1      31.057  25.147  22.543  1.00  0.00     0.029 A 
ATOM     12  C   UNL A   1      31.396  24.545  23.766  1.00  0.00     0.052 A 
BRANCH   8  13
ATOM     13  N   UNL A   1      29.693  28.409  23.614  1.00  0.00    -0.322 N 
ATOM     14  O   UNL A   1      29.885  30.640  23.996  1.00  0.00    -0.269 OA
ATOM     15  C   UNL A   1      30.418  29.535  23.994  1.00  0.00     0.255 C 
ATOM     16  H   UNL A   1      28.790  28.580  23.262  1.00  0.00     0.170 HD
BRANCH  15  17
ATOM     17  C   UNL A   1      31.863  29.410  24.334  1.00  0.00     0.041 A 
ATOM     18  C   UNL A   1      32.791  29.002  23.359  1.00  0.00     0.014 A 
ATOM     19  C   UNL A   1      32.249  29.523  25.672  1.00  0.00     0.034 A 
ATOM     20  C   UNL A   1      34.066  28.584  23.744  1.00  0.00     0.002 A 
ATOM     21  C   UNL A   1      33.530  29.113  26.042  1.00  0.00     0.041 A 
ATOM     22  C   UNL A   1      34.429  28.626  25.090  1.00  0.00     0.020 A 
ATOM     23  Cl  UNL A   1      33.976  29.099  27.703  1.00  0.00    -0.084 Cl
ENDBRANCH  15  17
ENDBRANCH   8  13
BRANCH  12  24
ATOM     24  N   UNL A   1      31.956  23.271  23.829  1.00  0.00    -0.360 N 
ATOM     25  C   UNL A   1      32.823  22.695  22.790  1.00  0.00     0.178 C 
ATOM     26  C   UNL A   1      31.086  22.296  24.481  1.00  0.00     0.178 C 
ATOM     27  C   UNL A   1      33.470  21.353  23.269  1.00  0.00     0.284 C 
ATOM     28  C   UNL A   1      31.877  21.134  25.067  1.00  0.00     0.284 C 
ATOM     29  N   UNL A   1      32.642  20.411  24.054  1.00  0.00    -0.324 N 
ATOM     30  H   UNL A   1      33.317  19.803  24.520  1.00  0.00     0.348 HD
BRANCH  29  31
ATOM     31  C   UNL A   1      31.882  19.385  23.325  1.00  0.00     0.363 C 
BRANCH  31  32
ATOM     32  C   UNL A   1      32.628  18.138  22.831  1.00  0.00     0.277 C 
ATOM     33  O   UNL A   1      32.892  18.014  21.630  1.00  0.00    -0.268 OA
ATOM     34  N   UNL A   1      33.114  17.225  23.772  1.00  0.00    -0.333 N 
ATOM     35  C   UNL A   1      32.406  16.827  24.993  1.00  0.00     0.148 C 
ATOM     36  C   UNL A   1      34.102  16.242  23.319  1.00  0.00     0.148 C 
ATOM     37  C   UNL A   1      33.302  16.220  26.074  1.00  0.00     0.181 C 
ATOM     38  C   UNL A   1      34.959  15.730  24.480  1.00  0.00     0.181 C 
ATOM     39  O   UNL A   1      34.140  15.194  25.527  1.00  0.00    -0.378 OA
ENDBRANCH  31  32
ENDBRANCH  29  31
ENDBRANCH  12  24
ENDBRANCH   5   7
ENDBRANCH   4   5
ENDBRANCH   3   4
ENDBRANCH   2   3
ENDBRANCH   1   2
BRANCH   1  40
ATOM     40  C   UNL A   1      36.396  22.231  25.071  1.00  0.00     0.202 C 
BRANCH  40  41
ATOM     41  C   UNL A   1      37.313  21.101  25.529  1.00  0.00     0.261 C 
BRANCH  41  42
ATOM     42  O   UNL A   1      38.662  21.376  25.160  1.00  0.00    -0.460 OA
BRANCH  42  43
ATOM     43  C   UNL A   1      39.560  21.128  26.145  1.00  0.00     0.338 C 
ATOM     44  O   UNL A   1      40.097  20.071  26.401  1.00  0.00    -0.246 OA
BRANCH  43  45
ATOM     45  C   UNL A   1      39.951  22.417  26.744  1.00  0.00     0.060 A 
ATOM     46  C   UNL A   1      39.302  23.561  26.265  1.00  0.00     0.016 A 
ATOM     47  C   UNL A   1      40.908  22.503  27.759  1.00  0.00     0.016 A 
ATOM     48  C   UNL A   1      39.653  24.809  26.759  1.00  0.00     0.010 A 
ATOM     49  C   UNL A   1      41.263  23.755  28.251  1.00  0.00     0.010 A 
ATOM     50  C   UNL A   1      40.667  24.911  27.718  1.00  0.00    -0.014 A 
BRANCH  50  51
ATOM     51  C   UNL A   1      41.234  26.238  28.023  1.00  0.00     0.031 A 
ATOM     52  C   UNL A   1      42.634  26.530  27.567  1.00  0.00     0.074 A 
ATOM     53  C   UNL A   1      40.507  27.153  28.684  1.00  0.00     0.049 A 
ATOM     54  N   UNL A   1      43.339  27.618  27.710  1.00  0.00    -0.248 NA
ATOM     55  C   UNL A   1      43.336  25.445  26.856  1.00  0.00     0.031 C 
ATOM     56  C   UNL A   1      39.142  26.956  29.170  1.00  0.00     0.029 A 
ATOM     57  N   UNL A   1      40.827  28.424  29.076  1.00  0.00    -0.354 N 
ATOM     58  C   UNL A   1      44.574  27.343  27.136  1.00  0.00     0.074 A 
ATOM     59  C   UNL A   1      44.529  25.983  26.651  1.00  0.00     0.031 C 
ATOM     60  C   UNL A   1      38.749  28.063  29.822  1.00  0.00     0.029 A 
ATOM     61  C   UNL A   1      39.839  29.035  29.810  1.00  0.00     0.049 A 
ATOM     62  H   UNL A   1      41.682  28.859  28.855  1.00  0.00     0.167 HD
ATOM     63  C   UNL A   1      45.643  28.162  27.009  1.00  0.00     0.034 A 
ATOM     64  C   UNL A   1      39.832  30.241  30.411  1.00  0.00     0.034 A 
ATOM     65  C   UNL A   1      45.664  29.518  27.480  1.00  0.00     0.049 A 
ATOM     66  C   UNL A   1      41.040  31.130  30.261  1.00  0.00     0.074 A 
ATOM     67  C   UNL A   1      46.673  30.456  27.361  1.00  0.00     0.029 A 
ATOM     68  N   UNL A   1      44.629  30.124  28.177  1.00  0.00    -0.354 N 
ATOM     69  N   UNL A   1      42.152  30.908  29.600  1.00  0.00    -0.248 NA
ATOM     70  C   UNL A   1      40.980  32.446  30.909  1.00  0.00     0.031 C 
ATOM     71  C   UNL A   1      46.256  31.623  28.010  1.00  0.00     0.029 A 
ATOM     72  C   UNL A   1      44.978  31.421  28.508  1.00  0.00     0.049 A 
ATOM     73  H   UNL A   1      43.773  29.694  28.403  1.00  0.00     0.167 HD
ATOM     74  C   UNL A   1      42.908  32.068  29.721  1.00  0.00     0.074 A 
ATOM     75  C   UNL A   1      42.116  32.998  30.504  1.00  0.00     0.031 C 
ATOM     76  C   UNL A   1      44.147  32.341  29.242  1.00  0.00     0.034 A 
BRANCH  63  77
ATOM     77  C   UNL A   1      46.862  27.614  26.317  1.00  0.00     0.023 A 
ATOM     78  C   UNL A   1      47.744  26.767  27.019  1.00  0.00     0.012 A 
ATOM     79  C   UNL A   1      47.118  27.911  24.964  1.00  0.00     0.148 A 
ATOM     80  C   UNL A   1      48.877  26.246  26.394  1.00  0.00     0.002 A 
ATOM     81  C   UNL A   1      48.226  27.355  24.336  1.00  0.00     0.091 A 
ATOM     82  F   UNL A   1      46.285  28.743  24.323  1.00  0.00    -0.205 F 
ATOM     83  C   UNL A   1      49.112  26.531  25.052  1.00  0.00     0.022 A 
BRANCH  81  84
ATOM     84  S   UNL A   1      48.577  27.604  22.593  1.00  0.00     0.127 S 
ATOM     85  O   UNL A   1      49.795  28.412  22.650  1.00  0.00    -0.237 OA
ATOM     86  O   UNL A   1      48.776  26.235  22.120  1.00  0.00    -0.237 OA
ATOM     87  O   UNL A   1      47.408  28.274  22.040  1.00  0.00    -0.744 OA
ENDBRANCH  81  84
ENDBRANCH  63  77
BRANCH  64  88
ATOM     88  C   UNL A   1      38.627  30.691  31.162  1.00  0.00     0.023 A 
ATOM     89  C   UNL A   1      38.545  30.450  32.548  1.00  0.00     0.012 A 
ATOM     90  C   UNL A   1      37.578  31.378  30.520  1.00  0.00     0.148 A 
ATOM     91  C   UNL A   1      37.426  30.860  33.275  1.00  0.00     0.002 A 
ATOM     92  C   UNL A   1      36.490  31.828  31.260  1.00  0.00     0.091 A 
ATOM     93  F   UNL A   1      37.668  31.583  29.199  1.00  0.00    -0.205 F 
ATOM     94  C   UNL A   1      36.405  31.557  32.634  1.00  0.00     0.022 A 
BRANCH  92  95
ATOM     95  S   UNL A   1      35.185  32.834  30.545  1.00  0.00     0.127 S 
ATOM     96  O   UNL A   1      34.769  32.017  29.408  1.00  0.00    -0.237 OA
ATOM     97  O   UNL A   1      34.218  32.899  31.642  1.00  0.00    -0.237 OA
ATOM     98  O   UNL A   1      35.807  34.108  30.214  1.00  0.00    -0.744 OA
ENDBRANCH  92  95
ENDBRANCH  64  88
BRANCH  76  99
ATOM     99  C   UNL A   1      44.715  33.707  29.521  1.00  0.00     0.023 A 
ATOM    100  C   UNL A   1      45.461  33.929  30.695  1.00  0.00     0.012 A 
ATOM    101  C   UNL A   1      44.582  34.744  28.577  1.00  0.00     0.148 A 
ATOM    102  C   UNL A   1      46.038  35.174  30.941  1.00  0.00     0.002 A 
ATOM    103  C   UNL A   1      45.202  35.966  28.805  1.00  0.00     0.091 A 
ATOM    104  F   UNL A   1      43.854  34.516  27.474  1.00  0.00    -0.205 F 
ATOM    105  C   UNL A   1      45.920  36.186  29.991  1.00  0.00     0.022 A 
BRANCH 103 106
ATOM    106  S   UNL A   1      45.188  37.290  27.591  1.00  0.00     0.127 S 
ATOM    107  O   UNL A   1      45.959  38.328  28.273  1.00  0.00    -0.237 OA
ATOM    108  O   UNL A   1      45.868  36.675  26.451  1.00  0.00    -0.237 OA
ATOM    109  O   UNL A   1      43.785  37.604  27.357  1.00  0.00    -0.744 OA
ENDBRANCH 103 106
ENDBRANCH  76  99
ENDBRANCH  50  51
ENDBRANCH  43  45
ENDBRANCH  42  43
ENDBRANCH  41  42
ENDBRANCH  40  41
ENDBRANCH   1  40
TORSDOF 22
ENDMDL
MODEL 2
REMARK VINA RESULT:     -10.7      1.889      2.532
REMARK SMILES O=C(Nc1ccc(N2CC[NH+](CC(=O)N3CCOCC3)CC2)c(C(=O)OCCOCCOC(=O)c2ccc(-c3c4nc(c(-c5cccc(S(=O)(=O)[O-])c5F)c5ccc([nH]5)c(-c5cccc(S(=O)(=O)[O-])c5F)c5nc(c(-c6cccc(S(=O)(=O)[O-])c6F)c6ccc3[nH]6)C=C5)C=C4)cc2)c1)c1cccc(Cl)c1
REMARK SMILES IDX 29 1 28 2 27 3 26 4 24 5 25 6 23 7 4 8 5 9 98 10 6 11 7 12
REMARK SMILES IDX 3 13 1 14 2 15 99 17 100 18 105 19 101 20 103 21 102 22
REMARK SMILES IDX 104 23 8 24 9 25 22 26 10 27 21 28 11 29 12 31 13 32 14 33
REMARK SMILES IDX 15 34 16 35 20 36 17 37 19 38 18 39 30 40 31 41 32 42 33 43
REMARK SMILES IDX 34 44 35 45 36 46 97 47 37 48 96 49 38 50 39 51 40 52 90 53
REMARK SMILES IDX 41 54 95 55 89 56 91 57 42 58 94 59 88 60 87 61 43 63 75 64
REMARK SMILES IDX 55 65 74 66 56 67 59 68 73 69 92 70 57 71 58 72 72 74 93 75
REMARK SMILES IDX 60 76 44 77 45 78 53 79 46 80 48 81 54 82 47 83 49 84 50 85
REMARK SMILES IDX 51 86 52 87 76 88 77 89 85 90 78 91 80 92 86 93 79 94 81 95
REMARK SMILES IDX 82 96 83 97 84 98 61 99 62 100 70 101 63 102 65 103 71 104
REMARK SMILES IDX 64 105 66 106 67 107 68 108 69 109
REMARK H PARENT 3 16 11 30 91 62 59 73
REMARK Flexibility Score: inf
ROOT
ATOM      1  O   UNL A   1      35.245  23.568  26.175  1.00  0.00    -0.374 OA
ENDROOT
BRANCH   1   2
ATOM      2  C   UNL A   1      33.906  23.070  26.335  1.00  0.00     0.202 C 
BRANCH   2   3
ATOM      3  C   UNL A   1      32.996  23.978  27.167  1.00  0.00     0.261 C 
BRANCH   3   4
ATOM      4  O   UNL A   1      32.688  25.140  26.383  1.00  0.00    -0.460 OA
BRANCH   4   5
ATOM      5  C   UNL A   1      31.372  25.360  26.148  1.00  0.00     0.340 C 
ATOM      6  O   UNL A   1      30.441  24.912  26.793  1.00  0.00    -0.246 OA
BRANCH   5   7
ATOM      7  C   UNL A   1      31.272  26.366  25.053  1.00  0.00     0.085 A 
ATOM      8  C   UNL A   1      31.066  28.712  24.531  1.00  0.00     0.042 A 
ATOM      9  C   UNL A   1      31.386  28.436  23.204  1.00  0.00     0.028 A 
ATOM     10  C   UNL A   1      30.874  27.654  25.407  1.00  0.00     0.044 A 
ATOM     11  C   UNL A   1      31.663  27.116  22.807  1.00  0.00     0.029 A 
ATOM     12  C   UNL A   1      31.632  26.052  23.724  1.00  0.00     0.052 A 
BRANCH   8  13
ATOM     13  N   UNL A   1      31.058  30.046  24.974  1.00  0.00    -0.322 N 
ATOM     14  O   UNL A   1      30.476  32.242  24.924  1.00  0.00    -0.269 OA
ATOM     15  C   UNL A   1      30.278  31.103  24.513  1.00  0.00     0.255 C 
ATOM     16  H   UNL A   1      31.683  30.261  25.703  1.00  0.00     0.170 HD
BRANCH  15  17
ATOM     17  C   UNL A   1      29.154  30.842  23.570  1.00  0.00     0.041 A 
ATOM     18  C   UNL A   1      28.343  29.704  23.726  1.00  0.00     0.014 A 
ATOM     19  C   UNL A   1      29.039  31.640  22.429  1.00  0.00     0.034 A 
ATOM     20  C   UNL A   1      27.510  29.295  22.684  1.00  0.00     0.002 A 
ATOM     21  C   UNL A   1      28.195  31.227  21.399  1.00  0.00     0.041 A 
ATOM     22  C   UNL A   1      27.449  30.050  21.512  1.00  0.00     0.020 A 
ATOM     23  Cl  UNL A   1      28.150  32.109  19.923  1.00  0.00    -0.084 Cl
ENDBRANCH  15  17
ENDBRANCH   8  13
BRANCH  12  24
ATOM     24  N   UNL A   1      31.819  24.730  23.323  1.00  0.00    -0.360 N 
ATOM     25  C   UNL A   1      31.013  23.597  23.801  1.00  0.00     0.178 C 
ATOM     26  C   UNL A   1      33.222  24.398  23.086  1.00  0.00     0.178 C 
ATOM     27  C   UNL A   1      31.322  22.296  22.988  1.00  0.00     0.284 C 
ATOM     28  C   UNL A   1      33.372  23.227  22.125  1.00  0.00     0.284 C 
ATOM     29  N   UNL A   1      32.725  22.013  22.617  1.00  0.00    -0.324 N 
ATOM     30  H   UNL A   1      32.658  21.341  21.852  1.00  0.00     0.348 HD
BRANCH  29  31
ATOM     31  C   UNL A   1      33.540  21.216  23.545  1.00  0.00     0.363 C 
BRANCH  31  32
ATOM     32  C   UNL A   1      32.823  20.256  24.505  1.00  0.00     0.277 C 
ATOM     33  O   UNL A   1      31.777  20.610  25.061  1.00  0.00    -0.268 OA
ATOM     34  N   UNL A   1      33.296  18.947  24.631  1.00  0.00    -0.333 N 
ATOM     35  C   UNL A   1      34.714  18.570  24.651  1.00  0.00     0.148 C 
ATOM     36  C   UNL A   1      32.418  17.964  25.270  1.00  0.00     0.148 C 
ATOM     37  C   UNL A   1      34.982  17.102  24.314  1.00  0.00     0.181 C 
ATOM     38  C   UNL A   1      32.760  16.537  24.834  1.00  0.00     0.181 C 
ATOM     39  O   UNL A   1      34.139  16.238  25.086  1.00  0.00    -0.378 OA
ENDBRANCH  31  32
ENDBRANCH  29  31
ENDBRANCH  12  24
ENDBRANCH   5   7
ENDBRANCH   4   5
ENDBRANCH   3   4
ENDBRANCH   2   3
ENDBRANCH   1   2
BRANCH   1  40
ATOM     40  C   UNL A   1      36.040  22.909  25.187  1.00  0.00     0.202 C 
BRANCH  40  41
ATOM     41  C   UNL A   1      36.847  21.704  25.660  1.00  0.00     0.261 C 
BRANCH  41  42
ATOM     42  O   UNL A   1      38.163  21.743  25.115  1.00  0.00    -0.460 OA
BRANCH  42  43
ATOM     43  C   UNL A   1      39.134  21.430  26.007  1.00  0.00     0.338 C 
ATOM     44  O   UNL A   1      39.664  20.351  26.171  1.00  0.00    -0.246 OA
BRANCH  43  45
ATOM     45  C   UNL A   1      39.607  22.682  26.627  1.00  0.00     0.060 A 
ATOM     46  C   UNL A   1      38.932  23.856  26.276  1.00  0.00     0.016 A 
ATOM     47  C   UNL A   1      40.665  22.703  27.540  1.00  0.00     0.016 A 
ATOM     48  C   UNL A   1      39.354  25.074  26.793  1.00  0.00     0.010 A 
ATOM     49  C   UNL A   1      41.091  23.924  28.055  1.00  0.00     0.010 A 
ATOM     50  C   UNL A   1      40.463  25.113  27.646  1.00  0.00    -0.014 A 
BRANCH  50  51
ATOM     51  C   UNL A   1      41.081  26.416  27.956  1.00  0.00     0.031 A 
ATOM     52  C   UNL A   1      42.477  26.669  27.469  1.00  0.00     0.074 A 
ATOM     53  C   UNL A   1      40.401  27.343  28.650  1.00  0.00     0.049 A 
ATOM     54  N   UNL A   1      43.222  27.731  27.610  1.00  0.00    -0.248 NA
ATOM     55  C   UNL A   1      43.125  25.574  26.723  1.00  0.00     0.031 C 
ATOM     56  C   UNL A   1      39.044  27.183  29.169  1.00  0.00     0.029 A 
ATOM     57  N   UNL A   1      40.774  28.597  29.054  1.00  0.00    -0.354 N 
ATOM     58  C   UNL A   1      44.432  27.426  27.000  1.00  0.00     0.074 A 
ATOM     59  C   UNL A   1      44.330  26.076  26.495  1.00  0.00     0.031 C 
ATOM     60  C   UNL A   1      38.705  28.292  29.847  1.00  0.00     0.029 A 
ATOM     61  C   UNL A   1      39.826  29.227  29.822  1.00  0.00     0.049 A 
ATOM     62  H   UNL A   1      41.637  29.007  28.817  1.00  0.00     0.167 HD
ATOM     63  C   UNL A   1      45.524  28.211  26.858  1.00  0.00     0.034 A 
ATOM     64  C   UNL A   1      39.873  30.423  30.442  1.00  0.00     0.034 A 
ATOM     65  C   UNL A   1      45.602  29.557  27.350  1.00  0.00     0.049 A 
ATOM     66  C   UNL A   1      41.106  31.274  30.275  1.00  0.00     0.074 A 
ATOM     67  C   UNL A   1      46.638  30.464  27.219  1.00  0.00     0.029 A 
ATOM     68  N   UNL A   1      44.606  30.186  28.083  1.00  0.00    -0.354 N 
ATOM     69  N   UNL A   1      42.193  31.027  29.581  1.00  0.00    -0.248 NA
ATOM     70  C   UNL A   1      41.106  32.581  30.944  1.00  0.00     0.031 C 
ATOM     71  C   UNL A   1      46.277  31.633  27.897  1.00  0.00     0.029 A 
ATOM     72  C   UNL A   1      45.006  31.464  28.425  1.00  0.00     0.049 A 
ATOM     73  H   UNL A   1      43.742  29.781  28.324  1.00  0.00     0.167 HD
ATOM     74  C   UNL A   1      42.990  32.159  29.701  1.00  0.00     0.074 A 
ATOM     75  C   UNL A   1      42.250  33.101  30.519  1.00  0.00     0.031 C 
ATOM     76  C   UNL A   1      44.225  32.399  29.195  1.00  0.00     0.034 A 
BRANCH  63  77
ATOM     77  C   UNL A   1      46.706  27.635  26.127  1.00  0.00     0.023 A 
ATOM     78  C   UNL A   1      46.830  27.829  24.735  1.00  0.00     0.012 A 
ATOM     79  C   UNL A   1      47.711  26.932  26.819  1.00  0.00     0.148 A 
ATOM     80  C   UNL A   1      47.920  27.306  24.040  1.00  0.00     0.002 A 
ATOM     81  C   UNL A   1      48.816  26.451  26.126  1.00  0.00     0.091 A 
ATOM     82  F   UNL A   1      47.560  26.732  28.136  1.00  0.00    -0.205 F 
ATOM     83  C   UNL A   1      48.917  26.627  24.736  1.00  0.00     0.022 A 
BRANCH  81  84
ATOM     84  S   UNL A   1      50.186  25.626  26.943  1.00  0.00     0.127 S 
ATOM     85  O   UNL A   1      51.111  25.417  25.829  1.00  0.00    -0.237 OA
ATOM     86  O   UNL A   1      50.617  26.631  27.913  1.00  0.00    -0.237 OA
ATOM     87  O   UNL A   1      49.632  24.413  27.530  1.00  0.00    -0.744 OA
ENDBRANCH  81  84
ENDBRANCH  63  77
BRANCH  64  88
ATOM     88  C   UNL A   1      38.704  30.900  31.231  1.00  0.00     0.023 A 
ATOM     89  C   UNL A   1      38.716  30.772  32.634  1.00  0.00     0.012 A 
ATOM     90  C   UNL A   1      37.595  31.503  30.606  1.00  0.00     0.148 A 
ATOM     91  C   UNL A   1      37.632  31.208  33.397  1.00  0.00     0.002 A 
ATOM     92  C   UNL A   1      36.541  31.982  31.376  1.00  0.00     0.091 A 
ATOM     93  F   UNL A   1      37.595  31.601  29.269  1.00  0.00    -0.205 F 
ATOM     94  C   UNL A   1      36.551  31.822  32.770  1.00  0.00     0.022 A 
BRANCH  92  95
ATOM     95  S   UNL A   1      35.161  32.889  30.668  1.00  0.00     0.127 S 
ATOM     96  O   UNL A   1      35.797  34.146  30.285  1.00  0.00    -0.237 OA
ATOM     97  O   UNL A   1      34.776  32.028  29.548  1.00  0.00    -0.237 OA
ATOM     98  O   UNL A   1      34.166  32.980  31.727  1.00  0.00    -0.744 OA
ENDBRANCH  92  95
ENDBRANCH  64  88
BRANCH  76  99
ATOM     99  C   UNL A   1      44.845  33.741  29.479  1.00  0.00     0.023 A 
ATOM    100  C   UNL A   1      45.683  33.902  30.600  1.00  0.00     0.012 A 
ATOM    101  C   UNL A   1      44.665  34.817  28.588  1.00  0.00     0.148 A 
ATOM    102  C   UNL A   1      46.306  35.123  30.847  1.00  0.00     0.002 A 
ATOM    103  C   UNL A   1      45.329  36.016  28.813  1.00  0.00     0.091 A 
ATOM    104  F   UNL A   1      43.850  34.647  27.536  1.00  0.00    -0.205 F 
ATOM    105  C   UNL A   1      46.141  36.174  29.948  1.00  0.00     0.022 A 
BRANCH 103 106
ATOM    106  S   UNL A   1      45.255  37.386  27.655  1.00  0.00     0.127 S 
ATOM    107  O   UNL A   1      45.555  38.525  28.520  1.00  0.00    -0.237 OA
ATOM    108  O   UNL A   1      46.313  37.048  26.702  1.00  0.00    -0.237 OA
ATOM    109  O   UNL A   1      43.910  37.364  27.093  1.00  0.00    -0.744 OA
ENDBRANCH 103 106
ENDBRANCH  76  99
ENDBRANCH  50  51
ENDBRANCH  43  45
ENDBRANCH  42  43
ENDBRANCH  41  42
ENDBRANCH  40  41
ENDBRANCH   1  40
TORSDOF 22
ENDMDL
MODEL 3
REMARK VINA RESULT:     -10.5      2.421      2.970
REMARK SMILES O=C(Nc1ccc(N2CC[NH+](CC(=O)N3CCOCC3)CC2)c(C(=O)OCCOCCOC(=O)c2ccc(-c3c4nc(c(-c5cccc(S(=O)(=O)[O-])c5F)c5ccc([nH]5)c(-c5cccc(S(=O)(=O)[O-])c5F)c5nc(c(-c6cccc(S(=O)(=O)[O-])c6F)c6ccc3[nH]6)C=C5)C=C4)cc2)c1)c1cccc(Cl)c1
REMARK SMILES IDX 29 1 28 2 27 3 26 4 24 5 25 6 23 7 4 8 5 9 98 10 6 11 7 12
REMARK SMILES IDX 3 13 1 14 2 15 99 17 100 18 105 19 101 20 103 21 102 22
REMARK SMILES IDX 104 23 8 24 9 25 22 26 10 27 21 28 11 29 12 31 13 32 14 33
REMARK SMILES IDX 15 34 16 35 20 36 17 37 19 38 18 39 30 40 31 41 32 42 33 43
REMARK SMILES IDX 34 44 35 45 36 46 97 47 37 48 96 49 38 50 39 51 40 52 90 53
REMARK SMILES IDX 41 54 95 55 89 56 91 57 42 58 94 59 88 60 87 61 43 63 75 64
REMARK SMILES IDX 55 65 74 66 56 67 59 68 73 69 92 70 57 71 58 72 72 74 93 75
REMARK SMILES IDX 60 76 44 77 45 78 53 79 46 80 48 81 54 82 47 83 49 84 50 85
REMARK SMILES IDX 51 86 52 87 76 88 77 89 85 90 78 91 80 92 86 93 79 94 81 95
REMARK SMILES IDX 82 96 83 97 84 98 61 99 62 100 70 101 63 102 65 103 71 104
REMARK SMILES IDX 64 105 66 106 67 107 68 108 69 109
REMARK H PARENT 3 16 11 30 91 62 59 73
REMARK Flexibility Score: inf
ROOT
ATOM      1  O   UNL A   1      34.535  24.231  26.315  1.00  0.00    -0.374 OA
ENDROOT
BRANCH   1   2
ATOM      2  C   UNL A   1      33.676  23.278  26.962  1.00  0.00     0.202 C 
BRANCH   2   3
ATOM      3  C   UNL A   1      32.258  23.792  27.227  1.00  0.00     0.261 C 
BRANCH   3   4
ATOM      4  O   UNL A   1      31.929  24.742  26.203  1.00  0.00    -0.460 OA
BRANCH   4   5
ATOM      5  C   UNL A   1      30.617  24.827  25.878  1.00  0.00     0.340 C 
ATOM      6  O   UNL A   1      29.681  24.453  26.560  1.00  0.00    -0.246 OA
BRANCH   5   7
ATOM      7  C   UNL A   1      30.517  25.595  24.605  1.00  0.00     0.085 A 
ATOM      8  C   UNL A   1      30.020  27.739  23.617  1.00  0.00     0.042 A 
ATOM      9  C   UNL A   1      30.566  27.303  22.413  1.00  0.00     0.028 A 
ATOM     10  C   UNL A   1      29.874  26.831  24.655  1.00  0.00     0.044 A 
ATOM     11  C   UNL A   1      31.102  26.007  22.314  1.00  0.00     0.029 A 
ATOM     12  C   UNL A   1      31.109  25.128  23.410  1.00  0.00     0.052 A 
BRANCH   8  13
ATOM     13  N   UNL A   1      29.737  29.106  23.790  1.00  0.00    -0.322 N 
ATOM     14  O   UNL A   1      30.096  31.215  24.552  1.00  0.00    -0.269 OA
ATOM     15  C   UNL A   1      30.539  30.086  24.366  1.00  0.00     0.255 C 
ATOM     16  H   UNL A   1      28.860  29.408  23.461  1.00  0.00     0.170 HD
BRANCH  15  17
ATOM     17  C   UNL A   1      31.960  29.786  24.696  1.00  0.00     0.041 A 
ATOM     18  C   UNL A   1      32.795  29.163  23.751  1.00  0.00     0.014 A 
ATOM     19  C   UNL A   1      32.394  29.962  26.013  1.00  0.00     0.034 A 
ATOM     20  C   UNL A   1      34.007  28.603  24.155  1.00  0.00     0.002 A 
ATOM     21  C   UNL A   1      33.613  29.407  26.402  1.00  0.00     0.041 A 
ATOM     22  C   UNL A   1      34.408  28.712  25.487  1.00  0.00     0.020 A 
ATOM     23  Cl  UNL A   1      34.097  29.478  28.050  1.00  0.00    -0.084 Cl
ENDBRANCH  15  17
ENDBRANCH   8  13
BRANCH  12  24
ATOM     24  N   UNL A   1      31.558  23.814  23.297  1.00  0.00    -0.360 N 
ATOM     25  C   UNL A   1      30.964  22.670  24.005  1.00  0.00     0.178 C 
ATOM     26  C   UNL A   1      33.007  23.717  23.131  1.00  0.00     0.178 C 
ATOM     27  C   UNL A   1      31.544  21.314  23.484  1.00  0.00     0.284 C 
ATOM     28  C   UNL A   1      33.412  22.424  22.438  1.00  0.00     0.284 C 
ATOM     29  N   UNL A   1      32.989  21.237  23.176  1.00  0.00    -0.324 N 
ATOM     30  H   UNL A   1      33.079  20.420  22.571  1.00  0.00     0.348 HD
BRANCH  29  31
ATOM     31  C   UNL A   1      33.905  20.822  24.250  1.00  0.00     0.363 C 
BRANCH  31  32
ATOM     32  C   UNL A   1      33.412  19.784  25.268  1.00  0.00     0.277 C 
ATOM     33  O   UNL A   1      32.861  20.158  26.309  1.00  0.00    -0.268 OA
ATOM     34  N   UNL A   1      33.476  18.428  24.935  1.00  0.00    -0.333 N 
ATOM     35  C   UNL A   1      34.581  17.799  24.204  1.00  0.00     0.148 C 
ATOM     36  C   UNL A   1      32.701  17.490  25.751  1.00  0.00     0.148 C 
ATOM     37  C   UNL A   1      34.225  16.464  23.547  1.00  0.00     0.181 C 
ATOM     38  C   UNL A   1      32.379  16.207  24.980  1.00  0.00     0.181 C 
ATOM     39  O   UNL A   1      33.573  15.592  24.480  1.00  0.00    -0.378 OA
ENDBRANCH  31  32
ENDBRANCH  29  31
ENDBRANCH  12  24
ENDBRANCH   5   7
ENDBRANCH   4   5
ENDBRANCH   3   4
ENDBRANCH   2   3
ENDBRANCH   1   2
BRANCH   1  40
ATOM     40  C   UNL A   1      35.439  23.697  25.346  1.00  0.00     0.202 C 
BRANCH  40  41
ATOM     41  C   UNL A   1      36.603  22.871  25.888  1.00  0.00     0.261 C 
BRANCH  41  42
ATOM     42  O   UNL A   1      37.845  23.464  25.519  1.00  0.00    -0.460 OA
BRANCH  42  43
ATOM     43  C   UNL A   1      38.883  23.095  26.308  1.00  0.00     0.338 C 
ATOM     44  O   UNL A   1      39.322  21.976  26.472  1.00  0.00    -0.246 OA
BRANCH  43  45
ATOM     45  C   UNL A   1      39.548  24.318  26.793  1.00  0.00     0.060 A 
ATOM     46  C   UNL A   1      39.443  24.595  28.161  1.00  0.00     0.016 A 
ATOM     47  C   UNL A   1      40.270  25.157  25.941  1.00  0.00     0.016 A 
ATOM     48  C   UNL A   1      40.012  25.753  28.675  1.00  0.00     0.010 A 
ATOM     49  C   UNL A   1      40.837  26.320  26.455  1.00  0.00     0.010 A 
ATOM     50  C   UNL A   1      40.668  26.639  27.813  1.00  0.00    -0.014 A 
BRANCH  50  51
ATOM     51  C   UNL A   1      41.011  27.989  28.299  1.00  0.00     0.031 A 
ATOM     52  C   UNL A   1      42.459  28.380  28.335  1.00  0.00     0.074 A 
ATOM     53  C   UNL A   1      40.045  28.837  28.689  1.00  0.00     0.049 A 
ATOM     54  N   UNL A   1      43.002  29.504  28.713  1.00  0.00    -0.248 NA
ATOM     55  C   UNL A   1      43.429  27.362  27.890  1.00  0.00     0.031 C 
ATOM     56  C   UNL A   1      38.613  28.542  28.693  1.00  0.00     0.029 A 
ATOM     57  N   UNL A   1      40.131  30.113  29.175  1.00  0.00    -0.354 N 
ATOM     58  C   UNL A   1      44.373  29.324  28.579  1.00  0.00     0.074 A 
ATOM     59  C   UNL A   1      44.584  27.978  28.096  1.00  0.00     0.031 C 
ATOM     60  C   UNL A   1      37.953  29.603  29.186  1.00  0.00     0.029 A 
ATOM     61  C   UNL A   1      38.917  30.640  29.544  1.00  0.00     0.049 A 
ATOM     62  H   UNL A   1      40.980  30.606  29.253  1.00  0.00     0.167 HD
ATOM     63  C   UNL A   1      45.366  30.210  28.820  1.00  0.00     0.034 A 
ATOM     64  C   UNL A   1      38.629  31.825  30.118  1.00  0.00     0.034 A 
ATOM     65  C   UNL A   1      45.138  31.550  29.283  1.00  0.00     0.049 A 
ATOM     66  C   UNL A   1      39.756  32.790  30.384  1.00  0.00     0.074 A 
ATOM     67  C   UNL A   1      46.063  32.551  29.512  1.00  0.00     0.029 A 
ATOM     68  N   UNL A   1      43.892  32.070  29.602  1.00  0.00    -0.354 N 
ATOM     69  N   UNL A   1      41.036  32.658  30.127  1.00  0.00    -0.248 NA
ATOM     70  C   UNL A   1      39.396  34.081  30.986  1.00  0.00     0.031 C 
ATOM     71  C   UNL A   1      45.377  33.671  29.995  1.00  0.00     0.029 A 
ATOM     72  C   UNL A   1      44.023  33.375  30.039  1.00  0.00     0.049 A 
ATOM     73  H   UNL A   1      43.040  31.582  29.527  1.00  0.00     0.167 HD
ATOM     74  C   UNL A   1      41.629  33.858  30.502  1.00  0.00     0.074 A 
ATOM     75  C   UNL A   1      40.562  34.713  30.985  1.00  0.00     0.031 C 
ATOM     76  C   UNL A   1      42.935  34.220  30.464  1.00  0.00     0.034 A 
BRANCH  63  77
ATOM     77  C   UNL A   1      46.779  29.759  28.568  1.00  0.00     0.023 A 
ATOM     78  C   UNL A   1      47.341  29.906  27.283  1.00  0.00     0.012 A 
ATOM     79  C   UNL A   1      47.562  29.222  29.609  1.00  0.00     0.148 A 
ATOM     80  C   UNL A   1      48.651  29.498  27.030  1.00  0.00     0.002 A 
ATOM     81  C   UNL A   1      48.880  28.857  29.359  1.00  0.00     0.091 A 
ATOM     82  F   UNL A   1      46.999  29.062  30.814  1.00  0.00    -0.205 F 
ATOM     83  C   UNL A   1      49.422  28.984  28.069  1.00  0.00     0.022 A 
BRANCH  81  84
ATOM     84  S   UNL A   1      49.976  28.251  30.646  1.00  0.00     0.127 S 
ATOM     85  O   UNL A   1      51.225  28.070  29.908  1.00  0.00    -0.237 OA
ATOM     86  O   UNL A   1      49.983  29.365  31.594  1.00  0.00    -0.237 OA
ATOM     87  O   UNL A   1      49.365  27.028  31.150  1.00  0.00    -0.744 OA
ENDBRANCH  81  84
ENDBRANCH  63  77
BRANCH  64  88
ATOM     88  C   UNL A   1      37.217  32.178  30.430  1.00  0.00     0.023 A 
ATOM     89  C   UNL A   1      36.708  31.923  31.718  1.00  0.00     0.012 A 
ATOM     90  C   UNL A   1      36.384  32.787  29.470  1.00  0.00     0.148 A 
ATOM     91  C   UNL A   1      35.387  32.241  32.037  1.00  0.00     0.002 A 
ATOM     92  C   UNL A   1      35.085  33.148  29.810  1.00  0.00     0.091 A 
ATOM     93  F   UNL A   1      36.882  33.006  28.246  1.00  0.00    -0.205 F 
ATOM     94  C   UNL A   1      34.580  32.862  31.087  1.00  0.00     0.022 A 
BRANCH  92  95
ATOM     95  S   UNL A   1      34.011  34.055  28.691  1.00  0.00     0.127 S 
ATOM     96  O   UNL A   1      33.679  33.033  27.703  1.00  0.00    -0.237 OA
ATOM     97  O   UNL A   1      32.909  34.438  29.575  1.00  0.00    -0.237 OA
ATOM     98  O   UNL A   1      34.807  35.173  28.203  1.00  0.00    -0.744 OA
ENDBRANCH  92  95
ENDBRANCH  64  88
BRANCH  76  99
ATOM     99  C   UNL A   1      43.285  35.610  30.925  1.00  0.00     0.023 A 
ATOM    100  C   UNL A   1      43.612  35.837  32.277  1.00  0.00     0.012 A 
ATOM    101  C   UNL A   1      43.373  36.670  30.002  1.00  0.00     0.148 A 
ATOM    102  C   UNL A   1      43.989  37.107  32.708  1.00  0.00     0.002 A 
ATOM    103  C   UNL A   1      43.799  37.921  30.430  1.00  0.00     0.091 A 
ATOM    104  F   UNL A   1      43.042  36.436  28.724  1.00  0.00    -0.205 F 
ATOM    105  C   UNL A   1      44.096  38.144  31.785  1.00  0.00     0.022 A 
BRANCH 103 106
ATOM    106  S   UNL A   1      44.062  39.286  29.293  1.00  0.00     0.127 S 
ATOM    107  O   UNL A   1      43.642  40.431  30.098  1.00  0.00    -0.237 OA
ATOM    108  O   UNL A   1      45.502  39.211  29.044  1.00  0.00    -0.237 OA
ATOM    109  O   UNL A   1      43.235  39.002  28.128  1.00  0.00    -0.744 OA
ENDBRANCH 103 106
ENDBRANCH  76  99
ENDBRANCH  50  51
ENDBRANCH  43  45
ENDBRANCH  42  43
ENDBRANCH  41  42
ENDBRANCH  40  41
ENDBRANCH   1  40
TORSDOF 22
ENDMDL
