MODEL 1
REMARK VINA RESULT:     -11.1      0.000      0.000
REMARK SMILES NC(=O)C1CC[NH+](Cc2ccc(C(=O)OCCOCCOC(=O)c3ccc(-c4c5nc(c(-c6cccc(S(=O)(=O)[O-])c6F)c6ccc([nH]6)c(-c6cccc(S(=O)(=O)[O-])c6F)c6nc(c(-c7cccc(S(=O)(=O)[O-])c7F)c7ccc4[nH]7)C=C6)C=C5)cc3)cc2)CC1
REMARK SMILES IDX 18 1 17 2 16 3 15 4 13 5 14 6 12 7 9 8 10 9 88 10 11 11
REMARK SMILES IDX 87 12 8 13 7 14 4 15 5 16 90 17 6 18 89 19 2 21 1 22 3 25
REMARK SMILES IDX 19 26 20 27 21 28 22 29 23 30 24 31 25 32 86 33 26 34 85 35
REMARK SMILES IDX 27 36 28 37 29 38 79 39 30 40 84 41 78 42 80 43 31 44 83 45
REMARK SMILES IDX 77 46 76 47 32 49 64 50 44 51 63 52 45 53 48 54 62 55 81 56
REMARK SMILES IDX 46 57 47 58 61 60 82 61 49 62 33 63 34 64 42 65 35 66 37 67
REMARK SMILES IDX 43 68 36 69 38 70 39 71 40 72 41 73 65 74 66 75 74 76 67 77
REMARK SMILES IDX 69 78 75 79 68 80 70 81 71 82 72 83 73 84 50 85 51 86 59 87
REMARK SMILES IDX 52 88 54 89 60 90 53 91 55 92 56 93 57 94 58 95
REMARK H PARENT 7 20 1 23 1 24 80 48 48 59
REMARK Flexibility Score: inf
ROOT
ATOM      1  O   UNL A   1      31.987  28.285  24.107  1.00  0.00    -0.374 OA
ENDROOT
BRANCH   1   2
ATOM      2  C   UNL A   1      30.939  27.812  23.258  1.00  0.00     0.202 C 
BRANCH   2   3
ATOM      3  C   UNL A   1      31.281  26.666  22.302  1.00  0.00     0.261 C 
BRANCH   3   4
ATOM      4  O   UNL A   1      31.769  25.528  23.024  1.00  0.00    -0.460 OA
BRANCH   4   5
ATOM      5  C   UNL A   1      32.951  25.032  22.589  1.00  0.00     0.338 C 
ATOM      6  O   UNL A   1      33.652  25.492  21.698  1.00  0.00    -0.246 OA
BRANCH   5   7
ATOM      7  C   UNL A   1      33.387  23.907  23.453  1.00  0.00     0.060 A 
ATOM      8  C   UNL A   1      34.228  21.637  24.863  1.00  0.00     0.006 A 
ATOM      9  C   UNL A   1      35.046  22.196  23.870  1.00  0.00     0.010 A 
ATOM     10  C   UNL A   1      33.065  22.322  25.245  1.00  0.00     0.010 A 
ATOM     11  C   UNL A   1      34.626  23.323  23.170  1.00  0.00     0.016 A 
ATOM     12  C   UNL A   1      32.626  23.436  24.526  1.00  0.00     0.016 A 
BRANCH   8  13
ATOM     13  C   UNL A   1      34.510  20.232  25.368  1.00  0.00     0.299 C 
BRANCH  13  14
ATOM     14  N   UNL A   1      33.938  19.134  24.542  1.00  0.00    -0.331 N 
ATOM     15  C   UNL A   1      33.195  16.326  23.976  1.00  0.00     0.089 C 
ATOM     16  C   UNL A   1      34.418  16.988  23.340  1.00  0.00     0.075 C 
ATOM     17  C   UNL A   1      32.159  17.398  24.322  1.00  0.00     0.075 C 
ATOM     18  C   UNL A   1      34.963  18.144  24.179  1.00  0.00     0.263 C 
ATOM     19  C   UNL A   1      32.768  18.510  25.179  1.00  0.00     0.263 C 
ATOM     20  H   UNL A   1      33.604  19.555  23.676  1.00  0.00     0.348 HD
BRANCH  15  21
ATOM     21  C   UNL A   1      33.553  15.499  25.210  1.00  0.00     0.220 C 
ATOM     22  N   UNL A   1      32.562  15.386  26.139  1.00  0.00    -0.369 N 
ATOM     23  H   UNL A   1      32.715  14.868  26.963  1.00  0.00     0.159 HD
ATOM     24  H   UNL A   1      31.691  15.822  25.986  1.00  0.00     0.159 HD
ATOM     25  O   UNL A   1      34.645  14.987  25.417  1.00  0.00    -0.275 OA
ENDBRANCH  15  21
ENDBRANCH  13  14
ENDBRANCH   8  13
ENDBRANCH   5   7
ENDBRANCH   4   5
ENDBRANCH   3   4
ENDBRANCH   2   3
ENDBRANCH   1   2
BRANCH   1  26
ATOM     26  C   UNL A   1      31.677  29.366  24.989  1.00  0.00     0.202 C 
BRANCH  26  27
ATOM     27  C   UNL A   1      32.846  30.039  25.718  1.00  0.00     0.261 C 
BRANCH  27  28
ATOM     28  O   UNL A   1      32.441  30.686  26.936  1.00  0.00    -0.460 OA
BRANCH  28  29
ATOM     29  C   UNL A   1      33.152  31.793  27.257  1.00  0.00     0.338 C 
ATOM     30  O   UNL A   1      32.757  32.952  27.252  1.00  0.00    -0.246 OA
BRANCH  29  31
ATOM     31  C   UNL A   1      34.459  31.404  27.813  1.00  0.00     0.060 A 
ATOM     32  C   UNL A   1      34.590  30.106  28.323  1.00  0.00     0.016 A 
ATOM     33  C   UNL A   1      35.526  32.304  27.882  1.00  0.00     0.016 A 
ATOM     34  C   UNL A   1      35.779  29.710  28.933  1.00  0.00     0.010 A 
ATOM     35  C   UNL A   1      36.715  31.908  28.503  1.00  0.00     0.010 A 
ATOM     36  C   UNL A   1      36.838  30.618  29.054  1.00  0.00    -0.014 A 
BRANCH  36  37
ATOM     37  C   UNL A   1      38.046  30.245  29.827  1.00  0.00     0.031 A 
ATOM     38  C   UNL A   1      39.022  29.259  29.248  1.00  0.00     0.074 A 
ATOM     39  C   UNL A   1      38.261  30.773  31.046  1.00  0.00     0.049 A 
ATOM     40  N   UNL A   1      40.116  28.773  29.773  1.00  0.00    -0.248 NA
ATOM     41  C   UNL A   1      38.728  28.754  27.897  1.00  0.00     0.031 C 
ATOM     42  C   UNL A   1      37.386  31.735  31.713  1.00  0.00     0.029 A 
ATOM     43  N   UNL A   1      39.270  30.550  31.950  1.00  0.00    -0.354 N 
ATOM     44  C   UNL A   1      40.625  27.883  28.836  1.00  0.00     0.074 A 
ATOM     45  C   UNL A   1      39.716  27.890  27.710  1.00  0.00     0.031 C 
ATOM     46  C   UNL A   1      37.877  31.996  32.937  1.00  0.00     0.029 A 
ATOM     47  C   UNL A   1      39.084  31.200  33.147  1.00  0.00     0.049 A 
ATOM     48  H   UNL A   1      40.050  29.981  31.759  1.00  0.00     0.167 HD
ATOM     49  C   UNL A   1      41.753  27.136  28.903  1.00  0.00     0.034 A 
ATOM     50  C   UNL A   1      39.791  31.136  34.293  1.00  0.00     0.034 A 
ATOM     51  C   UNL A   1      42.662  27.143  30.017  1.00  0.00     0.049 A 
ATOM     52  C   UNL A   1      41.024  30.273  34.351  1.00  0.00     0.074 A 
ATOM     53  C   UNL A   1      43.864  26.469  30.150  1.00  0.00     0.029 A 
ATOM     54  N   UNL A   1      42.463  27.839  31.199  1.00  0.00    -0.354 N 
ATOM     55  N   UNL A   1      41.567  29.543  33.407  1.00  0.00    -0.248 NA
ATOM     56  C   UNL A   1      41.760  30.250  35.624  1.00  0.00     0.031 C 
ATOM     57  C   UNL A   1      44.374  26.731  31.426  1.00  0.00     0.029 A 
ATOM     58  C   UNL A   1      43.506  27.593  32.077  1.00  0.00     0.049 A 
ATOM     59  H   UNL A   1      41.694  28.424  31.387  1.00  0.00     0.167 HD
ATOM     60  C   UNL A   1      42.718  28.993  33.961  1.00  0.00     0.074 A 
ATOM     61  C   UNL A   1      42.810  29.500  35.316  1.00  0.00     0.031 C 
ATOM     62  C   UNL A   1      43.610  28.135  33.408  1.00  0.00     0.034 A 
BRANCH  49  63
ATOM     63  C   UNL A   1      42.082  26.255  27.725  1.00  0.00     0.023 A 
ATOM     64  C   UNL A   1      42.868  26.764  26.670  1.00  0.00     0.012 A 
ATOM     65  C   UNL A   1      41.672  24.908  27.695  1.00  0.00     0.148 A 
ATOM     66  C   UNL A   1      43.216  25.953  25.590  1.00  0.00     0.002 A 
ATOM     67  C   UNL A   1      42.059  24.095  26.636  1.00  0.00     0.091 A 
ATOM     68  F   UNL A   1      40.908  24.450  28.696  1.00  0.00    -0.205 F 
ATOM     69  C   UNL A   1      42.822  24.618  25.579  1.00  0.00     0.022 A 
BRANCH  67  70
ATOM     70  S   UNL A   1      41.668  22.343  26.566  1.00  0.00     0.127 S 
ATOM     71  O   UNL A   1      42.216  21.867  27.837  1.00  0.00    -0.237 OA
ATOM     72  O   UNL A   1      40.205  22.357  26.501  1.00  0.00    -0.237 OA
ATOM     73  O   UNL A   1      42.325  21.831  25.373  1.00  0.00    -0.744 OA
ENDBRANCH  67  70
ENDBRANCH  49  63
BRANCH  50  74
ATOM     74  C   UNL A   1      39.358  31.928  35.479  1.00  0.00     0.023 A 
ATOM     75  C   UNL A   1      38.443  31.370  36.393  1.00  0.00     0.012 A 
ATOM     76  C   UNL A   1      39.860  33.223  35.714  1.00  0.00     0.148 A 
ATOM     77  C   UNL A   1      38.012  32.100  37.502  1.00  0.00     0.002 A 
ATOM     78  C   UNL A   1      39.470  33.923  36.850  1.00  0.00     0.091 A 
ATOM     79  F   UNL A   1      40.716  33.743  34.823  1.00  0.00    -0.205 F 
ATOM     80  C   UNL A   1      38.532  33.369  37.736  1.00  0.00     0.022 A 
BRANCH  78  81
ATOM     81  S   UNL A   1      40.183  35.509  37.298  1.00  0.00     0.127 S 
ATOM     82  O   UNL A   1      39.656  36.380  36.251  1.00  0.00    -0.237 OA
ATOM     83  O   UNL A   1      39.613  35.730  38.628  1.00  0.00    -0.237 OA
ATOM     84  O   UNL A   1      41.625  35.310  37.288  1.00  0.00    -0.744 OA
ENDBRANCH  78  81
ENDBRANCH  50  74
BRANCH  62  85
ATOM     85  C   UNL A   1      44.778  27.697  34.254  1.00  0.00     0.023 A 
ATOM     86  C   UNL A   1      45.953  28.475  34.282  1.00  0.00     0.012 A 
ATOM     87  C   UNL A   1      44.688  26.555  35.075  1.00  0.00     0.148 A 
ATOM     88  C   UNL A   1      47.031  28.106  35.085  1.00  0.00     0.002 A 
ATOM     89  C   UNL A   1      45.748  26.220  35.910  1.00  0.00     0.091 A 
ATOM     90  F   UNL A   1      43.569  25.818  35.024  1.00  0.00    -0.205 F 
ATOM     91  C   UNL A   1      46.925  26.986  35.907  1.00  0.00     0.022 A 
BRANCH  89  92
ATOM     92  S   UNL A   1      45.668  24.852  37.072  1.00  0.00     0.127 S 
ATOM     93  O   UNL A   1      45.428  23.718  36.181  1.00  0.00    -0.237 OA
ATOM     94  O   UNL A   1      47.000  24.881  37.677  1.00  0.00    -0.237 OA
ATOM     95  O   UNL A   1      44.580  25.166  37.989  1.00  0.00    -0.744 OA
ENDBRANCH  89  92
ENDBRANCH  62  85
ENDBRANCH  36  37
ENDBRANCH  29  31
ENDBRANCH  28  29
ENDBRANCH  27  28
ENDBRANCH  26  27
ENDBRANCH   1  26
TORSDOF 20
ENDMDL
MODEL 2
REMARK VINA RESULT:     -10.8      1.994      7.969
REMARK SMILES NC(=O)C1CC[NH+](Cc2ccc(C(=O)OCCOCCOC(=O)c3ccc(-c4c5nc(c(-c6cccc(S(=O)(=O)[O-])c6F)c6ccc([nH]6)c(-c6cccc(S(=O)(=O)[O-])c6F)c6nc(c(-c7cccc(S(=O)(=O)[O-])c7F)c7ccc4[nH]7)C=C6)C=C5)cc3)cc2)CC1
REMARK SMILES IDX 18 1 17 2 16 3 15 4 13 5 14 6 12 7 9 8 10 9 88 10 11 11
REMARK SMILES IDX 87 12 8 13 7 14 4 15 5 16 90 17 6 18 89 19 2 21 1 22 3 25
REMARK SMILES IDX 19 26 20 27 21 28 22 29 23 30 24 31 25 32 86 33 26 34 85 35
REMARK SMILES IDX 27 36 28 37 29 38 79 39 30 40 84 41 78 42 80 43 31 44 83 45
REMARK SMILES IDX 77 46 76 47 32 49 64 50 44 51 63 52 45 53 48 54 62 55 81 56
REMARK SMILES IDX 46 57 47 58 61 60 82 61 49 62 33 63 34 64 42 65 35 66 37 67
REMARK SMILES IDX 43 68 36 69 38 70 39 71 40 72 41 73 65 74 66 75 74 76 67 77
REMARK SMILES IDX 69 78 75 79 68 80 70 81 71 82 72 83 73 84 50 85 51 86 59 87
REMARK SMILES IDX 52 88 54 89 60 90 53 91 55 92 56 93 57 94 58 95
REMARK H PARENT 7 20 1 23 1 24 80 48 48 59
REMARK Flexibility Score: inf
ROOT
ATOM      1  O   UNL A   1      32.306  30.612  26.495  1.00  0.00    -0.374 OA
ENDROOT
BRANCH   1   2
ATOM      2  C   UNL A   1      31.983  29.471  25.697  1.00  0.00     0.202 C 
BRANCH   2   3
ATOM      3  C   UNL A   1      30.785  29.600  24.752  1.00  0.00     0.261 C 
BRANCH   3   4
ATOM      4  O   UNL A   1      31.212  29.959  23.432  1.00  0.00    -0.460 OA
BRANCH   4   5
ATOM      5  C   UNL A   1      30.773  29.147  22.443  1.00  0.00     0.338 C 
ATOM      6  O   UNL A   1      29.935  29.417  21.594  1.00  0.00    -0.246 OA
BRANCH   5   7
ATOM      7  C   UNL A   1      31.567  27.894  22.416  1.00  0.00     0.060 A 
ATOM      8  C   UNL A   1      32.938  25.457  22.586  1.00  0.00     0.006 A 
ATOM      9  C   UNL A   1      31.541  25.474  22.477  1.00  0.00     0.010 A 
ATOM     10  C   UNL A   1      33.644  26.662  22.447  1.00  0.00     0.010 A 
ATOM     11  C   UNL A   1      30.860  26.686  22.394  1.00  0.00     0.016 A 
ATOM     12  C   UNL A   1      32.965  27.880  22.392  1.00  0.00     0.016 A 
BRANCH   8  13
ATOM     13  C   UNL A   1      33.643  24.186  23.031  1.00  0.00     0.299 C 
BRANCH  13  14
ATOM     14  N   UNL A   1      32.753  23.120  23.564  1.00  0.00    -0.331 N 
ATOM     15  C   UNL A   1      32.136  20.708  25.163  1.00  0.00     0.089 C 
ATOM     16  C   UNL A   1      32.296  20.657  23.644  1.00  0.00     0.075 C 
ATOM     17  C   UNL A   1      31.685  22.109  25.581  1.00  0.00     0.075 C 
ATOM     18  C   UNL A   1      33.176  21.787  23.108  1.00  0.00     0.263 C 
ATOM     19  C   UNL A   1      32.621  23.187  25.028  1.00  0.00     0.263 C 
ATOM     20  H   UNL A   1      31.823  23.289  23.183  1.00  0.00     0.348 HD
BRANCH  15  21
ATOM     21  C   UNL A   1      33.412  20.307  25.901  1.00  0.00     0.220 C 
ATOM     22  N   UNL A   1      34.091  19.258  25.357  1.00  0.00    -0.369 N 
ATOM     23  H   UNL A   1      34.924  18.939  25.775  1.00  0.00     0.159 HD
ATOM     24  H   UNL A   1      33.748  18.817  24.545  1.00  0.00     0.159 HD
ATOM     25  O   UNL A   1      33.820  20.831  26.930  1.00  0.00    -0.275 OA
ENDBRANCH  15  21
ENDBRANCH  13  14
ENDBRANCH   8  13
ENDBRANCH   5   7
ENDBRANCH   4   5
ENDBRANCH   3   4
ENDBRANCH   2   3
ENDBRANCH   1   2
BRANCH   1  26
ATOM     26  C   UNL A   1      31.446  31.749  26.390  1.00  0.00     0.202 C 
BRANCH  26  27
ATOM     27  C   UNL A   1      31.993  33.094  26.880  1.00  0.00     0.261 C 
BRANCH  27  28
ATOM     28  O   UNL A   1      32.925  32.953  27.965  1.00  0.00    -0.460 OA
BRANCH  28  29
ATOM     29  C   UNL A   1      34.044  33.707  27.858  1.00  0.00     0.338 C 
ATOM     30  O   UNL A   1      34.109  34.897  27.571  1.00  0.00    -0.246 OA
BRANCH  29  31
ATOM     31  C   UNL A   1      35.212  32.941  28.323  1.00  0.00     0.060 A 
ATOM     32  C   UNL A   1      34.988  31.646  28.810  1.00  0.00     0.016 A 
ATOM     33  C   UNL A   1      36.496  33.490  28.332  1.00  0.00     0.016 A 
ATOM     34  C   UNL A   1      36.044  30.905  29.338  1.00  0.00     0.010 A 
ATOM     35  C   UNL A   1      37.553  32.748  28.870  1.00  0.00     0.010 A 
ATOM     36  C   UNL A   1      37.327  31.463  29.398  1.00  0.00    -0.014 A 
BRANCH  36  37
ATOM     37  C   UNL A   1      38.417  30.733  30.088  1.00  0.00     0.031 A 
ATOM     38  C   UNL A   1      38.774  31.097  31.502  1.00  0.00     0.074 A 
ATOM     39  C   UNL A   1      39.092  29.760  29.449  1.00  0.00     0.049 A 
ATOM     40  N   UNL A   1      39.714  30.609  32.269  1.00  0.00    -0.248 NA
ATOM     41  C   UNL A   1      37.966  32.150  32.138  1.00  0.00     0.031 C 
ATOM     42  C   UNL A   1      38.840  29.321  28.078  1.00  0.00     0.029 A 
ATOM     43  N   UNL A   1      40.149  28.987  29.862  1.00  0.00    -0.354 N 
ATOM     44  C   UNL A   1      39.634  31.314  33.464  1.00  0.00     0.074 A 
ATOM     45  C   UNL A   1      38.557  32.268  33.319  1.00  0.00     0.031 C 
ATOM     46  C   UNL A   1      39.739  28.377  27.749  1.00  0.00     0.029 A 
ATOM     47  C   UNL A   1      40.645  28.168  28.876  1.00  0.00     0.049 A 
ATOM     48  H   UNL A   1      40.515  29.017  30.776  1.00  0.00     0.167 HD
ATOM     49  C   UNL A   1      40.383  31.170  34.583  1.00  0.00     0.034 A 
ATOM     50  C   UNL A   1      41.727  27.363  28.873  1.00  0.00     0.034 A 
ATOM     51  C   UNL A   1      41.443  30.209  34.729  1.00  0.00     0.049 A 
ATOM     52  C   UNL A   1      42.561  27.245  30.122  1.00  0.00     0.074 A 
ATOM     53  C   UNL A   1      42.215  29.944  35.847  1.00  0.00     0.029 A 
ATOM     54  N   UNL A   1      41.896  29.370  33.723  1.00  0.00    -0.354 N 
ATOM     55  N   UNL A   1      42.388  27.818  31.289  1.00  0.00    -0.248 NA
ATOM     56  C   UNL A   1      43.723  26.345  30.063  1.00  0.00     0.031 C 
ATOM     57  C   UNL A   1      43.159  28.970  35.506  1.00  0.00     0.029 A 
ATOM     58  C   UNL A   1      42.954  28.604  34.185  1.00  0.00     0.049 A 
ATOM     59  H   UNL A   1      41.521  29.324  32.814  1.00  0.00     0.167 HD
ATOM     60  C   UNL A   1      43.401  27.331  32.108  1.00  0.00     0.074 A 
ATOM     61  C   UNL A   1      44.166  26.393  31.312  1.00  0.00     0.031 C 
ATOM     62  C   UNL A   1      43.683  27.643  33.398  1.00  0.00     0.034 A 
BRANCH  49  63
ATOM     63  C   UNL A   1      40.071  32.064  35.756  1.00  0.00     0.023 A 
ATOM     64  C   UNL A   1      40.790  33.264  35.931  1.00  0.00     0.012 A 
ATOM     65  C   UNL A   1      39.023  31.749  36.644  1.00  0.00     0.148 A 
ATOM     66  C   UNL A   1      40.489  34.123  36.988  1.00  0.00     0.002 A 
ATOM     67  C   UNL A   1      38.701  32.631  37.668  1.00  0.00     0.091 A 
ATOM     68  F   UNL A   1      38.366  30.593  36.473  1.00  0.00    -0.205 F 
ATOM     69  C   UNL A   1      39.439  33.813  37.848  1.00  0.00     0.022 A 
BRANCH  67  70
ATOM     70  S   UNL A   1      37.318  32.360  38.781  1.00  0.00     0.127 S 
ATOM     71  O   UNL A   1      37.687  33.200  39.921  1.00  0.00    -0.237 OA
ATOM     72  O   UNL A   1      36.188  32.861  37.996  1.00  0.00    -0.237 OA
ATOM     73  O   UNL A   1      37.287  30.929  39.045  1.00  0.00    -0.744 OA
ENDBRANCH  67  70
ENDBRANCH  49  63
BRANCH  50  74
ATOM     74  C   UNL A   1      42.075  26.590  27.647  1.00  0.00     0.023 A 
ATOM     75  C   UNL A   1      42.701  27.241  26.567  1.00  0.00     0.012 A 
ATOM     76  C   UNL A   1      41.803  25.210  27.553  1.00  0.00     0.148 A 
ATOM     77  C   UNL A   1      43.021  26.539  25.404  1.00  0.00     0.002 A 
ATOM     78  C   UNL A   1      42.175  24.506  26.415  1.00  0.00     0.091 A 
ATOM     79  F   UNL A   1      41.190  24.613  28.586  1.00  0.00    -0.205 F 
ATOM     80  C   UNL A   1      42.769  25.172  25.332  1.00  0.00     0.022 A 
BRANCH  78  81
ATOM     81  S   UNL A   1      42.005  22.723  26.285  1.00  0.00     0.127 S 
ATOM     82  O   UNL A   1      42.561  22.465  24.959  1.00  0.00    -0.237 OA
ATOM     83  O   UNL A   1      42.832  22.259  27.400  1.00  0.00    -0.237 OA
ATOM     84  O   UNL A   1      40.583  22.451  26.438  1.00  0.00    -0.744 OA
ENDBRANCH  78  81
ENDBRANCH  50  74
BRANCH  62  85
ATOM     85  C   UNL A   1      44.859  26.954  34.043  1.00  0.00     0.023 A 
ATOM     86  C   UNL A   1      46.140  27.536  33.963  1.00  0.00     0.012 A 
ATOM     87  C   UNL A   1      44.684  25.770  34.787  1.00  0.00     0.148 A 
ATOM     88  C   UNL A   1      47.234  26.932  34.583  1.00  0.00     0.002 A 
ATOM     89  C   UNL A   1      45.770  25.201  35.443  1.00  0.00     0.091 A 
ATOM     90  F   UNL A   1      43.461  25.223  34.839  1.00  0.00    -0.205 F 
ATOM     91  C   UNL A   1      47.047  25.773  35.332  1.00  0.00     0.022 A 
BRANCH  89  92
ATOM     92  S   UNL A   1      45.609  23.762  36.507  1.00  0.00     0.127 S 
ATOM     93  O   UNL A   1      44.817  22.860  35.671  1.00  0.00    -0.237 OA
ATOM     94  O   UNL A   1      47.003  23.355  36.691  1.00  0.00    -0.237 OA
ATOM     95  O   UNL A   1      44.950  24.228  37.719  1.00  0.00    -0.744 OA
ENDBRANCH  89  92
ENDBRANCH  62  85
ENDBRANCH  36  37
ENDBRANCH  29  31
ENDBRANCH  28  29
ENDBRANCH  27  28
ENDBRANCH  26  27
ENDBRANCH   1  26
TORSDOF 20
ENDMDL
MODEL 3
REMARK VINA RESULT:     -10.7      5.248     10.678
REMARK SMILES NC(=O)C1CC[NH+](Cc2ccc(C(=O)OCCOCCOC(=O)c3ccc(-c4c5nc(c(-c6cccc(S(=O)(=O)[O-])c6F)c6ccc([nH]6)c(-c6cccc(S(=O)(=O)[O-])c6F)c6nc(c(-c7cccc(S(=O)(=O)[O-])c7F)c7ccc4[nH]7)C=C6)C=C5)cc3)cc2)CC1
REMARK SMILES IDX 18 1 17 2 16 3 15 4 13 5 14 6 12 7 9 8 10 9 88 10 11 11
REMARK SMILES IDX 87 12 8 13 7 14 4 15 5 16 90 17 6 18 89 19 2 21 1 22 3 25
REMARK SMILES IDX 19 26 20 27 21 28 22 29 23 30 24 31 25 32 86 33 26 34 85 35
REMARK SMILES IDX 27 36 28 37 29 38 79 39 30 40 84 41 78 42 80 43 31 44 83 45
REMARK SMILES IDX 77 46 76 47 32 49 64 50 44 51 63 52 45 53 48 54 62 55 81 56
REMARK SMILES IDX 46 57 47 58 61 60 82 61 49 62 33 63 34 64 42 65 35 66 37 67
REMARK SMILES IDX 43 68 36 69 38 70 39 71 40 72 41 73 65 74 66 75 74 76 67 77
REMARK SMILES IDX 69 78 75 79 68 80 70 81 71 82 72 83 73 84 50 85 51 86 59 87
REMARK SMILES IDX 52 88 54 89 60 90 53 91 55 92 56 93 57 94 58 95
REMARK H PARENT 7 20 1 23 1 24 80 48 48 59
REMARK Flexibility Score: inf
ROOT
ATOM      1  O   UNL A   1      34.469  21.757  25.244  1.00  0.00    -0.374 OA
ENDROOT
BRANCH   1   2
ATOM      2  C   UNL A   1      33.129  21.618  24.767  1.00  0.00     0.202 C 
BRANCH   2   3
ATOM      3  C   UNL A   1      32.004  22.018  25.727  1.00  0.00     0.261 C 
BRANCH   3   4
ATOM      4  O   UNL A   1      31.293  23.159  25.232  1.00  0.00    -0.460 OA
BRANCH   4   5
ATOM      5  C   UNL A   1      31.320  24.248  26.034  1.00  0.00     0.338 C 
ATOM      6  O   UNL A   1      31.320  24.255  27.257  1.00  0.00    -0.246 OA
BRANCH   5   7
ATOM      7  C   UNL A   1      31.508  25.479  25.226  1.00  0.00     0.060 A 
ATOM      8  C   UNL A   1      31.617  27.872  23.773  1.00  0.00     0.006 A 
ATOM      9  C   UNL A   1      31.417  27.897  25.160  1.00  0.00     0.010 A 
ATOM     10  C   UNL A   1      31.920  26.649  23.154  1.00  0.00     0.010 A 
ATOM     11  C   UNL A   1      31.362  26.706  25.881  1.00  0.00     0.016 A 
ATOM     12  C   UNL A   1      31.837  25.452  23.867  1.00  0.00     0.016 A 
BRANCH   8  13
ATOM     13  C   UNL A   1      31.325  29.114  22.948  1.00  0.00     0.299 C 
BRANCH  13  14
ATOM     14  N   UNL A   1      29.889  29.494  22.859  1.00  0.00    -0.331 N 
ATOM     15  C   UNL A   1      27.645  31.373  22.426  1.00  0.00     0.089 C 
ATOM     16  C   UNL A   1      28.064  30.914  23.823  1.00  0.00     0.075 C 
ATOM     17  C   UNL A   1      28.031  30.304  21.402  1.00  0.00     0.075 C 
ATOM     18  C   UNL A   1      29.530  30.483  23.885  1.00  0.00     0.263 C 
ATOM     19  C   UNL A   1      29.514  29.938  21.507  1.00  0.00     0.263 C 
ATOM     20  H   UNL A   1      29.346  28.652  23.046  1.00  0.00     0.348 HD
BRANCH  15  21
ATOM     21  C   UNL A   1      28.246  32.727  22.050  1.00  0.00     0.220 C 
ATOM     22  N   UNL A   1      29.306  33.122  22.811  1.00  0.00    -0.369 N 
ATOM     23  H   UNL A   1      29.748  33.983  22.630  1.00  0.00     0.159 HD
ATOM     24  H   UNL A   1      29.630  32.546  23.541  1.00  0.00     0.159 HD
ATOM     25  O   UNL A   1      27.821  33.459  21.166  1.00  0.00    -0.275 OA
ENDBRANCH  15  21
ENDBRANCH  13  14
ENDBRANCH   8  13
ENDBRANCH   5   7
ENDBRANCH   4   5
ENDBRANCH   3   4
ENDBRANCH   2   3
ENDBRANCH   1   2
BRANCH   1  26
ATOM     26  C   UNL A   1      35.507  21.825  24.264  1.00  0.00     0.202 C 
BRANCH  26  27
ATOM     27  C   UNL A   1      36.828  21.116  24.587  1.00  0.00     0.261 C 
BRANCH  27  28
ATOM     28  O   UNL A   1      37.339  21.459  25.886  1.00  0.00    -0.460 OA
BRANCH  28  29
ATOM     29  C   UNL A   1      38.668  21.261  26.046  1.00  0.00     0.338 C 
ATOM     30  O   UNL A   1      39.320  20.290  25.680  1.00  0.00    -0.246 OA
BRANCH  29  31
ATOM     31  C   UNL A   1      39.297  22.483  26.574  1.00  0.00     0.060 A 
ATOM     32  C   UNL A   1      38.830  23.714  26.094  1.00  0.00     0.016 A 
ATOM     33  C   UNL A   1      40.355  22.432  27.484  1.00  0.00     0.016 A 
ATOM     34  C   UNL A   1      39.441  24.899  26.497  1.00  0.00     0.010 A 
ATOM     35  C   UNL A   1      40.973  23.623  27.881  1.00  0.00     0.010 A 
ATOM     36  C   UNL A   1      40.536  24.859  27.370  1.00  0.00    -0.014 A 
BRANCH  36  37
ATOM     37  C   UNL A   1      41.274  26.105  27.686  1.00  0.00     0.031 A 
ATOM     38  C   UNL A   1      40.595  27.189  28.477  1.00  0.00     0.074 A 
ATOM     39  C   UNL A   1      42.539  26.271  27.258  1.00  0.00     0.049 A 
ATOM     40  N   UNL A   1      41.049  28.364  28.826  1.00  0.00    -0.248 NA
ATOM     41  C   UNL A   1      39.224  26.913  28.934  1.00  0.00     0.031 C 
ATOM     42  C   UNL A   1      43.300  25.294  26.481  1.00  0.00     0.029 A 
ATOM     43  N   UNL A   1      43.393  27.337  27.390  1.00  0.00    -0.354 N 
ATOM     44  C   UNL A   1      40.013  28.982  29.515  1.00  0.00     0.074 A 
ATOM     45  C   UNL A   1      38.903  28.053  29.529  1.00  0.00     0.031 C 
ATOM     46  C   UNL A   1      44.500  25.818  26.177  1.00  0.00     0.029 A 
ATOM     47  C   UNL A   1      44.578  27.175  26.713  1.00  0.00     0.049 A 
ATOM     48  H   UNL A   1      43.178  28.139  27.919  1.00  0.00     0.167 HD
ATOM     49  C   UNL A   1      39.992  30.207  30.094  1.00  0.00     0.034 A 
ATOM     50  C   UNL A   1      45.598  28.035  26.521  1.00  0.00     0.034 A 
ATOM     51  C   UNL A   1      41.103  31.120  30.092  1.00  0.00     0.049 A 
ATOM     52  C   UNL A   1      45.537  29.403  27.150  1.00  0.00     0.074 A 
ATOM     53  C   UNL A   1      41.200  32.357  30.706  1.00  0.00     0.029 A 
ATOM     54  N   UNL A   1      42.301  30.910  29.427  1.00  0.00    -0.354 N 
ATOM     55  N   UNL A   1      44.605  29.920  27.914  1.00  0.00    -0.248 NA
ATOM     56  C   UNL A   1      46.682  30.296  26.913  1.00  0.00     0.031 C 
ATOM     57  C   UNL A   1      42.443  32.910  30.384  1.00  0.00     0.029 A 
ATOM     58  C   UNL A   1      43.135  32.004  29.595  1.00  0.00     0.049 A 
ATOM     59  H   UNL A   1      42.527  30.102  28.912  1.00  0.00     0.167 HD
ATOM     60  C   UNL A   1      45.061  31.185  28.270  1.00  0.00     0.074 A 
ATOM     61  C   UNL A   1      46.366  31.344  27.661  1.00  0.00     0.031 C 
ATOM     62  C   UNL A   1      44.449  32.136  29.019  1.00  0.00     0.034 A 
BRANCH  49  63
ATOM     63  C   UNL A   1      38.730  30.628  30.800  1.00  0.00     0.023 A 
ATOM     64  C   UNL A   1      38.617  30.456  32.195  1.00  0.00     0.012 A 
ATOM     65  C   UNL A   1      37.683  31.254  30.093  1.00  0.00     0.148 A 
ATOM     66  C   UNL A   1      37.472  30.876  32.871  1.00  0.00     0.002 A 
ATOM     67  C   UNL A   1      36.565  31.708  30.781  1.00  0.00     0.091 A 
ATOM     68  F   UNL A   1      37.800  31.389  28.765  1.00  0.00    -0.205 F 
ATOM     69  C   UNL A   1      36.452  31.511  32.167  1.00  0.00     0.022 A 
BRANCH  67  70
ATOM     70  S   UNL A   1      35.232  32.607  29.979  1.00  0.00     0.127 S 
ATOM     71  O   UNL A   1      35.937  33.778  29.459  1.00  0.00    -0.237 OA
ATOM     72  O   UNL A   1      34.793  31.656  28.955  1.00  0.00    -0.237 OA
ATOM     73  O   UNL A   1      34.248  32.880  31.016  1.00  0.00    -0.744 OA
ENDBRANCH  67  70
ENDBRANCH  49  63
BRANCH  50  74
ATOM     74  C   UNL A   1      46.777  27.622  25.708  1.00  0.00     0.023 A 
ATOM     75  C   UNL A   1      46.775  27.839  24.317  1.00  0.00     0.012 A 
ATOM     76  C   UNL A   1      47.906  27.029  26.309  1.00  0.00     0.148 A 
ATOM     77  C   UNL A   1      47.861  27.446  23.534  1.00  0.00     0.002 A 
ATOM     78  C   UNL A   1      49.007  26.692  25.532  1.00  0.00     0.091 A 
ATOM     79  F   UNL A   1      47.881  26.815  27.632  1.00  0.00    -0.205 F 
ATOM     80  C   UNL A   1      48.980  26.883  24.142  1.00  0.00     0.022 A 
BRANCH  78  81
ATOM     81  S   UNL A   1      50.538  26.079  26.244  1.00  0.00     0.127 S 
ATOM     82  O   UNL A   1      51.367  25.893  25.056  1.00  0.00    -0.237 OA
ATOM     83  O   UNL A   1      50.937  27.194  27.104  1.00  0.00    -0.237 OA
ATOM     84  O   UNL A   1      50.180  24.865  26.962  1.00  0.00    -0.744 OA
ENDBRANCH  78  81
ENDBRANCH  50  74
BRANCH  62  85
ATOM     85  C   UNL A   1      45.186  33.432  29.243  1.00  0.00     0.023 A 
ATOM     86  C   UNL A   1      44.963  34.522  28.378  1.00  0.00     0.012 A 
ATOM     87  C   UNL A   1      46.043  33.594  30.349  1.00  0.00     0.148 A 
ATOM     88  C   UNL A   1      45.608  35.740  28.588  1.00  0.00     0.002 A 
ATOM     89  C   UNL A   1      46.645  34.826  30.581  1.00  0.00     0.091 A 
ATOM     90  F   UNL A   1      46.256  32.542  31.153  1.00  0.00    -0.205 F 
ATOM     91  C   UNL A   1      46.439  35.896  29.696  1.00  0.00     0.022 A 
BRANCH  89  92
ATOM     92  S   UNL A   1      47.656  35.150  32.031  1.00  0.00     0.127 S 
ATOM     93  O   UNL A   1      48.748  34.193  31.853  1.00  0.00    -0.237 OA
ATOM     94  O   UNL A   1      48.035  36.549  31.838  1.00  0.00    -0.237 OA
ATOM     95  O   UNL A   1      46.798  34.909  33.183  1.00  0.00    -0.744 OA
ENDBRANCH  89  92
ENDBRANCH  62  85
ENDBRANCH  36  37
ENDBRANCH  29  31
ENDBRANCH  28  29
ENDBRANCH  27  28
ENDBRANCH  26  27
ENDBRANCH   1  26
TORSDOF 20
ENDMDL
