MODEL 1
REMARK VINA RESULT:     -11.1      0.000      0.000
REMARK SMILES O=C(OCCOCCOC(=O)c1ccc(S(=O)(=O)Cc2cccs2)c(F)c1)c1ccc(-c2c3nc(c(-c4cccc(S(=O)(=O)[O-])c4F)c4ccc([nH]4)c(-c4cccc(S(=O)(=O)[O-])c4F)c4nc(c(-c5cccc(S(=O)(=O)[O-])c5F)c5ccc2[nH]5)C=C4)C=C3)cc1
REMARK SMILES IDX 6 1 5 2 4 3 3 4 2 5 1 6 28 7 29 8 90 9 30 10 89 11 31 12
REMARK SMILES IDX 32 13 33 14 83 15 34 16 88 17 82 18 84 19 35 20 87 21 81 22
REMARK SMILES IDX 80 23 36 25 68 26 48 27 67 28 49 29 52 30 66 31 85 32 50 33
REMARK SMILES IDX 51 34 65 36 86 37 53 38 37 39 38 40 46 41 39 42 41 43 47 44
REMARK SMILES IDX 40 45 42 46 43 47 44 48 45 49 69 50 70 51 78 52 71 53 73 54
REMARK SMILES IDX 79 55 72 56 74 57 75 58 76 59 77 60 54 61 55 62 63 63 56 64
REMARK SMILES IDX 58 65 64 66 57 67 59 68 60 69 61 70 62 71 7 72 8 73 9 74
REMARK SMILES IDX 10 75 11 76 12 77 13 78 27 79 14 80 25 81 15 82 26 83 16 84
REMARK SMILES IDX 17 85 18 86 19 87 20 88 21 89 24 90 22 91 23 92
REMARK H PARENT 84 24 52 35
REMARK Flexibility Score: inf
ROOT
ATOM      1  O   UNL A   1      32.917  30.015  25.511  1.00  0.00    -0.374 OA
ENDROOT
BRANCH   1   2
ATOM      2  C   UNL A   1      31.957  30.472  26.465  1.00  0.00     0.202 C 
BRANCH   2   3
ATOM      3  C   UNL A   1      31.753  31.988  26.530  1.00  0.00     0.261 C 
BRANCH   3   4
ATOM      4  O   UNL A   1      32.444  32.540  27.662  1.00  0.00    -0.460 OA
BRANCH   4   5
ATOM      5  C   UNL A   1      33.646  33.166  27.678  1.00  0.00     0.338 C 
ATOM      6  O   UNL A   1      33.742  34.269  27.143  1.00  0.00    -0.246 OA
BRANCH   5   7
ATOM      7  C   UNL A   1      34.861  32.574  28.312  1.00  0.00     0.060 A 
ATOM      8  C   UNL A   1      34.912  31.291  28.857  1.00  0.00     0.016 A 
ATOM      9  C   UNL A   1      36.047  33.325  28.281  1.00  0.00     0.016 A 
ATOM     10  C   UNL A   1      36.063  30.804  29.452  1.00  0.00     0.010 A 
ATOM     11  C   UNL A   1      37.237  32.807  28.807  1.00  0.00     0.010 A 
ATOM     12  C   UNL A   1      37.238  31.549  29.418  1.00  0.00    -0.014 A 
BRANCH  12  13
ATOM     13  C   UNL A   1      38.430  30.966  30.064  1.00  0.00     0.031 A 
ATOM     14  C   UNL A   1      38.718  31.290  31.494  1.00  0.00     0.074 A 
ATOM     15  C   UNL A   1      39.141  30.041  29.392  1.00  0.00     0.049 A 
ATOM     16  N   UNL A   1      39.644  30.802  32.273  1.00  0.00    -0.248 NA
ATOM     17  C   UNL A   1      37.839  32.276  32.145  1.00  0.00     0.031 C 
ATOM     18  C   UNL A   1      38.873  29.622  28.012  1.00  0.00     0.029 A 
ATOM     19  N   UNL A   1      40.192  29.254  29.779  1.00  0.00    -0.354 N 
ATOM     20  C   UNL A   1      39.489  31.450  33.490  1.00  0.00     0.074 A 
ATOM     21  C   UNL A   1      38.373  32.359  33.355  1.00  0.00     0.031 C 
ATOM     22  C   UNL A   1      39.703  28.622  27.687  1.00  0.00     0.029 A 
ATOM     23  C   UNL A   1      40.605  28.372  28.807  1.00  0.00     0.049 A 
ATOM     24  H   UNL A   1      40.613  29.314  30.667  1.00  0.00     0.167 HD
ATOM     25  C   UNL A   1      40.216  31.293  34.618  1.00  0.00     0.034 A 
ATOM     26  C   UNL A   1      41.607  27.472  28.818  1.00  0.00     0.034 A 
ATOM     27  C   UNL A   1      41.308  30.370  34.730  1.00  0.00     0.049 A 
ATOM     28  C   UNL A   1      42.420  27.339  30.076  1.00  0.00     0.074 A 
ATOM     29  C   UNL A   1      42.137  30.145  35.813  1.00  0.00     0.029 A 
ATOM     30  N   UNL A   1      41.727  29.519  33.715  1.00  0.00    -0.354 N 
ATOM     31  N   UNL A   1      42.245  27.937  31.230  1.00  0.00    -0.248 NA
ATOM     32  C   UNL A   1      43.560  26.415  30.043  1.00  0.00     0.031 C 
ATOM     33  C   UNL A   1      43.074  29.176  35.443  1.00  0.00     0.029 A 
ATOM     34  C   UNL A   1      42.812  28.776  34.139  1.00  0.00     0.049 A 
ATOM     35  H   UNL A   1      41.311  29.455  32.825  1.00  0.00     0.167 HD
ATOM     36  C   UNL A   1      43.244  27.459  32.067  1.00  0.00     0.074 A 
ATOM     37  C   UNL A   1      44.007  26.499  31.291  1.00  0.00     0.031 C 
ATOM     38  C   UNL A   1      43.519  27.796  33.351  1.00  0.00     0.034 A 
BRANCH  25  39
ATOM     39  C   UNL A   1      39.862  32.158  35.795  1.00  0.00     0.023 A 
ATOM     40  C   UNL A   1      40.531  33.381  35.999  1.00  0.00     0.012 A 
ATOM     41  C   UNL A   1      38.862  31.756  36.702  1.00  0.00     0.148 A 
ATOM     42  C   UNL A   1      40.231  34.177  37.105  1.00  0.00     0.002 A 
ATOM     43  C   UNL A   1      38.543  32.572  37.780  1.00  0.00     0.091 A 
ATOM     44  F   UNL A   1      38.261  30.573  36.506  1.00  0.00    -0.205 F 
ATOM     45  C   UNL A   1      39.233  33.776  37.990  1.00  0.00     0.022 A 
BRANCH  43  46
ATOM     46  S   UNL A   1      37.235  32.164  38.942  1.00  0.00     0.127 S 
ATOM     47  O   UNL A   1      37.652  32.913  40.128  1.00  0.00    -0.237 OA
ATOM     48  O   UNL A   1      36.049  32.697  38.271  1.00  0.00    -0.237 OA
ATOM     49  O   UNL A   1      37.256  30.715  39.078  1.00  0.00    -0.744 OA
ENDBRANCH  43  46
ENDBRANCH  25  39
BRANCH  26  50
ATOM     50  C   UNL A   1      41.852  26.627  27.613  1.00  0.00     0.023 A 
ATOM     51  C   UNL A   1      42.574  27.152  26.524  1.00  0.00     0.012 A 
ATOM     52  C   UNL A   1      41.457  25.273  27.581  1.00  0.00     0.148 A 
ATOM     53  C   UNL A   1      42.898  26.345  25.431  1.00  0.00     0.002 A 
ATOM     54  C   UNL A   1      41.837  24.461  26.520  1.00  0.00     0.091 A 
ATOM     55  F   UNL A   1      40.750  24.796  28.616  1.00  0.00    -0.205 F 
ATOM     56  C   UNL A   1      42.546  24.997  25.436  1.00  0.00     0.022 A 
BRANCH  54  57
ATOM     57  S   UNL A   1      41.559  22.684  26.518  1.00  0.00     0.127 S 
ATOM     58  O   UNL A   1      40.104  22.609  26.420  1.00  0.00    -0.237 OA
ATOM     59  O   UNL A   1      42.280  22.267  25.315  1.00  0.00    -0.237 OA
ATOM     60  O   UNL A   1      42.135  22.193  27.763  1.00  0.00    -0.744 OA
ENDBRANCH  54  57
ENDBRANCH  26  50
BRANCH  38  61
ATOM     61  C   UNL A   1      44.692  27.132  34.014  1.00  0.00     0.023 A 
ATOM     62  C   UNL A   1      45.959  27.742  33.950  1.00  0.00     0.012 A 
ATOM     63  C   UNL A   1      44.500  26.006  34.836  1.00  0.00     0.148 A 
ATOM     64  C   UNL A   1      47.022  27.240  34.696  1.00  0.00     0.002 A 
ATOM     65  C   UNL A   1      45.551  25.540  35.615  1.00  0.00     0.091 A 
ATOM     66  F   UNL A   1      43.287  25.435  34.865  1.00  0.00    -0.205 F 
ATOM     67  C   UNL A   1      46.814  26.151  35.542  1.00  0.00     0.022 A 
BRANCH  65  68
ATOM     68  S   UNL A   1      45.345  24.222  36.819  1.00  0.00     0.127 S 
ATOM     69  O   UNL A   1      46.698  24.100  37.359  1.00  0.00    -0.237 OA
ATOM     70  O   UNL A   1      44.368  24.798  37.743  1.00  0.00    -0.237 OA
ATOM     71  O   UNL A   1      44.866  23.066  36.073  1.00  0.00    -0.744 OA
ENDBRANCH  65  68
ENDBRANCH  38  61
ENDBRANCH  12  13
ENDBRANCH   5   7
ENDBRANCH   4   5
ENDBRANCH   3   4
ENDBRANCH   2   3
ENDBRANCH   1   2
BRANCH   1  72
ATOM     72  C   UNL A   1      32.868  28.612  25.206  1.00  0.00     0.202 C 
BRANCH  72  73
ATOM     73  C   UNL A   1      32.989  28.405  23.691  1.00  0.00     0.261 C 
BRANCH  73  74
ATOM     74  O   UNL A   1      32.522  27.080  23.380  1.00  0.00    -0.460 OA
BRANCH  74  75
ATOM     75  C   UNL A   1      33.300  26.404  22.502  1.00  0.00     0.338 C 
ATOM     76  O   UNL A   1      33.973  26.847  21.588  1.00  0.00    -0.246 OA
BRANCH  75  77
ATOM     77  C   UNL A   1      33.434  25.031  23.016  1.00  0.00     0.063 A 
ATOM     78  C   UNL A   1      32.740  23.956  22.457  1.00  0.00     0.017 A 
ATOM     79  C   UNL A   1      34.193  24.859  24.175  1.00  0.00     0.056 A 
ATOM     80  C   UNL A   1      32.834  22.698  23.058  1.00  0.00     0.024 A 
ATOM     81  C   UNL A   1      34.200  23.628  24.816  1.00  0.00     0.142 A 
ATOM     82  C   UNL A   1      33.571  22.536  24.244  1.00  0.00     0.103 A 
ATOM     83  F   UNL A   1      34.749  23.570  26.031  1.00  0.00    -0.206 F 
BRANCH  82  84
ATOM     84  S   UNL A   1      33.639  20.921  24.952  1.00  0.00     0.186 S 
ATOM     85  O   UNL A   1      35.019  20.496  24.774  1.00  0.00    -0.223 OA
ATOM     86  O   UNL A   1      33.113  21.060  26.301  1.00  0.00    -0.223 OA
BRANCH  84  87
ATOM     87  C   UNL A   1      32.622  19.758  24.073  1.00  0.00     0.188 C 
BRANCH  87  88
ATOM     88  C   UNL A   1      33.084  18.331  24.137  1.00  0.00     0.020 A 
ATOM     89  C   UNL A   1      33.719  17.532  23.205  1.00  0.00     0.016 A 
ATOM     90  S   UNL A   1      32.744  17.438  25.574  1.00  0.00    -0.148 S 
ATOM     91  C   UNL A   1      34.036  16.240  23.720  1.00  0.00     0.012 A 
ATOM     92  C   UNL A   1      33.591  16.071  25.010  1.00  0.00     0.065 A 
ENDBRANCH  87  88
ENDBRANCH  84  87
ENDBRANCH  82  84
ENDBRANCH  75  77
ENDBRANCH  74  75
ENDBRANCH  73  74
ENDBRANCH  72  73
ENDBRANCH   1  72
TORSDOF 20
ENDMDL
MODEL 2
REMARK VINA RESULT:     -10.8      5.310     10.770
REMARK SMILES O=C(OCCOCCOC(=O)c1ccc(S(=O)(=O)Cc2cccs2)c(F)c1)c1ccc(-c2c3nc(c(-c4cccc(S(=O)(=O)[O-])c4F)c4ccc([nH]4)c(-c4cccc(S(=O)(=O)[O-])c4F)c4nc(c(-c5cccc(S(=O)(=O)[O-])c5F)c5ccc2[nH]5)C=C4)C=C3)cc1
REMARK SMILES IDX 6 1 5 2 4 3 3 4 2 5 1 6 28 7 29 8 90 9 30 10 89 11 31 12
REMARK SMILES IDX 32 13 33 14 83 15 34 16 88 17 82 18 84 19 35 20 87 21 81 22
REMARK SMILES IDX 80 23 36 25 68 26 48 27 67 28 49 29 52 30 66 31 85 32 50 33
REMARK SMILES IDX 51 34 65 36 86 37 53 38 37 39 38 40 46 41 39 42 41 43 47 44
REMARK SMILES IDX 40 45 42 46 43 47 44 48 45 49 69 50 70 51 78 52 71 53 73 54
REMARK SMILES IDX 79 55 72 56 74 57 75 58 76 59 77 60 54 61 55 62 63 63 56 64
REMARK SMILES IDX 58 65 64 66 57 67 59 68 60 69 61 70 62 71 7 72 8 73 9 74
REMARK SMILES IDX 10 75 11 76 12 77 13 78 27 79 14 80 25 81 15 82 26 83 16 84
REMARK SMILES IDX 17 85 18 86 19 87 20 88 21 89 24 90 22 91 23 92
REMARK H PARENT 84 24 52 35
REMARK Flexibility Score: inf
ROOT
ATOM      1  O   UNL A   1      34.276  20.377  24.573  1.00  0.00    -0.374 OA
ENDROOT
BRANCH   1   2
ATOM      2  C   UNL A   1      35.552  19.863  24.960  1.00  0.00     0.202 C 
BRANCH   2   3
ATOM      3  C   UNL A   1      36.750  20.771  24.673  1.00  0.00     0.261 C 
BRANCH   3   4
ATOM      4  O   UNL A   1      37.452  21.075  25.889  1.00  0.00    -0.460 OA
BRANCH   4   5
ATOM      5  C   UNL A   1      38.790  21.205  26.065  1.00  0.00     0.338 C 
ATOM      6  O   UNL A   1      39.509  20.233  25.845  1.00  0.00    -0.246 OA
BRANCH   5   7
ATOM      7  C   UNL A   1      39.428  22.475  26.521  1.00  0.00     0.060 A 
ATOM      8  C   UNL A   1      38.878  23.741  26.323  1.00  0.00     0.016 A 
ATOM      9  C   UNL A   1      40.612  22.381  27.270  1.00  0.00     0.016 A 
ATOM     10  C   UNL A   1      39.528  24.887  26.750  1.00  0.00     0.010 A 
ATOM     11  C   UNL A   1      41.234  23.529  27.776  1.00  0.00     0.010 A 
ATOM     12  C   UNL A   1      40.701  24.790  27.493  1.00  0.00    -0.014 A 
BRANCH  12  13
ATOM     13  C   UNL A   1      41.336  26.050  27.924  1.00  0.00     0.031 A 
ATOM     14  C   UNL A   1      42.709  26.382  27.433  1.00  0.00     0.074 A 
ATOM     15  C   UNL A   1      40.604  26.936  28.625  1.00  0.00     0.049 A 
ATOM     16  N   UNL A   1      43.397  27.477  27.604  1.00  0.00    -0.248 NA
ATOM     17  C   UNL A   1      43.393  25.358  26.626  1.00  0.00     0.031 C 
ATOM     18  C   UNL A   1      39.229  26.708  29.080  1.00  0.00     0.029 A 
ATOM     19  N   UNL A   1      40.882  28.211  29.039  1.00  0.00    -0.354 N 
ATOM     20  C   UNL A   1      44.609  27.261  26.965  1.00  0.00     0.074 A 
ATOM     21  C   UNL A   1      44.563  25.935  26.391  1.00  0.00     0.031 C 
ATOM     22  C   UNL A   1      38.768  27.823  29.663  1.00  0.00     0.029 A 
ATOM     23  C   UNL A   1      39.831  28.821  29.684  1.00  0.00     0.049 A 
ATOM     24  H   UNL A   1      41.752  28.650  28.889  1.00  0.00     0.167 HD
ATOM     25  C   UNL A   1      45.663  28.101  26.867  1.00  0.00     0.034 A 
ATOM     26  C   UNL A   1      39.744  30.045  30.239  1.00  0.00     0.034 A 
ATOM     27  C   UNL A   1      45.675  29.420  27.432  1.00  0.00     0.049 A 
ATOM     28  C   UNL A   1      40.942  30.949  30.144  1.00  0.00     0.074 A 
ATOM     29  C   UNL A   1      46.696  30.350  27.422  1.00  0.00     0.029 A 
ATOM     30  N   UNL A   1      44.609  29.994  28.114  1.00  0.00    -0.354 N 
ATOM     31  N   UNL A   1      42.074  30.744  29.511  1.00  0.00    -0.248 NA
ATOM     32  C   UNL A   1      40.860  32.246  30.827  1.00  0.00     0.031 C 
ATOM     33  C   UNL A   1      46.257  31.478  28.122  1.00  0.00     0.029 A 
ATOM     34  C   UNL A   1      44.951  31.261  28.544  1.00  0.00     0.049 A 
ATOM     35  H   UNL A   1      43.739  29.561  28.267  1.00  0.00     0.167 HD
ATOM     36  C   UNL A   1      42.837  31.885  29.709  1.00  0.00     0.074 A 
ATOM     37  C   UNL A   1      42.027  32.791  30.502  1.00  0.00     0.031 C 
ATOM     38  C   UNL A   1      44.100  32.153  29.294  1.00  0.00     0.034 A 
BRANCH  25  39
ATOM     39  C   UNL A   1      46.884  27.599  26.149  1.00  0.00     0.023 A 
ATOM     40  C   UNL A   1      47.017  27.798  24.760  1.00  0.00     0.012 A 
ATOM     41  C   UNL A   1      47.901  26.927  26.853  1.00  0.00     0.148 A 
ATOM     42  C   UNL A   1      48.132  27.310  24.079  1.00  0.00     0.002 A 
ATOM     43  C   UNL A   1      49.025  26.475  26.173  1.00  0.00     0.091 A 
ATOM     44  F   UNL A   1      47.738  26.720  28.168  1.00  0.00    -0.205 F 
ATOM     45  C   UNL A   1      49.138  26.655  24.786  1.00  0.00     0.022 A 
BRANCH  43  46
ATOM     46  S   UNL A   1      50.397  25.670  27.008  1.00  0.00     0.127 S 
ATOM     47  O   UNL A   1      49.770  24.436  27.481  1.00  0.00    -0.237 OA
ATOM     48  O   UNL A   1      51.356  25.487  25.918  1.00  0.00    -0.237 OA
ATOM     49  O   UNL A   1      50.830  26.591  28.049  1.00  0.00    -0.744 OA
ENDBRANCH  43  46
ENDBRANCH  25  39
BRANCH  26  50
ATOM     50  C   UNL A   1      38.471  30.469  30.892  1.00  0.00     0.023 A 
ATOM     51  C   UNL A   1      38.296  30.276  32.276  1.00  0.00     0.012 A 
ATOM     52  C   UNL A   1      37.474  31.152  30.166  1.00  0.00     0.148 A 
ATOM     53  C   UNL A   1      37.154  30.756  32.921  1.00  0.00     0.002 A 
ATOM     54  C   UNL A   1      36.371  31.681  30.825  1.00  0.00     0.091 A 
ATOM     55  F   UNL A   1      37.647  31.307  28.845  1.00  0.00    -0.205 F 
ATOM     56  C   UNL A   1      36.201  31.473  32.201  1.00  0.00     0.022 A 
BRANCH  54  57
ATOM     57  S   UNL A   1      35.177  32.746  30.004  1.00  0.00     0.127 S 
ATOM     58  O   UNL A   1      34.632  31.855  28.983  1.00  0.00    -0.237 OA
ATOM     59  O   UNL A   1      34.257  33.067  31.096  1.00  0.00    -0.237 OA
ATOM     60  O   UNL A   1      35.938  33.884  29.507  1.00  0.00    -0.744 OA
ENDBRANCH  54  57
ENDBRANCH  26  50
BRANCH  38  61
ATOM     61  C   UNL A   1      44.700  33.476  29.679  1.00  0.00     0.023 A 
ATOM     62  C   UNL A   1      45.509  33.558  30.828  1.00  0.00     0.012 A 
ATOM     63  C   UNL A   1      44.600  34.581  28.813  1.00  0.00     0.148 A 
ATOM     64  C   UNL A   1      46.212  34.726  31.111  1.00  0.00     0.002 A 
ATOM     65  C   UNL A   1      45.342  35.724  29.075  1.00  0.00     0.091 A 
ATOM     66  F   UNL A   1      43.808  34.478  27.736  1.00  0.00    -0.205 F 
ATOM     67  C   UNL A   1      46.144  35.801  30.227  1.00  0.00     0.022 A 
BRANCH  65  68
ATOM     68  S   UNL A   1      45.409  37.109  27.934  1.00  0.00     0.127 S 
ATOM     69  O   UNL A   1      46.224  38.069  28.678  1.00  0.00    -0.237 OA
ATOM     70  O   UNL A   1      46.071  36.519  26.770  1.00  0.00    -0.237 OA
ATOM     71  O   UNL A   1      44.027  37.511  27.706  1.00  0.00    -0.744 OA
ENDBRANCH  65  68
ENDBRANCH  38  61
ENDBRANCH  12  13
ENDBRANCH   5   7
ENDBRANCH   4   5
ENDBRANCH   3   4
ENDBRANCH   2   3
ENDBRANCH   1   2
BRANCH   1  72
ATOM     72  C   UNL A   1      33.318  20.518  25.633  1.00  0.00     0.202 C 
BRANCH  72  73
ATOM     73  C   UNL A   1      32.669  21.906  25.566  1.00  0.00     0.261 C 
BRANCH  73  74
ATOM     74  O   UNL A   1      33.519  22.763  24.781  1.00  0.00    -0.460 OA
BRANCH  74  75
ATOM     75  C   UNL A   1      34.209  23.679  25.501  1.00  0.00     0.338 C 
ATOM     76  O   UNL A   1      35.211  23.515  26.174  1.00  0.00    -0.246 OA
BRANCH  75  77
ATOM     77  C   UNL A   1      33.708  25.004  25.102  1.00  0.00     0.063 A 
ATOM     78  C   UNL A   1      33.452  26.013  26.032  1.00  0.00     0.017 A 
ATOM     79  C   UNL A   1      33.375  25.178  23.758  1.00  0.00     0.056 A 
ATOM     80  C   UNL A   1      32.882  27.212  25.598  1.00  0.00     0.024 A 
ATOM     81  C   UNL A   1      32.720  26.334  23.356  1.00  0.00     0.142 A 
ATOM     82  C   UNL A   1      32.516  27.371  24.250  1.00  0.00     0.103 A 
ATOM     83  F   UNL A   1      32.223  26.362  22.118  1.00  0.00    -0.206 F 
BRANCH  82  84
ATOM     84  S   UNL A   1      31.792  28.908  23.773  1.00  0.00     0.186 S 
ATOM     85  O   UNL A   1      31.972  29.777  24.926  1.00  0.00    -0.223 OA
ATOM     86  O   UNL A   1      32.425  29.268  22.514  1.00  0.00    -0.223 OA
BRANCH  84  87
ATOM     87  C   UNL A   1      30.041  28.771  23.499  1.00  0.00     0.188 C 
BRANCH  87  88
ATOM     88  C   UNL A   1      29.346  30.057  23.157  1.00  0.00     0.020 A 
ATOM     89  C   UNL A   1      29.220  31.242  23.856  1.00  0.00     0.016 A 
ATOM     90  S   UNL A   1      28.473  30.130  21.670  1.00  0.00    -0.148 S 
ATOM     91  C   UNL A   1      28.520  32.240  23.115  1.00  0.00     0.012 A 
ATOM     92  C   UNL A   1      28.089  31.776  21.895  1.00  0.00     0.065 A 
ENDBRANCH  87  88
ENDBRANCH  84  87
ENDBRANCH  82  84
ENDBRANCH  75  77
ENDBRANCH  74  75
ENDBRANCH  73  74
ENDBRANCH  72  73
ENDBRANCH   1  72
TORSDOF 20
ENDMDL
MODEL 3
REMARK VINA RESULT:     -10.8      5.234     10.722
REMARK SMILES O=C(OCCOCCOC(=O)c1ccc(S(=O)(=O)Cc2cccs2)c(F)c1)c1ccc(-c2c3nc(c(-c4cccc(S(=O)(=O)[O-])c4F)c4ccc([nH]4)c(-c4cccc(S(=O)(=O)[O-])c4F)c4nc(c(-c5cccc(S(=O)(=O)[O-])c5F)c5ccc2[nH]5)C=C4)C=C3)cc1
REMARK SMILES IDX 6 1 5 2 4 3 3 4 2 5 1 6 28 7 29 8 90 9 30 10 89 11 31 12
REMARK SMILES IDX 32 13 33 14 83 15 34 16 88 17 82 18 84 19 35 20 87 21 81 22
REMARK SMILES IDX 80 23 36 25 68 26 48 27 67 28 49 29 52 30 66 31 85 32 50 33
REMARK SMILES IDX 51 34 65 36 86 37 53 38 37 39 38 40 46 41 39 42 41 43 47 44
REMARK SMILES IDX 40 45 42 46 43 47 44 48 45 49 69 50 70 51 78 52 71 53 73 54
REMARK SMILES IDX 79 55 72 56 74 57 75 58 76 59 77 60 54 61 55 62 63 63 56 64
REMARK SMILES IDX 58 65 64 66 57 67 59 68 60 69 61 70 62 71 7 72 8 73 9 74
REMARK SMILES IDX 10 75 11 76 12 77 13 78 27 79 14 80 25 81 15 82 26 83 16 84
REMARK SMILES IDX 17 85 18 86 19 87 20 88 21 89 24 90 22 91 23 92
REMARK H PARENT 84 24 52 35
REMARK Flexibility Score: inf
ROOT
ATOM      1  O   UNL A   1      34.610  20.103  25.411  1.00  0.00    -0.374 OA
ENDROOT
BRANCH   1   2
ATOM      2  C   UNL A   1      35.977  20.098  24.996  1.00  0.00     0.202 C 
BRANCH   2   3
ATOM      3  C   UNL A   1      36.806  21.314  25.417  1.00  0.00     0.261 C 
BRANCH   3   4
ATOM      4  O   UNL A   1      38.206  21.060  25.221  1.00  0.00    -0.460 OA
BRANCH   4   5
ATOM      5  C   UNL A   1      39.199  21.123  26.142  1.00  0.00     0.338 C 
ATOM      6  O   UNL A   1      39.625  20.074  26.620  1.00  0.00    -0.246 OA
BRANCH   5   7
ATOM      7  C   UNL A   1      39.796  22.411  26.604  1.00  0.00     0.060 A 
ATOM      8  C   UNL A   1      39.384  23.667  26.160  1.00  0.00     0.016 A 
ATOM      9  C   UNL A   1      40.772  22.356  27.611  1.00  0.00     0.016 A 
ATOM     10  C   UNL A   1      39.991  24.828  26.609  1.00  0.00     0.010 A 
ATOM     11  C   UNL A   1      41.334  23.529  28.131  1.00  0.00     0.010 A 
ATOM     12  C   UNL A   1      40.958  24.770  27.609  1.00  0.00    -0.014 A 
BRANCH  12  13
ATOM     13  C   UNL A   1      41.556  26.045  28.047  1.00  0.00     0.031 A 
ATOM     14  C   UNL A   1      42.927  26.410  27.574  1.00  0.00     0.074 A 
ATOM     15  C   UNL A   1      40.793  26.913  28.739  1.00  0.00     0.049 A 
ATOM     16  N   UNL A   1      43.585  27.522  27.753  1.00  0.00    -0.248 NA
ATOM     17  C   UNL A   1      43.646  25.403  26.776  1.00  0.00     0.031 C 
ATOM     18  C   UNL A   1      39.418  26.651  29.176  1.00  0.00     0.029 A 
ATOM     19  N   UNL A   1      41.035  28.195  29.155  1.00  0.00    -0.354 N 
ATOM     20  C   UNL A   1      44.811  27.335  27.131  1.00  0.00     0.074 A 
ATOM     21  C   UNL A   1      44.805  26.009  26.556  1.00  0.00     0.031 C 
ATOM     22  C   UNL A   1      38.923  27.755  29.752  1.00  0.00     0.029 A 
ATOM     23  C   UNL A   1      39.961  28.779  29.787  1.00  0.00     0.049 A 
ATOM     24  H   UNL A   1      41.895  28.654  29.016  1.00  0.00     0.167 HD
ATOM     25  C   UNL A   1      45.845  28.201  27.046  1.00  0.00     0.034 A 
ATOM     26  C   UNL A   1      39.837  30.000  30.340  1.00  0.00     0.034 A 
ATOM     27  C   UNL A   1      45.817  29.520  27.611  1.00  0.00     0.049 A 
ATOM     28  C   UNL A   1      41.014  30.933  30.260  1.00  0.00     0.074 A 
ATOM     29  C   UNL A   1      46.815  30.475  27.614  1.00  0.00     0.029 A 
ATOM     30  N   UNL A   1      44.729  30.068  28.278  1.00  0.00    -0.354 N 
ATOM     31  N   UNL A   1      42.158  30.756  29.642  1.00  0.00    -0.248 NA
ATOM     32  C   UNL A   1      40.891  32.227  30.941  1.00  0.00     0.031 C 
ATOM     33  C   UNL A   1      46.340  31.591  28.308  1.00  0.00     0.029 A 
ATOM     34  C   UNL A   1      45.035  31.343  28.713  1.00  0.00     0.049 A 
ATOM     35  H   UNL A   1      43.868  29.613  28.421  1.00  0.00     0.167 HD
ATOM     36  C   UNL A   1      42.891  31.915  29.850  1.00  0.00     0.074 A 
ATOM     37  C   UNL A   1      42.049  32.801  30.631  1.00  0.00     0.031 C 
ATOM     38  C   UNL A   1      44.152  32.213  29.451  1.00  0.00     0.034 A 
BRANCH  25  39
ATOM     39  C   UNL A   1      47.087  27.729  26.344  1.00  0.00     0.023 A 
ATOM     40  C   UNL A   1      48.123  27.118  27.078  1.00  0.00     0.012 A 
ATOM     41  C   UNL A   1      47.226  27.891  24.952  1.00  0.00     0.148 A 
ATOM     42  C   UNL A   1      49.293  26.703  26.440  1.00  0.00     0.002 A 
ATOM     43  C   UNL A   1      48.378  27.442  24.319  1.00  0.00     0.091 A 
ATOM     44  F   UNL A   1      46.241  28.503  24.279  1.00  0.00    -0.205 F 
ATOM     45  C   UNL A   1      49.416  26.858  25.061  1.00  0.00     0.022 A 
BRANCH  43  46
ATOM     46  S   UNL A   1      48.604  27.549  22.540  1.00  0.00     0.127 S 
ATOM     47  O   UNL A   1      48.608  26.138  22.159  1.00  0.00    -0.237 OA
ATOM     48  O   UNL A   1      47.413  28.290  22.122  1.00  0.00    -0.237 OA
ATOM     49  O   UNL A   1      49.860  28.256  22.337  1.00  0.00    -0.744 OA
ENDBRANCH  43  46
ENDBRANCH  25  39
BRANCH  26  50
ATOM     50  C   UNL A   1      38.546  30.393  30.977  1.00  0.00     0.023 A 
ATOM     51  C   UNL A   1      38.315  30.096  32.333  1.00  0.00     0.012 A 
ATOM     52  C   UNL A   1      37.586  31.147  30.269  1.00  0.00     0.148 A 
ATOM     53  C   UNL A   1      37.155  30.544  32.971  1.00  0.00     0.002 A 
ATOM     54  C   UNL A   1      36.466  31.641  30.925  1.00  0.00     0.091 A 
ATOM     55  F   UNL A   1      37.812  31.400  28.972  1.00  0.00    -0.205 F 
ATOM     56  C   UNL A   1      36.240  31.330  32.274  1.00  0.00     0.022 A 
BRANCH  54  57
ATOM     57  S   UNL A   1      35.318  32.785  30.146  1.00  0.00     0.127 S 
ATOM     58  O   UNL A   1      34.774  31.972  29.062  1.00  0.00    -0.237 OA
ATOM     59  O   UNL A   1      34.383  33.064  31.236  1.00  0.00    -0.237 OA
ATOM     60  O   UNL A   1      36.120  33.930  29.736  1.00  0.00    -0.744 OA
ENDBRANCH  54  57
ENDBRANCH  26  50
BRANCH  38  61
ATOM     61  C   UNL A   1      44.714  33.551  29.843  1.00  0.00     0.023 A 
ATOM     62  C   UNL A   1      45.455  33.665  31.035  1.00  0.00     0.012 A 
ATOM     63  C   UNL A   1      44.652  34.637  28.951  1.00  0.00     0.148 A 
ATOM     64  C   UNL A   1      46.128  34.847  31.335  1.00  0.00     0.002 A 
ATOM     65  C   UNL A   1      45.366  35.794  29.233  1.00  0.00     0.091 A 
ATOM     66  F   UNL A   1      43.926  34.505  27.832  1.00  0.00    -0.205 F 
ATOM     67  C   UNL A   1      46.099  35.904  30.426  1.00  0.00     0.022 A 
BRANCH  65  68
ATOM     68  S   UNL A   1      45.484  37.158  28.069  1.00  0.00     0.127 S 
ATOM     69  O   UNL A   1      44.181  37.802  28.233  1.00  0.00    -0.237 OA
ATOM     70  O   UNL A   1      46.613  37.922  28.602  1.00  0.00    -0.237 OA
ATOM     71  O   UNL A   1      45.721  36.556  26.764  1.00  0.00    -0.744 OA
ENDBRANCH  65  68
ENDBRANCH  38  61
ENDBRANCH  12  13
ENDBRANCH   5   7
ENDBRANCH   4   5
ENDBRANCH   3   4
ENDBRANCH   2   3
ENDBRANCH   1   2
BRANCH   1  72
ATOM     72  C   UNL A   1      33.671  19.584  24.456  1.00  0.00     0.202 C 
BRANCH  72  73
ATOM     73  C   UNL A   1      32.309  20.262  24.646  1.00  0.00     0.261 C 
BRANCH  73  74
ATOM     74  O   UNL A   1      32.435  21.642  24.258  1.00  0.00    -0.460 OA
BRANCH  74  75
ATOM     75  C   UNL A   1      32.127  21.891  22.963  1.00  0.00     0.338 C 
ATOM     76  O   UNL A   1      31.827  21.097  22.089  1.00  0.00    -0.246 OA
BRANCH  75  77
ATOM     77  C   UNL A   1      31.927  23.344  22.840  1.00  0.00     0.063 A 
ATOM     78  C   UNL A   1      32.958  24.208  22.464  1.00  0.00     0.017 A 
ATOM     79  C   UNL A   1      30.689  23.850  23.240  1.00  0.00     0.056 A 
ATOM     80  C   UNL A   1      32.727  25.586  22.467  1.00  0.00     0.024 A 
ATOM     81  C   UNL A   1      30.504  25.223  23.332  1.00  0.00     0.142 A 
ATOM     82  C   UNL A   1      31.491  26.093  22.903  1.00  0.00     0.103 A 
ATOM     83  F   UNL A   1      29.392  25.656  23.928  1.00  0.00    -0.206 F 
BRANCH  82  84
ATOM     84  S   UNL A   1      31.274  27.845  22.888  1.00  0.00     0.186 S 
ATOM     85  O   UNL A   1      32.596  28.381  22.603  1.00  0.00    -0.223 OA
ATOM     86  O   UNL A   1      30.194  28.099  21.947  1.00  0.00    -0.223 OA
BRANCH  84  87
ATOM     87  C   UNL A   1      30.790  28.476  24.477  1.00  0.00     0.188 C 
BRANCH  87  88
ATOM     88  C   UNL A   1      31.908  28.645  25.464  1.00  0.00     0.020 A 
ATOM     89  C   UNL A   1      32.772  27.729  26.033  1.00  0.00     0.016 A 
ATOM     90  S   UNL A   1      32.193  30.225  26.097  1.00  0.00    -0.148 S 
ATOM     91  C   UNL A   1      33.739  28.345  26.882  1.00  0.00     0.012 A 
ATOM     92  C   UNL A   1      33.557  29.704  26.977  1.00  0.00     0.065 A 
ENDBRANCH  87  88
ENDBRANCH  84  87
ENDBRANCH  82  84
ENDBRANCH  75  77
ENDBRANCH  74  75
ENDBRANCH  73  74
ENDBRANCH  72  73
ENDBRANCH   1  72
TORSDOF 20
ENDMDL
