MODEL 1
REMARK VINA RESULT:     -10.8      0.000      0.000
REMARK SMILES CC[C@](C)(NC(=O)CNC(=O)c1cccc(Cl)c1)C(=O)OCCOCCOC(=O)c1ccc(-c2c3nc(c(-c4cccc(S(=O)(=O)[O-])c4F)c4ccc([nH]4)c(-c4cccc(S(=O)(=O)[O-])c4F)c4nc(c(-c5cccc(S(=O)(=O)[O-])c5F)c5ccc2[nH]5)C=C4)C=C3)cc1
REMARK SMILES IDX 23 1 22 2 21 3 19 4 20 5 3 6 4 7 2 8 1 9 5 10 6 11 7 13 8 14
REMARK SMILES IDX 9 15 10 16 11 18 12 19 13 20 18 21 14 22 16 23 15 24 17 25
REMARK SMILES IDX 24 26 25 27 26 28 27 29 28 30 29 31 30 32 31 33 92 34 32 35
REMARK SMILES IDX 91 36 33 37 34 38 35 39 85 40 36 41 90 42 84 43 86 44 37 45
REMARK SMILES IDX 89 46 83 47 82 48 38 50 70 51 50 52 69 53 51 54 54 55 68 56
REMARK SMILES IDX 87 57 52 58 53 59 67 61 88 62 55 63 39 64 40 65 48 66 41 67
REMARK SMILES IDX 43 68 49 69 42 70 44 71 45 72 46 73 47 74 71 75 72 76 80 77
REMARK SMILES IDX 73 78 75 79 81 80 74 81 76 82 77 83 78 84 79 85 56 86 57 87
REMARK SMILES IDX 65 88 58 89 60 90 66 91 59 92 61 93 62 94 63 95 64 96
REMARK H PARENT 5 12 9 17 86 49 54 60
REMARK Flexibility Score: inf
ROOT
ATOM      1  C   UNL A   1      32.372  28.529  26.769  1.00  0.00     0.202 C 
ENDROOT
BRANCH   1   2
ATOM      2  C   UNL A   1      31.250  27.422  26.390  1.00  0.00     0.261 C 
BRANCH   2   3
ATOM      3  O   UNL A   1      31.358  26.269  25.293  1.00  0.00    -0.462 OA
BRANCH   3   4
ATOM      4  C   UNL A   1      31.551  25.381  24.292  1.00  0.00     0.331 C 
ATOM      5  O   UNL A   1      30.566  24.692  23.994  1.00  0.00    -0.249 OA
BRANCH   4   6
ATOM      6  C   UNL A   1      32.888  25.150  23.382  1.00  0.00     0.135 C 
ATOM      7  C   UNL A   1      32.689  24.420  22.016  1.00  0.00     0.047 C 
BRANCH   6   8
ATOM      8  C   UNL A   1      33.844  24.183  24.198  1.00  0.00     0.037 C 
ATOM      9  C   UNL A   1      34.838  23.336  23.378  1.00  0.00     0.007 C 
ENDBRANCH   6   8
BRANCH   6  10
ATOM     10  N   UNL A   1      33.638  26.354  23.103  1.00  0.00    -0.339 N 
ATOM     11  C   UNL A   1      33.230  27.301  22.234  1.00  0.00     0.240 C 
ATOM     12  H   UNL A   1      34.494  26.490  23.572  1.00  0.00     0.164 HD
ATOM     13  O   UNL A   1      34.004  28.211  21.932  1.00  0.00    -0.273 OA
BRANCH  11  14
ATOM     14  C   UNL A   1      31.741  27.357  21.891  1.00  0.00     0.216 C 
BRANCH  14  15
ATOM     15  N   UNL A   1      30.467  27.808  22.635  1.00  0.00    -0.343 N 
ATOM     16  C   UNL A   1      29.340  28.620  22.739  1.00  0.00     0.251 C 
ATOM     17  H   UNL A   1      30.433  27.236  23.436  1.00  0.00     0.164 HD
ATOM     18  O   UNL A   1      28.519  28.219  23.576  1.00  0.00    -0.269 OA
BRANCH  16  19
ATOM     19  C   UNL A   1      28.969  29.952  22.143  1.00  0.00     0.041 A 
ATOM     20  C   UNL A   1      28.115  30.162  21.044  1.00  0.00     0.014 A 
ATOM     21  C   UNL A   1      29.264  31.097  22.897  1.00  0.00     0.034 A 
ATOM     22  C   UNL A   1      27.813  31.443  20.551  1.00  0.00     0.002 A 
ATOM     23  C   UNL A   1      28.924  32.382  22.440  1.00  0.00     0.041 A 
ATOM     24  C   UNL A   1      28.245  32.564  21.240  1.00  0.00     0.020 A 
ATOM     25  Cl  UNL A   1      29.342  33.761  23.385  1.00  0.00    -0.084 Cl
ENDBRANCH  16  19
ENDBRANCH  14  15
ENDBRANCH  11  14
ENDBRANCH   6  10
ENDBRANCH   4   6
ENDBRANCH   3   4
ENDBRANCH   2   3
ENDBRANCH   1   2
BRANCH   1  26
ATOM     26  O   UNL A   1      31.951  29.837  27.107  1.00  0.00    -0.374 OA
BRANCH  26  27
ATOM     27  C   UNL A   1      31.468  30.772  26.155  1.00  0.00     0.202 C 
BRANCH  27  28
ATOM     28  C   UNL A   1      31.756  32.215  26.597  1.00  0.00     0.261 C 
BRANCH  28  29
ATOM     29  O   UNL A   1      32.552  32.244  27.787  1.00  0.00    -0.460 OA
BRANCH  29  30
ATOM     30  C   UNL A   1      33.421  33.272  27.835  1.00  0.00     0.338 C 
ATOM     31  O   UNL A   1      33.137  34.471  27.806  1.00  0.00    -0.246 OA
BRANCH  30  32
ATOM     32  C   UNL A   1      34.733  32.749  28.243  1.00  0.00     0.060 A 
ATOM     33  C   UNL A   1      34.840  31.365  28.461  1.00  0.00     0.016 A 
ATOM     34  C   UNL A   1      35.853  33.576  28.334  1.00  0.00     0.016 A 
ATOM     35  C   UNL A   1      36.062  30.809  28.811  1.00  0.00     0.010 A 
ATOM     36  C   UNL A   1      37.070  33.025  28.729  1.00  0.00     0.010 A 
ATOM     37  C   UNL A   1      37.164  31.648  29.007  1.00  0.00    -0.014 A 
BRANCH  37  38
ATOM     38  C   UNL A   1      38.319  31.139  29.770  1.00  0.00     0.031 A 
ATOM     39  C   UNL A   1      39.152  30.067  29.125  1.00  0.00     0.074 A 
ATOM     40  C   UNL A   1      38.616  31.594  30.998  1.00  0.00     0.049 A 
ATOM     41  N   UNL A   1      40.172  29.414  29.609  1.00  0.00    -0.248 NA
ATOM     42  C   UNL A   1      38.784  29.681  27.749  1.00  0.00     0.031 C 
ATOM     43  C   UNL A   1      37.895  32.643  31.715  1.00  0.00     0.029 A 
ATOM     44  N   UNL A   1      39.593  31.191  31.873  1.00  0.00    -0.354 N 
ATOM     45  C   UNL A   1      40.544  28.516  28.618  1.00  0.00     0.074 A 
ATOM     46  C   UNL A   1      39.653  28.715  27.498  1.00  0.00     0.031 C 
ATOM     47  C   UNL A   1      38.424  32.764  32.947  1.00  0.00     0.029 A 
ATOM     48  C   UNL A   1      39.496  31.783  33.109  1.00  0.00     0.049 A 
ATOM     49  H   UNL A   1      40.294  30.541  31.637  1.00  0.00     0.167 HD
ATOM     50  C   UNL A   1      41.541  27.606  28.639  1.00  0.00     0.034 A 
ATOM     51  C   UNL A   1      40.167  31.522  34.249  1.00  0.00     0.034 A 
ATOM     52  C   UNL A   1      42.438  27.415  29.740  1.00  0.00     0.049 A 
ATOM     53  C   UNL A   1      41.240  30.459  34.255  1.00  0.00     0.074 A 
ATOM     54  C   UNL A   1      43.527  26.566  29.819  1.00  0.00     0.029 A 
ATOM     55  N   UNL A   1      42.332  28.052  30.964  1.00  0.00    -0.354 N 
ATOM     56  N   UNL A   1      41.689  29.730  33.263  1.00  0.00    -0.248 NA
ATOM     57  C   UNL A   1      41.912  30.198  35.538  1.00  0.00     0.031 C 
ATOM     58  C   UNL A   1      44.055  26.658  31.108  1.00  0.00     0.029 A 
ATOM     59  C   UNL A   1      43.315  27.589  31.819  1.00  0.00     0.049 A 
ATOM     60  H   UNL A   1      41.659  28.734  31.192  1.00  0.00     0.167 HD
ATOM     61  C   UNL A   1      42.713  28.949  33.795  1.00  0.00     0.074 A 
ATOM     62  C   UNL A   1      42.836  29.313  35.190  1.00  0.00     0.031 C 
ATOM     63  C   UNL A   1      43.469  27.999  33.189  1.00  0.00     0.034 A 
BRANCH  50  64
ATOM     64  C   UNL A   1      41.720  26.735  27.431  1.00  0.00     0.023 A 
ATOM     65  C   UNL A   1      42.284  27.270  26.257  1.00  0.00     0.012 A 
ATOM     66  C   UNL A   1      41.415  25.362  27.498  1.00  0.00     0.148 A 
ATOM     67  C   UNL A   1      42.537  26.449  25.161  1.00  0.00     0.002 A 
ATOM     68  C   UNL A   1      41.710  24.543  26.418  1.00  0.00     0.091 A 
ATOM     69  F   UNL A   1      40.849  24.889  28.617  1.00  0.00    -0.205 F 
ATOM     70  C   UNL A   1      42.264  25.085  25.247  1.00  0.00     0.022 A 
BRANCH  68  71
ATOM     71  S   UNL A   1      41.468  22.766  26.460  1.00  0.00     0.127 S 
ATOM     72  O   UNL A   1      42.304  22.329  25.344  1.00  0.00    -0.237 OA
ATOM     73  O   UNL A   1      41.985  22.420  27.784  1.00  0.00    -0.237 OA
ATOM     74  O   UNL A   1      40.038  22.547  26.287  1.00  0.00    -0.744 OA
ENDBRANCH  68  71
ENDBRANCH  50  64
BRANCH  51  75
ATOM     75  C   UNL A   1      39.834  32.256  35.502  1.00  0.00     0.023 A 
ATOM     76  C   UNL A   1      40.534  33.434  35.831  1.00  0.00     0.012 A 
ATOM     77  C   UNL A   1      38.857  31.767  36.390  1.00  0.00     0.148 A 
ATOM     78  C   UNL A   1      40.297  34.084  37.042  1.00  0.00     0.002 A 
ATOM     79  C   UNL A   1      38.584  32.453  37.567  1.00  0.00     0.091 A 
ATOM     80  F   UNL A   1      38.220  30.630  36.074  1.00  0.00    -0.205 F 
ATOM     81  C   UNL A   1      39.317  33.601  37.906  1.00  0.00     0.022 A 
BRANCH  79  82
ATOM     82  S   UNL A   1      37.257  31.961  38.671  1.00  0.00     0.127 S 
ATOM     83  O   UNL A   1      37.802  32.325  39.976  1.00  0.00    -0.237 OA
ATOM     84  O   UNL A   1      36.150  32.801  38.209  1.00  0.00    -0.237 OA
ATOM     85  O   UNL A   1      37.064  30.537  38.436  1.00  0.00    -0.744 OA
ENDBRANCH  79  82
ENDBRANCH  51  75
BRANCH  63  86
ATOM     86  C   UNL A   1      44.519  27.295  34.009  1.00  0.00     0.023 A 
ATOM     87  C   UNL A   1      45.798  27.868  34.143  1.00  0.00     0.012 A 
ATOM     88  C   UNL A   1      44.205  26.126  34.731  1.00  0.00     0.148 A 
ATOM     89  C   UNL A   1      46.758  27.274  34.964  1.00  0.00     0.002 A 
ATOM     90  C   UNL A   1      45.150  25.568  35.585  1.00  0.00     0.091 A 
ATOM     91  F   UNL A   1      42.984  25.592  34.583  1.00  0.00    -0.205 F 
ATOM     92  C   UNL A   1      46.430  26.134  35.694  1.00  0.00     0.022 A 
BRANCH  90  93
ATOM     93  S   UNL A   1      44.788  24.159  36.639  1.00  0.00     0.127 S 
ATOM     94  O   UNL A   1      44.068  23.278  35.722  1.00  0.00    -0.237 OA
ATOM     95  O   UNL A   1      46.126  23.695  37.007  1.00  0.00    -0.237 OA
ATOM     96  O   UNL A   1      44.000  24.678  37.750  1.00  0.00    -0.744 OA
ENDBRANCH  90  93
ENDBRANCH  63  86
ENDBRANCH  37  38
ENDBRANCH  30  32
ENDBRANCH  29  30
ENDBRANCH  28  29
ENDBRANCH  27  28
ENDBRANCH  26  27
ENDBRANCH   1  26
TORSDOF 22
ENDMDL
MODEL 2
REMARK VINA RESULT:     -10.7      2.748      8.608
REMARK SMILES CC[C@](C)(NC(=O)CNC(=O)c1cccc(Cl)c1)C(=O)OCCOCCOC(=O)c1ccc(-c2c3nc(c(-c4cccc(S(=O)(=O)[O-])c4F)c4ccc([nH]4)c(-c4cccc(S(=O)(=O)[O-])c4F)c4nc(c(-c5cccc(S(=O)(=O)[O-])c5F)c5ccc2[nH]5)C=C4)C=C3)cc1
REMARK SMILES IDX 23 1 22 2 21 3 19 4 20 5 3 6 4 7 2 8 1 9 5 10 6 11 7 13 8 14
REMARK SMILES IDX 9 15 10 16 11 18 12 19 13 20 18 21 14 22 16 23 15 24 17 25
REMARK SMILES IDX 24 26 25 27 26 28 27 29 28 30 29 31 30 32 31 33 92 34 32 35
REMARK SMILES IDX 91 36 33 37 34 38 35 39 85 40 36 41 90 42 84 43 86 44 37 45
REMARK SMILES IDX 89 46 83 47 82 48 38 50 70 51 50 52 69 53 51 54 54 55 68 56
REMARK SMILES IDX 87 57 52 58 53 59 67 61 88 62 55 63 39 64 40 65 48 66 41 67
REMARK SMILES IDX 43 68 49 69 42 70 44 71 45 72 46 73 47 74 71 75 72 76 80 77
REMARK SMILES IDX 73 78 75 79 81 80 74 81 76 82 77 83 78 84 79 85 56 86 57 87
REMARK SMILES IDX 65 88 58 89 60 90 66 91 59 92 61 93 62 94 63 95 64 96
REMARK H PARENT 5 12 9 17 86 49 54 60
REMARK Flexibility Score: inf
ROOT
ATOM      1  C   UNL A   1      32.491  29.792  26.087  1.00  0.00     0.202 C 
ENDROOT
BRANCH   1   2
ATOM      2  C   UNL A   1      31.419  29.368  24.948  1.00  0.00     0.261 C 
BRANCH   2   3
ATOM      3  O   UNL A   1      30.781  27.926  24.705  1.00  0.00    -0.462 OA
BRANCH   3   4
ATOM      4  C   UNL A   1      30.193  26.710  24.644  1.00  0.00     0.331 C 
ATOM      5  O   UNL A   1      29.130  26.664  24.010  1.00  0.00    -0.249 OA
BRANCH   4   6
ATOM      6  C   UNL A   1      30.735  25.288  25.237  1.00  0.00     0.135 C 
ATOM      7  C   UNL A   1      32.241  25.226  25.643  1.00  0.00     0.047 C 
BRANCH   6   8
ATOM      8  C   UNL A   1      30.607  24.220  24.071  1.00  0.00     0.037 C 
ATOM      9  C   UNL A   1      31.728  24.211  23.013  1.00  0.00     0.007 C 
ENDBRANCH   6   8
BRANCH   6  10
ATOM     10  N   UNL A   1      29.981  24.781  26.362  1.00  0.00    -0.339 N 
ATOM     11  C   UNL A   1      29.975  23.484  26.731  1.00  0.00     0.240 C 
ATOM     12  H   UNL A   1      29.443  25.417  26.888  1.00  0.00     0.164 HD
ATOM     13  O   UNL A   1      29.180  23.110  27.594  1.00  0.00    -0.273 OA
BRANCH  11  14
ATOM     14  C   UNL A   1      31.140  22.608  26.268  1.00  0.00     0.216 C 
BRANCH  14  15
ATOM     15  N   UNL A   1      32.457  22.120  26.905  1.00  0.00    -0.343 N 
ATOM     16  C   UNL A   1      33.847  22.022  26.906  1.00  0.00     0.251 C 
ATOM     17  H   UNL A   1      32.176  21.640  27.718  1.00  0.00     0.164 HD
ATOM     18  O   UNL A   1      34.315  21.655  27.994  1.00  0.00    -0.269 OA
BRANCH  16  19
ATOM     19  C   UNL A   1      34.891  22.141  25.828  1.00  0.00     0.041 A 
ATOM     20  C   UNL A   1      35.195  23.299  25.089  1.00  0.00     0.014 A 
ATOM     21  C   UNL A   1      35.832  21.105  25.729  1.00  0.00     0.034 A 
ATOM     22  C   UNL A   1      36.193  23.328  24.099  1.00  0.00     0.002 A 
ATOM     23  C   UNL A   1      36.865  21.144  24.777  1.00  0.00     0.041 A 
ATOM     24  C   UNL A   1      37.018  22.230  23.923  1.00  0.00     0.020 A 
ATOM     25  Cl  UNL A   1      37.975  19.830  24.670  1.00  0.00    -0.084 Cl
ENDBRANCH  16  19
ENDBRANCH  14  15
ENDBRANCH  11  14
ENDBRANCH   6  10
ENDBRANCH   4   6
ENDBRANCH   3   4
ENDBRANCH   2   3
ENDBRANCH   1   2
BRANCH   1  26
ATOM     26  O   UNL A   1      32.192  30.892  26.927  1.00  0.00    -0.374 OA
BRANCH  26  27
ATOM     27  C   UNL A   1      31.423  32.008  26.506  1.00  0.00     0.202 C 
BRANCH  27  28
ATOM     28  C   UNL A   1      32.041  33.326  26.999  1.00  0.00     0.261 C 
BRANCH  28  29
ATOM     29  O   UNL A   1      32.964  33.098  28.068  1.00  0.00    -0.460 OA
BRANCH  29  30
ATOM     30  C   UNL A   1      34.077  33.854  27.996  1.00  0.00     0.338 C 
ATOM     31  O   UNL A   1      34.122  35.081  27.898  1.00  0.00    -0.246 OA
BRANCH  30  32
ATOM     32  C   UNL A   1      35.228  33.018  28.368  1.00  0.00     0.060 A 
ATOM     33  C   UNL A   1      34.989  31.655  28.608  1.00  0.00     0.016 A 
ATOM     34  C   UNL A   1      36.524  33.534  28.405  1.00  0.00     0.016 A 
ATOM     35  C   UNL A   1      36.042  30.810  28.926  1.00  0.00     0.010 A 
ATOM     36  C   UNL A   1      37.576  32.695  28.768  1.00  0.00     0.010 A 
ATOM     37  C   UNL A   1      37.327  31.343  29.068  1.00  0.00    -0.014 A 
BRANCH  37  38
ATOM     38  C   UNL A   1      38.344  30.563  29.801  1.00  0.00     0.031 A 
ATOM     39  C   UNL A   1      38.527  30.870  31.261  1.00  0.00     0.074 A 
ATOM     40  C   UNL A   1      39.093  29.628  29.196  1.00  0.00     0.049 A 
ATOM     41  N   UNL A   1      39.390  30.375  32.104  1.00  0.00    -0.248 NA
ATOM     42  C   UNL A   1      37.611  31.867  31.847  1.00  0.00     0.031 C 
ATOM     43  C   UNL A   1      38.992  29.231  27.793  1.00  0.00     0.029 A 
ATOM     44  N   UNL A   1      40.121  28.868  29.693  1.00  0.00    -0.354 N 
ATOM     45  C   UNL A   1      39.151  31.025  33.307  1.00  0.00     0.074 A 
ATOM     46  C   UNL A   1      38.052  31.939  33.093  1.00  0.00     0.031 C 
ATOM     47  C   UNL A   1      39.960  28.335  27.529  1.00  0.00     0.029 A 
ATOM     48  C   UNL A   1      40.762  28.123  28.733  1.00  0.00     0.049 A 
ATOM     49  H   UNL A   1      40.375  28.859  30.644  1.00  0.00     0.167 HD
ATOM     50  C   UNL A   1      39.790  30.873  34.486  1.00  0.00     0.034 A 
ATOM     51  C   UNL A   1      41.893  27.393  28.815  1.00  0.00     0.034 A 
ATOM     52  C   UNL A   1      40.870  29.957  34.708  1.00  0.00     0.049 A 
ATOM     53  C   UNL A   1      42.617  27.287  30.136  1.00  0.00     0.074 A 
ATOM     54  C   UNL A   1      41.528  29.682  35.893  1.00  0.00     0.029 A 
ATOM     55  N   UNL A   1      41.473  29.194  33.724  1.00  0.00    -0.354 N 
ATOM     56  N   UNL A   1      42.284  27.779  31.305  1.00  0.00    -0.248 NA
ATOM     57  C   UNL A   1      43.864  26.505  30.152  1.00  0.00     0.031 C 
ATOM     58  C   UNL A   1      42.560  28.784  35.617  1.00  0.00     0.029 A 
ATOM     59  C   UNL A   1      42.521  28.474  34.267  1.00  0.00     0.049 A 
ATOM     60  H   UNL A   1      41.197  29.167  32.779  1.00  0.00     0.167 HD
ATOM     61  C   UNL A   1      43.263  27.344  32.196  1.00  0.00     0.074 A 
ATOM     62  C   UNL A   1      44.184  26.524  31.439  1.00  0.00     0.031 C 
ATOM     63  C   UNL A   1      43.399  27.615  33.518  1.00  0.00     0.034 A 
BRANCH  50  64
ATOM     64  C   UNL A   1      39.343  31.721  35.640  1.00  0.00     0.023 A 
ATOM     65  C   UNL A   1      38.258  31.309  36.436  1.00  0.00     0.012 A 
ATOM     66  C   UNL A   1      40.065  32.879  35.987  1.00  0.00     0.148 A 
ATOM     67  C   UNL A   1      37.892  32.042  37.562  1.00  0.00     0.002 A 
ATOM     68  C   UNL A   1      39.721  33.581  37.133  1.00  0.00     0.091 A 
ATOM     69  F   UNL A   1      41.072  33.265  35.191  1.00  0.00    -0.205 F 
ATOM     70  C   UNL A   1      38.632  33.168  37.918  1.00  0.00     0.022 A 
BRANCH  68  71
ATOM     71  S   UNL A   1      40.659  34.994  37.717  1.00  0.00     0.127 S 
ATOM     72  O   UNL A   1      42.033  34.519  37.564  1.00  0.00    -0.237 OA
ATOM     73  O   UNL A   1      40.263  36.035  36.770  1.00  0.00    -0.237 OA
ATOM     74  O   UNL A   1      40.232  35.224  39.091  1.00  0.00    -0.744 OA
ENDBRANCH  68  71
ENDBRANCH  50  64
BRANCH  51  75
ATOM     75  C   UNL A   1      42.443  26.720  27.605  1.00  0.00     0.023 A 
ATOM     76  C   UNL A   1      43.127  27.476  26.633  1.00  0.00     0.012 A 
ATOM     77  C   UNL A   1      42.254  25.341  27.395  1.00  0.00     0.148 A 
ATOM     78  C   UNL A   1      43.572  26.878  25.453  1.00  0.00     0.002 A 
ATOM     79  C   UNL A   1      42.751  24.740  26.245  1.00  0.00     0.091 A 
ATOM     80  F   UNL A   1      41.577  24.642  28.317  1.00  0.00    -0.205 F 
ATOM     81  C   UNL A   1      43.392  25.509  25.262  1.00  0.00     0.022 A 
BRANCH  79  82
ATOM     82  S   UNL A   1      42.665  22.966  25.983  1.00  0.00     0.127 S 
ATOM     83  O   UNL A   1      43.087  22.849  24.589  1.00  0.00    -0.237 OA
ATOM     84  O   UNL A   1      43.630  22.467  26.964  1.00  0.00    -0.237 OA
ATOM     85  O   UNL A   1      41.283  22.599  26.263  1.00  0.00    -0.744 OA
ENDBRANCH  79  82
ENDBRANCH  51  75
BRANCH  63  86
ATOM     86  C   UNL A   1      44.565  27.007  34.253  1.00  0.00     0.023 A 
ATOM     87  C   UNL A   1      45.706  27.788  34.519  1.00  0.00     0.012 A 
ATOM     88  C   UNL A   1      44.486  25.698  34.772  1.00  0.00     0.148 A 
ATOM     89  C   UNL A   1      46.761  27.269  35.269  1.00  0.00     0.002 A 
ATOM     90  C   UNL A   1      45.520  25.205  35.560  1.00  0.00     0.091 A 
ATOM     91  F   UNL A   1      43.395  24.968  34.500  1.00  0.00    -0.205 F 
ATOM     92  C   UNL A   1      46.663  25.985  35.800  1.00  0.00     0.022 A 
BRANCH  90  93
ATOM     93  S   UNL A   1      45.441  23.603  36.367  1.00  0.00     0.127 S 
ATOM     94  O   UNL A   1      44.158  23.091  35.888  1.00  0.00    -0.237 OA
ATOM     95  O   UNL A   1      46.613  22.921  35.818  1.00  0.00    -0.237 OA
ATOM     96  O   UNL A   1      45.509  23.867  37.799  1.00  0.00    -0.744 OA
ENDBRANCH  90  93
ENDBRANCH  63  86
ENDBRANCH  37  38
ENDBRANCH  30  32
ENDBRANCH  29  30
ENDBRANCH  28  29
ENDBRANCH  27  28
ENDBRANCH  26  27
ENDBRANCH   1  26
TORSDOF 22
ENDMDL
MODEL 3
REMARK VINA RESULT:     -10.5      1.602      2.329
REMARK SMILES CC[C@](C)(NC(=O)CNC(=O)c1cccc(Cl)c1)C(=O)OCCOCCOC(=O)c1ccc(-c2c3nc(c(-c4cccc(S(=O)(=O)[O-])c4F)c4ccc([nH]4)c(-c4cccc(S(=O)(=O)[O-])c4F)c4nc(c(-c5cccc(S(=O)(=O)[O-])c5F)c5ccc2[nH]5)C=C4)C=C3)cc1
REMARK SMILES IDX 23 1 22 2 21 3 19 4 20 5 3 6 4 7 2 8 1 9 5 10 6 11 7 13 8 14
REMARK SMILES IDX 9 15 10 16 11 18 12 19 13 20 18 21 14 22 16 23 15 24 17 25
REMARK SMILES IDX 24 26 25 27 26 28 27 29 28 30 29 31 30 32 31 33 92 34 32 35
REMARK SMILES IDX 91 36 33 37 34 38 35 39 85 40 36 41 90 42 84 43 86 44 37 45
REMARK SMILES IDX 89 46 83 47 82 48 38 50 70 51 50 52 69 53 51 54 54 55 68 56
REMARK SMILES IDX 87 57 52 58 53 59 67 61 88 62 55 63 39 64 40 65 48 66 41 67
REMARK SMILES IDX 43 68 49 69 42 70 44 71 45 72 46 73 47 74 71 75 72 76 80 77
REMARK SMILES IDX 73 78 75 79 81 80 74 81 76 82 77 83 78 84 79 85 56 86 57 87
REMARK SMILES IDX 65 88 58 89 60 90 66 91 59 92 61 93 62 94 63 95 64 96
REMARK H PARENT 5 12 9 17 86 49 54 60
REMARK Flexibility Score: inf
ROOT
ATOM      1  C   UNL A   1      32.442  28.244  27.059  1.00  0.00     0.202 C 
ENDROOT
BRANCH   1   2
ATOM      2  C   UNL A   1      31.211  27.218  26.816  1.00  0.00     0.261 C 
BRANCH   2   3
ATOM      3  O   UNL A   1      31.296  25.696  26.343  1.00  0.00    -0.462 OA
BRANCH   3   4
ATOM      4  C   UNL A   1      31.513  24.436  25.905  1.00  0.00     0.331 C 
ATOM      5  O   UNL A   1      30.608  23.949  25.215  1.00  0.00    -0.249 OA
BRANCH   4   6
ATOM      6  C   UNL A   1      32.839  23.504  26.108  1.00  0.00     0.135 C 
ATOM      7  C   UNL A   1      33.008  22.302  25.127  1.00  0.00     0.047 C 
BRANCH   6   8
ATOM      8  C   UNL A   1      32.712  22.821  27.534  1.00  0.00     0.037 C 
ATOM      9  C   UNL A   1      33.542  21.543  27.767  1.00  0.00     0.007 C 
ENDBRANCH   6   8
BRANCH   6  10
ATOM     10  N   UNL A   1      34.090  24.230  26.094  1.00  0.00    -0.339 N 
ATOM     11  C   UNL A   1      34.977  24.165  25.081  1.00  0.00     0.240 C 
ATOM     12  H   UNL A   1      34.306  24.803  26.866  1.00  0.00     0.164 HD
ATOM     13  O   UNL A   1      36.087  24.680  25.222  1.00  0.00    -0.273 OA
BRANCH  11  14
ATOM     14  C   UNL A   1      34.465  23.705  23.715  1.00  0.00     0.216 C 
BRANCH  14  15
ATOM     15  N   UNL A   1      33.801  24.403  22.510  1.00  0.00    -0.343 N 
ATOM     16  C   UNL A   1      33.111  25.477  21.953  1.00  0.00     0.251 C 
ATOM     17  H   UNL A   1      33.930  23.777  21.761  1.00  0.00     0.164 HD
ATOM     18  O   UNL A   1      33.123  25.481  20.713  1.00  0.00    -0.269 OA
BRANCH  16  19
ATOM     19  C   UNL A   1      32.243  26.560  22.536  1.00  0.00     0.041 A 
ATOM     20  C   UNL A   1      32.536  27.936  22.564  1.00  0.00     0.014 A 
ATOM     21  C   UNL A   1      30.911  26.228  22.828  1.00  0.00     0.034 A 
ATOM     22  C   UNL A   1      31.667  28.888  23.124  1.00  0.00     0.002 A 
ATOM     23  C   UNL A   1      30.015  27.181  23.342  1.00  0.00     0.041 A 
ATOM     24  C   UNL A   1      30.405  28.502  23.542  1.00  0.00     0.020 A 
ATOM     25  Cl  UNL A   1      28.401  26.716  23.722  1.00  0.00    -0.084 Cl
ENDBRANCH  16  19
ENDBRANCH  14  15
ENDBRANCH  11  14
ENDBRANCH   6  10
ENDBRANCH   4   6
ENDBRANCH   3   4
ENDBRANCH   2   3
ENDBRANCH   1   2
BRANCH   1  26
ATOM     26  O   UNL A   1      32.154  29.610  27.294  1.00  0.00    -0.374 OA
BRANCH  26  27
ATOM     27  C   UNL A   1      31.795  30.519  26.266  1.00  0.00     0.202 C 
BRANCH  27  28
ATOM     28  C   UNL A   1      32.092  31.969  26.679  1.00  0.00     0.261 C 
BRANCH  28  29
ATOM     29  O   UNL A   1      32.871  32.018  27.879  1.00  0.00    -0.460 OA
BRANCH  29  30
ATOM     30  C   UNL A   1      33.762  33.028  27.908  1.00  0.00     0.338 C 
ATOM     31  O   UNL A   1      33.504  34.232  27.868  1.00  0.00    -0.246 OA
BRANCH  30  32
ATOM     32  C   UNL A   1      35.066  32.481  28.310  1.00  0.00     0.060 A 
ATOM     33  C   UNL A   1      35.119  31.121  28.659  1.00  0.00     0.016 A 
ATOM     34  C   UNL A   1      36.226  33.256  28.272  1.00  0.00     0.016 A 
ATOM     35  C   UNL A   1      36.329  30.541  29.010  1.00  0.00     0.010 A 
ATOM     36  C   UNL A   1      37.434  32.685  28.669  1.00  0.00     0.010 A 
ATOM     37  C   UNL A   1      37.476  31.338  29.077  1.00  0.00    -0.014 A 
BRANCH  37  38
ATOM     38  C   UNL A   1      38.642  30.847  29.837  1.00  0.00     0.031 A 
ATOM     39  C   UNL A   1      39.471  29.764  29.205  1.00  0.00     0.074 A 
ATOM     40  C   UNL A   1      38.950  31.327  31.053  1.00  0.00     0.049 A 
ATOM     41  N   UNL A   1      40.498  29.125  29.690  1.00  0.00    -0.248 NA
ATOM     42  C   UNL A   1      39.089  29.351  27.841  1.00  0.00     0.031 C 
ATOM     43  C   UNL A   1      38.234  32.388  31.757  1.00  0.00     0.029 A 
ATOM     44  N   UNL A   1      39.937  30.944  31.925  1.00  0.00    -0.354 N 
ATOM     45  C   UNL A   1      40.862  28.208  28.713  1.00  0.00     0.074 A 
ATOM     46  C   UNL A   1      39.958  28.382  27.599  1.00  0.00     0.031 C 
ATOM     47  C   UNL A   1      38.776  32.535  32.980  1.00  0.00     0.029 A 
ATOM     48  C   UNL A   1      39.852  31.560  33.150  1.00  0.00     0.049 A 
ATOM     49  H   UNL A   1      40.638  30.292  31.694  1.00  0.00     0.167 HD
ATOM     50  C   UNL A   1      41.861  27.301  28.741  1.00  0.00     0.034 A 
ATOM     51  C   UNL A   1      40.536  31.324  34.288  1.00  0.00     0.034 A 
ATOM     52  C   UNL A   1      42.770  27.134  29.837  1.00  0.00     0.049 A 
ATOM     53  C   UNL A   1      41.612  30.264  34.304  1.00  0.00     0.074 A 
ATOM     54  C   UNL A   1      43.863  26.290  29.920  1.00  0.00     0.029 A 
ATOM     55  N   UNL A   1      42.676  27.796  31.049  1.00  0.00    -0.354 N 
ATOM     56  N   UNL A   1      42.053  29.517  33.321  1.00  0.00    -0.248 NA
ATOM     57  C   UNL A   1      42.299  30.030  35.584  1.00  0.00     0.031 C 
ATOM     58  C   UNL A   1      44.404  26.409  31.202  1.00  0.00     0.029 A 
ATOM     59  C   UNL A   1      43.670  27.352  31.902  1.00  0.00     0.049 A 
ATOM     60  H   UNL A   1      42.004  28.480  31.270  1.00  0.00     0.167 HD
ATOM     61  C   UNL A   1      43.084  28.749  33.857  1.00  0.00     0.074 A 
ATOM     62  C   UNL A   1      43.222  29.141  35.243  1.00  0.00     0.031 C 
ATOM     63  C   UNL A   1      43.837  27.789  33.262  1.00  0.00     0.034 A 
BRANCH  50  64
ATOM     64  C   UNL A   1      42.030  26.407  27.549  1.00  0.00     0.023 A 
ATOM     65  C   UNL A   1      42.744  26.863  26.425  1.00  0.00     0.012 A 
ATOM     66  C   UNL A   1      41.560  25.081  27.588  1.00  0.00     0.148 A 
ATOM     67  C   UNL A   1      42.983  26.011  25.350  1.00  0.00     0.002 A 
ATOM     68  C   UNL A   1      41.839  24.225  26.532  1.00  0.00     0.091 A 
ATOM     69  F   UNL A   1      40.855  24.685  28.658  1.00  0.00    -0.205 F 
ATOM     70  C   UNL A   1      42.544  24.689  25.410  1.00  0.00     0.022 A 
BRANCH  68  71
ATOM     71  S   UNL A   1      41.386  22.489  26.551  1.00  0.00     0.127 S 
ATOM     72  O   UNL A   1      42.122  21.980  25.395  1.00  0.00    -0.237 OA
ATOM     73  O   UNL A   1      41.904  22.053  27.847  1.00  0.00    -0.237 OA
ATOM     74  O   UNL A   1      39.934  22.449  26.428  1.00  0.00    -0.744 OA
ENDBRANCH  68  71
ENDBRANCH  50  64
BRANCH  51  75
ATOM     75  C   UNL A   1      40.215  32.081  35.530  1.00  0.00     0.023 A 
ATOM     76  C   UNL A   1      41.059  33.127  35.951  1.00  0.00     0.012 A 
ATOM     77  C   UNL A   1      39.099  31.741  36.317  1.00  0.00     0.148 A 
ATOM     78  C   UNL A   1      40.823  33.788  37.156  1.00  0.00     0.002 A 
ATOM     79  C   UNL A   1      38.835  32.443  37.487  1.00  0.00     0.091 A 
ATOM     80  F   UNL A   1      38.321  30.725  35.916  1.00  0.00    -0.205 F 
ATOM     81  C   UNL A   1      39.707  33.453  37.920  1.00  0.00     0.022 A 
BRANCH  79  82
ATOM     82  S   UNL A   1      37.355  32.151  38.461  1.00  0.00     0.127 S 
ATOM     83  O   UNL A   1      37.246  30.696  38.410  1.00  0.00    -0.237 OA
ATOM     84  O   UNL A   1      37.737  32.697  39.764  1.00  0.00    -0.237 OA
ATOM     85  O   UNL A   1      36.297  32.894  37.789  1.00  0.00    -0.744 OA
ENDBRANCH  79  82
ENDBRANCH  51  75
BRANCH  63  86
ATOM     86  C   UNL A   1      44.898  27.105  34.084  1.00  0.00     0.023 A 
ATOM     87  C   UNL A   1      46.162  27.707  34.233  1.00  0.00     0.012 A 
ATOM     88  C   UNL A   1      44.607  25.922  34.795  1.00  0.00     0.148 A 
ATOM     89  C   UNL A   1      47.129  27.130  35.056  1.00  0.00     0.002 A 
ATOM     90  C   UNL A   1      45.559  25.381  35.651  1.00  0.00     0.091 A 
ATOM     91  F   UNL A   1      43.400  25.360  34.632  1.00  0.00    -0.205 F 
ATOM     92  C   UNL A   1      46.823  25.977  35.774  1.00  0.00     0.022 A 
BRANCH  90  93
ATOM     93  S   UNL A   1      45.224  23.954  36.691  1.00  0.00     0.127 S 
ATOM     94  O   UNL A   1      44.523  24.566  37.819  1.00  0.00    -0.237 OA
ATOM     95  O   UNL A   1      44.382  23.130  35.824  1.00  0.00    -0.237 OA
ATOM     96  O   UNL A   1      46.521  23.372  37.008  1.00  0.00    -0.744 OA
ENDBRANCH  90  93
ENDBRANCH  63  86
ENDBRANCH  37  38
ENDBRANCH  30  32
ENDBRANCH  29  30
ENDBRANCH  28  29
ENDBRANCH  27  28
ENDBRANCH  26  27
ENDBRANCH   1  26
TORSDOF 22
ENDMDL
