MODEL 1
REMARK VINA RESULT:     -11.6      0.000      0.000
REMARK SMILES NC(=O)[C@@H]1CCC[N@@H+]1[C@@H](C(=O)OCCOCCOC(=O)c1ccc(-c2c3nc(c(-c4cccc(S(=O)(=O)[O-])c4F)c4ccc([nH]4)c(-c4cccc(S(=O)(=O)[O-])c4F)c4nc(c(-c5cccc(S(=O)(=O)[O-])c5F)c5ccc2[nH]5)C=C4)C=C3)cc1)c1c[nH]c2cc(OCc3ccccc3)ccc12
REMARK SMILES IDX 14 1 13 2 12 3 10 4 11 5 9 6 8 7 4 8 5 9 6 10 7 11 2 13 1 14
REMARK SMILES IDX 3 17 84 18 85 19 100 20 86 21 87 22 99 23 88 25 98 26 89 27
REMARK SMILES IDX 90 28 91 29 92 30 93 31 97 32 94 33 96 34 95 35 15 36 16 37
REMARK SMILES IDX 17 38 18 39 19 40 20 41 21 42 22 43 83 44 23 45 82 46 24 47
REMARK SMILES IDX 25 48 26 49 76 50 27 51 81 52 75 53 77 54 28 55 80 56 74 57
REMARK SMILES IDX 73 58 29 60 61 61 41 62 60 63 42 64 45 65 59 66 78 67 43 68
REMARK SMILES IDX 44 69 58 71 79 72 46 73 30 74 31 75 39 76 32 77 34 78 40 79
REMARK SMILES IDX 33 80 35 81 36 82 37 83 38 84 62 85 63 86 71 87 64 88 66 89
REMARK SMILES IDX 72 90 65 91 67 92 68 93 69 94 70 95 47 96 48 97 56 98 49 99
REMARK SMILES IDX 51 100 57 101 50 102 52 103 53 104 54 105 55 106
REMARK H PARENT 8 12 1 15 1 16 86 24 77 59 45 70
REMARK Flexibility Score: inf
ROOT
ATOM      1  C   UNL A   1      30.271  30.472  24.200  1.00  0.00     0.202 C 
ENDROOT
BRANCH   1   2
ATOM      2  C   UNL A   1      29.558  29.856  22.990  1.00  0.00     0.261 C 
BRANCH   2   3
ATOM      3  O   UNL A   1      29.972  28.484  22.805  1.00  0.00    -0.459 OA
BRANCH   3   4
ATOM      4  C   UNL A   1      31.313  28.215  22.819  1.00  0.00     0.370 C 
ATOM      5  O   UNL A   1      32.153  28.942  22.293  1.00  0.00    -0.245 OA
BRANCH   4   6
ATOM      6  C   UNL A   1      31.658  26.896  23.530  1.00  0.00     0.329 C 
BRANCH   6   7
ATOM      7  N   UNL A   1      32.145  26.994  24.938  1.00  0.00    -0.309 N 
ATOM      8  C   UNL A   1      31.673  26.160  26.054  1.00  0.00     0.275 C 
ATOM      9  C   UNL A   1      31.353  27.192  27.136  1.00  0.00     0.081 C 
ATOM     10  C   UNL A   1      32.435  28.234  26.953  1.00  0.00     0.068 C 
ATOM     11  C   UNL A   1      32.661  28.255  25.454  1.00  0.00     0.264 C 
ATOM     12  H   UNL A   1      32.870  26.415  24.515  1.00  0.00     0.349 HD
BRANCH   8  13
ATOM     13  C   UNL A   1      30.564  25.144  25.754  1.00  0.00     0.275 C 
ATOM     14  N   UNL A   1      29.422  25.237  26.495  1.00  0.00    -0.365 N 
ATOM     15  H   UNL A   1      28.682  24.607  26.339  1.00  0.00     0.159 HD
ATOM     16  H   UNL A   1      29.338  25.933  27.186  1.00  0.00     0.159 HD
ATOM     17  O   UNL A   1      30.681  24.232  24.938  1.00  0.00    -0.268 OA
ENDBRANCH   8  13
ENDBRANCH   6   7
BRANCH   6  18
ATOM     18  C   UNL A   1      32.648  25.991  22.772  1.00  0.00     0.046 A 
ATOM     19  C   UNL A   1      32.533  25.764  21.407  1.00  0.00     0.094 A 
ATOM     20  C   UNL A   1      33.533  24.953  23.247  1.00  0.00     0.009 A 
ATOM     21  N   UNL A   1      32.805  24.435  21.217  1.00  0.00    -0.361 N 
ATOM     22  C   UNL A   1      33.272  23.888  22.385  1.00  0.00     0.050 A 
ATOM     23  C   UNL A   1      34.306  24.670  24.392  1.00  0.00     0.015 A 
ATOM     24  H   UNL A   1      32.684  23.946  20.371  1.00  0.00     0.166 HD
ATOM     25  C   UNL A   1      33.417  22.558  22.778  1.00  0.00     0.073 A 
ATOM     26  C   UNL A   1      34.590  23.331  24.742  1.00  0.00     0.047 A 
ATOM     27  C   UNL A   1      34.056  22.290  23.992  1.00  0.00     0.121 A 
BRANCH  27  28
ATOM     28  O   UNL A   1      34.011  20.976  24.368  1.00  0.00    -0.489 OA
BRANCH  28  29
ATOM     29  C   UNL A   1      32.870  20.199  24.000  1.00  0.00     0.265 C 
BRANCH  29  30
ATOM     30  C   UNL A   1      33.055  18.721  24.289  1.00  0.00    -0.011 A 
ATOM     31  C   UNL A   1      33.521  17.872  23.275  1.00  0.00     0.007 A 
ATOM     32  C   UNL A   1      32.732  18.152  25.528  1.00  0.00     0.007 A 
ATOM     33  C   UNL A   1      33.658  16.499  23.502  1.00  0.00     0.000 A 
ATOM     34  C   UNL A   1      32.867  16.784  25.758  1.00  0.00     0.000 A 
ATOM     35  C   UNL A   1      33.327  15.957  24.742  1.00  0.00     0.000 A 
ENDBRANCH  29  30
ENDBRANCH  28  29
ENDBRANCH  27  28
ENDBRANCH   6  18
ENDBRANCH   4   6
ENDBRANCH   3   4
ENDBRANCH   2   3
ENDBRANCH   1   2
BRANCH   1  36
ATOM     36  O   UNL A   1      29.750  31.717  24.682  1.00  0.00    -0.374 OA
BRANCH  36  37
ATOM     37  C   UNL A   1      30.640  32.525  25.440  1.00  0.00     0.202 C 
BRANCH  37  38
ATOM     38  C   UNL A   1      31.186  31.940  26.746  1.00  0.00     0.261 C 
BRANCH  38  39
ATOM     39  O   UNL A   1      32.599  31.782  26.746  1.00  0.00    -0.460 OA
BRANCH  39  40
ATOM     40  C   UNL A   1      33.235  32.742  27.444  1.00  0.00     0.338 C 
ATOM     41  O   UNL A   1      32.807  33.849  27.759  1.00  0.00    -0.246 OA
BRANCH  40  42
ATOM     42  C   UNL A   1      34.495  32.200  27.945  1.00  0.00     0.060 A 
ATOM     43  C   UNL A   1      34.503  30.847  28.289  1.00  0.00     0.016 A 
ATOM     44  C   UNL A   1      35.628  33.002  28.111  1.00  0.00     0.016 A 
ATOM     45  C   UNL A   1      35.636  30.299  28.870  1.00  0.00     0.010 A 
ATOM     46  C   UNL A   1      36.768  32.448  28.691  1.00  0.00     0.010 A 
ATOM     47  C   UNL A   1      36.756  31.108  29.113  1.00  0.00    -0.014 A 
BRANCH  47  48
ATOM     48  C   UNL A   1      37.848  30.559  29.942  1.00  0.00     0.031 A 
ATOM     49  C   UNL A   1      38.780  29.549  29.340  1.00  0.00     0.074 A 
ATOM     50  C   UNL A   1      38.035  31.010  31.194  1.00  0.00     0.049 A 
ATOM     51  N   UNL A   1      39.868  29.031  29.846  1.00  0.00    -0.248 NA
ATOM     52  C   UNL A   1      38.451  29.059  27.991  1.00  0.00     0.031 C 
ATOM     53  C   UNL A   1      37.182  31.981  31.878  1.00  0.00     0.029 A 
ATOM     54  N   UNL A   1      39.006  30.705  32.111  1.00  0.00    -0.354 N 
ATOM     55  C   UNL A   1      40.349  28.153  28.884  1.00  0.00     0.074 A 
ATOM     56  C   UNL A   1      39.423  28.184  27.775  1.00  0.00     0.031 C 
ATOM     57  C   UNL A   1      37.662  32.182  33.117  1.00  0.00     0.029 A 
ATOM     58  C   UNL A   1      38.849  31.351  33.312  1.00  0.00     0.049 A 
ATOM     59  H   UNL A   1      39.746  30.081  31.927  1.00  0.00     0.167 HD
ATOM     60  C   UNL A   1      41.478  27.408  28.912  1.00  0.00     0.034 A 
ATOM     61  C   UNL A   1      39.584  31.279  34.438  1.00  0.00     0.034 A 
ATOM     62  C   UNL A   1      42.408  27.397  30.007  1.00  0.00     0.049 A 
ATOM     63  C   UNL A   1      40.825  30.428  34.448  1.00  0.00     0.074 A 
ATOM     64  C   UNL A   1      43.612  26.725  30.107  1.00  0.00     0.029 A 
ATOM     65  N   UNL A   1      42.229  28.080  31.201  1.00  0.00    -0.354 N 
ATOM     66  N   UNL A   1      41.352  29.726  33.473  1.00  0.00    -0.248 NA
ATOM     67  C   UNL A   1      41.595  30.389  35.700  1.00  0.00     0.031 C 
ATOM     68  C   UNL A   1      44.150  26.982  31.372  1.00  0.00     0.029 A 
ATOM     69  C   UNL A   1      43.290  27.828  32.053  1.00  0.00     0.049 A 
ATOM     70  H   UNL A   1      41.460  28.657  31.411  1.00  0.00     0.167 HD
ATOM     71  C   UNL A   1      42.525  29.182  33.985  1.00  0.00     0.074 A 
ATOM     72  C   UNL A   1      42.647  29.660  35.347  1.00  0.00     0.031 C 
ATOM     73  C   UNL A   1      43.414  28.348  33.390  1.00  0.00     0.034 A 
BRANCH  60  74
ATOM     74  C   UNL A   1      41.792  26.573  27.701  1.00  0.00     0.023 A 
ATOM     75  C   UNL A   1      42.404  27.176  26.584  1.00  0.00     0.012 A 
ATOM     76  C   UNL A   1      41.535  25.189  27.690  1.00  0.00     0.148 A 
ATOM     77  C   UNL A   1      42.737  26.418  25.463  1.00  0.00     0.002 A 
ATOM     78  C   UNL A   1      41.903  24.433  26.583  1.00  0.00     0.091 A 
ATOM     79  F   UNL A   1      40.924  24.643  28.750  1.00  0.00    -0.205 F 
ATOM     80  C   UNL A   1      42.497  25.046  25.467  1.00  0.00     0.022 A 
BRANCH  78  81
ATOM     81  S   UNL A   1      41.694  22.650  26.520  1.00  0.00     0.127 S 
ATOM     82  O   UNL A   1      40.239  22.523  26.572  1.00  0.00    -0.237 OA
ATOM     83  O   UNL A   1      42.290  22.316  25.226  1.00  0.00    -0.237 OA
ATOM     84  O   UNL A   1      42.411  22.122  27.672  1.00  0.00    -0.744 OA
ENDBRANCH  78  81
ENDBRANCH  60  74
BRANCH  61  85
ATOM     85  C   UNL A   1      39.184  32.070  35.634  1.00  0.00     0.023 A 
ATOM     86  C   UNL A   1      38.359  31.488  36.615  1.00  0.00     0.012 A 
ATOM     87  C   UNL A   1      39.643  33.388  35.816  1.00  0.00     0.148 A 
ATOM     88  C   UNL A   1      37.976  32.215  37.743  1.00  0.00     0.002 A 
ATOM     89  C   UNL A   1      39.305  34.087  36.969  1.00  0.00     0.091 A 
ATOM     90  F   UNL A   1      40.409  33.933  34.861  1.00  0.00    -0.205 F 
ATOM     91  C   UNL A   1      38.458  33.509  37.926  1.00  0.00     0.022 A 
BRANCH  89  92
ATOM     92  S   UNL A   1      40.005  35.699  37.339  1.00  0.00     0.127 S 
ATOM     93  O   UNL A   1      39.651  36.461  36.146  1.00  0.00    -0.237 OA
ATOM     94  O   UNL A   1      39.279  36.076  38.553  1.00  0.00    -0.237 OA
ATOM     95  O   UNL A   1      41.427  35.460  37.549  1.00  0.00    -0.744 OA
ENDBRANCH  89  92
ENDBRANCH  61  85
BRANCH  73  96
ATOM     96  C   UNL A   1      44.599  27.899  34.202  1.00  0.00     0.023 A 
ATOM     97  C   UNL A   1      45.743  28.719  34.269  1.00  0.00     0.012 A 
ATOM     98  C   UNL A   1      44.553  26.712  34.960  1.00  0.00     0.148 A 
ATOM     99  C   UNL A   1      46.834  28.352  35.055  1.00  0.00     0.002 A 
ATOM    100  C   UNL A   1      45.625  26.375  35.776  1.00  0.00     0.091 A 
ATOM    101  F   UNL A   1      43.463  25.936  34.868  1.00  0.00    -0.205 F 
ATOM    102  C   UNL A   1      46.770  27.187  35.818  1.00  0.00     0.022 A 
BRANCH 100 103
ATOM    103  S   UNL A   1      45.592  24.943  36.861  1.00  0.00     0.127 S 
ATOM    104  O   UNL A   1      44.370  25.178  37.626  1.00  0.00    -0.237 OA
ATOM    105  O   UNL A   1      45.514  23.832  35.912  1.00  0.00    -0.237 OA
ATOM    106  O   UNL A   1      46.832  24.994  37.625  1.00  0.00    -0.744 OA
ENDBRANCH 100 103
ENDBRANCH  73  96
ENDBRANCH  47  48
ENDBRANCH  40  42
ENDBRANCH  39  40
ENDBRANCH  38  39
ENDBRANCH  37  38
ENDBRANCH  36  37
ENDBRANCH   1  36
TORSDOF 23
ENDMDL
MODEL 2
REMARK VINA RESULT:     -11.2      1.667      2.047
REMARK SMILES NC(=O)[C@@H]1CCC[N@@H+]1[C@@H](C(=O)OCCOCCOC(=O)c1ccc(-c2c3nc(c(-c4cccc(S(=O)(=O)[O-])c4F)c4ccc([nH]4)c(-c4cccc(S(=O)(=O)[O-])c4F)c4nc(c(-c5cccc(S(=O)(=O)[O-])c5F)c5ccc2[nH]5)C=C4)C=C3)cc1)c1c[nH]c2cc(OCc3ccccc3)ccc12
REMARK SMILES IDX 14 1 13 2 12 3 10 4 11 5 9 6 8 7 4 8 5 9 6 10 7 11 2 13 1 14
REMARK SMILES IDX 3 17 84 18 85 19 100 20 86 21 87 22 99 23 88 25 98 26 89 27
REMARK SMILES IDX 90 28 91 29 92 30 93 31 97 32 94 33 96 34 95 35 15 36 16 37
REMARK SMILES IDX 17 38 18 39 19 40 20 41 21 42 22 43 83 44 23 45 82 46 24 47
REMARK SMILES IDX 25 48 26 49 76 50 27 51 81 52 75 53 77 54 28 55 80 56 74 57
REMARK SMILES IDX 73 58 29 60 61 61 41 62 60 63 42 64 45 65 59 66 78 67 43 68
REMARK SMILES IDX 44 69 58 71 79 72 46 73 30 74 31 75 39 76 32 77 34 78 40 79
REMARK SMILES IDX 33 80 35 81 36 82 37 83 38 84 62 85 63 86 71 87 64 88 66 89
REMARK SMILES IDX 72 90 65 91 67 92 68 93 69 94 70 95 47 96 48 97 56 98 49 99
REMARK SMILES IDX 51 100 57 101 50 102 52 103 53 104 54 105 55 106
REMARK H PARENT 8 12 1 15 1 16 86 24 77 59 45 70
REMARK Flexibility Score: inf
ROOT
ATOM      1  C   UNL A   1      31.432  30.527  25.313  1.00  0.00     0.202 C 
ENDROOT
BRANCH   1   2
ATOM      2  C   UNL A   1      30.346  30.315  24.251  1.00  0.00     0.261 C 
BRANCH   2   3
ATOM      3  O   UNL A   1      30.416  28.973  23.719  1.00  0.00    -0.459 OA
BRANCH   3   4
ATOM      4  C   UNL A   1      31.625  28.533  23.256  1.00  0.00     0.370 C 
ATOM      5  O   UNL A   1      32.232  29.073  22.333  1.00  0.00    -0.245 OA
BRANCH   4   6
ATOM      6  C   UNL A   1      32.130  27.276  23.983  1.00  0.00     0.329 C 
BRANCH   6   7
ATOM      7  N   UNL A   1      33.189  27.472  25.017  1.00  0.00    -0.309 N 
ATOM      8  C   UNL A   1      33.062  27.102  26.435  1.00  0.00     0.275 C 
ATOM      9  C   UNL A   1      33.509  28.375  27.158  1.00  0.00     0.081 C 
ATOM     10  C   UNL A   1      34.620  28.903  26.278  1.00  0.00     0.068 C 
ATOM     11  C   UNL A   1      34.168  28.542  24.876  1.00  0.00     0.264 C 
ATOM     12  H   UNL A   1      33.492  26.601  24.583  1.00  0.00     0.349 HD
BRANCH   8  13
ATOM     13  C   UNL A   1      31.723  26.512  26.891  1.00  0.00     0.275 C 
ATOM     14  N   UNL A   1      30.791  27.386  27.371  1.00  0.00    -0.365 N 
ATOM     15  H   UNL A   1      29.916  27.054  27.676  1.00  0.00     0.159 HD
ATOM     16  H   UNL A   1      30.995  28.349  27.412  1.00  0.00     0.159 HD
ATOM     17  O   UNL A   1      31.481  25.307  26.904  1.00  0.00    -0.268 OA
ENDBRANCH   8  13
ENDBRANCH   6   7
BRANCH   6  18
ATOM     18  C   UNL A   1      32.609  26.140  23.058  1.00  0.00     0.046 A 
ATOM     19  C   UNL A   1      31.829  25.677  22.006  1.00  0.00     0.094 A 
ATOM     20  C   UNL A   1      33.607  25.116  23.258  1.00  0.00     0.009 A 
ATOM     21  N   UNL A   1      31.964  24.314  22.003  1.00  0.00    -0.361 N 
ATOM     22  C   UNL A   1      32.947  23.946  22.885  1.00  0.00     0.050 A 
ATOM     23  C   UNL A   1      34.846  24.967  23.915  1.00  0.00     0.015 A 
ATOM     24  H   UNL A   1      31.436  23.693  21.451  1.00  0.00     0.166 HD
ATOM     25  C   UNL A   1      33.262  22.704  23.438  1.00  0.00     0.073 A 
ATOM     26  C   UNL A   1      35.259  23.693  24.366  1.00  0.00     0.047 A 
ATOM     27  C   UNL A   1      34.418  22.597  24.216  1.00  0.00     0.121 A 
BRANCH  27  28
ATOM     28  O   UNL A   1      34.559  21.389  24.842  1.00  0.00    -0.489 OA
BRANCH  28  29
ATOM     29  C   UNL A   1      33.393  20.596  25.066  1.00  0.00     0.265 C 
BRANCH  29  30
ATOM     30  C   UNL A   1      33.454  19.258  24.354  1.00  0.00    -0.011 A 
ATOM     31  C   UNL A   1      34.519  18.384  24.614  1.00  0.00     0.007 A 
ATOM     32  C   UNL A   1      32.503  18.871  23.399  1.00  0.00     0.007 A 
ATOM     33  C   UNL A   1      34.622  17.164  23.939  1.00  0.00     0.000 A 
ATOM     34  C   UNL A   1      32.602  17.656  22.724  1.00  0.00     0.000 A 
ATOM     35  C   UNL A   1      33.666  16.803  22.991  1.00  0.00     0.000 A 
ENDBRANCH  29  30
ENDBRANCH  28  29
ENDBRANCH  27  28
ENDBRANCH   6  18
ENDBRANCH   4   6
ENDBRANCH   3   4
ENDBRANCH   2   3
ENDBRANCH   1   2
BRANCH   1  36
ATOM     36  O   UNL A   1      31.041  31.245  26.490  1.00  0.00    -0.374 OA
BRANCH  36  37
ATOM     37  C   UNL A   1      31.403  32.618  26.545  1.00  0.00     0.202 C 
BRANCH  37  38
ATOM     38  C   UNL A   1      32.459  33.029  27.575  1.00  0.00     0.261 C 
BRANCH  38  39
ATOM     39  O   UNL A   1      32.701  34.430  27.608  1.00  0.00    -0.460 OA
BRANCH  39  40
ATOM     40  C   UNL A   1      33.179  34.853  28.794  1.00  0.00     0.338 C 
ATOM     41  O   UNL A   1      32.704  35.712  29.532  1.00  0.00    -0.246 OA
BRANCH  40  42
ATOM     42  C   UNL A   1      34.294  33.993  29.182  1.00  0.00     0.060 A 
ATOM     43  C   UNL A   1      34.001  32.939  30.049  1.00  0.00     0.016 A 
ATOM     44  C   UNL A   1      35.599  34.235  28.742  1.00  0.00     0.016 A 
ATOM     45  C   UNL A   1      35.033  32.153  30.538  1.00  0.00     0.010 A 
ATOM     46  C   UNL A   1      36.634  33.441  29.231  1.00  0.00     0.010 A 
ATOM     47  C   UNL A   1      36.357  32.429  30.166  1.00  0.00    -0.014 A 
BRANCH  47  48
ATOM     48  C   UNL A   1      37.444  31.734  30.883  1.00  0.00     0.031 A 
ATOM     49  C   UNL A   1      38.226  30.672  30.165  1.00  0.00     0.074 A 
ATOM     50  C   UNL A   1      37.764  32.095  32.137  1.00  0.00     0.049 A 
ATOM     51  N   UNL A   1      39.290  30.026  30.562  1.00  0.00    -0.248 NA
ATOM     52  C   UNL A   1      37.755  30.291  28.823  1.00  0.00     0.031 C 
ATOM     53  C   UNL A   1      37.063  33.105  32.929  1.00  0.00     0.029 A 
ATOM     54  N   UNL A   1      38.762  31.650  32.963  1.00  0.00    -0.354 N 
ATOM     55  C   UNL A   1      39.612  29.159  29.526  1.00  0.00     0.074 A 
ATOM     56  C   UNL A   1      38.617  29.340  28.493  1.00  0.00     0.031 C 
ATOM     57  C   UNL A   1      37.646  33.192  34.136  1.00  0.00     0.029 A 
ATOM     58  C   UNL A   1      38.755  32.242  34.201  1.00  0.00     0.049 A 
ATOM     59  H   UNL A   1      39.421  30.968  32.693  1.00  0.00     0.167 HD
ATOM     60  C   UNL A   1      40.659  28.308  29.434  1.00  0.00     0.034 A 
ATOM     61  C   UNL A   1      39.557  32.038  35.264  1.00  0.00     0.034 A 
ATOM     62  C   UNL A   1      41.658  28.149  30.454  1.00  0.00     0.049 A 
ATOM     63  C   UNL A   1      40.705  31.072  35.140  1.00  0.00     0.074 A 
ATOM     64  C   UNL A   1      42.793  27.360  30.431  1.00  0.00     0.029 A 
ATOM     65  N   UNL A   1      41.633  28.780  31.688  1.00  0.00    -0.354 N 
ATOM     66  N   UNL A   1      41.088  30.377  34.096  1.00  0.00    -0.248 NA
ATOM     67  C   UNL A   1      41.553  30.891  36.326  1.00  0.00     0.031 C 
ATOM     68  C   UNL A   1      43.443  27.495  31.662  1.00  0.00     0.029 A 
ATOM     69  C   UNL A   1      42.721  28.381  32.445  1.00  0.00     0.049 A 
ATOM     70  H   UNL A   1      40.943  29.416  31.983  1.00  0.00     0.167 HD
ATOM     71  C   UNL A   1      42.235  29.696  34.491  1.00  0.00     0.074 A 
ATOM     72  C   UNL A   1      42.499  30.085  35.861  1.00  0.00     0.031 C 
ATOM     73  C   UNL A   1      42.991  28.814  33.791  1.00  0.00     0.034 A 
BRANCH  60  74
ATOM     74  C   UNL A   1      40.802  27.514  28.165  1.00  0.00     0.023 A 
ATOM     75  C   UNL A   1      41.429  28.102  27.047  1.00  0.00     0.012 A 
ATOM     76  C   UNL A   1      40.370  26.176  28.095  1.00  0.00     0.148 A 
ATOM     77  C   UNL A   1      41.604  27.375  25.870  1.00  0.00     0.002 A 
ATOM     78  C   UNL A   1      40.582  25.447  26.931  1.00  0.00     0.091 A 
ATOM     79  F   UNL A   1      39.749  25.649  29.160  1.00  0.00    -0.205 F 
ATOM     80  C   UNL A   1      41.191  26.046  25.817  1.00  0.00     0.022 A 
BRANCH  78  81
ATOM     81  S   UNL A   1      40.143  23.711  26.787  1.00  0.00     0.127 S 
ATOM     82  O   UNL A   1      40.293  23.255  28.167  1.00  0.00    -0.237 OA
ATOM     83  O   UNL A   1      38.760  23.781  26.314  1.00  0.00    -0.237 OA
ATOM     84  O   UNL A   1      41.082  23.140  25.831  1.00  0.00    -0.744 OA
ENDBRANCH  78  81
ENDBRANCH  60  74
BRANCH  61  85
ATOM     85  C   UNL A   1      39.323  32.797  36.522  1.00  0.00     0.023 A 
ATOM     86  C   UNL A   1      39.928  34.055  36.704  1.00  0.00     0.012 A 
ATOM     87  C   UNL A   1      38.479  32.289  37.528  1.00  0.00     0.148 A 
ATOM     88  C   UNL A   1      39.718  34.781  37.877  1.00  0.00     0.002 A 
ATOM     89  C   UNL A   1      38.228  33.043  38.668  1.00  0.00     0.091 A 
ATOM     90  F   UNL A   1      37.928  31.080  37.346  1.00  0.00    -0.205 F 
ATOM     91  C   UNL A   1      38.860  34.281  38.854  1.00  0.00     0.022 A 
BRANCH  89  92
ATOM     92  S   UNL A   1      37.023  32.528  39.897  1.00  0.00     0.127 S 
ATOM     93  O   UNL A   1      35.802  32.441  39.103  1.00  0.00    -0.237 OA
ATOM     94  O   UNL A   1      37.567  31.243  40.339  1.00  0.00    -0.237 OA
ATOM     95  O   UNL A   1      37.050  33.567  40.919  1.00  0.00    -0.744 OA
ENDBRANCH  89  92
ENDBRANCH  61  85
BRANCH  73  96
ATOM     96  C   UNL A   1      44.180  28.209  34.489  1.00  0.00     0.023 A 
ATOM     97  C   UNL A   1      45.423  28.869  34.436  1.00  0.00     0.012 A 
ATOM     98  C   UNL A   1      44.050  27.038  35.262  1.00  0.00     0.148 A 
ATOM     99  C   UNL A   1      46.528  28.358  35.116  1.00  0.00     0.002 A 
ATOM    100  C   UNL A   1      45.144  26.559  35.974  1.00  0.00     0.091 A 
ATOM    101  F   UNL A   1      42.863  26.414  35.286  1.00  0.00    -0.205 F 
ATOM    102  C   UNL A   1      46.384  27.211  35.894  1.00  0.00     0.022 A 
BRANCH 100 103
ATOM    103  S   UNL A   1      45.027  25.143  37.073  1.00  0.00     0.127 S 
ATOM    104  O   UNL A   1      46.393  25.046  37.581  1.00  0.00    -0.237 OA
ATOM    105  O   UNL A   1      44.041  25.591  38.059  1.00  0.00    -0.237 OA
ATOM    106  O   UNL A   1      44.584  24.030  36.244  1.00  0.00    -0.744 OA
ENDBRANCH 100 103
ENDBRANCH  73  96
ENDBRANCH  47  48
ENDBRANCH  40  42
ENDBRANCH  39  40
ENDBRANCH  38  39
ENDBRANCH  37  38
ENDBRANCH  36  37
ENDBRANCH   1  36
TORSDOF 23
ENDMDL
MODEL 3
REMARK VINA RESULT:     -10.8      4.813      9.415
REMARK SMILES NC(=O)[C@@H]1CCC[N@@H+]1[C@@H](C(=O)OCCOCCOC(=O)c1ccc(-c2c3nc(c(-c4cccc(S(=O)(=O)[O-])c4F)c4ccc([nH]4)c(-c4cccc(S(=O)(=O)[O-])c4F)c4nc(c(-c5cccc(S(=O)(=O)[O-])c5F)c5ccc2[nH]5)C=C4)C=C3)cc1)c1c[nH]c2cc(OCc3ccccc3)ccc12
REMARK SMILES IDX 14 1 13 2 12 3 10 4 11 5 9 6 8 7 4 8 5 9 6 10 7 11 2 13 1 14
REMARK SMILES IDX 3 17 84 18 85 19 100 20 86 21 87 22 99 23 88 25 98 26 89 27
REMARK SMILES IDX 90 28 91 29 92 30 93 31 97 32 94 33 96 34 95 35 15 36 16 37
REMARK SMILES IDX 17 38 18 39 19 40 20 41 21 42 22 43 83 44 23 45 82 46 24 47
REMARK SMILES IDX 25 48 26 49 76 50 27 51 81 52 75 53 77 54 28 55 80 56 74 57
REMARK SMILES IDX 73 58 29 60 61 61 41 62 60 63 42 64 45 65 59 66 78 67 43 68
REMARK SMILES IDX 44 69 58 71 79 72 46 73 30 74 31 75 39 76 32 77 34 78 40 79
REMARK SMILES IDX 33 80 35 81 36 82 37 83 38 84 62 85 63 86 71 87 64 88 66 89
REMARK SMILES IDX 72 90 65 91 67 92 68 93 69 94 70 95 47 96 48 97 56 98 49 99
REMARK SMILES IDX 51 100 57 101 50 102 52 103 53 104 54 105 55 106
REMARK H PARENT 8 12 1 15 1 16 86 24 77 59 45 70
REMARK Flexibility Score: inf
ROOT
ATOM      1  C   UNL A   1      35.078  19.584  24.954  1.00  0.00     0.202 C 
ENDROOT
BRANCH   1   2
ATOM      2  C   UNL A   1      33.793  20.341  24.597  1.00  0.00     0.261 C 
BRANCH   2   3
ATOM      3  O   UNL A   1      33.421  21.238  25.667  1.00  0.00    -0.459 OA
BRANCH   3   4
ATOM      4  C   UNL A   1      32.247  21.928  25.541  1.00  0.00     0.370 C 
ATOM      5  O   UNL A   1      31.142  21.416  25.710  1.00  0.00    -0.245 OA
BRANCH   4   6
ATOM      6  C   UNL A   1      32.449  23.397  25.136  1.00  0.00     0.329 C 
BRANCH   6   7
ATOM      7  N   UNL A   1      33.818  23.965  25.314  1.00  0.00    -0.309 N 
ATOM      8  C   UNL A   1      34.660  24.493  24.229  1.00  0.00     0.275 C 
ATOM      9  C   UNL A   1      35.996  23.786  24.463  1.00  0.00     0.081 C 
ATOM     10  C   UNL A   1      36.097  23.724  25.972  1.00  0.00     0.068 C 
ATOM     11  C   UNL A   1      34.661  23.525  26.418  1.00  0.00     0.264 C 
ATOM     12  H   UNL A   1      33.236  24.766  25.557  1.00  0.00     0.349 HD
BRANCH   8  13
ATOM     13  C   UNL A   1      34.104  24.410  22.803  1.00  0.00     0.275 C 
ATOM     14  N   UNL A   1      33.958  23.164  22.265  1.00  0.00    -0.365 N 
ATOM     15  H   UNL A   1      33.605  23.060  21.353  1.00  0.00     0.159 HD
ATOM     16  H   UNL A   1      34.207  22.369  22.791  1.00  0.00     0.159 HD
ATOM     17  O   UNL A   1      33.849  25.396  22.114  1.00  0.00    -0.268 OA
ENDBRANCH   8  13
ENDBRANCH   6   7
BRANCH   6  18
ATOM     18  C   UNL A   1      31.462  24.389  25.781  1.00  0.00     0.046 A 
ATOM     19  C   UNL A   1      30.584  23.998  26.784  1.00  0.00     0.094 A 
ATOM     20  C   UNL A   1      30.944  25.650  25.305  1.00  0.00     0.009 A 
ATOM     21  N   UNL A   1      29.394  24.620  26.512  1.00  0.00    -0.361 N 
ATOM     22  C   UNL A   1      29.569  25.526  25.497  1.00  0.00     0.050 A 
ATOM     23  C   UNL A   1      31.383  26.745  24.532  1.00  0.00     0.015 A 
ATOM     24  H   UNL A   1      28.543  24.444  26.974  1.00  0.00     0.166 HD
ATOM     25  C   UNL A   1      28.641  26.186  24.690  1.00  0.00     0.073 A 
ATOM     26  C   UNL A   1      30.449  27.522  23.811  1.00  0.00     0.047 A 
ATOM     27  C   UNL A   1      29.105  27.172  23.814  1.00  0.00     0.121 A 
BRANCH  27  28
ATOM     28  O   UNL A   1      28.152  27.649  22.957  1.00  0.00    -0.489 OA
BRANCH  28  29
ATOM     29  C   UNL A   1      27.288  28.693  23.408  1.00  0.00     0.265 C 
BRANCH  29  30
ATOM     30  C   UNL A   1      27.659  30.045  22.830  1.00  0.00    -0.011 A 
ATOM     31  C   UNL A   1      28.019  30.144  21.479  1.00  0.00     0.007 A 
ATOM     32  C   UNL A   1      27.703  31.209  23.610  1.00  0.00     0.007 A 
ATOM     33  C   UNL A   1      28.407  31.371  20.933  1.00  0.00     0.000 A 
ATOM     34  C   UNL A   1      28.089  32.434  23.070  1.00  0.00     0.000 A 
ATOM     35  C   UNL A   1      28.446  32.514  21.730  1.00  0.00     0.000 A 
ENDBRANCH  29  30
ENDBRANCH  28  29
ENDBRANCH  27  28
ENDBRANCH   6  18
ENDBRANCH   4   6
ENDBRANCH   3   4
ENDBRANCH   2   3
ENDBRANCH   1   2
BRANCH   1  36
ATOM     36  O   UNL A   1      36.202  20.382  25.344  1.00  0.00    -0.374 OA
BRANCH  36  37
ATOM     37  C   UNL A   1      37.406  20.179  24.618  1.00  0.00     0.202 C 
BRANCH  37  38
ATOM     38  C   UNL A   1      38.541  19.433  25.327  1.00  0.00     0.261 C 
BRANCH  38  39
ATOM     39  O   UNL A   1      39.231  20.231  26.281  1.00  0.00    -0.460 OA
BRANCH  39  40
ATOM     40  C   UNL A   1      40.559  20.008  26.289  1.00  0.00     0.338 C 
ATOM     41  O   UNL A   1      41.153  18.996  25.928  1.00  0.00    -0.246 OA
BRANCH  40  42
ATOM     42  C   UNL A   1      41.239  21.252  26.640  1.00  0.00     0.060 A 
ATOM     43  C   UNL A   1      41.330  21.556  27.999  1.00  0.00     0.016 A 
ATOM     44  C   UNL A   1      41.740  22.118  25.663  1.00  0.00     0.016 A 
ATOM     45  C   UNL A   1      41.868  22.771  28.391  1.00  0.00     0.010 A 
ATOM     46  C   UNL A   1      42.286  23.338  26.059  1.00  0.00     0.010 A 
ATOM     47  C   UNL A   1      42.308  23.685  27.421  1.00  0.00    -0.014 A 
BRANCH  47  48
ATOM     48  C   UNL A   1      42.651  25.053  27.854  1.00  0.00     0.031 A 
ATOM     49  C   UNL A   1      44.074  25.518  27.736  1.00  0.00     0.074 A 
ATOM     50  C   UNL A   1      41.689  25.885  28.288  1.00  0.00     0.049 A 
ATOM     51  N   UNL A   1      44.569  26.709  27.944  1.00  0.00    -0.248 NA
ATOM     52  C   UNL A   1      45.070  24.515  27.324  1.00  0.00     0.031 C 
ATOM     53  C   UNL A   1      40.279  25.532  28.453  1.00  0.00     0.029 A 
ATOM     54  N   UNL A   1      41.757  27.199  28.671  1.00  0.00    -0.354 N 
ATOM     55  C   UNL A   1      45.931  26.599  27.695  1.00  0.00     0.074 A 
ATOM     56  C   UNL A   1      46.192  25.220  27.348  1.00  0.00     0.031 C 
ATOM     57  C   UNL A   1      39.616  26.603  28.918  1.00  0.00     0.029 A 
ATOM     58  C   UNL A   1      40.553  27.712  29.088  1.00  0.00     0.049 A 
ATOM     59  H   UNL A   1      42.589  27.724  28.649  1.00  0.00     0.167 HD
ATOM     60  C   UNL A   1      46.874  27.568  27.727  1.00  0.00     0.034 A 
ATOM     61  C   UNL A   1      40.248  28.938  29.553  1.00  0.00     0.034 A 
ATOM     62  C   UNL A   1      46.606  28.942  28.051  1.00  0.00     0.049 A 
ATOM     63  C   UNL A   1      41.321  29.992  29.594  1.00  0.00     0.074 A 
ATOM     64  C   UNL A   1      47.481  30.012  28.051  1.00  0.00     0.029 A 
ATOM     65  N   UNL A   1      45.372  29.432  28.449  1.00  0.00    -0.354 N 
ATOM     66  N   UNL A   1      42.572  29.913  29.205  1.00  0.00    -0.248 NA
ATOM     67  C   UNL A   1      40.934  31.316  30.103  1.00  0.00     0.031 C 
ATOM     68  C   UNL A   1      46.780  31.147  28.472  1.00  0.00     0.029 A 
ATOM     69  C   UNL A   1      45.465  30.786  28.719  1.00  0.00     0.049 A 
ATOM     70  H   UNL A   1      44.550  28.895  28.529  1.00  0.00     0.167 HD
ATOM     71  C   UNL A   1      43.113  31.179  29.399  1.00  0.00     0.074 A 
ATOM     72  C   UNL A   1      42.047  32.014  29.913  1.00  0.00     0.031 C 
ATOM     73  C   UNL A   1      44.382  31.609  29.188  1.00  0.00     0.034 A 
BRANCH  60  74
ATOM     74  C   UNL A   1      48.281  27.182  27.361  1.00  0.00     0.023 A 
ATOM     75  C   UNL A   1      48.619  27.005  26.004  1.00  0.00     0.012 A 
ATOM     76  C   UNL A   1      49.277  27.052  28.347  1.00  0.00     0.148 A 
ATOM     77  C   UNL A   1      49.924  26.682  25.635  1.00  0.00     0.002 A 
ATOM     78  C   UNL A   1      50.583  26.766  27.969  1.00  0.00     0.091 A 
ATOM     79  F   UNL A   1      48.925  27.195  29.633  1.00  0.00    -0.205 F 
ATOM     80  C   UNL A   1      50.907  26.573  26.616  1.00  0.00     0.022 A 
BRANCH  78  81
ATOM     81  S   UNL A   1      51.931  26.670  29.152  1.00  0.00     0.127 S 
ATOM     82  O   UNL A   1      51.496  25.564  30.004  1.00  0.00    -0.237 OA
ATOM     83  O   UNL A   1      53.075  26.364  28.292  1.00  0.00    -0.237 OA
ATOM     84  O   UNL A   1      51.990  27.973  29.798  1.00  0.00    -0.744 OA
ENDBRANCH  78  81
ENDBRANCH  60  74
BRANCH  61  85
ATOM     85  C   UNL A   1      38.854  29.243  29.974  1.00  0.00     0.023 A 
ATOM     86  C   UNL A   1      38.443  28.965  31.291  1.00  0.00     0.012 A 
ATOM     87  C   UNL A   1      37.941  29.834  29.080  1.00  0.00     0.148 A 
ATOM     88  C   UNL A   1      37.139  29.247  31.702  1.00  0.00     0.002 A 
ATOM     89  C   UNL A   1      36.662  30.165  29.513  1.00  0.00     0.091 A 
ATOM     90  F   UNL A   1      38.344  30.071  27.824  1.00  0.00    -0.205 F 
ATOM     91  C   UNL A   1      36.253  29.857  30.818  1.00  0.00     0.022 A 
BRANCH  89  92
ATOM     92  S   UNL A   1      35.519  31.082  28.474  1.00  0.00     0.127 S 
ATOM     93  O   UNL A   1      34.621  31.670  29.463  1.00  0.00    -0.237 OA
ATOM     94  O   UNL A   1      36.409  32.032  27.805  1.00  0.00    -0.237 OA
ATOM     95  O   UNL A   1      34.931  30.091  27.583  1.00  0.00    -0.744 OA
ENDBRANCH  89  92
ENDBRANCH  61  85
BRANCH  73  96
ATOM     96  C   UNL A   1      44.691  33.048  29.508  1.00  0.00     0.023 A 
ATOM     97  C   UNL A   1      45.098  33.394  30.811  1.00  0.00     0.012 A 
ATOM     98  C   UNL A   1      44.659  34.038  28.506  1.00  0.00     0.148 A 
ATOM     99  C   UNL A   1      45.440  34.710  31.121  1.00  0.00     0.002 A 
ATOM    100  C   UNL A   1      45.044  35.338  28.811  1.00  0.00     0.091 A 
ATOM    101  F   UNL A   1      44.251  33.691  27.276  1.00  0.00    -0.205 F 
ATOM    102  C   UNL A   1      45.425  35.678  30.119  1.00  0.00     0.022 A 
BRANCH 100 103
ATOM    103  S   UNL A   1      45.144  36.627  27.563  1.00  0.00     0.127 S 
ATOM    104  O   UNL A   1      45.784  35.920  26.456  1.00  0.00    -0.237 OA
ATOM    105  O   UNL A   1      43.736  36.959  27.342  1.00  0.00    -0.237 OA
ATOM    106  O   UNL A   1      45.927  37.700  28.161  1.00  0.00    -0.744 OA
ENDBRANCH 100 103
ENDBRANCH  73  96
ENDBRANCH  47  48
ENDBRANCH  40  42
ENDBRANCH  39  40
ENDBRANCH  38  39
ENDBRANCH  37  38
ENDBRANCH  36  37
ENDBRANCH   1  36
TORSDOF 23
ENDMDL
