MODEL 1
REMARK VINA RESULT:     -12.0      0.000      0.000
REMARK SMILES O=C(OCCOCCOC(=O)c1ccc(-c2c3nc(c(-c4cccc(S(=O)(=O)[O-])c4F)c4ccc([nH]4)c(-c4cccc(S(=O)(=O)[O-])c4F)c4nc(c(-c5cccc(S(=O)(=O)[O-])c5F)c5ccc2[nH]5)C=C4)C=C3)cc1)C1=NN(c2ccc([N+](=O)[O-])cc2)[C@H](c2ccccc2)C1
REMARK SMILES IDX 7 1 6 2 5 3 4 4 3 5 2 6 1 7 75 8 76 9 94 10 77 11 87 12
REMARK SMILES IDX 78 13 79 14 86 15 80 16 85 17 81 18 82 19 83 20 84 21 88 22
REMARK SMILES IDX 89 23 93 24 90 25 92 26 91 27 8 28 9 29 10 30 11 31 12 32
REMARK SMILES IDX 13 33 74 34 14 35 73 36 15 37 16 38 17 39 67 40 18 41 72 42
REMARK SMILES IDX 66 43 68 44 19 45 71 46 65 47 64 48 20 50 52 51 32 52 51 53
REMARK SMILES IDX 33 54 36 55 50 56 69 57 34 58 35 59 49 61 70 62 37 63 21 64
REMARK SMILES IDX 22 65 30 66 23 67 25 68 31 69 24 70 26 71 27 72 28 73 29 74
REMARK SMILES IDX 53 75 54 76 62 77 55 78 57 79 63 80 56 81 58 82 59 83 60 84
REMARK SMILES IDX 61 85 38 86 39 87 47 88 40 89 42 90 48 91 41 92 43 93 44 94
REMARK SMILES IDX 45 95 46 96
REMARK H PARENT 68 49 36 60
REMARK Flexibility Score: inf
ROOT
ATOM      1  C   UNL A   1      32.339  29.616  24.938  1.00  0.00     0.202 C 
ENDROOT
BRANCH   1   2
ATOM      2  O   UNL A   1      31.549  28.445  24.751  1.00  0.00    -0.374 OA
BRANCH   2   3
ATOM      3  C   UNL A   1      31.864  27.338  25.599  1.00  0.00     0.202 C 
BRANCH   3   4
ATOM      4  C   UNL A   1      30.683  26.610  26.250  1.00  0.00     0.261 C 
BRANCH   4   5
ATOM      5  O   UNL A   1      30.532  25.251  25.793  1.00  0.00    -0.459 OA
BRANCH   5   6
ATOM      6  C   UNL A   1      30.631  24.871  24.514  1.00  0.00     0.354 C 
ATOM      7  O   UNL A   1      29.905  25.325  23.636  1.00  0.00    -0.245 OA
BRANCH   6   8
ATOM      8  C   UNL A   1      31.593  23.774  24.108  1.00  0.00     0.148 C 
ATOM      9  N   UNL A   1      31.723  22.640  24.715  1.00  0.00    -0.169 NA
ATOM     10  C   UNL A   1      32.401  23.915  22.848  1.00  0.00     0.098 C 
ATOM     11  N   UNL A   1      32.582  21.920  23.974  1.00  0.00    -0.257 N 
ATOM     12  C   UNL A   1      33.376  22.747  23.071  1.00  0.00     0.144 C 
BRANCH  11  13
ATOM     13  C   UNL A   1      32.647  20.555  24.151  1.00  0.00     0.061 A 
ATOM     14  C   UNL A   1      32.439  19.679  23.078  1.00  0.00     0.035 A 
ATOM     15  C   UNL A   1      32.869  20.016  25.424  1.00  0.00     0.035 A 
ATOM     16  C   UNL A   1      32.509  18.294  23.257  1.00  0.00     0.088 A 
ATOM     17  C   UNL A   1      32.967  18.637  25.618  1.00  0.00     0.088 A 
ATOM     18  C   UNL A   1      32.800  17.780  24.526  1.00  0.00     0.269 A 
BRANCH  18  19
ATOM     19  N   UNL A   1      32.962  16.335  24.711  1.00  0.00     0.062 N 
ATOM     20  O   UNL A   1      33.846  15.762  24.059  1.00  0.00    -0.258 OA
ATOM     21  O   UNL A   1      32.231  15.775  25.542  1.00  0.00    -0.258 OA
ENDBRANCH  18  19
ENDBRANCH  11  13
BRANCH  12  22
ATOM     22  C   UNL A   1      34.682  23.087  23.789  1.00  0.00    -0.023 A 
ATOM     23  C   UNL A   1      34.806  24.140  24.712  1.00  0.00     0.006 A 
ATOM     24  C   UNL A   1      35.763  22.197  23.651  1.00  0.00     0.006 A 
ATOM     25  C   UNL A   1      35.951  24.268  25.499  1.00  0.00     0.000 A 
ATOM     26  C   UNL A   1      36.896  22.311  24.458  1.00  0.00     0.000 A 
ATOM     27  C   UNL A   1      36.986  23.343  25.386  1.00  0.00     0.000 A 
ENDBRANCH  12  22
ENDBRANCH   6   8
ENDBRANCH   5   6
ENDBRANCH   4   5
ENDBRANCH   3   4
ENDBRANCH   2   3
ENDBRANCH   1   2
BRANCH   1  28
ATOM     28  C   UNL A   1      31.710  30.604  25.922  1.00  0.00     0.261 C 
BRANCH  28  29
ATOM     29  O   UNL A   1      32.443  30.616  27.153  1.00  0.00    -0.460 OA
BRANCH  29  30
ATOM     30  C   UNL A   1      33.193  31.729  27.345  1.00  0.00     0.338 C 
ATOM     31  O   UNL A   1      32.820  32.891  27.300  1.00  0.00    -0.246 OA
BRANCH  30  32
ATOM     32  C   UNL A   1      34.530  31.320  27.818  1.00  0.00     0.060 A 
ATOM     33  C   UNL A   1      34.787  29.948  27.936  1.00  0.00     0.016 A 
ATOM     34  C   UNL A   1      35.520  32.259  28.121  1.00  0.00     0.016 A 
ATOM     35  C   UNL A   1      36.021  29.511  28.402  1.00  0.00     0.010 A 
ATOM     36  C   UNL A   1      36.754  31.820  28.599  1.00  0.00     0.010 A 
ATOM     37  C   UNL A   1      36.992  30.447  28.779  1.00  0.00    -0.014 A 
BRANCH  37  38
ATOM     38  C   UNL A   1      38.185  29.986  29.521  1.00  0.00     0.031 A 
ATOM     39  C   UNL A   1      38.412  30.512  30.912  1.00  0.00     0.074 A 
ATOM     40  C   UNL A   1      39.031  29.096  28.973  1.00  0.00     0.049 A 
ATOM     41  N   UNL A   1      39.380  30.247  31.748  1.00  0.00    -0.248 NA
ATOM     42  C   UNL A   1      37.415  31.466  31.429  1.00  0.00     0.031 C 
ATOM     43  C   UNL A   1      38.907  28.529  27.631  1.00  0.00     0.029 A 
ATOM     44  N   UNL A   1      40.173  28.529  29.476  1.00  0.00    -0.354 N 
ATOM     45  C   UNL A   1      39.119  31.009  32.880  1.00  0.00     0.074 A 
ATOM     46  C   UNL A   1      37.918  31.769  32.616  1.00  0.00     0.031 C 
ATOM     47  C   UNL A   1      39.952  27.713  27.406  1.00  0.00     0.029 A 
ATOM     48  C   UNL A   1      40.825  27.719  28.578  1.00  0.00     0.049 A 
ATOM     49  H   UNL A   1      40.496  28.686  30.394  1.00  0.00     0.167 HD
ATOM     50  C   UNL A   1      39.808  31.056  34.045  1.00  0.00     0.034 A 
ATOM     51  C   UNL A   1      42.004  27.077  28.687  1.00  0.00     0.034 A 
ATOM     52  C   UNL A   1      40.998  30.291  34.301  1.00  0.00     0.049 A 
ATOM     53  C   UNL A   1      42.761  27.163  29.987  1.00  0.00     0.074 A 
ATOM     54  C   UNL A   1      41.758  30.243  35.455  1.00  0.00     0.029 A 
ATOM     55  N   UNL A   1      41.606  29.446  33.385  1.00  0.00    -0.354 N 
ATOM     56  N   UNL A   1      42.445  27.803  31.088  1.00  0.00    -0.248 NA
ATOM     57  C   UNL A   1      44.016  26.405  30.075  1.00  0.00     0.031 C 
ATOM     58  C   UNL A   1      42.844  29.392  35.227  1.00  0.00     0.029 A 
ATOM     59  C   UNL A   1      42.738  28.878  33.944  1.00  0.00     0.049 A 
ATOM     60  H   UNL A   1      41.282  29.276  32.471  1.00  0.00     0.167 HD
ATOM     61  C   UNL A   1      43.443  27.499  32.006  1.00  0.00     0.074 A 
ATOM     62  C   UNL A   1      44.355  26.589  31.342  1.00  0.00     0.031 C 
ATOM     63  C   UNL A   1      43.609  27.945  33.278  1.00  0.00     0.034 A 
BRANCH  50  64
ATOM     64  C   UNL A   1      39.275  31.941  35.140  1.00  0.00     0.023 A 
ATOM     65  C   UNL A   1      38.296  31.444  36.024  1.00  0.00     0.012 A 
ATOM     66  C   UNL A   1      39.788  33.238  35.336  1.00  0.00     0.148 A 
ATOM     67  C   UNL A   1      37.818  32.231  37.072  1.00  0.00     0.002 A 
ATOM     68  C   UNL A   1      39.341  34.000  36.409  1.00  0.00     0.091 A 
ATOM     69  F   UNL A   1      40.702  33.700  34.470  1.00  0.00    -0.205 F 
ATOM     70  C   UNL A   1      38.349  33.502  37.271  1.00  0.00     0.022 A 
BRANCH  68  71
ATOM     71  S   UNL A   1      40.014  35.618  36.800  1.00  0.00     0.127 S 
ATOM     72  O   UNL A   1      39.599  36.400  35.636  1.00  0.00    -0.237 OA
ATOM     73  O   UNL A   1      39.311  35.949  38.040  1.00  0.00    -0.237 OA
ATOM     74  O   UNL A   1      41.452  35.435  36.942  1.00  0.00    -0.744 OA
ENDBRANCH  68  71
ENDBRANCH  50  64
BRANCH  51  75
ATOM     75  C   UNL A   1      42.540  26.288  27.541  1.00  0.00     0.023 A 
ATOM     76  C   UNL A   1      43.418  26.890  26.619  1.00  0.00     0.012 A 
ATOM     77  C   UNL A   1      42.173  24.940  27.358  1.00  0.00     0.148 A 
ATOM     78  C   UNL A   1      43.885  26.178  25.513  1.00  0.00     0.002 A 
ATOM     79  C   UNL A   1      42.690  24.219  26.290  1.00  0.00     0.091 A 
ATOM     80  F   UNL A   1      41.322  24.389  28.235  1.00  0.00    -0.205 F 
ATOM     81  C   UNL A   1      43.529  24.842  25.353  1.00  0.00     0.022 A 
BRANCH  79  82
ATOM     82  S   UNL A   1      42.392  22.460  26.087  1.00  0.00     0.127 S 
ATOM     83  O   UNL A   1      40.938  22.415  25.969  1.00  0.00    -0.237 OA
ATOM     84  O   UNL A   1      43.121  22.172  24.851  1.00  0.00    -0.237 OA
ATOM     85  O   UNL A   1      42.953  21.829  27.273  1.00  0.00    -0.744 OA
ENDBRANCH  79  82
ENDBRANCH  51  75
BRANCH  63  86
ATOM     86  C   UNL A   1      44.800  27.425  34.041  1.00  0.00     0.023 A 
ATOM     87  C   UNL A   1      46.023  28.124  33.999  1.00  0.00     0.012 A 
ATOM     88  C   UNL A   1      44.697  26.262  34.829  1.00  0.00     0.148 A 
ATOM     89  C   UNL A   1      47.139  27.644  34.682  1.00  0.00     0.002 A 
ATOM     90  C   UNL A   1      45.798  25.820  35.553  1.00  0.00     0.091 A 
ATOM     91  F   UNL A   1      43.531  25.601  34.847  1.00  0.00    -0.205 F 
ATOM     92  C   UNL A   1      47.024  26.499  35.466  1.00  0.00     0.022 A 
BRANCH  90  93
ATOM     93  S   UNL A   1      45.716  24.413  36.665  1.00  0.00     0.127 S 
ATOM     94  O   UNL A   1      44.658  24.824  37.587  1.00  0.00    -0.237 OA
ATOM     95  O   UNL A   1      45.346  23.323  35.761  1.00  0.00    -0.237 OA
ATOM     96  O   UNL A   1      47.043  24.287  37.251  1.00  0.00    -0.744 OA
ENDBRANCH  90  93
ENDBRANCH  63  86
ENDBRANCH  37  38
ENDBRANCH  30  32
ENDBRANCH  29  30
ENDBRANCH  28  29
ENDBRANCH   1  28
TORSDOF 20
ENDMDL
MODEL 2
REMARK VINA RESULT:     -12.0      4.951      8.496
REMARK SMILES O=C(OCCOCCOC(=O)c1ccc(-c2c3nc(c(-c4cccc(S(=O)(=O)[O-])c4F)c4ccc([nH]4)c(-c4cccc(S(=O)(=O)[O-])c4F)c4nc(c(-c5cccc(S(=O)(=O)[O-])c5F)c5ccc2[nH]5)C=C4)C=C3)cc1)C1=NN(c2ccc([N+](=O)[O-])cc2)[C@H](c2ccccc2)C1
REMARK SMILES IDX 7 1 6 2 5 3 4 4 3 5 2 6 1 7 75 8 76 9 94 10 77 11 87 12
REMARK SMILES IDX 78 13 79 14 86 15 80 16 85 17 81 18 82 19 83 20 84 21 88 22
REMARK SMILES IDX 89 23 93 24 90 25 92 26 91 27 8 28 9 29 10 30 11 31 12 32
REMARK SMILES IDX 13 33 74 34 14 35 73 36 15 37 16 38 17 39 67 40 18 41 72 42
REMARK SMILES IDX 66 43 68 44 19 45 71 46 65 47 64 48 20 50 52 51 32 52 51 53
REMARK SMILES IDX 33 54 36 55 50 56 69 57 34 58 35 59 49 61 70 62 37 63 21 64
REMARK SMILES IDX 22 65 30 66 23 67 25 68 31 69 24 70 26 71 27 72 28 73 29 74
REMARK SMILES IDX 53 75 54 76 62 77 55 78 57 79 63 80 56 81 58 82 59 83 60 84
REMARK SMILES IDX 61 85 38 86 39 87 47 88 40 89 42 90 48 91 41 92 43 93 44 94
REMARK SMILES IDX 45 95 46 96
REMARK H PARENT 68 49 36 60
REMARK Flexibility Score: inf
ROOT
ATOM      1  C   UNL A   1      36.134  19.812  25.000  1.00  0.00     0.202 C 
ENDROOT
BRANCH   1   2
ATOM      2  O   UNL A   1      35.093  20.703  25.393  1.00  0.00    -0.374 OA
BRANCH   2   3
ATOM      3  C   UNL A   1      34.118  21.002  24.392  1.00  0.00     0.202 C 
BRANCH   3   4
ATOM      4  C   UNL A   1      34.138  22.420  23.810  1.00  0.00     0.261 C 
BRANCH   4   5
ATOM      5  O   UNL A   1      32.972  22.726  23.020  1.00  0.00    -0.459 OA
BRANCH   5   6
ATOM      6  C   UNL A   1      32.760  23.899  22.412  1.00  0.00     0.354 C 
ATOM      7  O   UNL A   1      33.279  24.186  21.339  1.00  0.00    -0.245 OA
BRANCH   6   8
ATOM      8  C   UNL A   1      31.935  24.977  23.082  1.00  0.00     0.148 C 
ATOM      9  N   UNL A   1      31.725  26.159  22.598  1.00  0.00    -0.169 NA
ATOM     10  C   UNL A   1      31.192  24.671  24.352  1.00  0.00     0.098 C 
ATOM     11  N   UNL A   1      30.858  26.752  23.435  1.00  0.00    -0.257 N 
ATOM     12  C   UNL A   1      30.809  26.108  24.744  1.00  0.00     0.144 C 
BRANCH  11  13
ATOM     13  C   UNL A   1      30.163  27.864  23.011  1.00  0.00     0.061 A 
ATOM     14  C   UNL A   1      30.830  28.953  22.435  1.00  0.00     0.035 A 
ATOM     15  C   UNL A   1      28.778  27.949  23.200  1.00  0.00     0.035 A 
ATOM     16  C   UNL A   1      30.124  30.080  22.001  1.00  0.00     0.088 A 
ATOM     17  C   UNL A   1      28.054  29.053  22.751  1.00  0.00     0.088 A 
ATOM     18  C   UNL A   1      28.732  30.112  22.138  1.00  0.00     0.269 A 
BRANCH  18  19
ATOM     19  N   UNL A   1      27.971  31.248  21.610  1.00  0.00     0.062 N 
ATOM     20  O   UNL A   1      27.653  31.228  20.412  1.00  0.00    -0.258 OA
ATOM     21  O   UNL A   1      27.652  32.147  22.404  1.00  0.00    -0.258 OA
ENDBRANCH  18  19
ENDBRANCH  11  13
BRANCH  12  22
ATOM     22  C   UNL A   1      31.792  26.843  25.654  1.00  0.00    -0.023 A 
ATOM     23  C   UNL A   1      33.188  26.765  25.508  1.00  0.00     0.006 A 
ATOM     24  C   UNL A   1      31.274  27.778  26.570  1.00  0.00     0.006 A 
ATOM     25  C   UNL A   1      34.029  27.624  26.218  1.00  0.00     0.000 A 
ATOM     26  C   UNL A   1      32.115  28.652  27.258  1.00  0.00     0.000 A 
ATOM     27  C   UNL A   1      33.492  28.579  27.077  1.00  0.00     0.000 A 
ENDBRANCH  12  22
ENDBRANCH   6   8
ENDBRANCH   5   6
ENDBRANCH   4   5
ENDBRANCH   3   4
ENDBRANCH   2   3
ENDBRANCH   1   2
BRANCH   1  28
ATOM     28  C   UNL A   1      37.423  20.539  24.614  1.00  0.00     0.261 C 
BRANCH  28  29
ATOM     29  O   UNL A   1      37.829  21.426  25.663  1.00  0.00    -0.460 OA
BRANCH  29  30
ATOM     30  C   UNL A   1      39.077  21.193  26.139  1.00  0.00     0.338 C 
ATOM     31  O   UNL A   1      39.723  20.161  26.050  1.00  0.00    -0.246 OA
BRANCH  30  32
ATOM     32  C   UNL A   1      39.638  22.465  26.633  1.00  0.00     0.060 A 
ATOM     33  C   UNL A   1      39.025  23.653  26.215  1.00  0.00     0.016 A 
ATOM     34  C   UNL A   1      40.730  22.496  27.504  1.00  0.00     0.016 A 
ATOM     35  C   UNL A   1      39.532  24.879  26.630  1.00  0.00     0.010 A 
ATOM     36  C   UNL A   1      41.245  23.727  27.912  1.00  0.00     0.010 A 
ATOM     37  C   UNL A   1      40.671  24.921  27.442  1.00  0.00    -0.014 A 
BRANCH  37  38
ATOM     38  C   UNL A   1      41.357  26.213  27.653  1.00  0.00     0.031 A 
ATOM     39  C   UNL A   1      40.649  27.281  28.441  1.00  0.00     0.074 A 
ATOM     40  C   UNL A   1      42.597  26.417  27.174  1.00  0.00     0.049 A 
ATOM     41  N   UNL A   1      41.054  28.483  28.754  1.00  0.00    -0.248 NA
ATOM     42  C   UNL A   1      39.303  26.950  28.940  1.00  0.00     0.031 C 
ATOM     43  C   UNL A   1      43.370  25.452  26.393  1.00  0.00     0.029 A 
ATOM     44  N   UNL A   1      43.415  27.514  27.262  1.00  0.00    -0.354 N 
ATOM     45  C   UNL A   1      40.011  29.056  29.472  1.00  0.00     0.074 A 
ATOM     46  C   UNL A   1      38.943  28.082  29.526  1.00  0.00     0.031 C 
ATOM     47  C   UNL A   1      44.542  26.012  26.047  1.00  0.00     0.029 A 
ATOM     48  C   UNL A   1      44.590  27.378  26.565  1.00  0.00     0.049 A 
ATOM     49  H   UNL A   1      43.181  28.322  27.775  1.00  0.00     0.167 HD
ATOM     50  C   UNL A   1      39.956  30.277  30.054  1.00  0.00     0.034 A 
ATOM     51  C   UNL A   1      45.579  28.268  26.352  1.00  0.00     0.034 A 
ATOM     52  C   UNL A   1      41.026  31.236  30.001  1.00  0.00     0.049 A 
ATOM     53  C   UNL A   1      45.484  29.628  26.994  1.00  0.00     0.074 A 
ATOM     54  C   UNL A   1      41.086  32.491  30.578  1.00  0.00     0.029 A 
ATOM     55  N   UNL A   1      42.222  31.049  29.324  1.00  0.00    -0.354 N 
ATOM     56  N   UNL A   1      44.538  30.117  27.761  1.00  0.00    -0.248 NA
ATOM     57  C   UNL A   1      46.610  30.545  26.775  1.00  0.00     0.031 C 
ATOM     58  C   UNL A   1      42.306  33.076  30.224  1.00  0.00     0.029 A 
ATOM     59  C   UNL A   1      43.023  32.169  29.461  1.00  0.00     0.049 A 
ATOM     60  H   UNL A   1      42.465  30.240  28.820  1.00  0.00     0.167 HD
ATOM     61  C   UNL A   1      44.970  31.382  28.140  1.00  0.00     0.074 A 
ATOM     62  C   UNL A   1      46.279  31.569  27.547  1.00  0.00     0.031 C 
ATOM     63  C   UNL A   1      44.339  32.318  28.894  1.00  0.00     0.034 A 
BRANCH  50  64
ATOM     64  C   UNL A   1      38.711  30.634  30.821  1.00  0.00     0.023 A 
ATOM     65  C   UNL A   1      38.637  30.352  32.201  1.00  0.00     0.012 A 
ATOM     66  C   UNL A   1      37.643  31.306  30.196  1.00  0.00     0.148 A 
ATOM     67  C   UNL A   1      37.511  30.710  32.941  1.00  0.00     0.002 A 
ATOM     68  C   UNL A   1      36.543  31.702  30.948  1.00  0.00     0.091 A 
ATOM     69  F   UNL A   1      37.723  31.545  28.879  1.00  0.00    -0.205 F 
ATOM     70  C   UNL A   1      36.472  31.396  32.318  1.00  0.00     0.022 A 
BRANCH  68  71
ATOM     71  S   UNL A   1      35.187  32.656  30.261  1.00  0.00     0.127 S 
ATOM     72  O   UNL A   1      34.280  32.746  31.404  1.00  0.00    -0.237 OA
ATOM     73  O   UNL A   1      35.848  33.913  29.906  1.00  0.00    -0.237 OA
ATOM     74  O   UNL A   1      34.684  31.889  29.130  1.00  0.00    -0.744 OA
ENDBRANCH  68  71
ENDBRANCH  50  64
BRANCH  51  75
ATOM     75  C   UNL A   1      46.751  27.902  25.505  1.00  0.00     0.023 A 
ATOM     76  C   UNL A   1      46.707  28.110  24.113  1.00  0.00     0.012 A 
ATOM     77  C   UNL A   1      47.909  27.340  26.078  1.00  0.00     0.148 A 
ATOM     78  C   UNL A   1      47.776  27.724  23.302  1.00  0.00     0.002 A 
ATOM     79  C   UNL A   1      48.993  27.015  25.273  1.00  0.00     0.091 A 
ATOM     80  F   UNL A   1      47.925  27.132  27.403  1.00  0.00    -0.205 F 
ATOM     81  C   UNL A   1      48.921  27.186  23.882  1.00  0.00     0.022 A 
BRANCH  79  82
ATOM     82  S   UNL A   1      50.554  26.444  25.953  1.00  0.00     0.127 S 
ATOM     83  O   UNL A   1      50.917  27.548  26.837  1.00  0.00    -0.237 OA
ATOM     84  O   UNL A   1      50.153  25.213  26.636  1.00  0.00    -0.237 OA
ATOM     85  O   UNL A   1      51.427  26.235  24.807  1.00  0.00    -0.744 OA
ENDBRANCH  79  82
ENDBRANCH  51  75
BRANCH  63  86
ATOM     86  C   UNL A   1      45.072  33.610  29.146  1.00  0.00     0.023 A 
ATOM     87  C   UNL A   1      45.877  33.751  30.295  1.00  0.00     0.012 A 
ATOM     88  C   UNL A   1      44.992  34.674  28.226  1.00  0.00     0.148 A 
ATOM     89  C   UNL A   1      46.544  34.947  30.552  1.00  0.00     0.002 A 
ATOM     90  C   UNL A   1      45.703  35.844  28.461  1.00  0.00     0.091 A 
ATOM     91  F   UNL A   1      44.210  34.529  27.146  1.00  0.00    -0.205 F 
ATOM     92  C   UNL A   1      46.465  35.989  29.632  1.00  0.00     0.022 A 
BRANCH  90  93
ATOM     93  S   UNL A   1      45.741  37.199  27.284  1.00  0.00     0.127 S 
ATOM     94  O   UNL A   1      46.557  38.185  27.991  1.00  0.00    -0.237 OA
ATOM     95  O   UNL A   1      46.393  36.587  26.126  1.00  0.00    -0.237 OA
ATOM     96  O   UNL A   1      44.352  37.578  27.065  1.00  0.00    -0.744 OA
ENDBRANCH  90  93
ENDBRANCH  63  86
ENDBRANCH  37  38
ENDBRANCH  30  32
ENDBRANCH  29  30
ENDBRANCH  28  29
ENDBRANCH   1  28
TORSDOF 20
ENDMDL
MODEL 3
REMARK VINA RESULT:     -11.9      4.602     10.388
REMARK SMILES O=C(OCCOCCOC(=O)c1ccc(-c2c3nc(c(-c4cccc(S(=O)(=O)[O-])c4F)c4ccc([nH]4)c(-c4cccc(S(=O)(=O)[O-])c4F)c4nc(c(-c5cccc(S(=O)(=O)[O-])c5F)c5ccc2[nH]5)C=C4)C=C3)cc1)C1=NN(c2ccc([N+](=O)[O-])cc2)[C@H](c2ccccc2)C1
REMARK SMILES IDX 7 1 6 2 5 3 4 4 3 5 2 6 1 7 75 8 76 9 94 10 77 11 87 12
REMARK SMILES IDX 78 13 79 14 86 15 80 16 85 17 81 18 82 19 83 20 84 21 88 22
REMARK SMILES IDX 89 23 93 24 90 25 92 26 91 27 8 28 9 29 10 30 11 31 12 32
REMARK SMILES IDX 13 33 74 34 14 35 73 36 15 37 16 38 17 39 67 40 18 41 72 42
REMARK SMILES IDX 66 43 68 44 19 45 71 46 65 47 64 48 20 50 52 51 32 52 51 53
REMARK SMILES IDX 33 54 36 55 50 56 69 57 34 58 35 59 49 61 70 62 37 63 21 64
REMARK SMILES IDX 22 65 30 66 23 67 25 68 31 69 24 70 26 71 27 72 28 73 29 74
REMARK SMILES IDX 53 75 54 76 62 77 55 78 57 79 63 80 56 81 58 82 59 83 60 84
REMARK SMILES IDX 61 85 38 86 39 87 47 88 40 89 42 90 48 91 41 92 43 93 44 94
REMARK SMILES IDX 45 95 46 96
REMARK H PARENT 68 49 36 60
REMARK Flexibility Score: inf
ROOT
ATOM      1  C   UNL A   1      35.581  21.108  24.726  1.00  0.00     0.202 C 
ENDROOT
BRANCH   1   2
ATOM      2  O   UNL A   1      34.394  21.893  24.809  1.00  0.00    -0.374 OA
BRANCH   2   3
ATOM      3  C   UNL A   1      33.173  21.208  24.521  1.00  0.00     0.202 C 
BRANCH   3   4
ATOM      4  C   UNL A   1      32.173  21.066  25.673  1.00  0.00     0.261 C 
BRANCH   4   5
ATOM      5  O   UNL A   1      31.079  22.002  25.596  1.00  0.00    -0.459 OA
BRANCH   5   6
ATOM      6  C   UNL A   1      30.980  23.109  26.342  1.00  0.00     0.354 C 
ATOM      7  O   UNL A   1      30.500  23.100  27.470  1.00  0.00    -0.245 OA
BRANCH   6   8
ATOM      8  C   UNL A   1      31.374  24.458  25.777  1.00  0.00     0.148 C 
ATOM      9  N   UNL A   1      31.476  25.548  26.465  1.00  0.00    -0.169 NA
ATOM     10  C   UNL A   1      31.795  24.573  24.338  1.00  0.00     0.098 C 
ATOM     11  N   UNL A   1      31.959  26.475  25.620  1.00  0.00    -0.257 N 
ATOM     12  C   UNL A   1      31.778  26.106  24.219  1.00  0.00     0.144 C 
BRANCH  11  13
ATOM     13  C   UNL A   1      32.516  27.628  26.128  1.00  0.00     0.061 A 
ATOM     14  C   UNL A   1      33.905  27.807  26.151  1.00  0.00     0.035 A 
ATOM     15  C   UNL A   1      31.702  28.623  26.683  1.00  0.00     0.035 A 
ATOM     16  C   UNL A   1      34.470  28.979  26.664  1.00  0.00     0.088 A 
ATOM     17  C   UNL A   1      32.245  29.810  27.176  1.00  0.00     0.088 A 
ATOM     18  C   UNL A   1      33.631  29.989  27.151  1.00  0.00     0.269 A 
BRANCH  18  19
ATOM     19  N   UNL A   1      34.205  31.257  27.611  1.00  0.00     0.062 N 
ATOM     20  O   UNL A   1      33.453  32.239  27.691  1.00  0.00    -0.258 OA
ATOM     21  O   UNL A   1      35.402  31.264  27.934  1.00  0.00    -0.258 OA
ENDBRANCH  18  19
ENDBRANCH  11  13
BRANCH  12  22
ATOM     22  C   UNL A   1      30.465  26.731  23.746  1.00  0.00    -0.023 A 
ATOM     23  C   UNL A   1      29.201  26.200  24.054  1.00  0.00     0.006 A 
ATOM     24  C   UNL A   1      30.519  27.990  23.121  1.00  0.00     0.006 A 
ATOM     25  C   UNL A   1      28.038  26.925  23.789  1.00  0.00     0.000 A 
ATOM     26  C   UNL A   1      29.357  28.724  22.881  1.00  0.00     0.000 A 
ATOM     27  C   UNL A   1      28.118  28.193  23.221  1.00  0.00     0.000 A 
ENDBRANCH  12  22
ENDBRANCH   6   8
ENDBRANCH   5   6
ENDBRANCH   4   5
ENDBRANCH   3   4
ENDBRANCH   2   3
ENDBRANCH   1   2
BRANCH   1  28
ATOM     28  C   UNL A   1      36.611  21.477  25.794  1.00  0.00     0.261 C 
BRANCH  28  29
ATOM     29  O   UNL A   1      37.881  21.752  25.189  1.00  0.00    -0.460 OA
BRANCH  29  30
ATOM     30  C   UNL A   1      38.948  21.449  25.969  1.00  0.00     0.338 C 
ATOM     31  O   UNL A   1      39.518  20.373  26.058  1.00  0.00    -0.246 OA
BRANCH  30  32
ATOM     32  C   UNL A   1      39.457  22.694  26.575  1.00  0.00     0.060 A 
ATOM     33  C   UNL A   1      38.884  23.902  26.159  1.00  0.00     0.016 A 
ATOM     34  C   UNL A   1      40.463  22.680  27.545  1.00  0.00     0.016 A 
ATOM     35  C   UNL A   1      39.347  25.105  26.679  1.00  0.00     0.010 A 
ATOM     36  C   UNL A   1      40.935  23.888  28.058  1.00  0.00     0.010 A 
ATOM     37  C   UNL A   1      40.405  25.104  27.596  1.00  0.00    -0.014 A 
BRANCH  37  38
ATOM     38  C   UNL A   1      41.066  26.383  27.933  1.00  0.00     0.031 A 
ATOM     39  C   UNL A   1      42.479  26.604  27.469  1.00  0.00     0.074 A 
ATOM     40  C   UNL A   1      40.406  27.336  28.614  1.00  0.00     0.049 A 
ATOM     41  N   UNL A   1      43.253  27.643  27.642  1.00  0.00    -0.248 NA
ATOM     42  C   UNL A   1      43.105  25.507  26.710  1.00  0.00     0.031 C 
ATOM     43  C   UNL A   1      39.037  27.221  29.116  1.00  0.00     0.029 A 
ATOM     44  N   UNL A   1      40.810  28.582  29.018  1.00  0.00    -0.354 N 
ATOM     45  C   UNL A   1      44.458  27.320  27.030  1.00  0.00     0.074 A 
ATOM     46  C   UNL A   1      44.325  25.980  26.504  1.00  0.00     0.031 C 
ATOM     47  C   UNL A   1      38.724  28.343  29.787  1.00  0.00     0.029 A 
ATOM     48  C   UNL A   1      39.876  29.242  29.778  1.00  0.00     0.049 A 
ATOM     49  H   UNL A   1      41.687  28.967  28.784  1.00  0.00     0.167 HD
ATOM     50  C   UNL A   1      45.570  28.082  26.898  1.00  0.00     0.034 A 
ATOM     51  C   UNL A   1      39.956  30.428  30.412  1.00  0.00     0.034 A 
ATOM     52  C   UNL A   1      45.690  29.417  27.419  1.00  0.00     0.049 A 
ATOM     53  C   UNL A   1      41.213  31.247  30.267  1.00  0.00     0.074 A 
ATOM     54  C   UNL A   1      46.761  30.287  27.318  1.00  0.00     0.029 A 
ATOM     55  N   UNL A   1      44.708  30.073  28.145  1.00  0.00    -0.354 N 
ATOM     56  N   UNL A   1      42.305  30.974  29.592  1.00  0.00    -0.248 NA
ATOM     57  C   UNL A   1      41.234  32.555  30.935  1.00  0.00     0.031 C 
ATOM     58  C   UNL A   1      46.438  31.458  28.011  1.00  0.00     0.029 A 
ATOM     59  C   UNL A   1      45.150  31.333  28.508  1.00  0.00     0.049 A 
ATOM     60  H   UNL A   1      43.827  29.698  28.371  1.00  0.00     0.167 HD
ATOM     61  C   UNL A   1      43.127  32.087  29.730  1.00  0.00     0.074 A 
ATOM     62  C   UNL A   1      42.390  33.051  30.522  1.00  0.00     0.031 C 
ATOM     63  C   UNL A   1      44.385  32.292  29.263  1.00  0.00     0.034 A 
BRANCH  50  64
ATOM     64  C   UNL A   1      46.733  27.501  26.139  1.00  0.00     0.023 A 
ATOM     65  C   UNL A   1      46.814  27.683  24.743  1.00  0.00     0.012 A 
ATOM     66  C   UNL A   1      47.776  26.835  26.811  1.00  0.00     0.148 A 
ATOM     67  C   UNL A   1      47.903  27.190  24.024  1.00  0.00     0.002 A 
ATOM     68  C   UNL A   1      48.880  26.386  26.095  1.00  0.00     0.091 A 
ATOM     69  F   UNL A   1      47.667  26.652  28.135  1.00  0.00    -0.205 F 
ATOM     70  C   UNL A   1      48.940  26.554  24.701  1.00  0.00     0.022 A 
BRANCH  68  71
ATOM     71  S   UNL A   1      50.303  25.624  26.880  1.00  0.00     0.127 S 
ATOM     72  O   UNL A   1      50.659  26.626  27.884  1.00  0.00    -0.237 OA
ATOM     73  O   UNL A   1      49.728  24.394  27.424  1.00  0.00    -0.237 OA
ATOM     74  O   UNL A   1      51.289  25.425  25.827  1.00  0.00    -0.744 OA
ENDBRANCH  68  71
ENDBRANCH  50  64
BRANCH  51  75
ATOM     75  C   UNL A   1      38.813  30.921  31.233  1.00  0.00     0.023 A 
ATOM     76  C   UNL A   1      38.681  30.514  32.574  1.00  0.00     0.012 A 
ATOM     77  C   UNL A   1      37.850  31.790  30.682  1.00  0.00     0.148 A 
ATOM     78  C   UNL A   1      37.587  30.926  33.338  1.00  0.00     0.002 A 
ATOM     79  C   UNL A   1      36.798  32.245  31.466  1.00  0.00     0.091 A 
ATOM     80  F   UNL A   1      37.983  32.152  29.398  1.00  0.00    -0.205 F 
ATOM     81  C   UNL A   1      36.652  31.798  32.788  1.00  0.00     0.022 A 
BRANCH  79  82
ATOM     82  S   UNL A   1      35.628  33.474  30.878  1.00  0.00     0.127 S 
ATOM     83  O   UNL A   1      34.394  32.698  30.799  1.00  0.00    -0.237 OA
ATOM     84  O   UNL A   1      35.666  34.465  31.954  1.00  0.00    -0.237 OA
ATOM     85  O   UNL A   1      36.162  33.948  29.609  1.00  0.00    -0.744 OA
ENDBRANCH  79  82
ENDBRANCH  51  75
BRANCH  63  86
ATOM     86  C   UNL A   1      45.026  33.621  29.568  1.00  0.00     0.023 A 
ATOM     87  C   UNL A   1      45.773  33.787  30.753  1.00  0.00     0.012 A 
ATOM     88  C   UNL A   1      44.918  34.696  28.664  1.00  0.00     0.148 A 
ATOM     89  C   UNL A   1      46.353  35.017  31.059  1.00  0.00     0.002 A 
ATOM     90  C   UNL A   1      45.546  35.902  28.949  1.00  0.00     0.091 A 
ATOM     91  F   UNL A   1      44.193  34.525  27.550  1.00  0.00    -0.205 F 
ATOM     92  C   UNL A   1      46.248  36.070  30.154  1.00  0.00     0.022 A 
BRANCH  90  93
ATOM     93  S   UNL A   1      45.549  37.280  27.799  1.00  0.00     0.127 S 
ATOM     94  O   UNL A   1      46.205  38.324  28.585  1.00  0.00    -0.237 OA
ATOM     95  O   UNL A   1      46.350  36.759  26.691  1.00  0.00    -0.237 OA
ATOM     96  O   UNL A   1      44.153  37.530  27.469  1.00  0.00    -0.744 OA
ENDBRANCH  90  93
ENDBRANCH  63  86
ENDBRANCH  37  38
ENDBRANCH  30  32
ENDBRANCH  29  30
ENDBRANCH  28  29
ENDBRANCH   1  28
TORSDOF 20
ENDMDL
