MODEL 1
REMARK VINA RESULT:     -10.9      0.000      0.000
REMARK SMILES O=C(Cc1ccccc1Nc1c(Cl)cccc1Cl)OCCOCCOC(=O)c1ccc(-c2c3nc(c(-c4cccc(S(=O)(=O)[O-])c4F)c4ccc([nH]4)c(-c4cccc(S(=O)(=O)[O-])c4F)c4nc(c(-c5cccc(S(=O)(=O)[O-])c5F)c5ccc2[nH]5)C=C4)C=C3)cc1
REMARK SMILES IDX 22 1 21 2 20 3 19 4 2 5 1 6 3 7 4 8 5 9 9 10 6 11 8 12 7 13
REMARK SMILES IDX 10 14 11 16 12 17 17 18 13 19 14 20 16 21 18 22 15 23 23 24
REMARK SMILES IDX 24 25 25 26 26 27 27 28 28 29 29 30 90 31 30 32 89 33 31 34
REMARK SMILES IDX 32 35 33 36 83 37 34 38 88 39 82 40 84 41 35 42 87 43 81 44
REMARK SMILES IDX 80 45 36 47 68 48 48 49 67 50 49 51 52 52 66 53 85 54 50 55
REMARK SMILES IDX 51 56 65 58 86 59 53 60 37 61 38 62 46 63 39 64 41 65 47 66
REMARK SMILES IDX 40 67 42 68 43 69 44 70 45 71 69 72 70 73 78 74 71 75 73 76
REMARK SMILES IDX 79 77 72 78 74 79 75 80 76 81 77 82 54 83 55 84 63 85 56 86
REMARK SMILES IDX 58 87 64 88 57 89 59 90 60 91 61 92 62 93
REMARK H PARENT 10 15 84 46 52 57
REMARK Flexibility Score: inf
ROOT
ATOM      1  O   UNL A   1      34.982  21.257  25.642  1.00  0.00    -0.374 OA
ENDROOT
BRANCH   1   2
ATOM      2  C   UNL A   1      33.598  20.980  25.825  1.00  0.00     0.202 C 
BRANCH   2   3
ATOM      3  C   UNL A   1      32.829  21.727  26.913  1.00  0.00     0.261 C 
BRANCH   3   4
ATOM      4  O   UNL A   1      31.706  22.479  26.441  1.00  0.00    -0.463 OA
BRANCH   4   5
ATOM      5  C   UNL A   1      31.486  23.786  26.700  1.00  0.00     0.310 C 
ATOM      6  O   UNL A   1      30.394  24.146  27.148  1.00  0.00    -0.252 OA
BRANCH   5   7
ATOM      7  C   UNL A   1      32.543  24.832  26.416  1.00  0.00     0.160 C 
BRANCH   7   8
ATOM      8  C   UNL A   1      32.801  25.108  24.957  1.00  0.00    -0.013 A 
ATOM      9  C   UNL A   1      33.678  24.247  24.266  1.00  0.00     0.006 A 
ATOM     10  C   UNL A   1      32.262  26.249  24.321  1.00  0.00     0.042 A 
ATOM     11  C   UNL A   1      34.093  24.557  22.977  1.00  0.00     0.000 A 
ATOM     12  C   UNL A   1      32.716  26.548  23.031  1.00  0.00     0.026 A 
ATOM     13  C   UNL A   1      33.624  25.714  22.366  1.00  0.00     0.002 A 
BRANCH  10  14
ATOM     14  N   UNL A   1      31.393  27.102  25.021  1.00  0.00    -0.353 N 
ATOM     15  H   UNL A   1      30.704  26.637  25.550  1.00  0.00     0.167 HD
BRANCH  14  16
ATOM     16  C   UNL A   1      31.337  28.509  25.099  1.00  0.00     0.076 A 
ATOM     17  C   UNL A   1      31.953  29.176  26.178  1.00  0.00     0.066 A 
ATOM     18  C   UNL A   1      30.493  29.261  24.262  1.00  0.00     0.066 A 
ATOM     19  Cl  UNL A   1      32.936  28.321  27.319  1.00  0.00    -0.082 Cl
ATOM     20  C   UNL A   1      31.782  30.548  26.376  1.00  0.00     0.023 A 
ATOM     21  C   UNL A   1      30.325  30.636  24.459  1.00  0.00     0.023 A 
ATOM     22  Cl  UNL A   1      29.561  28.521  23.002  1.00  0.00    -0.082 Cl
ATOM     23  C   UNL A   1      30.971  31.279  25.513  1.00  0.00     0.003 A 
ENDBRANCH  14  16
ENDBRANCH  10  14
ENDBRANCH   7   8
ENDBRANCH   5   7
ENDBRANCH   4   5
ENDBRANCH   3   4
ENDBRANCH   2   3
ENDBRANCH   1   2
BRANCH   1  24
ATOM     24  C   UNL A   1      35.780  20.272  24.974  1.00  0.00     0.202 C 
BRANCH  24  25
ATOM     25  C   UNL A   1      37.275  20.535  24.794  1.00  0.00     0.261 C 
BRANCH  25  26
ATOM     26  O   UNL A   1      37.752  21.572  25.656  1.00  0.00    -0.460 OA
BRANCH  26  27
ATOM     27  C   UNL A   1      39.001  21.365  26.134  1.00  0.00     0.338 C 
ATOM     28  O   UNL A   1      39.724  20.402  25.910  1.00  0.00    -0.246 OA
BRANCH  27  29
ATOM     29  C   UNL A   1      39.478  22.587  26.800  1.00  0.00     0.060 A 
ATOM     30  C   UNL A   1      38.799  23.781  26.520  1.00  0.00     0.016 A 
ATOM     31  C   UNL A   1      40.591  22.574  27.645  1.00  0.00     0.016 A 
ATOM     32  C   UNL A   1      39.291  24.985  27.000  1.00  0.00     0.010 A 
ATOM     33  C   UNL A   1      41.087  23.786  28.122  1.00  0.00     0.010 A 
ATOM     34  C   UNL A   1      40.475  24.993  27.744  1.00  0.00    -0.014 A 
BRANCH  34  35
ATOM     35  C   UNL A   1      41.194  26.270  27.920  1.00  0.00     0.031 A 
ATOM     36  C   UNL A   1      40.520  27.359  28.710  1.00  0.00     0.074 A 
ATOM     37  C   UNL A   1      42.426  26.439  27.415  1.00  0.00     0.049 A 
ATOM     38  N   UNL A   1      40.941  28.561  28.992  1.00  0.00    -0.248 NA
ATOM     39  C   UNL A   1      39.184  27.049  29.252  1.00  0.00     0.031 C 
ATOM     40  C   UNL A   1      43.171  25.438  26.652  1.00  0.00     0.029 A 
ATOM     41  N   UNL A   1      43.259  27.525  27.456  1.00  0.00    -0.354 N 
ATOM     42  C   UNL A   1      39.913  29.163  29.707  1.00  0.00     0.074 A 
ATOM     43  C   UNL A   1      38.839  28.201  29.804  1.00  0.00     0.031 C 
ATOM     44  C   UNL A   1      44.347  25.967  26.277  1.00  0.00     0.029 A 
ATOM     45  C   UNL A   1      44.423  27.347  26.750  1.00  0.00     0.049 A 
ATOM     46  H   UNL A   1      43.044  28.353  27.944  1.00  0.00     0.167 HD
ATOM     47  C   UNL A   1      39.872  30.404  30.244  1.00  0.00     0.034 A 
ATOM     48  C   UNL A   1      45.423  28.215  26.501  1.00  0.00     0.034 A 
ATOM     49  C   UNL A   1      40.956  31.344  30.152  1.00  0.00     0.049 A 
ATOM     50  C   UNL A   1      45.342  29.599  27.089  1.00  0.00     0.074 A 
ATOM     51  C   UNL A   1      41.047  32.611  30.696  1.00  0.00     0.029 A 
ATOM     52  N   UNL A   1      42.134  31.121  29.453  1.00  0.00    -0.354 N 
ATOM     53  N   UNL A   1      44.412  30.121  27.853  1.00  0.00    -0.248 NA
ATOM     54  C   UNL A   1      46.467  30.501  26.811  1.00  0.00     0.031 C 
ATOM     55  C   UNL A   1      42.264  33.170  30.293  1.00  0.00     0.029 A 
ATOM     56  C   UNL A   1      42.952  32.233  29.537  1.00  0.00     0.049 A 
ATOM     57  H   UNL A   1      42.355  30.293  28.969  1.00  0.00     0.167 HD
ATOM     58  C   UNL A   1      44.859  31.396  28.182  1.00  0.00     0.074 A 
ATOM     59  C   UNL A   1      46.151  31.558  27.546  1.00  0.00     0.031 C 
ATOM     60  C   UNL A   1      44.255  32.351  28.934  1.00  0.00     0.034 A 
BRANCH  47  61
ATOM     61  C   UNL A   1      38.619  30.810  30.976  1.00  0.00     0.023 A 
ATOM     62  C   UNL A   1      38.510  30.592  32.366  1.00  0.00     0.012 A 
ATOM     63  C   UNL A   1      37.560  31.436  30.292  1.00  0.00     0.148 A 
ATOM     64  C   UNL A   1      37.352  30.955  33.053  1.00  0.00     0.002 A 
ATOM     65  C   UNL A   1      36.430  31.841  30.993  1.00  0.00     0.091 A 
ATOM     66  F   UNL A   1      37.670  31.612  28.967  1.00  0.00    -0.205 F 
ATOM     67  C   UNL A   1      36.318  31.588  32.370  1.00  0.00     0.022 A 
BRANCH  65  68
ATOM     68  S   UNL A   1      35.080  32.735  30.218  1.00  0.00     0.127 S 
ATOM     69  O   UNL A   1      34.201  32.990  31.358  1.00  0.00    -0.237 OA
ATOM     70  O   UNL A   1      35.759  33.923  29.696  1.00  0.00    -0.237 OA
ATOM     71  O   UNL A   1      34.540  31.847  29.199  1.00  0.00    -0.744 OA
ENDBRANCH  65  68
ENDBRANCH  47  61
BRANCH  48  72
ATOM     72  C   UNL A   1      46.598  27.787  25.693  1.00  0.00     0.023 A 
ATOM     73  C   UNL A   1      46.592  27.988  24.299  1.00  0.00     0.012 A 
ATOM     74  C   UNL A   1      47.727  27.202  26.299  1.00  0.00     0.148 A 
ATOM     75  C   UNL A   1      47.674  27.581  23.517  1.00  0.00     0.002 A 
ATOM     76  C   UNL A   1      48.825  26.851  25.522  1.00  0.00     0.091 A 
ATOM     77  F   UNL A   1      47.709  27.012  27.625  1.00  0.00    -0.205 F 
ATOM     78  C   UNL A   1      48.793  27.022  24.129  1.00  0.00     0.022 A 
BRANCH  76  79
ATOM     79  S   UNL A   1      50.356  26.239  26.234  1.00  0.00     0.127 S 
ATOM     80  O   UNL A   1      49.879  25.131  27.058  1.00  0.00    -0.237 OA
ATOM     81  O   UNL A   1      51.103  25.841  25.040  1.00  0.00    -0.237 OA
ATOM     82  O   UNL A   1      50.932  27.362  26.959  1.00  0.00    -0.744 OA
ENDBRANCH  76  79
ENDBRANCH  48  72
BRANCH  60  83
ATOM     83  C   UNL A   1      45.008  33.637  29.158  1.00  0.00     0.023 A 
ATOM     84  C   UNL A   1      45.947  33.737  30.204  1.00  0.00     0.012 A 
ATOM     85  C   UNL A   1      44.826  34.728  28.286  1.00  0.00     0.148 A 
ATOM     86  C   UNL A   1      46.659  34.918  30.404  1.00  0.00     0.002 A 
ATOM     87  C   UNL A   1      45.580  35.882  28.457  1.00  0.00     0.091 A 
ATOM     88  F   UNL A   1      43.916  34.620  27.306  1.00  0.00    -0.205 F 
ATOM     89  C   UNL A   1      46.485  35.985  29.525  1.00  0.00     0.022 A 
BRANCH  87  90
ATOM     90  S   UNL A   1      45.498  37.263  27.312  1.00  0.00     0.127 S 
ATOM     91  O   UNL A   1      46.367  36.806  26.230  1.00  0.00    -0.237 OA
ATOM     92  O   UNL A   1      44.074  37.303  26.978  1.00  0.00    -0.237 OA
ATOM     93  O   UNL A   1      45.977  38.426  28.050  1.00  0.00    -0.744 OA
ENDBRANCH  87  90
ENDBRANCH  60  83
ENDBRANCH  34  35
ENDBRANCH  27  29
ENDBRANCH  26  27
ENDBRANCH  25  26
ENDBRANCH  24  25
ENDBRANCH   1  24
TORSDOF 20
ENDMDL
MODEL 2
REMARK VINA RESULT:     -10.9      5.004      8.046
REMARK SMILES O=C(Cc1ccccc1Nc1c(Cl)cccc1Cl)OCCOCCOC(=O)c1ccc(-c2c3nc(c(-c4cccc(S(=O)(=O)[O-])c4F)c4ccc([nH]4)c(-c4cccc(S(=O)(=O)[O-])c4F)c4nc(c(-c5cccc(S(=O)(=O)[O-])c5F)c5ccc2[nH]5)C=C4)C=C3)cc1
REMARK SMILES IDX 22 1 21 2 20 3 19 4 2 5 1 6 3 7 4 8 5 9 9 10 6 11 8 12 7 13
REMARK SMILES IDX 10 14 11 16 12 17 17 18 13 19 14 20 16 21 18 22 15 23 23 24
REMARK SMILES IDX 24 25 25 26 26 27 27 28 28 29 29 30 90 31 30 32 89 33 31 34
REMARK SMILES IDX 32 35 33 36 83 37 34 38 88 39 82 40 84 41 35 42 87 43 81 44
REMARK SMILES IDX 80 45 36 47 68 48 48 49 67 50 49 51 52 52 66 53 85 54 50 55
REMARK SMILES IDX 51 56 65 58 86 59 53 60 37 61 38 62 46 63 39 64 41 65 47 66
REMARK SMILES IDX 40 67 42 68 43 69 44 70 45 71 69 72 70 73 78 74 71 75 73 76
REMARK SMILES IDX 79 77 72 78 74 79 75 80 76 81 77 82 54 83 55 84 63 85 56 86
REMARK SMILES IDX 58 87 64 88 57 89 59 90 60 91 61 92 62 93
REMARK H PARENT 10 15 84 46 52 57
REMARK Flexibility Score: inf
ROOT
ATOM      1  O   UNL A   1      32.299  28.289  25.011  1.00  0.00    -0.374 OA
ENDROOT
BRANCH   1   2
ATOM      2  C   UNL A   1      31.179  27.852  24.247  1.00  0.00     0.202 C 
BRANCH   2   3
ATOM      3  C   UNL A   1      30.320  26.706  24.779  1.00  0.00     0.261 C 
BRANCH   3   4
ATOM      4  O   UNL A   1      31.040  25.498  25.050  1.00  0.00    -0.463 OA
BRANCH   4   5
ATOM      5  C   UNL A   1      30.763  24.641  26.056  1.00  0.00     0.310 C 
ATOM      6  O   UNL A   1      29.800  24.859  26.797  1.00  0.00    -0.252 OA
BRANCH   5   7
ATOM      7  C   UNL A   1      31.634  23.431  26.321  1.00  0.00     0.160 C 
BRANCH   7   8
ATOM      8  C   UNL A   1      32.944  23.406  25.578  1.00  0.00    -0.013 A 
ATOM      9  C   UNL A   1      33.898  24.397  25.885  1.00  0.00     0.006 A 
ATOM     10  C   UNL A   1      33.176  22.481  24.535  1.00  0.00     0.042 A 
ATOM     11  C   UNL A   1      35.042  24.533  25.109  1.00  0.00     0.000 A 
ATOM     12  C   UNL A   1      34.327  22.656  23.756  1.00  0.00     0.026 A 
ATOM     13  C   UNL A   1      35.249  23.672  24.036  1.00  0.00     0.002 A 
BRANCH  10  14
ATOM     14  N   UNL A   1      32.216  21.500  24.235  1.00  0.00    -0.353 N 
ATOM     15  H   UNL A   1      31.286  21.824  24.247  1.00  0.00     0.167 HD
BRANCH  14  16
ATOM     16  C   UNL A   1      32.354  20.132  23.918  1.00  0.00     0.076 A 
ATOM     17  C   UNL A   1      32.834  19.233  24.892  1.00  0.00     0.066 A 
ATOM     18  C   UNL A   1      32.247  19.668  22.595  1.00  0.00     0.066 A 
ATOM     19  Cl  UNL A   1      33.088  19.733  26.530  1.00  0.00    -0.082 Cl
ATOM     20  C   UNL A   1      33.136  17.907  24.569  1.00  0.00     0.023 A 
ATOM     21  C   UNL A   1      32.547  18.340  22.273  1.00  0.00     0.023 A 
ATOM     22  Cl  UNL A   1      31.821  20.724  21.288  1.00  0.00    -0.082 Cl
ATOM     23  C   UNL A   1      32.988  17.460  23.259  1.00  0.00     0.003 A 
ENDBRANCH  14  16
ENDBRANCH  10  14
ENDBRANCH   7   8
ENDBRANCH   5   7
ENDBRANCH   4   5
ENDBRANCH   3   4
ENDBRANCH   2   3
ENDBRANCH   1   2
BRANCH   1  24
ATOM     24  C   UNL A   1      32.570  29.695  25.059  1.00  0.00     0.202 C 
BRANCH  24  25
ATOM     25  C   UNL A   1      31.947  30.526  26.181  1.00  0.00     0.261 C 
BRANCH  25  26
ATOM     26  O   UNL A   1      32.741  30.513  27.371  1.00  0.00    -0.460 OA
BRANCH  26  27
ATOM     27  C   UNL A   1      33.529  31.602  27.523  1.00  0.00     0.338 C 
ATOM     28  O   UNL A   1      33.166  32.770  27.588  1.00  0.00    -0.246 OA
BRANCH  27  29
ATOM     29  C   UNL A   1      34.901  31.174  27.834  1.00  0.00     0.060 A 
ATOM     30  C   UNL A   1      35.144  29.795  27.908  1.00  0.00     0.016 A 
ATOM     31  C   UNL A   1      35.918  32.097  28.089  1.00  0.00     0.016 A 
ATOM     32  C   UNL A   1      36.379  29.332  28.339  1.00  0.00     0.010 A 
ATOM     33  C   UNL A   1      37.156  31.632  28.528  1.00  0.00     0.010 A 
ATOM     34  C   UNL A   1      37.362  30.254  28.716  1.00  0.00    -0.014 A 
BRANCH  34  35
ATOM     35  C   UNL A   1      38.504  29.783  29.523  1.00  0.00     0.031 A 
ATOM     36  C   UNL A   1      38.655  30.323  30.919  1.00  0.00     0.074 A 
ATOM     37  C   UNL A   1      39.363  28.877  29.031  1.00  0.00     0.049 A 
ATOM     38  N   UNL A   1      39.574  30.070  31.811  1.00  0.00    -0.248 NA
ATOM     39  C   UNL A   1      37.631  31.284  31.368  1.00  0.00     0.031 C 
ATOM     40  C   UNL A   1      39.291  28.280  27.698  1.00  0.00     0.029 A 
ATOM     41  N   UNL A   1      40.477  28.314  29.597  1.00  0.00    -0.354 N 
ATOM     42  C   UNL A   1      39.263  30.865  32.908  1.00  0.00     0.074 A 
ATOM     43  C   UNL A   1      38.079  31.622  32.566  1.00  0.00     0.031 C 
ATOM     44  C   UNL A   1      40.333  27.446  27.540  1.00  0.00     0.029 A 
ATOM     45  C   UNL A   1      41.154  27.475  28.747  1.00  0.00     0.049 A 
ATOM     46  H   UNL A   1      40.763  28.494  30.521  1.00  0.00     0.167 HD
ATOM     47  C   UNL A   1      39.901  30.949  34.098  1.00  0.00     0.034 A 
ATOM     48  C   UNL A   1      42.319  26.822  28.926  1.00  0.00     0.034 A 
ATOM     49  C   UNL A   1      41.068  30.177  34.427  1.00  0.00     0.049 A 
ATOM     50  C   UNL A   1      43.024  26.952  30.251  1.00  0.00     0.074 A 
ATOM     51  C   UNL A   1      41.772  30.143  35.616  1.00  0.00     0.029 A 
ATOM     52  N   UNL A   1      41.714  29.314  33.553  1.00  0.00    -0.354 N 
ATOM     53  N   UNL A   1      42.663  27.624  31.319  1.00  0.00    -0.248 NA
ATOM     54  C   UNL A   1      44.277  26.203  30.409  1.00  0.00     0.031 C 
ATOM     55  C   UNL A   1      42.867  29.289  35.448  1.00  0.00     0.029 A 
ATOM     56  C   UNL A   1      42.817  28.754  34.170  1.00  0.00     0.049 A 
ATOM     57  H   UNL A   1      41.427  29.127  32.629  1.00  0.00     0.167 HD
ATOM     58  C   UNL A   1      43.621  27.345  32.288  1.00  0.00     0.074 A 
ATOM     59  C   UNL A   1      44.567  26.429  31.682  1.00  0.00     0.031 C 
ATOM     60  C   UNL A   1      43.717  27.808  33.560  1.00  0.00     0.034 A 
BRANCH  47  61
ATOM     61  C   UNL A   1      39.348  31.904  35.124  1.00  0.00     0.023 A 
ATOM     62  C   UNL A   1      38.272  31.513  35.946  1.00  0.00     0.012 A 
ATOM     63  C   UNL A   1      39.917  33.181  35.294  1.00  0.00     0.148 A 
ATOM     64  C   UNL A   1      37.745  32.391  36.893  1.00  0.00     0.002 A 
ATOM     65  C   UNL A   1      39.420  34.032  36.274  1.00  0.00     0.091 A 
ATOM     66  F   UNL A   1      40.922  33.546  34.485  1.00  0.00    -0.205 F 
ATOM     67  C   UNL A   1      38.325  33.645  37.064  1.00  0.00     0.022 A 
BRANCH  65  68
ATOM     68  S   UNL A   1      40.150  35.634  36.625  1.00  0.00     0.127 S 
ATOM     69  O   UNL A   1      39.699  35.870  37.996  1.00  0.00    -0.237 OA
ATOM     70  O   UNL A   1      41.581  35.353  36.495  1.00  0.00    -0.237 OA
ATOM     71  O   UNL A   1      39.617  36.548  35.626  1.00  0.00    -0.744 OA
ENDBRANCH  65  68
ENDBRANCH  47  61
BRANCH  48  72
ATOM     72  C   UNL A   1      42.867  25.961  27.842  1.00  0.00     0.023 A 
ATOM     73  C   UNL A   1      43.786  26.503  26.923  1.00  0.00     0.012 A 
ATOM     74  C   UNL A   1      42.498  24.606  27.729  1.00  0.00     0.148 A 
ATOM     75  C   UNL A   1      44.301  25.721  25.889  1.00  0.00     0.002 A 
ATOM     76  C   UNL A   1      43.058  23.818  26.730  1.00  0.00     0.091 A 
ATOM     77  F   UNL A   1      41.615  24.113  28.608  1.00  0.00    -0.205 F 
ATOM     78  C   UNL A   1      43.945  24.378  25.798  1.00  0.00     0.022 A 
BRANCH  76  79
ATOM     79  S   UNL A   1      42.754  22.052  26.609  1.00  0.00     0.127 S 
ATOM     80  O   UNL A   1      42.681  21.665  28.016  1.00  0.00    -0.237 OA
ATOM     81  O   UNL A   1      41.478  22.016  25.894  1.00  0.00    -0.237 OA
ATOM     82  O   UNL A   1      43.880  21.508  25.863  1.00  0.00    -0.744 OA
ENDBRANCH  76  79
ENDBRANCH  48  72
BRANCH  60  83
ATOM     83  C   UNL A   1      44.854  27.291  34.403  1.00  0.00     0.023 A 
ATOM     84  C   UNL A   1      46.087  27.974  34.427  1.00  0.00     0.012 A 
ATOM     85  C   UNL A   1      44.675  26.158  35.221  1.00  0.00     0.148 A 
ATOM     86  C   UNL A   1      47.136  27.511  35.219  1.00  0.00     0.002 A 
ATOM     87  C   UNL A   1      45.707  25.736  36.050  1.00  0.00     0.091 A 
ATOM     88  F   UNL A   1      43.501  25.512  35.171  1.00  0.00    -0.205 F 
ATOM     89  C   UNL A   1      46.943  26.400  36.038  1.00  0.00     0.022 A 
BRANCH  87  90
ATOM     90  S   UNL A   1      45.513  24.381  37.213  1.00  0.00     0.127 S 
ATOM     91  O   UNL A   1      44.544  24.935  38.156  1.00  0.00    -0.237 OA
ATOM     92  O   UNL A   1      44.992  23.313  36.359  1.00  0.00    -0.237 OA
ATOM     93  O   UNL A   1      46.840  24.125  37.758  1.00  0.00    -0.744 OA
ENDBRANCH  87  90
ENDBRANCH  60  83
ENDBRANCH  34  35
ENDBRANCH  27  29
ENDBRANCH  26  27
ENDBRANCH  25  26
ENDBRANCH  24  25
ENDBRANCH   1  24
TORSDOF 20
ENDMDL
MODEL 3
REMARK VINA RESULT:     -10.8      1.471      8.068
REMARK SMILES O=C(Cc1ccccc1Nc1c(Cl)cccc1Cl)OCCOCCOC(=O)c1ccc(-c2c3nc(c(-c4cccc(S(=O)(=O)[O-])c4F)c4ccc([nH]4)c(-c4cccc(S(=O)(=O)[O-])c4F)c4nc(c(-c5cccc(S(=O)(=O)[O-])c5F)c5ccc2[nH]5)C=C4)C=C3)cc1
REMARK SMILES IDX 22 1 21 2 20 3 19 4 2 5 1 6 3 7 4 8 5 9 9 10 6 11 8 12 7 13
REMARK SMILES IDX 10 14 11 16 12 17 17 18 13 19 14 20 16 21 18 22 15 23 23 24
REMARK SMILES IDX 24 25 25 26 26 27 27 28 28 29 29 30 90 31 30 32 89 33 31 34
REMARK SMILES IDX 32 35 33 36 83 37 34 38 88 39 82 40 84 41 35 42 87 43 81 44
REMARK SMILES IDX 80 45 36 47 68 48 48 49 67 50 49 51 52 52 66 53 85 54 50 55
REMARK SMILES IDX 51 56 65 58 86 59 53 60 37 61 38 62 46 63 39 64 41 65 47 66
REMARK SMILES IDX 40 67 42 68 43 69 44 70 45 71 69 72 70 73 78 74 71 75 73 76
REMARK SMILES IDX 79 77 72 78 74 79 75 80 76 81 77 82 54 83 55 84 63 85 56 86
REMARK SMILES IDX 58 87 64 88 57 89 59 90 60 91 61 92 62 93
REMARK H PARENT 10 15 84 46 52 57
REMARK Flexibility Score: inf
ROOT
ATOM      1  O   UNL A   1      35.343  20.886  24.333  1.00  0.00    -0.374 OA
ENDROOT
BRANCH   1   2
ATOM      2  C   UNL A   1      33.941  20.746  24.532  1.00  0.00     0.202 C 
BRANCH   2   3
ATOM      3  C   UNL A   1      32.983  21.574  23.677  1.00  0.00     0.261 C 
BRANCH   3   4
ATOM      4  O   UNL A   1      33.624  22.462  22.755  1.00  0.00    -0.463 OA
BRANCH   4   5
ATOM      5  C   UNL A   1      33.849  23.776  22.974  1.00  0.00     0.310 C 
ATOM      6  O   UNL A   1      35.000  24.175  23.169  1.00  0.00    -0.252 OA
BRANCH   5   7
ATOM      7  C   UNL A   1      32.708  24.770  23.024  1.00  0.00     0.160 C 
BRANCH   7   8
ATOM      8  C   UNL A   1      33.117  26.212  23.176  1.00  0.00    -0.013 A 
ATOM      9  C   UNL A   1      33.315  26.971  22.005  1.00  0.00     0.006 A 
ATOM     10  C   UNL A   1      33.392  26.765  24.447  1.00  0.00     0.042 A 
ATOM     11  C   UNL A   1      33.866  28.245  22.079  1.00  0.00     0.000 A 
ATOM     12  C   UNL A   1      33.967  28.041  24.490  1.00  0.00     0.026 A 
ATOM     13  C   UNL A   1      34.205  28.773  23.320  1.00  0.00     0.002 A 
BRANCH  10  14
ATOM     14  N   UNL A   1      33.196  25.998  25.608  1.00  0.00    -0.353 N 
ATOM     15  H   UNL A   1      33.852  26.166  26.323  1.00  0.00     0.167 HD
BRANCH  14  16
ATOM     16  C   UNL A   1      32.220  25.030  25.927  1.00  0.00     0.076 A 
ATOM     17  C   UNL A   1      30.852  25.364  25.850  1.00  0.00     0.066 A 
ATOM     18  C   UNL A   1      32.563  23.812  26.539  1.00  0.00     0.066 A 
ATOM     19  Cl  UNL A   1      30.332  26.881  25.198  1.00  0.00    -0.082 Cl
ATOM     20  C   UNL A   1      29.865  24.489  26.311  1.00  0.00     0.023 A 
ATOM     21  C   UNL A   1      31.574  22.935  26.997  1.00  0.00     0.023 A 
ATOM     22  Cl  UNL A   1      34.213  23.369  26.831  1.00  0.00    -0.082 Cl
ATOM     23  C   UNL A   1      30.227  23.271  26.881  1.00  0.00     0.003 A 
ENDBRANCH  14  16
ENDBRANCH  10  14
ENDBRANCH   7   8
ENDBRANCH   5   7
ENDBRANCH   4   5
ENDBRANCH   3   4
ENDBRANCH   2   3
ENDBRANCH   1   2
BRANCH   1  24
ATOM     24  C   UNL A   1      36.221  20.237  25.261  1.00  0.00     0.202 C 
BRANCH  24  25
ATOM     25  C   UNL A   1      37.710  20.148  24.928  1.00  0.00     0.261 C 
BRANCH  25  26
ATOM     26  O   UNL A   1      38.417  21.339  25.283  1.00  0.00    -0.460 OA
BRANCH  26  27
ATOM     27  C   UNL A   1      39.484  21.131  26.088  1.00  0.00     0.338 C 
ATOM     28  O   UNL A   1      40.213  20.147  26.105  1.00  0.00    -0.246 OA
BRANCH  27  29
ATOM     29  C   UNL A   1      39.801  22.372  26.813  1.00  0.00     0.060 A 
ATOM     30  C   UNL A   1      39.067  23.519  26.476  1.00  0.00     0.016 A 
ATOM     31  C   UNL A   1      40.819  22.425  27.767  1.00  0.00     0.016 A 
ATOM     32  C   UNL A   1      39.418  24.747  27.017  1.00  0.00     0.010 A 
ATOM     33  C   UNL A   1      41.174  23.660  28.306  1.00  0.00     0.010 A 
ATOM     34  C   UNL A   1      40.516  24.827  27.879  1.00  0.00    -0.014 A 
BRANCH  34  35
ATOM     35  C   UNL A   1      41.118  26.149  28.142  1.00  0.00     0.031 A 
ATOM     36  C   UNL A   1      42.503  26.413  27.618  1.00  0.00     0.074 A 
ATOM     37  C   UNL A   1      40.433  27.095  28.803  1.00  0.00     0.049 A 
ATOM     38  N   UNL A   1      43.240  27.484  27.727  1.00  0.00    -0.248 NA
ATOM     39  C   UNL A   1      43.146  25.315  26.872  1.00  0.00     0.031 C 
ATOM     40  C   UNL A   1      39.079  26.942  29.334  1.00  0.00     0.029 A 
ATOM     41  N   UNL A   1      40.795  28.368  29.154  1.00  0.00    -0.354 N 
ATOM     42  C   UNL A   1      44.443  27.179  27.101  1.00  0.00     0.074 A 
ATOM     43  C   UNL A   1      44.345  25.817  26.626  1.00  0.00     0.031 C 
ATOM     44  C   UNL A   1      38.730  28.076  29.964  1.00  0.00     0.029 A 
ATOM     45  C   UNL A   1      39.845  29.018  29.904  1.00  0.00     0.049 A 
ATOM     46  H   UNL A   1      41.652  28.777  28.895  1.00  0.00     0.167 HD
ATOM     47  C   UNL A   1      45.529  27.968  26.927  1.00  0.00     0.034 A 
ATOM     48  C   UNL A   1      39.889  30.230  30.489  1.00  0.00     0.034 A 
ATOM     49  C   UNL A   1      45.604  29.326  27.392  1.00  0.00     0.049 A 
ATOM     50  C   UNL A   1      41.119  31.079  30.303  1.00  0.00     0.074 A 
ATOM     51  C   UNL A   1      46.632  30.235  27.233  1.00  0.00     0.029 A 
ATOM     52  N   UNL A   1      44.612  29.964  28.124  1.00  0.00    -0.354 N 
ATOM     53  N   UNL A   1      42.207  30.820  29.618  1.00  0.00    -0.248 NA
ATOM     54  C   UNL A   1      41.110  32.403  30.938  1.00  0.00     0.031 C 
ATOM     55  C   UNL A   1      46.279  31.411  27.904  1.00  0.00     0.029 A 
ATOM     56  C   UNL A   1      45.010  31.250  28.439  1.00  0.00     0.049 A 
ATOM     57  H   UNL A   1      43.751  29.560  28.380  1.00  0.00     0.167 HD
ATOM     58  C   UNL A   1      42.995  31.964  29.705  1.00  0.00     0.074 A 
ATOM     59  C   UNL A   1      42.247  32.921  30.495  1.00  0.00     0.031 C 
ATOM     60  C   UNL A   1      44.227  32.200  29.187  1.00  0.00     0.034 A 
BRANCH  47  61
ATOM     61  C   UNL A   1      46.714  27.380  26.207  1.00  0.00     0.023 A 
ATOM     62  C   UNL A   1      46.812  27.485  24.804  1.00  0.00     0.012 A 
ATOM     63  C   UNL A   1      47.749  26.748  26.924  1.00  0.00     0.148 A 
ATOM     64  C   UNL A   1      47.900  26.936  24.124  1.00  0.00     0.002 A 
ATOM     65  C   UNL A   1      48.853  26.249  26.244  1.00  0.00     0.091 A 
ATOM     66  F   UNL A   1      47.626  26.633  28.254  1.00  0.00    -0.205 F 
ATOM     67  C   UNL A   1      48.924  26.330  24.844  1.00  0.00     0.022 A 
BRANCH  65  68
ATOM     68  S   UNL A   1      50.261  25.522  27.090  1.00  0.00     0.127 S 
ATOM     69  O   UNL A   1      49.672  24.308  27.653  1.00  0.00    -0.237 OA
ATOM     70  O   UNL A   1      51.195  25.290  25.986  1.00  0.00    -0.237 OA
ATOM     71  O   UNL A   1      50.703  26.511  28.061  1.00  0.00    -0.744 OA
ENDBRANCH  65  68
ENDBRANCH  47  61
BRANCH  48  72
ATOM     72  C   UNL A   1      38.720  30.726  31.268  1.00  0.00     0.023 A 
ATOM     73  C   UNL A   1      38.718  30.601  32.671  1.00  0.00     0.012 A 
ATOM     74  C   UNL A   1      37.623  31.335  30.630  1.00  0.00     0.148 A 
ATOM     75  C   UNL A   1      37.629  31.042  33.422  1.00  0.00     0.002 A 
ATOM     76  C   UNL A   1      36.565  31.824  31.388  1.00  0.00     0.091 A 
ATOM     77  F   UNL A   1      37.641  31.436  29.294  1.00  0.00    -0.205 F 
ATOM     78  C   UNL A   1      36.558  31.662  32.783  1.00  0.00     0.022 A 
BRANCH  76  79
ATOM     79  S   UNL A   1      35.202  32.743  30.666  1.00  0.00     0.127 S 
ATOM     80  O   UNL A   1      34.235  32.753  31.762  1.00  0.00    -0.237 OA
ATOM     81  O   UNL A   1      35.828  34.036  30.386  1.00  0.00    -0.237 OA
ATOM     82  O   UNL A   1      34.805  31.996  29.482  1.00  0.00    -0.744 OA
ENDBRANCH  76  79
ENDBRANCH  48  72
BRANCH  60  83
ATOM     83  C   UNL A   1      44.823  33.566  29.411  1.00  0.00     0.023 A 
ATOM     84  C   UNL A   1      45.597  33.822  30.560  1.00  0.00     0.012 A 
ATOM     85  C   UNL A   1      44.664  34.578  28.444  1.00  0.00     0.148 A 
ATOM     86  C   UNL A   1      46.166  35.078  30.764  1.00  0.00     0.002 A 
ATOM     87  C   UNL A   1      45.281  35.809  28.627  1.00  0.00     0.091 A 
ATOM     88  F   UNL A   1      43.910  34.320  27.365  1.00  0.00    -0.205 F 
ATOM     89  C   UNL A   1      46.018  36.067  29.793  1.00  0.00     0.022 A 
BRANCH  87  90
ATOM     90  S   UNL A   1      45.232  37.103  27.382  1.00  0.00     0.127 S 
ATOM     91  O   UNL A   1      46.019  36.509  26.303  1.00  0.00    -0.237 OA
ATOM     92  O   UNL A   1      43.799  37.211  27.105  1.00  0.00    -0.237 OA
ATOM     93  O   UNL A   1      45.816  38.284  28.006  1.00  0.00    -0.744 OA
ENDBRANCH  87  90
ENDBRANCH  60  83
ENDBRANCH  34  35
ENDBRANCH  27  29
ENDBRANCH  26  27
ENDBRANCH  25  26
ENDBRANCH  24  25
ENDBRANCH   1  24
TORSDOF 20
ENDMDL
