MODEL 1
REMARK VINA RESULT:     -11.6      0.000      0.000
REMARK SMILES C[C@@]1(Oc2c[nH]c3ccc(Br)c(Cl)c23)O[C@@H](C(=O)OCCOCCOC(=O)c2ccc(-c3c4nc(c(-c5cccc(S(=O)(=O)[O-])c5F)c5ccc([nH]5)c(-c5cccc(S(=O)(=O)[O-])c5F)c5nc(c(-c6cccc(S(=O)(=O)[O-])c6F)c6ccc3[nH]6)C=C5)C=C4)cc2)[C@@](C)(O)[C@@](C)(O)[C@@]1(C)O
REMARK SMILES IDX 23 1 22 2 21 3 20 4 19 5 17 6 18 7 16 8 1 9 2 10 15 11 97 12
REMARK SMILES IDX 94 13 98 14 91 15 95 16 92 17 3 18 4 19 5 20 14 21 6 22 7 23
REMARK SMILES IDX 12 24 8 26 10 27 13 28 9 29 11 30 99 31 96 33 93 35 24 37
REMARK SMILES IDX 25 38 26 39 27 40 28 41 29 42 90 43 30 44 89 45 31 46 32 47
REMARK SMILES IDX 33 48 83 49 34 50 88 51 82 52 84 53 35 54 87 55 81 56 80 57
REMARK SMILES IDX 36 59 68 60 48 61 67 62 49 63 52 64 66 65 85 66 50 67 51 68
REMARK SMILES IDX 65 70 86 71 53 72 37 73 38 74 46 75 39 76 41 77 47 78 40 79
REMARK SMILES IDX 42 80 43 81 44 82 45 83 69 84 70 85 78 86 71 87 73 88 79 89
REMARK SMILES IDX 72 90 74 91 75 92 76 93 77 94 54 95 55 96 63 97 56 98 58 99
REMARK SMILES IDX 64 100 57 101 59 102 60 103 61 104 62 105
REMARK H PARENT 6 25 99 32 96 34 93 36 84 58 52 69
REMARK Flexibility Score: inf
ROOT
ATOM      1  C   UNL A   1      34.540  33.226  28.288  1.00  0.00     0.202 C 
ENDROOT
BRANCH   1   2
ATOM      2  O   UNL A   1      33.332  32.572  27.907  1.00  0.00    -0.374 OA
BRANCH   2   3
ATOM      3  C   UNL A   1      33.439  31.241  27.391  1.00  0.00     0.202 C 
BRANCH   3   4
ATOM      4  C   UNL A   1      32.128  30.629  26.924  1.00  0.00     0.261 C 
BRANCH   4   5
ATOM      5  O   UNL A   1      32.398  29.490  26.091  1.00  0.00    -0.461 OA
BRANCH   5   6
ATOM      6  C   UNL A   1      31.848  28.305  26.411  1.00  0.00     0.338 C 
ATOM      7  O   UNL A   1      31.943  27.770  27.512  1.00  0.00    -0.249 OA
BRANCH   6   8
ATOM      8  C   UNL A   1      31.132  27.639  25.226  1.00  0.00     0.266 C 
ATOM      9  C   UNL A   1      34.120  26.889  24.501  1.00  0.00     0.094 C 
ATOM     10  C   UNL A   1      32.792  26.396  23.888  1.00  0.00     0.240 C 
ATOM     11  O   UNL A   1      31.720  26.413  24.841  1.00  0.00    -0.320 OA
ATOM     12  C   UNL A   1      32.407  27.207  22.560  1.00  0.00     0.158 C 
ATOM     13  C   UNL A   1      31.767  28.605  22.929  1.00  0.00     0.128 C 
ATOM     14  C   UNL A   1      31.467  26.465  21.589  1.00  0.00     0.053 C 
ATOM     15  C   UNL A   1      30.639  28.478  24.017  1.00  0.00     0.130 C 
ATOM     16  C   UNL A   1      31.313  29.395  21.679  1.00  0.00     0.049 C 
ATOM     17  C   UNL A   1      29.331  27.834  23.497  1.00  0.00     0.049 C 
BRANCH  10  18
ATOM     18  O   UNL A   1      33.188  25.007  23.572  1.00  0.00    -0.457 OA
BRANCH  18  19
ATOM     19  C   UNL A   1      32.553  24.038  24.272  1.00  0.00     0.150 A 
ATOM     20  C   UNL A   1      31.198  23.914  24.475  1.00  0.00     0.130 A 
ATOM     21  C   UNL A   1      33.198  22.905  24.833  1.00  0.00     0.061 A 
ATOM     22  N   UNL A   1      30.982  22.630  24.907  1.00  0.00    -0.358 N 
ATOM     23  C   UNL A   1      32.184  21.959  25.003  1.00  0.00     0.051 A 
ATOM     24  C   UNL A   1      34.540  22.502  24.993  1.00  0.00     0.068 A 
ATOM     25  H   UNL A   1      30.100  22.245  25.119  1.00  0.00     0.166 HD
ATOM     26  C   UNL A   1      32.458  20.600  25.178  1.00  0.00     0.028 A 
ATOM     27  C   UNL A   1      34.837  21.144  25.086  1.00  0.00     0.037 A 
ATOM     28  Cl  UNL A   1      35.707  23.760  24.927  1.00  0.00    -0.082 Cl
ATOM     29  C   UNL A   1      33.804  20.207  25.154  1.00  0.00     0.019 A 
ATOM     30  Br  UNL A   1      36.621  20.506  24.993  1.00  0.00    -0.049 Br
ENDBRANCH  18  19
ENDBRANCH  10  18
BRANCH  12  31
ATOM     31  O   UNL A   1      33.610  27.421  21.781  1.00  0.00    -0.380 OA
ATOM     32  H   UNL A   1      34.388  27.307  22.349  1.00  0.00     0.211 HD
ENDBRANCH  12  31
BRANCH  13  33
ATOM     33  O   UNL A   1      32.785  29.455  23.503  1.00  0.00    -0.384 OA
ATOM     34  H   UNL A   1      33.449  29.666  22.828  1.00  0.00     0.211 HD
ENDBRANCH  13  33
BRANCH  15  35
ATOM     35  O   UNL A   1      30.275  29.810  24.430  1.00  0.00    -0.384 OA
ATOM     36  H   UNL A   1      29.496  29.768  25.005  1.00  0.00     0.211 HD
ENDBRANCH  15  35
ENDBRANCH   6   8
ENDBRANCH   5   6
ENDBRANCH   4   5
ENDBRANCH   3   4
ENDBRANCH   2   3
ENDBRANCH   1   2
BRANCH   1  37
ATOM     37  C   UNL A   1      34.727  33.470  29.778  1.00  0.00     0.261 C 
BRANCH  37  38
ATOM     38  O   UNL A   1      34.675  32.243  30.493  1.00  0.00    -0.460 OA
BRANCH  38  39
ATOM     39  C   UNL A   1      35.826  31.914  31.129  1.00  0.00     0.338 C 
ATOM     40  O   UNL A   1      36.110  32.120  32.289  1.00  0.00    -0.246 OA
BRANCH  39  41
ATOM     41  C   UNL A   1      36.767  31.393  30.129  1.00  0.00     0.060 A 
ATOM     42  C   UNL A   1      36.637  30.039  29.843  1.00  0.00     0.016 A 
ATOM     43  C   UNL A   1      37.944  32.107  29.865  1.00  0.00     0.016 A 
ATOM     44  C   UNL A   1      37.791  29.338  29.608  1.00  0.00     0.010 A 
ATOM     45  C   UNL A   1      39.097  31.411  29.638  1.00  0.00     0.010 A 
ATOM     46  C   UNL A   1      39.010  30.030  29.632  1.00  0.00    -0.014 A 
BRANCH  46  47
ATOM     47  C   UNL A   1      40.214  29.252  29.546  1.00  0.00     0.031 A 
ATOM     48  C   UNL A   1      40.803  29.042  30.878  1.00  0.00     0.074 A 
ATOM     49  C   UNL A   1      40.702  28.789  28.381  1.00  0.00     0.049 A 
ATOM     50  N   UNL A   1      41.797  29.690  31.383  1.00  0.00    -0.248 NA
ATOM     51  C   UNL A   1      40.055  28.219  31.840  1.00  0.00     0.031 C 
ATOM     52  C   UNL A   1      40.060  28.718  27.066  1.00  0.00     0.029 A 
ATOM     53  N   UNL A   1      41.888  28.170  28.173  1.00  0.00    -0.354 N 
ATOM     54  C   UNL A   1      41.959  29.154  32.649  1.00  0.00     0.074 A 
ATOM     55  C   UNL A   1      40.748  28.440  32.958  1.00  0.00     0.031 C 
ATOM     56  C   UNL A   1      40.767  27.872  26.278  1.00  0.00     0.029 A 
ATOM     57  C   UNL A   1      41.970  27.460  26.981  1.00  0.00     0.049 A 
ATOM     58  H   UNL A   1      42.633  28.219  28.814  1.00  0.00     0.167 HD
ATOM     59  C   UNL A   1      43.189  29.084  33.218  1.00  0.00     0.034 A 
ATOM     60  C   UNL A   1      42.926  26.543  26.684  1.00  0.00     0.034 A 
ATOM     61  C   UNL A   1      44.140  29.937  32.556  1.00  0.00     0.049 A 
ATOM     62  C   UNL A   1      44.085  26.850  27.566  1.00  0.00     0.074 A 
ATOM     63  C   UNL A   1      44.224  31.295  32.321  1.00  0.00     0.029 A 
ATOM     64  N   UNL A   1      44.971  29.337  31.642  1.00  0.00    -0.354 N 
ATOM     65  N   UNL A   1      44.779  27.951  27.486  1.00  0.00    -0.248 NA
ATOM     66  C   UNL A   1      44.179  26.138  28.831  1.00  0.00     0.031 C 
ATOM     67  C   UNL A   1      44.736  31.408  30.996  1.00  0.00     0.029 A 
ATOM     68  C   UNL A   1      44.993  30.121  30.518  1.00  0.00     0.049 A 
ATOM     69  H   UNL A   1      45.464  28.494  31.771  1.00  0.00     0.167 HD
ATOM     70  C   UNL A   1      45.021  28.302  28.808  1.00  0.00     0.074 A 
ATOM     71  C   UNL A   1      44.707  27.104  29.586  1.00  0.00     0.031 C 
ATOM     72  C   UNL A   1      45.166  29.607  29.177  1.00  0.00     0.034 A 
BRANCH  59  73
ATOM     73  C   UNL A   1      43.607  27.946  34.101  1.00  0.00     0.023 A 
ATOM     74  C   UNL A   1      44.124  28.253  35.372  1.00  0.00     0.012 A 
ATOM     75  C   UNL A   1      43.752  26.617  33.638  1.00  0.00     0.148 A 
ATOM     76  C   UNL A   1      44.757  27.278  36.148  1.00  0.00     0.002 A 
ATOM     77  C   UNL A   1      44.305  25.634  34.444  1.00  0.00     0.091 A 
ATOM     78  F   UNL A   1      43.488  26.322  32.360  1.00  0.00    -0.205 F 
ATOM     79  C   UNL A   1      44.831  25.965  35.694  1.00  0.00     0.022 A 
BRANCH  77  80
ATOM     80  S   UNL A   1      44.394  23.923  33.908  1.00  0.00     0.127 S 
ATOM     81  O   UNL A   1      45.489  23.417  34.733  1.00  0.00    -0.237 OA
ATOM     82  O   UNL A   1      43.065  23.429  34.269  1.00  0.00    -0.237 OA
ATOM     83  O   UNL A   1      44.641  23.976  32.474  1.00  0.00    -0.744 OA
ENDBRANCH  77  80
ENDBRANCH  59  73
BRANCH  60  84
ATOM     84  C   UNL A   1      42.805  25.226  26.003  1.00  0.00     0.023 A 
ATOM     85  C   UNL A   1      43.812  24.841  25.087  1.00  0.00     0.012 A 
ATOM     86  C   UNL A   1      41.920  24.224  26.460  1.00  0.00     0.148 A 
ATOM     87  C   UNL A   1      43.980  23.504  24.706  1.00  0.00     0.002 A 
ATOM     88  C   UNL A   1      42.084  22.897  26.069  1.00  0.00     0.091 A 
ATOM     89  F   UNL A   1      40.977  24.548  27.353  1.00  0.00    -0.205 F 
ATOM     90  C   UNL A   1      43.125  22.529  25.208  1.00  0.00     0.022 A 
BRANCH  88  91
ATOM     91  S   UNL A   1      41.019  21.582  26.682  1.00  0.00     0.127 S 
ATOM     92  O   UNL A   1      41.616  20.394  26.069  1.00  0.00    -0.237 OA
ATOM     93  O   UNL A   1      41.206  21.685  28.125  1.00  0.00    -0.237 OA
ATOM     94  O   UNL A   1      39.681  21.893  26.192  1.00  0.00    -0.744 OA
ENDBRANCH  88  91
ENDBRANCH  60  84
BRANCH  72  95
ATOM     95  C   UNL A   1      45.295  30.642  28.090  1.00  0.00     0.023 A 
ATOM     96  C   UNL A   1      44.175  31.245  27.478  1.00  0.00     0.012 A 
ATOM     97  C   UNL A   1      46.574  31.159  27.835  1.00  0.00     0.148 A 
ATOM     98  C   UNL A   1      44.334  32.349  26.633  1.00  0.00     0.002 A 
ATOM     99  C   UNL A   1      46.725  32.277  27.026  1.00  0.00     0.091 A 
ATOM    100  F   UNL A   1      47.620  30.574  28.438  1.00  0.00    -0.205 F 
ATOM    101  C   UNL A   1      45.608  32.874  26.419  1.00  0.00     0.022 A 
BRANCH  99 102
ATOM    102  S   UNL A   1      48.320  33.063  26.793  1.00  0.00     0.127 S 
ATOM    103  O   UNL A   1      49.157  31.939  26.379  1.00  0.00    -0.237 OA
ATOM    104  O   UNL A   1      48.034  34.036  25.738  1.00  0.00    -0.237 OA
ATOM    105  O   UNL A   1      48.673  33.657  28.076  1.00  0.00    -0.744 OA
ENDBRANCH  99 102
ENDBRANCH  72  95
ENDBRANCH  46  47
ENDBRANCH  39  41
ENDBRANCH  38  39
ENDBRANCH  37  38
ENDBRANCH   1  37
TORSDOF 22
ENDMDL
MODEL 2
REMARK VINA RESULT:     -11.6      3.290      9.081
REMARK SMILES C[C@@]1(Oc2c[nH]c3ccc(Br)c(Cl)c23)O[C@@H](C(=O)OCCOCCOC(=O)c2ccc(-c3c4nc(c(-c5cccc(S(=O)(=O)[O-])c5F)c5ccc([nH]5)c(-c5cccc(S(=O)(=O)[O-])c5F)c5nc(c(-c6cccc(S(=O)(=O)[O-])c6F)c6ccc3[nH]6)C=C5)C=C4)cc2)[C@@](C)(O)[C@@](C)(O)[C@@]1(C)O
REMARK SMILES IDX 23 1 22 2 21 3 20 4 19 5 17 6 18 7 16 8 1 9 2 10 15 11 97 12
REMARK SMILES IDX 94 13 98 14 91 15 95 16 92 17 3 18 4 19 5 20 14 21 6 22 7 23
REMARK SMILES IDX 12 24 8 26 10 27 13 28 9 29 11 30 99 31 96 33 93 35 24 37
REMARK SMILES IDX 25 38 26 39 27 40 28 41 29 42 90 43 30 44 89 45 31 46 32 47
REMARK SMILES IDX 33 48 83 49 34 50 88 51 82 52 84 53 35 54 87 55 81 56 80 57
REMARK SMILES IDX 36 59 68 60 48 61 67 62 49 63 52 64 66 65 85 66 50 67 51 68
REMARK SMILES IDX 65 70 86 71 53 72 37 73 38 74 46 75 39 76 41 77 47 78 40 79
REMARK SMILES IDX 42 80 43 81 44 82 45 83 69 84 70 85 78 86 71 87 73 88 79 89
REMARK SMILES IDX 72 90 74 91 75 92 76 93 77 94 54 95 55 96 63 97 56 98 58 99
REMARK SMILES IDX 64 100 57 101 59 102 60 103 61 104 62 105
REMARK H PARENT 6 25 99 32 96 34 93 36 84 58 52 69
REMARK Flexibility Score: inf
ROOT
ATOM      1  C   UNL A   1      40.981  21.200  27.102  1.00  0.00     0.202 C 
ENDROOT
BRANCH   1   2
ATOM      2  O   UNL A   1      39.662  21.736  27.037  1.00  0.00    -0.374 OA
BRANCH   2   3
ATOM      3  C   UNL A   1      38.925  21.523  25.829  1.00  0.00     0.202 C 
BRANCH   3   4
ATOM      4  C   UNL A   1      37.810  22.525  25.575  1.00  0.00     0.261 C 
BRANCH   4   5
ATOM      5  O   UNL A   1      36.688  21.857  24.976  1.00  0.00    -0.461 OA
BRANCH   5   6
ATOM      6  C   UNL A   1      35.984  22.494  24.022  1.00  0.00     0.338 C 
ATOM      7  O   UNL A   1      36.443  23.361  23.284  1.00  0.00    -0.249 OA
BRANCH   6   8
ATOM      8  C   UNL A   1      34.507  22.072  23.987  1.00  0.00     0.266 C 
ATOM      9  C   UNL A   1      34.335  24.350  26.178  1.00  0.00     0.094 C 
ATOM     10  C   UNL A   1      33.212  23.586  25.444  1.00  0.00     0.240 C 
ATOM     11  O   UNL A   1      33.617  23.159  24.136  1.00  0.00    -0.320 OA
ATOM     12  C   UNL A   1      32.655  22.358  26.313  1.00  0.00     0.158 C 
ATOM     13  C   UNL A   1      33.628  21.117  26.206  1.00  0.00     0.128 C 
ATOM     14  C   UNL A   1      31.223  21.906  25.964  1.00  0.00     0.053 C 
ATOM     15  C   UNL A   1      34.024  20.793  24.720  1.00  0.00     0.130 C 
ATOM     16  C   UNL A   1      33.095  19.882  26.972  1.00  0.00     0.049 C 
ATOM     17  C   UNL A   1      32.880  20.172  23.883  1.00  0.00     0.049 C 
BRANCH  10  18
ATOM     18  O   UNL A   1      32.216  24.674  25.354  1.00  0.00    -0.457 OA
BRANCH  18  19
ATOM     19  C   UNL A   1      32.139  25.308  24.160  1.00  0.00     0.150 A 
ATOM     20  C   UNL A   1      31.985  24.728  22.922  1.00  0.00     0.130 A 
ATOM     21  C   UNL A   1      32.097  26.717  24.005  1.00  0.00     0.061 A 
ATOM     22  N   UNL A   1      31.595  25.726  22.067  1.00  0.00    -0.358 N 
ATOM     23  C   UNL A   1      31.529  26.926  22.745  1.00  0.00     0.051 A 
ATOM     24  C   UNL A   1      32.257  27.819  24.871  1.00  0.00     0.068 A 
ATOM     25  H   UNL A   1      31.393  25.605  21.110  1.00  0.00     0.166 HD
ATOM     26  C   UNL A   1      30.980  28.156  22.373  1.00  0.00     0.028 A 
ATOM     27  C   UNL A   1      31.644  29.030  24.554  1.00  0.00     0.037 A 
ATOM     28  Cl  UNL A   1      33.108  27.502  26.329  1.00  0.00    -0.082 Cl
ATOM     29  C   UNL A   1      30.995  29.183  23.327  1.00  0.00     0.019 A 
ATOM     30  Br  UNL A   1      31.550  30.456  25.802  1.00  0.00    -0.049 Br
ENDBRANCH  18  19
ENDBRANCH  10  18
BRANCH  12  31
ATOM     31  O   UNL A   1      32.558  22.775  27.697  1.00  0.00    -0.380 OA
ATOM     32  H   UNL A   1      31.787  22.355  28.108  1.00  0.00     0.211 HD
ENDBRANCH  12  31
BRANCH  13  33
ATOM     33  O   UNL A   1      34.862  21.422  26.894  1.00  0.00    -0.384 OA
ATOM     34  H   UNL A   1      35.251  22.226  26.518  1.00  0.00     0.211 HD
ENDBRANCH  13  33
BRANCH  15  35
ATOM     35  O   UNL A   1      35.063  19.795  24.750  1.00  0.00    -0.384 OA
ATOM     36  H   UNL A   1      35.875  20.161  24.366  1.00  0.00     0.211 HD
ENDBRANCH  15  35
ENDBRANCH   6   8
ENDBRANCH   5   6
ENDBRANCH   4   5
ENDBRANCH   3   4
ENDBRANCH   2   3
ENDBRANCH   1   2
BRANCH   1  37
ATOM     37  C   UNL A   1      41.974  21.745  26.087  1.00  0.00     0.261 C 
BRANCH  37  38
ATOM     38  O   UNL A   1      41.921  23.165  26.053  1.00  0.00    -0.460 OA
BRANCH  38  39
ATOM     39  C   UNL A   1      42.886  23.781  26.779  1.00  0.00     0.338 C 
ATOM     40  O   UNL A   1      44.086  23.667  26.654  1.00  0.00    -0.246 OA
BRANCH  39  41
ATOM     41  C   UNL A   1      42.235  24.510  27.876  1.00  0.00     0.060 A 
ATOM     42  C   UNL A   1      40.986  25.041  27.573  1.00  0.00     0.016 A 
ATOM     43  C   UNL A   1      43.019  24.988  28.934  1.00  0.00     0.016 A 
ATOM     44  C   UNL A   1      40.680  26.261  28.119  1.00  0.00     0.010 A 
ATOM     45  C   UNL A   1      42.720  26.207  29.474  1.00  0.00     0.010 A 
ATOM     46  C   UNL A   1      41.617  26.869  28.965  1.00  0.00    -0.014 A 
BRANCH  46  47
ATOM     47  C   UNL A   1      41.347  28.214  29.393  1.00  0.00     0.031 A 
ATOM     48  C   UNL A   1      42.273  29.164  28.758  1.00  0.00     0.074 A 
ATOM     49  C   UNL A   1      40.363  28.521  30.256  1.00  0.00     0.049 A 
ATOM     50  N   UNL A   1      43.321  29.686  29.300  1.00  0.00    -0.248 NA
ATOM     51  C   UNL A   1      42.177  29.353  27.303  1.00  0.00     0.031 C 
ATOM     52  C   UNL A   1      39.244  27.698  30.723  1.00  0.00     0.029 A 
ATOM     53  N   UNL A   1      40.112  29.723  30.826  1.00  0.00    -0.354 N 
ATOM     54  C   UNL A   1      43.868  30.484  28.311  1.00  0.00     0.074 A 
ATOM     55  C   UNL A   1      43.276  30.070  27.065  1.00  0.00     0.031 C 
ATOM     56  C   UNL A   1      38.316  28.504  31.294  1.00  0.00     0.029 A 
ATOM     57  C   UNL A   1      38.836  29.859  31.356  1.00  0.00     0.049 A 
ATOM     58  H   UNL A   1      40.782  30.444  30.862  1.00  0.00     0.167 HD
ATOM     59  C   UNL A   1      44.535  31.622  28.630  1.00  0.00     0.034 A 
ATOM     60  C   UNL A   1      38.262  31.036  31.716  1.00  0.00     0.034 A 
ATOM     61  C   UNL A   1      44.911  31.656  30.018  1.00  0.00     0.049 A 
ATOM     62  C   UNL A   1      39.380  31.990  31.951  1.00  0.00     0.074 A 
ATOM     63  C   UNL A   1      45.693  30.859  30.831  1.00  0.00     0.029 A 
ATOM     64  N   UNL A   1      44.096  32.376  30.858  1.00  0.00    -0.354 N 
ATOM     65  N   UNL A   1      40.255  31.850  32.908  1.00  0.00    -0.248 NA
ATOM     66  C   UNL A   1      39.789  32.839  30.843  1.00  0.00     0.031 C 
ATOM     67  C   UNL A   1      44.996  30.802  32.072  1.00  0.00     0.029 A 
ATOM     68  C   UNL A   1      43.863  31.613  31.972  1.00  0.00     0.049 A 
ATOM     69  H   UNL A   1      43.742  33.280  30.690  1.00  0.00     0.167 HD
ATOM     70  C   UNL A   1      41.464  32.207  32.323  1.00  0.00     0.074 A 
ATOM     71  C   UNL A   1      41.102  32.892  31.083  1.00  0.00     0.031 C 
ATOM     72  C   UNL A   1      42.641  31.661  32.744  1.00  0.00     0.034 A 
BRANCH  59  73
ATOM     73  C   UNL A   1      44.478  32.857  27.781  1.00  0.00     0.023 A 
ATOM     74  C   UNL A   1      45.523  33.076  26.866  1.00  0.00     0.012 A 
ATOM     75  C   UNL A   1      43.586  33.927  28.026  1.00  0.00     0.148 A 
ATOM     76  C   UNL A   1      45.671  34.308  26.222  1.00  0.00     0.002 A 
ATOM     77  C   UNL A   1      43.687  35.118  27.324  1.00  0.00     0.091 A 
ATOM     78  F   UNL A   1      42.720  33.855  29.043  1.00  0.00    -0.205 F 
ATOM     79  C   UNL A   1      44.743  35.323  26.435  1.00  0.00     0.022 A 
BRANCH  77  80
ATOM     80  S   UNL A   1      42.494  36.442  27.548  1.00  0.00     0.127 S 
ATOM     81  O   UNL A   1      41.231  35.722  27.402  1.00  0.00    -0.237 OA
ATOM     82  O   UNL A   1      42.800  36.889  28.907  1.00  0.00    -0.237 OA
ATOM     83  O   UNL A   1      42.800  37.421  26.514  1.00  0.00    -0.744 OA
ENDBRANCH  77  80
ENDBRANCH  59  73
BRANCH  60  84
ATOM     84  C   UNL A   1      36.869  31.519  31.513  1.00  0.00     0.023 A 
ATOM     85  C   UNL A   1      36.180  32.082  32.612  1.00  0.00     0.012 A 
ATOM     86  C   UNL A   1      36.330  31.732  30.224  1.00  0.00     0.148 A 
ATOM     87  C   UNL A   1      35.049  32.888  32.430  1.00  0.00     0.002 A 
ATOM     88  C   UNL A   1      35.198  32.526  30.049  1.00  0.00     0.091 A 
ATOM     89  F   UNL A   1      36.976  31.242  29.160  1.00  0.00    -0.205 F 
ATOM     90  C   UNL A   1      34.566  33.123  31.147  1.00  0.00     0.022 A 
BRANCH  88  91
ATOM     91  S   UNL A   1      34.520  32.875  28.419  1.00  0.00     0.127 S 
ATOM     92  O   UNL A   1      34.046  31.556  27.996  1.00  0.00    -0.237 OA
ATOM     93  O   UNL A   1      33.463  33.834  28.727  1.00  0.00    -0.237 OA
ATOM     94  O   UNL A   1      35.631  33.388  27.628  1.00  0.00    -0.744 OA
ENDBRANCH  88  91
ENDBRANCH  60  84
BRANCH  72  95
ATOM     95  C   UNL A   1      42.631  30.843  34.009  1.00  0.00     0.023 A 
ATOM     96  C   UNL A   1      42.662  31.428  35.293  1.00  0.00     0.012 A 
ATOM     97  C   UNL A   1      42.374  29.469  33.890  1.00  0.00     0.148 A 
ATOM     98  C   UNL A   1      42.434  30.652  36.435  1.00  0.00     0.002 A 
ATOM     99  C   UNL A   1      42.112  28.709  35.022  1.00  0.00     0.091 A 
ATOM    100  F   UNL A   1      42.339  28.940  32.658  1.00  0.00    -0.205 F 
ATOM    101  C   UNL A   1      42.144  29.295  36.298  1.00  0.00     0.022 A 
BRANCH  99 102
ATOM    102  S   UNL A   1      41.631  26.985  34.908  1.00  0.00     0.127 S 
ATOM    103  O   UNL A   1      41.282  26.673  36.293  1.00  0.00    -0.237 OA
ATOM    104  O   UNL A   1      40.495  27.041  33.988  1.00  0.00    -0.237 OA
ATOM    105  O   UNL A   1      42.790  26.272  34.387  1.00  0.00    -0.744 OA
ENDBRANCH  99 102
ENDBRANCH  72  95
ENDBRANCH  46  47
ENDBRANCH  39  41
ENDBRANCH  38  39
ENDBRANCH  37  38
ENDBRANCH   1  37
TORSDOF 22
ENDMDL
MODEL 3
REMARK VINA RESULT:     -11.2      2.951      8.806
REMARK SMILES C[C@@]1(Oc2c[nH]c3ccc(Br)c(Cl)c23)O[C@@H](C(=O)OCCOCCOC(=O)c2ccc(-c3c4nc(c(-c5cccc(S(=O)(=O)[O-])c5F)c5ccc([nH]5)c(-c5cccc(S(=O)(=O)[O-])c5F)c5nc(c(-c6cccc(S(=O)(=O)[O-])c6F)c6ccc3[nH]6)C=C5)C=C4)cc2)[C@@](C)(O)[C@@](C)(O)[C@@]1(C)O
REMARK SMILES IDX 23 1 22 2 21 3 20 4 19 5 17 6 18 7 16 8 1 9 2 10 15 11 97 12
REMARK SMILES IDX 94 13 98 14 91 15 95 16 92 17 3 18 4 19 5 20 14 21 6 22 7 23
REMARK SMILES IDX 12 24 8 26 10 27 13 28 9 29 11 30 99 31 96 33 93 35 24 37
REMARK SMILES IDX 25 38 26 39 27 40 28 41 29 42 90 43 30 44 89 45 31 46 32 47
REMARK SMILES IDX 33 48 83 49 34 50 88 51 82 52 84 53 35 54 87 55 81 56 80 57
REMARK SMILES IDX 36 59 68 60 48 61 67 62 49 63 52 64 66 65 85 66 50 67 51 68
REMARK SMILES IDX 65 70 86 71 53 72 37 73 38 74 46 75 39 76 41 77 47 78 40 79
REMARK SMILES IDX 42 80 43 81 44 82 45 83 69 84 70 85 78 86 71 87 73 88 79 89
REMARK SMILES IDX 72 90 74 91 75 92 76 93 77 94 54 95 55 96 63 97 56 98 58 99
REMARK SMILES IDX 64 100 57 101 59 102 60 103 61 104 62 105
REMARK H PARENT 6 25 99 32 96 34 93 36 84 58 52 69
REMARK Flexibility Score: inf
ROOT
ATOM      1  C   UNL A   1      40.483  21.142  26.808  1.00  0.00     0.202 C 
ENDROOT
BRANCH   1   2
ATOM      2  O   UNL A   1      39.561  20.599  25.867  1.00  0.00    -0.374 OA
BRANCH   2   3
ATOM      3  C   UNL A   1      38.372  21.351  25.604  1.00  0.00     0.202 C 
BRANCH   3   4
ATOM      4  C   UNL A   1      37.321  20.619  24.784  1.00  0.00     0.261 C 
BRANCH   4   5
ATOM      5  O   UNL A   1      36.219  21.501  24.514  1.00  0.00    -0.461 OA
BRANCH   5   6
ATOM      6  C   UNL A   1      34.964  21.043  24.677  1.00  0.00     0.338 C 
ATOM      7  O   UNL A   1      34.682  19.937  25.131  1.00  0.00    -0.249 OA
BRANCH   6   8
ATOM      8  C   UNL A   1      33.899  22.026  24.169  1.00  0.00     0.266 C 
ATOM      9  C   UNL A   1      34.802  23.561  26.786  1.00  0.00     0.094 C 
ATOM     10  C   UNL A   1      33.900  24.023  25.620  1.00  0.00     0.240 C 
ATOM     11  O   UNL A   1      34.244  23.379  24.385  1.00  0.00    -0.320 OA
ATOM     12  C   UNL A   1      32.343  23.842  25.959  1.00  0.00     0.158 C 
ATOM     13  C   UNL A   1      31.903  22.337  25.760  1.00  0.00     0.128 C 
ATOM     14  C   UNL A   1      31.390  24.754  25.161  1.00  0.00     0.053 C 
ATOM     15  C   UNL A   1      32.388  21.748  24.386  1.00  0.00     0.130 C 
ATOM     16  C   UNL A   1      30.390  22.127  26.007  1.00  0.00     0.049 C 
ATOM     17  C   UNL A   1      31.625  22.302  23.158  1.00  0.00     0.049 C 
BRANCH  10  18
ATOM     18  O   UNL A   1      34.280  25.451  25.588  1.00  0.00    -0.457 OA
BRANCH  18  19
ATOM     19  C   UNL A   1      33.986  26.115  24.446  1.00  0.00     0.150 A 
ATOM     20  C   UNL A   1      34.018  25.616  23.164  1.00  0.00     0.130 A 
ATOM     21  C   UNL A   1      33.480  27.440  24.400  1.00  0.00     0.061 A 
ATOM     22  N   UNL A   1      33.312  26.494  22.383  1.00  0.00    -0.358 N 
ATOM     23  C   UNL A   1      32.861  27.548  23.151  1.00  0.00     0.051 A 
ATOM     24  C   UNL A   1      33.277  28.461  25.351  1.00  0.00     0.068 A 
ATOM     25  H   UNL A   1      33.151  26.388  21.416  1.00  0.00     0.166 HD
ATOM     26  C   UNL A   1      31.934  28.553  22.866  1.00  0.00     0.028 A 
ATOM     27  C   UNL A   1      32.296  29.423  25.119  1.00  0.00     0.037 A 
ATOM     28  Cl  UNL A   1      34.200  28.329  26.793  1.00  0.00    -0.082 Cl
ATOM     29  C   UNL A   1      31.619  29.450  23.898  1.00  0.00     0.019 A 
ATOM     30  Br  UNL A   1      31.751  30.637  26.472  1.00  0.00    -0.049 Br
ENDBRANCH  18  19
ENDBRANCH  10  18
BRANCH  12  31
ATOM     31  O   UNL A   1      32.120  24.230  27.337  1.00  0.00    -0.380 OA
ATOM     32  H   UNL A   1      31.264  24.679  27.412  1.00  0.00     0.211 HD
ENDBRANCH  12  31
BRANCH  13  33
ATOM     33  O   UNL A   1      32.518  21.525  26.785  1.00  0.00    -0.384 OA
ATOM     34  H   UNL A   1      32.072  21.679  27.632  1.00  0.00     0.211 HD
ENDBRANCH  13  33
BRANCH  15  35
ATOM     35  O   UNL A   1      32.122  20.332  24.397  1.00  0.00    -0.384 OA
ATOM     36  H   UNL A   1      31.701  20.075  23.562  1.00  0.00     0.211 HD
ENDBRANCH  15  35
ENDBRANCH   6   8
ENDBRANCH   5   6
ENDBRANCH   4   5
ENDBRANCH   3   4
ENDBRANCH   2   3
ENDBRANCH   1   2
BRANCH   1  37
ATOM     37  C   UNL A   1      41.901  20.596  26.745  1.00  0.00     0.261 C 
BRANCH  37  38
ATOM     38  O   UNL A   1      42.366  20.573  25.402  1.00  0.00    -0.460 OA
BRANCH  38  39
ATOM     39  C   UNL A   1      43.715  20.539  25.275  1.00  0.00     0.338 C 
ATOM     40  O   UNL A   1      44.432  19.562  25.299  1.00  0.00    -0.246 OA
BRANCH  39  41
ATOM     41  C   UNL A   1      44.207  21.923  25.258  1.00  0.00     0.060 A 
ATOM     42  C   UNL A   1      45.180  22.216  26.208  1.00  0.00     0.016 A 
ATOM     43  C   UNL A   1      43.425  22.916  24.653  1.00  0.00     0.016 A 
ATOM     44  C   UNL A   1      45.133  23.458  26.784  1.00  0.00     0.010 A 
ATOM     45  C   UNL A   1      43.370  24.152  25.231  1.00  0.00     0.010 A 
ATOM     46  C   UNL A   1      44.143  24.355  26.360  1.00  0.00    -0.014 A 
BRANCH  46  47
ATOM     47  C   UNL A   1      44.009  25.586  27.089  1.00  0.00     0.031 A 
ATOM     48  C   UNL A   1      45.180  26.452  26.879  1.00  0.00     0.074 A 
ATOM     49  C   UNL A   1      42.937  25.873  27.847  1.00  0.00     0.049 A 
ATOM     50  N   UNL A   1      46.171  26.606  27.691  1.00  0.00    -0.248 NA
ATOM     51  C   UNL A   1      45.402  26.996  25.531  1.00  0.00     0.031 C 
ATOM     52  C   UNL A   1      41.633  25.207  27.904  1.00  0.00     0.029 A 
ATOM     53  N   UNL A   1      42.772  26.931  28.675  1.00  0.00    -0.354 N 
ATOM     54  C   UNL A   1      47.020  27.489  27.045  1.00  0.00     0.074 A 
ATOM     55  C   UNL A   1      46.625  27.511  25.660  1.00  0.00     0.031 C 
ATOM     56  C   UNL A   1      40.749  26.026  28.526  1.00  0.00     0.029 A 
ATOM     57  C   UNL A   1      41.454  27.193  29.026  1.00  0.00     0.049 A 
ATOM     58  H   UNL A   1      43.527  27.472  29.003  1.00  0.00     0.167 HD
ATOM     59  C   UNL A   1      47.782  28.359  27.754  1.00  0.00     0.034 A 
ATOM     60  C   UNL A   1      41.013  28.342  29.600  1.00  0.00     0.034 A 
ATOM     61  C   UNL A   1      47.879  27.986  29.140  1.00  0.00     0.049 A 
ATOM     62  C   UNL A   1      42.200  28.966  30.247  1.00  0.00     0.074 A 
ATOM     63  C   UNL A   1      48.352  26.878  29.816  1.00  0.00     0.029 A 
ATOM     64  N   UNL A   1      47.040  28.637  30.012  1.00  0.00    -0.354 N 
ATOM     65  N   UNL A   1      42.838  28.430  31.250  1.00  0.00    -0.248 NA
ATOM     66  C   UNL A   1      42.947  29.953  29.482  1.00  0.00     0.031 C 
ATOM     67  C   UNL A   1      47.425  26.671  30.878  1.00  0.00     0.029 A 
ATOM     68  C   UNL A   1      46.476  27.695  30.832  1.00  0.00     0.049 A 
ATOM     69  H   UNL A   1      46.873  29.607  30.042  1.00  0.00     0.167 HD
ATOM     70  C   UNL A   1      44.179  28.663  30.970  1.00  0.00     0.074 A 
ATOM     71  C   UNL A   1      44.179  29.680  29.919  1.00  0.00     0.031 C 
ATOM     72  C   UNL A   1      45.149  27.805  31.398  1.00  0.00     0.034 A 
BRANCH  59  73
ATOM     73  C   UNL A   1      48.088  29.745  27.270  1.00  0.00     0.023 A 
ATOM     74  C   UNL A   1      49.422  30.185  27.331  1.00  0.00     0.012 A 
ATOM     75  C   UNL A   1      47.091  30.713  27.004  1.00  0.00     0.148 A 
ATOM     76  C   UNL A   1      49.748  31.530  27.134  1.00  0.00     0.002 A 
ATOM     77  C   UNL A   1      47.426  32.029  26.727  1.00  0.00     0.091 A 
ATOM     78  F   UNL A   1      45.799  30.400  27.159  1.00  0.00    -0.205 F 
ATOM     79  C   UNL A   1      48.754  32.449  26.812  1.00  0.00     0.022 A 
BRANCH  77  80
ATOM     80  S   UNL A   1      46.177  33.239  26.281  1.00  0.00     0.127 S 
ATOM     81  O   UNL A   1      45.695  33.657  27.595  1.00  0.00    -0.237 OA
ATOM     82  O   UNL A   1      46.973  34.237  25.565  1.00  0.00    -0.237 OA
ATOM     83  O   UNL A   1      45.223  32.525  25.443  1.00  0.00    -0.744 OA
ENDBRANCH  77  80
ENDBRANCH  59  73
BRANCH  60  84
ATOM     84  C   UNL A   1      39.781  29.132  29.330  1.00  0.00     0.023 A 
ATOM     85  C   UNL A   1      39.169  29.019  28.060  1.00  0.00     0.012 A 
ATOM     86  C   UNL A   1      39.031  29.728  30.368  1.00  0.00     0.148 A 
ATOM     87  C   UNL A   1      37.840  29.409  27.854  1.00  0.00     0.002 A 
ATOM     88  C   UNL A   1      37.712  30.125  30.155  1.00  0.00     0.091 A 
ATOM     89  F   UNL A   1      39.569  29.819  31.590  1.00  0.00    -0.205 F 
ATOM     90  C   UNL A   1      37.105  29.948  28.905  1.00  0.00     0.022 A 
BRANCH  88  91
ATOM     91  S   UNL A   1      36.701  30.826  31.469  1.00  0.00     0.127 S 
ATOM     92  O   UNL A   1      35.542  31.328  30.728  1.00  0.00    -0.237 OA
ATOM     93  O   UNL A   1      36.434  29.659  32.304  1.00  0.00    -0.237 OA
ATOM     94  O   UNL A   1      37.513  31.871  32.079  1.00  0.00    -0.744 OA
ENDBRANCH  88  91
ENDBRANCH  60  84
BRANCH  72  95
ATOM     95  C   UNL A   1      44.763  26.730  32.380  1.00  0.00     0.023 A 
ATOM     96  C   UNL A   1      44.502  25.400  31.987  1.00  0.00     0.012 A 
ATOM     97  C   UNL A   1      44.874  27.030  33.746  1.00  0.00     0.148 A 
ATOM     98  C   UNL A   1      44.361  24.389  32.945  1.00  0.00     0.002 A 
ATOM     99  C   UNL A   1      44.769  26.019  34.692  1.00  0.00     0.091 A 
ATOM    100  F   UNL A   1      45.133  28.300  34.092  1.00  0.00    -0.205 F 
ATOM    101  C   UNL A   1      44.509  24.697  34.296  1.00  0.00     0.022 A 
BRANCH  99 102
ATOM    102  S   UNL A   1      45.052  26.328  36.436  1.00  0.00     0.127 S 
ATOM    103  O   UNL A   1      45.109  24.974  36.981  1.00  0.00    -0.237 OA
ATOM    104  O   UNL A   1      46.333  27.037  36.420  1.00  0.00    -0.237 OA
ATOM    105  O   UNL A   1      43.928  27.133  36.895  1.00  0.00    -0.744 OA
ENDBRANCH  99 102
ENDBRANCH  72  95
ENDBRANCH  46  47
ENDBRANCH  39  41
ENDBRANCH  38  39
ENDBRANCH  37  38
ENDBRANCH   1  37
TORSDOF 22
ENDMDL
