MODEL 1
REMARK VINA RESULT:     -10.1      0.000      0.000
REMARK SMILES C/C(=N/[NH+]=C1\NC(=O)[C@H](CC(=O)OCCOCCOC(=O)c2ccc(-c3c4nc(c(-c5cccc(S(=O)(=O)[O-])c5F)c5ccc([nH]5)c(-c5cccc(S(=O)(=O)[O-])c5F)c5nc(c(-c6cccc(S(=O)(=O)[O-])c6F)c6ccc3[nH]6)C=C5)C=C4)cc2)S1)c1ccc(OC(C)C)cc1
REMARK SMILES IDX 15 1 14 2 13 3 11 4 12 5 10 6 9 7 4 8 5 9 6 11 85 12 7 13
REMARK SMILES IDX 8 15 3 16 1 17 2 18 86 19 87 20 95 21 88 22 94 23 89 24
REMARK SMILES IDX 90 25 91 26 92 27 93 28 16 29 17 30 18 31 19 32 20 33 21 34
REMARK SMILES IDX 22 35 23 36 84 37 24 38 83 39 25 40 26 41 27 42 77 43 28 44
REMARK SMILES IDX 82 45 76 46 78 47 29 48 81 49 75 50 74 51 30 53 62 54 42 55
REMARK SMILES IDX 61 56 43 57 46 58 60 59 79 60 44 61 45 62 59 64 80 65 47 66
REMARK SMILES IDX 31 67 32 68 40 69 33 70 35 71 41 72 34 73 36 74 37 75 38 76
REMARK SMILES IDX 39 77 63 78 64 79 72 80 65 81 67 82 73 83 66 84 68 85 69 86
REMARK SMILES IDX 70 87 71 88 48 89 49 90 57 91 50 92 52 93 58 94 51 95 53 96
REMARK SMILES IDX 54 97 55 98 56 99
REMARK H PARENT 4 10 6 14 78 52 46 63
REMARK Flexibility Score: inf
ROOT
ATOM      1  C   UNL A   1      39.507  21.607  26.245  1.00  0.00     0.202 C 
ENDROOT
BRANCH   1   2
ATOM      2  C   UNL A   1      38.343  22.191  25.443  1.00  0.00     0.261 C 
BRANCH   2   3
ATOM      3  O   UNL A   1      37.075  21.963  26.086  1.00  0.00    -0.463 OA
BRANCH   3   4
ATOM      4  C   UNL A   1      36.204  21.139  25.456  1.00  0.00     0.307 C 
ATOM      5  O   UNL A   1      36.482  20.036  25.002  1.00  0.00    -0.252 OA
BRANCH   4   6
ATOM      6  C   UNL A   1      34.836  21.755  25.315  1.00  0.00     0.150 C 
BRANCH   6   7
ATOM      7  C   UNL A   1      34.495  22.239  23.913  1.00  0.00     0.184 C 
ATOM      8  N   UNL A   1      32.341  25.404  23.876  1.00  0.00    -0.142 N 
ATOM      9  C   UNL A   1      32.942  24.289  23.634  1.00  0.00     0.337 C 
ATOM     10  H   UNL A   1      32.838  26.198  24.179  1.00  0.00     0.343 HD
ATOM     11  N   UNL A   1      32.363  23.134  23.257  1.00  0.00    -0.202 N 
ATOM     12  S   UNL A   1      34.646  24.076  23.876  1.00  0.00    -0.020 SA
ATOM     13  C   UNL A   1      33.046  21.982  23.510  1.00  0.00     0.322 C 
ATOM     14  H   UNL A   1      31.483  23.120  22.818  1.00  0.00     0.316 HD
ATOM     15  O   UNL A   1      32.508  20.890  23.466  1.00  0.00    -0.246 OA
BRANCH   8  16
ATOM     16  N   UNL A   1      30.950  25.442  23.691  1.00  0.00    -0.090 NA
ATOM     17  C   UNL A   1      28.794  26.503  23.847  1.00  0.00     0.071 C 
ATOM     18  C   UNL A   1      30.273  26.453  24.163  1.00  0.00     0.088 C 
BRANCH  18  19
ATOM     19  C   UNL A   1      30.781  27.497  25.091  1.00  0.00    -0.000 A 
ATOM     20  C   UNL A   1      31.172  28.756  24.643  1.00  0.00     0.014 A 
ATOM     21  C   UNL A   1      31.015  27.126  26.420  1.00  0.00     0.014 A 
ATOM     22  C   UNL A   1      31.829  29.622  25.523  1.00  0.00     0.047 A 
ATOM     23  C   UNL A   1      31.687  27.993  27.287  1.00  0.00     0.047 A 
ATOM     24  C   UNL A   1      32.102  29.245  26.846  1.00  0.00     0.119 A 
BRANCH  24  25
ATOM     25  O   UNL A   1      32.819  30.163  27.553  1.00  0.00    -0.491 OA
BRANCH  25  26
ATOM     26  C   UNL A   1      34.167  30.528  27.225  1.00  0.00     0.167 C 
ATOM     27  C   UNL A   1      34.686  31.765  27.950  1.00  0.00     0.052 C 
ATOM     28  C   UNL A   1      35.126  29.341  27.219  1.00  0.00     0.052 C 
ENDBRANCH  25  26
ENDBRANCH  24  25
ENDBRANCH  18  19
ENDBRANCH   8  16
ENDBRANCH   6   7
ENDBRANCH   4   6
ENDBRANCH   3   4
ENDBRANCH   2   3
ENDBRANCH   1   2
BRANCH   1  29
ATOM     29  O   UNL A   1      40.036  20.370  25.769  1.00  0.00    -0.374 OA
BRANCH  29  30
ATOM     30  C   UNL A   1      40.787  19.590  26.695  1.00  0.00     0.202 C 
BRANCH  30  31
ATOM     31  C   UNL A   1      42.020  18.863  26.140  1.00  0.00     0.261 C 
BRANCH  31  32
ATOM     32  O   UNL A   1      42.605  19.532  25.008  1.00  0.00    -0.460 OA
BRANCH  32  33
ATOM     33  C   UNL A   1      43.765  20.181  25.263  1.00  0.00     0.338 C 
ATOM     34  O   UNL A   1      44.890  19.804  24.956  1.00  0.00    -0.246 OA
BRANCH  33  35
ATOM     35  C   UNL A   1      43.535  21.519  25.844  1.00  0.00     0.060 A 
ATOM     36  C   UNL A   1      43.454  22.593  24.948  1.00  0.00     0.016 A 
ATOM     37  C   UNL A   1      43.564  21.755  27.221  1.00  0.00     0.016 A 
ATOM     38  C   UNL A   1      43.492  23.904  25.419  1.00  0.00     0.010 A 
ATOM     39  C   UNL A   1      43.603  23.076  27.693  1.00  0.00     0.010 A 
ATOM     40  C   UNL A   1      43.625  24.156  26.791  1.00  0.00    -0.014 A 
BRANCH  40  41
ATOM     41  C   UNL A   1      43.958  25.537  27.234  1.00  0.00     0.031 A 
ATOM     42  C   UNL A   1      45.367  26.049  27.064  1.00  0.00     0.074 A 
ATOM     43  C   UNL A   1      43.008  26.358  27.719  1.00  0.00     0.049 A 
ATOM     44  N   UNL A   1      45.848  27.243  27.298  1.00  0.00    -0.248 NA
ATOM     45  C   UNL A   1      46.364  25.089  26.562  1.00  0.00     0.031 C 
ATOM     46  C   UNL A   1      41.609  25.994  27.937  1.00  0.00     0.029 A 
ATOM     47  N   UNL A   1      43.083  27.670  28.119  1.00  0.00    -0.354 N 
ATOM     48  C   UNL A   1      47.203  27.175  26.992  1.00  0.00     0.074 A 
ATOM     49  C   UNL A   1      47.472  25.816  26.576  1.00  0.00     0.031 C 
ATOM     50  C   UNL A   1      40.959  27.055  28.446  1.00  0.00     0.029 A 
ATOM     51  C   UNL A   1      41.895  28.170  28.597  1.00  0.00     0.049 A 
ATOM     52  H   UNL A   1      43.910  28.201  28.070  1.00  0.00     0.167 HD
ATOM     53  C   UNL A   1      48.136  28.157  27.026  1.00  0.00     0.034 A 
ATOM     54  C   UNL A   1      41.595  29.385  29.098  1.00  0.00     0.034 A 
ATOM     55  C   UNL A   1      47.872  29.519  27.408  1.00  0.00     0.049 A 
ATOM     56  C   UNL A   1      42.651  30.460  29.127  1.00  0.00     0.074 A 
ATOM     57  C   UNL A   1      48.744  30.592  27.423  1.00  0.00     0.029 A 
ATOM     58  N   UNL A   1      46.647  29.995  27.848  1.00  0.00    -0.354 N 
ATOM     59  N   UNL A   1      43.891  30.413  28.704  1.00  0.00    -0.248 NA
ATOM     60  C   UNL A   1      42.251  31.771  29.663  1.00  0.00     0.031 C 
ATOM     61  C   UNL A   1      48.052  31.714  27.891  1.00  0.00     0.029 A 
ATOM     62  C   UNL A   1      46.741  31.344  28.147  1.00  0.00     0.049 A 
ATOM     63  H   UNL A   1      45.830  29.454  27.934  1.00  0.00     0.167 HD
ATOM     64  C   UNL A   1      44.408  31.692  28.891  1.00  0.00     0.074 A 
ATOM     65  C   UNL A   1      43.338  32.498  29.441  1.00  0.00     0.031 C 
ATOM     66  C   UNL A   1      45.659  32.152  28.643  1.00  0.00     0.034 A 
BRANCH  53  67
ATOM     67  C   UNL A   1      49.536  27.801  26.599  1.00  0.00     0.023 A 
ATOM     68  C   UNL A   1      49.857  27.770  25.227  1.00  0.00     0.012 A 
ATOM     69  C   UNL A   1      50.545  27.556  27.551  1.00  0.00     0.148 A 
ATOM     70  C   UNL A   1      51.152  27.470  24.807  1.00  0.00     0.002 A 
ATOM     71  C   UNL A   1      51.843  27.298  27.125  1.00  0.00     0.091 A 
ATOM     72  F   UNL A   1      50.215  27.567  28.850  1.00  0.00    -0.205 F 
ATOM     73  C   UNL A   1      52.147  27.245  25.755  1.00  0.00     0.022 A 
BRANCH  71  74
ATOM     74  S   UNL A   1      53.206  27.069  28.273  1.00  0.00     0.127 S 
ATOM     75  O   UNL A   1      53.566  28.452  28.584  1.00  0.00    -0.237 OA
ATOM     76  O   UNL A   1      52.568  26.343  29.372  1.00  0.00    -0.237 OA
ATOM     77  O   UNL A   1      54.214  26.306  27.549  1.00  0.00    -0.744 OA
ENDBRANCH  71  74
ENDBRANCH  53  67
BRANCH  54  78
ATOM     78  C   UNL A   1      40.211  29.668  29.573  1.00  0.00     0.023 A 
ATOM     79  C   UNL A   1      39.256  30.180  28.674  1.00  0.00     0.012 A 
ATOM     80  C   UNL A   1      39.834  29.416  30.906  1.00  0.00     0.148 A 
ATOM     81  C   UNL A   1      37.957  30.464  29.103  1.00  0.00     0.002 A 
ATOM     82  C   UNL A   1      38.525  29.643  31.311  1.00  0.00     0.091 A 
ATOM     83  F   UNL A   1      40.764  28.949  31.751  1.00  0.00    -0.205 F 
ATOM     84  C   UNL A   1      37.590  30.185  30.416  1.00  0.00     0.022 A 
BRANCH  82  85
ATOM     85  S   UNL A   1      37.935  29.178  32.941  1.00  0.00     0.127 S 
ATOM     86  O   UNL A   1      36.596  29.761  32.954  1.00  0.00    -0.237 OA
ATOM     87  O   UNL A   1      37.972  27.717  32.871  1.00  0.00    -0.237 OA
ATOM     88  O   UNL A   1      38.889  29.754  33.880  1.00  0.00    -0.744 OA
ENDBRANCH  82  85
ENDBRANCH  54  78
BRANCH  66  89
ATOM     89  C   UNL A   1      45.943  33.604  28.940  1.00  0.00     0.023 A 
ATOM     90  C   UNL A   1      46.686  33.951  30.086  1.00  0.00     0.012 A 
ATOM     91  C   UNL A   1      45.528  34.618  28.054  1.00  0.00     0.148 A 
ATOM     92  C   UNL A   1      46.978  35.286  30.366  1.00  0.00     0.002 A 
ATOM     93  C   UNL A   1      45.862  35.944  28.317  1.00  0.00     0.091 A 
ATOM     94  F   UNL A   1      44.805  34.276  26.979  1.00  0.00    -0.205 F 
ATOM     95  C   UNL A   1      46.576  36.280  29.478  1.00  0.00     0.022 A 
BRANCH  93  96
ATOM     96  S   UNL A   1      45.462  37.272  27.175  1.00  0.00     0.127 S 
ATOM     97  O   UNL A   1      46.486  37.101  26.146  1.00  0.00    -0.237 OA
ATOM     98  O   UNL A   1      44.105  36.924  26.748  1.00  0.00    -0.237 OA
ATOM     99  O   UNL A   1      45.547  38.500  27.953  1.00  0.00    -0.744 OA
ENDBRANCH  93  96
ENDBRANCH  66  89
ENDBRANCH  40  41
ENDBRANCH  33  35
ENDBRANCH  32  33
ENDBRANCH  31  32
ENDBRANCH  30  31
ENDBRANCH  29  30
ENDBRANCH   1  29
TORSDOF 22
ENDMDL
MODEL 2
REMARK VINA RESULT:      -9.8      1.616      7.439
REMARK SMILES C/C(=N/[NH+]=C1\NC(=O)[C@H](CC(=O)OCCOCCOC(=O)c2ccc(-c3c4nc(c(-c5cccc(S(=O)(=O)[O-])c5F)c5ccc([nH]5)c(-c5cccc(S(=O)(=O)[O-])c5F)c5nc(c(-c6cccc(S(=O)(=O)[O-])c6F)c6ccc3[nH]6)C=C5)C=C4)cc2)S1)c1ccc(OC(C)C)cc1
REMARK SMILES IDX 15 1 14 2 13 3 11 4 12 5 10 6 9 7 4 8 5 9 6 11 85 12 7 13
REMARK SMILES IDX 8 15 3 16 1 17 2 18 86 19 87 20 95 21 88 22 94 23 89 24
REMARK SMILES IDX 90 25 91 26 92 27 93 28 16 29 17 30 18 31 19 32 20 33 21 34
REMARK SMILES IDX 22 35 23 36 84 37 24 38 83 39 25 40 26 41 27 42 77 43 28 44
REMARK SMILES IDX 82 45 76 46 78 47 29 48 81 49 75 50 74 51 30 53 62 54 42 55
REMARK SMILES IDX 61 56 43 57 46 58 60 59 79 60 44 61 45 62 59 64 80 65 47 66
REMARK SMILES IDX 31 67 32 68 40 69 33 70 35 71 41 72 34 73 36 74 37 75 38 76
REMARK SMILES IDX 39 77 63 78 64 79 72 80 65 81 67 82 73 83 66 84 68 85 69 86
REMARK SMILES IDX 70 87 71 88 48 89 49 90 57 91 50 92 52 93 58 94 51 95 53 96
REMARK SMILES IDX 54 97 55 98 56 99
REMARK H PARENT 4 10 6 14 78 52 46 63
REMARK Flexibility Score: inf
ROOT
ATOM      1  C   UNL A   1      39.283  21.412  26.089  1.00  0.00     0.202 C 
ENDROOT
BRANCH   1   2
ATOM      2  C   UNL A   1      38.070  21.786  25.235  1.00  0.00     0.261 C 
BRANCH   2   3
ATOM      3  O   UNL A   1      36.837  21.674  25.969  1.00  0.00    -0.463 OA
BRANCH   3   4
ATOM      4  C   UNL A   1      35.783  21.121  25.323  1.00  0.00     0.307 C 
ATOM      5  O   UNL A   1      35.737  19.970  24.908  1.00  0.00    -0.252 OA
BRANCH   4   6
ATOM      6  C   UNL A   1      34.663  22.107  25.109  1.00  0.00     0.150 C 
BRANCH   6   7
ATOM      7  C   UNL A   1      33.622  21.677  24.086  1.00  0.00     0.184 C 
ATOM      8  N   UNL A   1      31.629  24.599  22.620  1.00  0.00    -0.142 N 
ATOM      9  C   UNL A   1      32.064  23.464  23.051  1.00  0.00     0.337 C 
ATOM     10  H   UNL A   1      32.176  25.166  22.030  1.00  0.00     0.343 HD
ATOM     11  N   UNL A   1      31.424  22.629  23.891  1.00  0.00    -0.202 N 
ATOM     12  S   UNL A   1      33.652  22.872  22.683  1.00  0.00    -0.020 SA
ATOM     13  C   UNL A   1      32.188  21.752  24.601  1.00  0.00     0.322 C 
ATOM     14  H   UNL A   1      30.444  22.651  23.990  1.00  0.00     0.316 HD
ATOM     15  O   UNL A   1      31.753  21.157  25.572  1.00  0.00    -0.246 OA
BRANCH   8  16
ATOM     16  N   UNL A   1      30.344  24.995  23.026  1.00  0.00    -0.090 NA
ATOM     17  C   UNL A   1      28.791  26.552  24.007  1.00  0.00     0.071 C 
ATOM     18  C   UNL A   1      30.203  26.114  23.684  1.00  0.00     0.088 C 
BRANCH  18  19
ATOM     19  C   UNL A   1      31.294  26.941  24.263  1.00  0.00    -0.000 A 
ATOM     20  C   UNL A   1      31.792  26.712  25.542  1.00  0.00     0.014 A 
ATOM     21  C   UNL A   1      31.700  28.074  23.548  1.00  0.00     0.014 A 
ATOM     22  C   UNL A   1      32.670  27.641  26.112  1.00  0.00     0.047 A 
ATOM     23  C   UNL A   1      32.565  29.004  24.132  1.00  0.00     0.047 A 
ATOM     24  C   UNL A   1      33.054  28.798  25.417  1.00  0.00     0.119 A 
BRANCH  24  25
ATOM     25  O   UNL A   1      33.846  29.644  26.134  1.00  0.00    -0.491 OA
BRANCH  25  26
ATOM     26  C   UNL A   1      33.353  30.832  26.769  1.00  0.00     0.167 C 
ATOM     27  C   UNL A   1      31.833  30.928  26.847  1.00  0.00     0.052 C 
ATOM     28  C   UNL A   1      34.082  31.166  28.067  1.00  0.00     0.052 C 
ENDBRANCH  25  26
ENDBRANCH  24  25
ENDBRANCH  18  19
ENDBRANCH   8  16
ENDBRANCH   6   7
ENDBRANCH   4   6
ENDBRANCH   3   4
ENDBRANCH   2   3
ENDBRANCH   1   2
BRANCH   1  29
ATOM     29  O   UNL A   1      39.953  20.204  25.729  1.00  0.00    -0.374 OA
BRANCH  29  30
ATOM     30  C   UNL A   1      40.782  19.606  26.722  1.00  0.00     0.202 C 
BRANCH  30  31
ATOM     31  C   UNL A   1      41.924  18.714  26.217  1.00  0.00     0.261 C 
BRANCH  31  32
ATOM     32  O   UNL A   1      42.587  19.251  25.057  1.00  0.00    -0.460 OA
BRANCH  32  33
ATOM     33  C   UNL A   1      43.783  19.836  25.301  1.00  0.00     0.338 C 
ATOM     34  O   UNL A   1      44.885  19.365  25.050  1.00  0.00    -0.246 OA
BRANCH  33  35
ATOM     35  C   UNL A   1      43.632  21.223  25.788  1.00  0.00     0.060 A 
ATOM     36  C   UNL A   1      43.447  22.217  24.820  1.00  0.00     0.016 A 
ATOM     37  C   UNL A   1      43.829  21.574  27.126  1.00  0.00     0.016 A 
ATOM     38  C   UNL A   1      43.549  23.563  25.167  1.00  0.00     0.010 A 
ATOM     39  C   UNL A   1      43.932  22.930  27.474  1.00  0.00     0.010 A 
ATOM     40  C   UNL A   1      43.850  23.928  26.486  1.00  0.00    -0.014 A 
BRANCH  40  41
ATOM     41  C   UNL A   1      44.241  25.337  26.765  1.00  0.00     0.031 A 
ATOM     42  C   UNL A   1      43.223  26.286  27.346  1.00  0.00     0.074 A 
ATOM     43  C   UNL A   1      45.505  25.757  26.571  1.00  0.00     0.049 A 
ATOM     44  N   UNL A   1      43.377  27.522  27.746  1.00  0.00    -0.248 NA
ATOM     45  C   UNL A   1      41.852  25.773  27.500  1.00  0.00     0.031 C 
ATOM     46  C   UNL A   1      46.587  24.948  26.014  1.00  0.00     0.029 A 
ATOM     47  N   UNL A   1      46.087  26.976  26.818  1.00  0.00    -0.354 N 
ATOM     48  C   UNL A   1      42.124  27.942  28.179  1.00  0.00     0.074 A 
ATOM     49  C   UNL A   1      41.215  26.835  27.973  1.00  0.00     0.031 C 
ATOM     50  C   UNL A   1      47.701  25.699  25.949  1.00  0.00     0.029 A 
ATOM     51  C   UNL A   1      47.410  27.041  26.452  1.00  0.00     0.049 A 
ATOM     52  H   UNL A   1      45.601  27.733  27.219  1.00  0.00     0.167 HD
ATOM     53  C   UNL A   1      41.762  29.129  28.724  1.00  0.00     0.034 A 
ATOM     54  C   UNL A   1      48.286  28.064  26.513  1.00  0.00     0.034 A 
ATOM     55  C   UNL A   1      42.664  30.224  28.963  1.00  0.00     0.049 A 
ATOM     56  C   UNL A   1      47.860  29.375  27.123  1.00  0.00     0.074 A 
ATOM     57  C   UNL A   1      42.397  31.444  29.557  1.00  0.00     0.029 A 
ATOM     58  N   UNL A   1      44.005  30.236  28.614  1.00  0.00    -0.354 N 
ATOM     59  N   UNL A   1      46.707  29.704  27.653  1.00  0.00    -0.248 NA
ATOM     60  C   UNL A   1      48.872  30.442  27.182  1.00  0.00     0.031 C 
ATOM     61  C   UNL A   1      43.573  32.203  29.550  1.00  0.00     0.029 A 
ATOM     62  C   UNL A   1      44.578  31.446  28.970  1.00  0.00     0.049 A 
ATOM     63  H   UNL A   1      44.481  29.494  28.177  1.00  0.00     0.167 HD
ATOM     64  C   UNL A   1      46.864  31.000  28.137  1.00  0.00     0.074 A 
ATOM     65  C   UNL A   1      48.232  31.385  27.861  1.00  0.00     0.031 C 
ATOM     66  C   UNL A   1      45.954  31.802  28.741  1.00  0.00     0.034 A 
BRANCH  53  67
ATOM     67  C   UNL A   1      40.324  29.293  29.142  1.00  0.00     0.023 A 
ATOM     68  C   UNL A   1      39.347  29.582  28.168  1.00  0.00     0.012 A 
ATOM     69  C   UNL A   1      39.932  29.105  30.481  1.00  0.00     0.148 A 
ATOM     70  C   UNL A   1      38.005  29.712  28.526  1.00  0.00     0.002 A 
ATOM     71  C   UNL A   1      38.587  29.197  30.822  1.00  0.00     0.091 A 
ATOM     72  F   UNL A   1      40.879  28.855  31.397  1.00  0.00    -0.205 F 
ATOM     73  C   UNL A   1      37.625  29.510  29.849  1.00  0.00     0.022 A 
BRANCH  71  74
ATOM     74  S   UNL A   1      37.991  28.879  32.487  1.00  0.00     0.127 S 
ATOM     75  O   UNL A   1      38.867  29.739  33.283  1.00  0.00    -0.237 OA
ATOM     76  O   UNL A   1      36.601  29.328  32.411  1.00  0.00    -0.237 OA
ATOM     77  O   UNL A   1      38.154  27.448  32.704  1.00  0.00    -0.744 OA
ENDBRANCH  71  74
ENDBRANCH  53  67
BRANCH  54  78
ATOM     78  C   UNL A   1      49.681  27.874  26.024  1.00  0.00     0.023 A 
ATOM     79  C   UNL A   1      50.725  27.673  26.948  1.00  0.00     0.012 A 
ATOM     80  C   UNL A   1      49.974  27.872  24.647  1.00  0.00     0.148 A 
ATOM     81  C   UNL A   1      52.040  27.505  26.511  1.00  0.00     0.002 A 
ATOM     82  C   UNL A   1      51.275  27.645  24.215  1.00  0.00     0.091 A 
ATOM     83  F   UNL A   1      48.971  28.087  23.784  1.00  0.00    -0.205 F 
ATOM     84  C   UNL A   1      52.313  27.480  25.145  1.00  0.00     0.022 A 
BRANCH  82  85
ATOM     85  S   UNL A   1      51.686  27.454  22.478  1.00  0.00     0.127 S 
ATOM     86  O   UNL A   1      51.851  28.842  22.054  1.00  0.00    -0.237 OA
ATOM     87  O   UNL A   1      52.924  26.677  22.544  1.00  0.00    -0.237 OA
ATOM     88  O   UNL A   1      50.563  26.736  21.889  1.00  0.00    -0.744 OA
ENDBRANCH  82  85
ENDBRANCH  54  78
BRANCH  66  89
ATOM     89  C   UNL A   1      46.406  33.175  29.173  1.00  0.00     0.023 A 
ATOM     90  C   UNL A   1      46.971  33.354  30.452  1.00  0.00     0.012 A 
ATOM     91  C   UNL A   1      46.330  34.273  28.294  1.00  0.00     0.148 A 
ATOM     92  C   UNL A   1      47.415  34.611  30.863  1.00  0.00     0.002 A 
ATOM     93  C   UNL A   1      46.818  35.514  28.694  1.00  0.00     0.091 A 
ATOM     94  F   UNL A   1      45.773  34.092  27.088  1.00  0.00    -0.205 F 
ATOM     95  C   UNL A   1      47.349  35.687  29.982  1.00  0.00     0.022 A 
BRANCH  93  96
ATOM     96  S   UNL A   1      46.853  36.927  27.585  1.00  0.00     0.127 S 
ATOM     97  O   UNL A   1      47.666  36.420  26.480  1.00  0.00    -0.237 OA
ATOM     98  O   UNL A   1      45.437  37.113  27.264  1.00  0.00    -0.237 OA
ATOM     99  O   UNL A   1      47.440  38.016  28.353  1.00  0.00    -0.744 OA
ENDBRANCH  93  96
ENDBRANCH  66  89
ENDBRANCH  40  41
ENDBRANCH  33  35
ENDBRANCH  32  33
ENDBRANCH  31  32
ENDBRANCH  30  31
ENDBRANCH  29  30
ENDBRANCH   1  29
TORSDOF 22
ENDMDL
MODEL 3
REMARK VINA RESULT:      -9.5      5.341     11.054
REMARK SMILES C/C(=N/[NH+]=C1\NC(=O)[C@H](CC(=O)OCCOCCOC(=O)c2ccc(-c3c4nc(c(-c5cccc(S(=O)(=O)[O-])c5F)c5ccc([nH]5)c(-c5cccc(S(=O)(=O)[O-])c5F)c5nc(c(-c6cccc(S(=O)(=O)[O-])c6F)c6ccc3[nH]6)C=C5)C=C4)cc2)S1)c1ccc(OC(C)C)cc1
REMARK SMILES IDX 15 1 14 2 13 3 11 4 12 5 10 6 9 7 4 8 5 9 6 11 85 12 7 13
REMARK SMILES IDX 8 15 3 16 1 17 2 18 86 19 87 20 95 21 88 22 94 23 89 24
REMARK SMILES IDX 90 25 91 26 92 27 93 28 16 29 17 30 18 31 19 32 20 33 21 34
REMARK SMILES IDX 22 35 23 36 84 37 24 38 83 39 25 40 26 41 27 42 77 43 28 44
REMARK SMILES IDX 82 45 76 46 78 47 29 48 81 49 75 50 74 51 30 53 62 54 42 55
REMARK SMILES IDX 61 56 43 57 46 58 60 59 79 60 44 61 45 62 59 64 80 65 47 66
REMARK SMILES IDX 31 67 32 68 40 69 33 70 35 71 41 72 34 73 36 74 37 75 38 76
REMARK SMILES IDX 39 77 63 78 64 79 72 80 65 81 67 82 73 83 66 84 68 85 69 86
REMARK SMILES IDX 70 87 71 88 48 89 49 90 57 91 50 92 52 93 58 94 51 95 53 96
REMARK SMILES IDX 54 97 55 98 56 99
REMARK H PARENT 4 10 6 14 78 52 46 63
REMARK Flexibility Score: inf
ROOT
ATOM      1  C   UNL A   1      33.980  36.594  32.740  1.00  0.00     0.202 C 
ENDROOT
BRANCH   1   2
ATOM      2  C   UNL A   1      33.251  36.476  31.401  1.00  0.00     0.261 C 
BRANCH   2   3
ATOM      3  O   UNL A   1      33.101  35.105  30.986  1.00  0.00    -0.463 OA
BRANCH   3   4
ATOM      4  C   UNL A   1      33.183  34.852  29.658  1.00  0.00     0.307 C 
ATOM      5  O   UNL A   1      32.532  35.421  28.791  1.00  0.00    -0.252 OA
BRANCH   4   6
ATOM      6  C   UNL A   1      34.141  33.730  29.349  1.00  0.00     0.150 C 
BRANCH   6   7
ATOM      7  C   UNL A   1      35.297  33.590  30.329  1.00  0.00     0.184 C 
ATOM      8  N   UNL A   1      37.481  30.513  29.681  1.00  0.00    -0.142 N 
ATOM      9  C   UNL A   1      36.837  31.517  30.170  1.00  0.00     0.337 C 
ATOM     10  H   UNL A   1      38.010  30.597  28.855  1.00  0.00     0.343 HD
ATOM     11  N   UNL A   1      36.051  31.509  31.264  1.00  0.00    -0.202 N 
ATOM     12  S   UNL A   1      36.797  33.068  29.394  1.00  0.00    -0.020 SA
ATOM     13  C   UNL A   1      35.100  32.480  31.356  1.00  0.00     0.322 C 
ATOM     14  H   UNL A   1      36.160  30.829  31.968  1.00  0.00     0.316 HD
ATOM     15  O   UNL A   1      34.175  32.403  32.146  1.00  0.00    -0.246 OA
BRANCH   8  16
ATOM     16  N   UNL A   1      37.398  29.294  30.373  1.00  0.00    -0.090 NA
ATOM     17  C   UNL A   1      38.288  27.179  31.103  1.00  0.00     0.071 C 
ATOM     18  C   UNL A   1      38.371  28.431  30.257  1.00  0.00     0.088 C 
BRANCH  18  19
ATOM     19  C   UNL A   1      39.491  28.490  29.282  1.00  0.00    -0.000 A 
ATOM     20  C   UNL A   1      40.681  29.155  29.565  1.00  0.00     0.014 A 
ATOM     21  C   UNL A   1      39.256  27.998  27.993  1.00  0.00     0.014 A 
ATOM     22  C   UNL A   1      41.615  29.353  28.543  1.00  0.00     0.047 A 
ATOM     23  C   UNL A   1      40.189  28.215  26.975  1.00  0.00     0.047 A 
ATOM     24  C   UNL A   1      41.372  28.895  27.239  1.00  0.00     0.119 A 
BRANCH  24  25
ATOM     25  O   UNL A   1      42.337  29.235  26.338  1.00  0.00    -0.491 OA
BRANCH  25  26
ATOM     26  C   UNL A   1      43.202  28.275  25.716  1.00  0.00     0.167 C 
ATOM     27  C   UNL A   1      44.601  28.193  26.320  1.00  0.00     0.052 C 
ATOM     28  C   UNL A   1      42.531  26.927  25.475  1.00  0.00     0.052 C 
ENDBRANCH  25  26
ENDBRANCH  24  25
ENDBRANCH  18  19
ENDBRANCH   8  16
ENDBRANCH   6   7
ENDBRANCH   4   6
ENDBRANCH   3   4
ENDBRANCH   2   3
ENDBRANCH   1   2
BRANCH   1  29
ATOM     29  O   UNL A   1      35.089  35.714  32.928  1.00  0.00    -0.374 OA
BRANCH  29  30
ATOM     30  C   UNL A   1      35.066  34.886  34.087  1.00  0.00     0.202 C 
BRANCH  30  31
ATOM     31  C   UNL A   1      36.413  34.317  34.554  1.00  0.00     0.261 C 
BRANCH  31  32
ATOM     32  O   UNL A   1      36.419  32.880  34.635  1.00  0.00    -0.460 OA
BRANCH  32  33
ATOM     33  C   UNL A   1      37.480  32.348  35.285  1.00  0.00     0.338 C 
ATOM     34  O   UNL A   1      37.476  31.877  36.416  1.00  0.00    -0.246 OA
BRANCH  33  35
ATOM     35  C   UNL A   1      38.670  32.249  34.415  1.00  0.00     0.060 A 
ATOM     36  C   UNL A   1      38.592  31.363  33.334  1.00  0.00     0.016 A 
ATOM     37  C   UNL A   1      39.883  32.868  34.730  1.00  0.00     0.016 A 
ATOM     38  C   UNL A   1      39.740  31.022  32.621  1.00  0.00     0.010 A 
ATOM     39  C   UNL A   1      41.038  32.523  34.010  1.00  0.00     0.010 A 
ATOM     40  C   UNL A   1      40.982  31.555  32.991  1.00  0.00    -0.014 A 
BRANCH  40  41
ATOM     41  C   UNL A   1      42.216  30.956  32.413  1.00  0.00     0.031 A 
ATOM     42  C   UNL A   1      42.781  29.697  33.022  1.00  0.00     0.074 A 
ATOM     43  C   UNL A   1      42.794  31.480  31.316  1.00  0.00     0.049 A 
ATOM     44  N   UNL A   1      43.788  28.964  32.622  1.00  0.00    -0.248 NA
ATOM     45  C   UNL A   1      42.122  29.197  34.239  1.00  0.00     0.031 C 
ATOM     46  C   UNL A   1      42.354  32.692  30.629  1.00  0.00     0.029 A 
ATOM     47  N   UNL A   1      43.882  31.056  30.594  1.00  0.00    -0.354 N 
ATOM     48  C   UNL A   1      43.898  27.930  33.545  1.00  0.00     0.074 A 
ATOM     49  C   UNL A   1      42.868  28.142  34.539  1.00  0.00     0.031 C 
ATOM     50  C   UNL A   1      43.175  32.923  29.589  1.00  0.00     0.029 A 
ATOM     51  C   UNL A   1      44.201  31.881  29.542  1.00  0.00     0.049 A 
ATOM     52  H   UNL A   1      44.386  30.239  30.810  1.00  0.00     0.167 HD
ATOM     53  C   UNL A   1      44.758  26.882  33.557  1.00  0.00     0.034 A 
ATOM     54  C   UNL A   1      45.205  31.808  28.645  1.00  0.00     0.034 A 
ATOM     55  C   UNL A   1      45.765  26.645  32.557  1.00  0.00     0.049 A 
ATOM     56  C   UNL A   1      46.149  30.633  28.678  1.00  0.00     0.074 A 
ATOM     57  C   UNL A   1      46.646  25.583  32.459  1.00  0.00     0.029 A 
ATOM     58  N   UNL A   1      46.031  27.483  31.486  1.00  0.00    -0.354 N 
ATOM     59  N   UNL A   1      46.149  29.594  29.478  1.00  0.00    -0.248 NA
ATOM     60  C   UNL A   1      47.206  30.600  27.655  1.00  0.00     0.031 C 
ATOM     61  C   UNL A   1      47.458  25.788  31.339  1.00  0.00     0.029 A 
ATOM     62  C   UNL A   1      47.069  26.968  30.727  1.00  0.00     0.049 A 
ATOM     63  H   UNL A   1      45.552  28.321  31.293  1.00  0.00     0.167 HD
ATOM     64  C   UNL A   1      47.180  28.770  29.035  1.00  0.00     0.074 A 
ATOM     65  C   UNL A   1      47.766  29.418  27.881  1.00  0.00     0.031 C 
ATOM     66  C   UNL A   1      47.611  27.591  29.548  1.00  0.00     0.034 A 
BRANCH  53  67
ATOM     67  C   UNL A   1      44.620  25.881  34.674  1.00  0.00     0.023 A 
ATOM     68  C   UNL A   1      43.845  24.721  34.476  1.00  0.00     0.012 A 
ATOM     69  C   UNL A   1      45.302  26.057  35.894  1.00  0.00     0.148 A 
ATOM     70  C   UNL A   1      43.725  23.767  35.485  1.00  0.00     0.002 A 
ATOM     71  C   UNL A   1      45.210  25.081  36.879  1.00  0.00     0.091 A 
ATOM     72  F   UNL A   1      46.015  27.179  36.072  1.00  0.00    -0.205 F 
ATOM     73  C   UNL A   1      44.414  23.942  36.682  1.00  0.00     0.022 A 
BRANCH  71  74
ATOM     74  S   UNL A   1      46.121  25.183  38.424  1.00  0.00     0.127 S 
ATOM     75  O   UNL A   1      45.551  26.389  39.025  1.00  0.00    -0.237 OA
ATOM     76  O   UNL A   1      45.745  23.935  39.090  1.00  0.00    -0.237 OA
ATOM     77  O   UNL A   1      47.527  25.271  38.054  1.00  0.00    -0.744 OA
ENDBRANCH  71  74
ENDBRANCH  53  67
BRANCH  54  78
ATOM     78  C   UNL A   1      45.341  32.860  27.598  1.00  0.00     0.023 A 
ATOM     79  C   UNL A   1      44.607  32.754  26.401  1.00  0.00     0.012 A 
ATOM     80  C   UNL A   1      46.180  33.974  27.793  1.00  0.00     0.148 A 
ATOM     81  C   UNL A   1      44.730  33.723  25.403  1.00  0.00     0.002 A 
ATOM     82  C   UNL A   1      46.252  34.965  26.823  1.00  0.00     0.091 A 
ATOM     83  F   UNL A   1      46.887  34.045  28.930  1.00  0.00    -0.205 F 
ATOM     84  C   UNL A   1      45.543  34.833  25.619  1.00  0.00     0.022 A 
BRANCH  82  85
ATOM     85  S   UNL A   1      47.161  36.492  27.082  1.00  0.00     0.127 S 
ATOM     86  O   UNL A   1      48.538  36.012  27.159  1.00  0.00    -0.237 OA
ATOM     87  O   UNL A   1      46.836  37.246  25.871  1.00  0.00    -0.237 OA
ATOM     88  O   UNL A   1      46.616  37.066  28.305  1.00  0.00    -0.744 OA
ENDBRANCH  82  85
ENDBRANCH  54  78
BRANCH  66  89
ATOM     89  C   UNL A   1      48.760  26.904  28.854  1.00  0.00     0.023 A 
ATOM     90  C   UNL A   1      48.501  25.976  27.825  1.00  0.00     0.012 A 
ATOM     91  C   UNL A   1      50.095  27.219  29.177  1.00  0.00     0.148 A 
ATOM     92  C   UNL A   1      49.550  25.345  27.155  1.00  0.00     0.002 A 
ATOM     93  C   UNL A   1      51.136  26.620  28.474  1.00  0.00     0.091 A 
ATOM     94  F   UNL A   1      50.327  28.088  30.171  1.00  0.00    -0.205 F 
ATOM     95  C   UNL A   1      50.865  25.675  27.471  1.00  0.00     0.022 A 
BRANCH  93  96
ATOM     96  S   UNL A   1      52.855  27.059  28.757  1.00  0.00     0.127 S 
ATOM     97  O   UNL A   1      52.969  26.900  30.206  1.00  0.00    -0.237 OA
ATOM     98  O   UNL A   1      53.572  26.050  27.975  1.00  0.00    -0.237 OA
ATOM     99  O   UNL A   1      53.003  28.419  28.258  1.00  0.00    -0.744 OA
ENDBRANCH  93  96
ENDBRANCH  66  89
ENDBRANCH  40  41
ENDBRANCH  33  35
ENDBRANCH  32  33
ENDBRANCH  31  32
ENDBRANCH  30  31
ENDBRANCH  29  30
ENDBRANCH   1  29
TORSDOF 22
ENDMDL
