MODEL 1
REMARK VINA RESULT:     -11.0      0.000      0.000
REMARK SMILES O=C(OCCOCCOC(=O)C1CN(S(=O)(=O)c2ccc(F)cc2)C1)c1ccc(-c2c3nc(c(-c4cccc(S(=O)(=O)[O-])c4F)c4ccc([nH]4)c(-c4cccc(S(=O)(=O)[O-])c4F)c4nc(c(-c5cccc(S(=O)(=O)[O-])c5F)c5ccc2[nH]5)C=C4)C=C3)cc1
REMARK SMILES IDX 5 1 4 2 3 3 2 4 1 5 26 6 27 7 88 8 28 9 87 10 29 11 30 12
REMARK SMILES IDX 31 13 81 14 32 15 86 16 80 17 82 18 33 19 85 20 79 21 78 22
REMARK SMILES IDX 34 24 66 25 46 26 65 27 47 28 50 29 64 30 83 31 48 32 49 33
REMARK SMILES IDX 63 35 84 36 51 37 35 38 36 39 44 40 37 41 39 42 45 43 38 44
REMARK SMILES IDX 40 45 41 46 42 47 43 48 67 49 68 50 76 51 69 52 71 53 77 54
REMARK SMILES IDX 70 55 72 56 73 57 74 58 75 59 52 60 53 61 61 62 54 63 56 64
REMARK SMILES IDX 62 65 55 66 57 67 58 68 59 69 60 70 6 71 7 72 8 73 9 74
REMARK SMILES IDX 10 75 11 76 12 77 13 78 25 79 14 80 15 81 16 82 17 83 18 84
REMARK SMILES IDX 19 85 24 86 20 87 23 88 21 89 22 90
REMARK H PARENT 82 23 50 34
REMARK Flexibility Score: inf
ROOT
ATOM      1  C   UNL A   1      38.487  20.375  25.226  1.00  0.00     0.202 C 
ENDROOT
BRANCH   1   2
ATOM      2  C   UNL A   1      39.180  19.168  25.869  1.00  0.00     0.261 C 
BRANCH   2   3
ATOM      3  O   UNL A   1      40.605  19.277  25.739  1.00  0.00    -0.460 OA
BRANCH   3   4
ATOM      4  C   UNL A   1      41.482  19.777  26.640  1.00  0.00     0.338 C 
ATOM      5  O   UNL A   1      42.138  18.988  27.317  1.00  0.00    -0.246 OA
BRANCH   4   6
ATOM      6  C   UNL A   1      41.685  21.241  26.858  1.00  0.00     0.060 A 
ATOM      7  C   UNL A   1      41.455  22.235  25.902  1.00  0.00     0.016 A 
ATOM      8  C   UNL A   1      42.051  21.643  28.151  1.00  0.00     0.016 A 
ATOM      9  C   UNL A   1      41.627  23.573  26.179  1.00  0.00     0.010 A 
ATOM     10  C   UNL A   1      42.214  22.996  28.452  1.00  0.00     0.010 A 
ATOM     11  C   UNL A   1      42.017  23.954  27.452  1.00  0.00    -0.014 A 
BRANCH  11  12
ATOM     12  C   UNL A   1      42.370  25.361  27.641  1.00  0.00     0.031 A 
ATOM     13  C   UNL A   1      43.691  25.811  27.114  1.00  0.00     0.074 A 
ATOM     14  C   UNL A   1      41.460  26.207  28.150  1.00  0.00     0.049 A 
ATOM     15  N   UNL A   1      44.273  26.967  27.241  1.00  0.00    -0.248 NA
ATOM     16  C   UNL A   1      44.460  24.829  26.322  1.00  0.00     0.031 C 
ATOM     17  C   UNL A   1      40.094  25.846  28.542  1.00  0.00     0.029 A 
ATOM     18  N   UNL A   1      41.545  27.543  28.421  1.00  0.00    -0.354 N 
ATOM     19  C   UNL A   1      45.498  26.835  26.604  1.00  0.00     0.074 A 
ATOM     20  C   UNL A   1      45.571  25.500  26.063  1.00  0.00     0.031 C 
ATOM     21  C   UNL A   1      39.477  26.935  29.026  1.00  0.00     0.029 A 
ATOM     22  C   UNL A   1      40.425  28.042  29.043  1.00  0.00     0.049 A 
ATOM     23  H   UNL A   1      42.329  28.093  28.195  1.00  0.00     0.167 HD
ATOM     24  C   UNL A   1      46.471  27.763  26.498  1.00  0.00     0.034 A 
ATOM     25  C   UNL A   1      40.228  29.247  29.609  1.00  0.00     0.034 A 
ATOM     26  C   UNL A   1      46.343  29.084  27.041  1.00  0.00     0.049 A 
ATOM     27  C   UNL A   1      41.365  30.232  29.545  1.00  0.00     0.074 A 
ATOM     28  C   UNL A   1      47.269  30.108  27.042  1.00  0.00     0.029 A 
ATOM     29  N   UNL A   1      45.207  29.559  27.684  1.00  0.00    -0.354 N 
ATOM     30  N   UNL A   1      42.532  30.107  28.956  1.00  0.00    -0.248 NA
ATOM     31  C   UNL A   1      41.162  31.523  30.211  1.00  0.00     0.031 C 
ATOM     32  C   UNL A   1      46.702  31.193  27.717  1.00  0.00     0.029 A 
ATOM     33  C   UNL A   1      45.410  30.860  28.096  1.00  0.00     0.049 A 
ATOM     34  H   UNL A   1      44.381  29.043  27.826  1.00  0.00     0.167 HD
ATOM     35  C   UNL A   1      43.195  31.310  29.159  1.00  0.00     0.074 A 
ATOM     36  C   UNL A   1      42.283  32.160  29.900  1.00  0.00     0.031 C 
ATOM     37  C   UNL A   1      44.447  31.679  28.792  1.00  0.00     0.034 A 
BRANCH  24  38
ATOM     38  C   UNL A   1      47.748  27.370  25.815  1.00  0.00     0.023 A 
ATOM     39  C   UNL A   1      48.792  26.774  26.549  1.00  0.00     0.012 A 
ATOM     40  C   UNL A   1      47.892  27.554  24.427  1.00  0.00     0.148 A 
ATOM     41  C   UNL A   1      49.966  26.373  25.909  1.00  0.00     0.002 A 
ATOM     42  C   UNL A   1      49.042  27.110  23.789  1.00  0.00     0.091 A 
ATOM     43  F   UNL A   1      46.898  28.157  23.758  1.00  0.00    -0.205 F 
ATOM     44  C   UNL A   1      50.085  26.530  24.530  1.00  0.00     0.022 A 
BRANCH  42  45
ATOM     45  S   UNL A   1      49.262  27.200  22.010  1.00  0.00     0.127 S 
ATOM     46  O   UNL A   1      48.474  26.053  21.556  1.00  0.00    -0.237 OA
ATOM     47  O   UNL A   1      48.679  28.503  21.699  1.00  0.00    -0.237 OA
ATOM     48  O   UNL A   1      50.695  27.090  21.771  1.00  0.00    -0.744 OA
ENDBRANCH  42  45
ENDBRANCH  24  38
BRANCH  25  49
ATOM     49  C   UNL A   1      38.940  29.566  30.287  1.00  0.00     0.023 A 
ATOM     50  C   UNL A   1      38.676  29.037  31.565  1.00  0.00     0.012 A 
ATOM     51  C   UNL A   1      37.981  30.406  29.684  1.00  0.00     0.148 A 
ATOM     52  C   UNL A   1      37.470  29.311  32.214  1.00  0.00     0.002 A 
ATOM     53  C   UNL A   1      36.809  30.724  30.362  1.00  0.00     0.091 A 
ATOM     54  F   UNL A   1      38.237  30.888  28.460  1.00  0.00    -0.205 F 
ATOM     55  C   UNL A   1      36.543  30.163  31.619  1.00  0.00     0.022 A 
BRANCH  53  56
ATOM     56  S   UNL A   1      35.620  31.914  29.729  1.00  0.00     0.127 S 
ATOM     57  O   UNL A   1      34.717  32.067  30.865  1.00  0.00    -0.237 OA
ATOM     58  O   UNL A   1      36.471  33.074  29.456  1.00  0.00    -0.237 OA
ATOM     59  O   UNL A   1      35.044  31.300  28.540  1.00  0.00    -0.744 OA
ENDBRANCH  53  56
ENDBRANCH  25  49
BRANCH  37  60
ATOM     60  C   UNL A   1      44.892  33.066  29.160  1.00  0.00     0.023 A 
ATOM     61  C   UNL A   1      45.589  33.278  30.366  1.00  0.00     0.012 A 
ATOM     62  C   UNL A   1      44.718  34.131  28.256  1.00  0.00     0.148 A 
ATOM     63  C   UNL A   1      46.082  34.543  30.679  1.00  0.00     0.002 A 
ATOM     64  C   UNL A   1      45.266  35.371  28.547  1.00  0.00     0.091 A 
ATOM     65  F   UNL A   1      44.037  33.904  27.123  1.00  0.00    -0.205 F 
ATOM     66  C   UNL A   1      45.936  35.583  29.764  1.00  0.00     0.022 A 
BRANCH  64  67
ATOM     67  S   UNL A   1      45.234  36.731  27.376  1.00  0.00     0.127 S 
ATOM     68  O   UNL A   1      45.940  36.154  26.233  1.00  0.00    -0.237 OA
ATOM     69  O   UNL A   1      43.798  36.928  27.172  1.00  0.00    -0.237 OA
ATOM     70  O   UNL A   1      45.910  37.843  28.030  1.00  0.00    -0.744 OA
ENDBRANCH  64  67
ENDBRANCH  37  60
ENDBRANCH  11  12
ENDBRANCH   4   6
ENDBRANCH   3   4
ENDBRANCH   2   3
ENDBRANCH   1   2
BRANCH   1  71
ATOM     71  O   UNL A   1      37.179  20.180  24.677  1.00  0.00    -0.374 OA
BRANCH  71  72
ATOM     72  C   UNL A   1      36.114  20.951  25.255  1.00  0.00     0.202 C 
BRANCH  72  73
ATOM     73  C   UNL A   1      34.793  20.193  25.146  1.00  0.00     0.261 C 
BRANCH  73  74
ATOM     74  O   UNL A   1      33.819  20.969  25.855  1.00  0.00    -0.463 OA
BRANCH  74  75
ATOM     75  C   UNL A   1      32.590  20.949  25.272  1.00  0.00     0.311 C 
ATOM     76  O   UNL A   1      32.091  19.951  24.756  1.00  0.00    -0.252 OA
BRANCH  75  77
ATOM     77  C   UNL A   1      31.876  22.281  25.386  1.00  0.00     0.129 C 
ATOM     78  C   UNL A   1      31.627  22.995  26.733  1.00  0.00     0.119 C 
ATOM     79  C   UNL A   1      32.730  23.507  25.069  1.00  0.00     0.119 C 
ATOM     80  N   UNL A   1      31.922  24.307  26.054  1.00  0.00    -0.196 NA
BRANCH  80  81
ATOM     81  S   UNL A   1      30.645  25.354  25.587  1.00  0.00     0.243 S 
ATOM     82  O   UNL A   1      30.306  25.076  24.211  1.00  0.00    -0.207 OA
ATOM     83  O   UNL A   1      29.645  25.322  26.636  1.00  0.00    -0.207 OA
BRANCH  81  84
ATOM     84  C   UNL A   1      31.475  26.919  25.645  1.00  0.00     0.082 A 
ATOM     85  C   UNL A   1      32.550  27.086  26.526  1.00  0.00     0.025 A 
ATOM     86  C   UNL A   1      31.018  27.981  24.861  1.00  0.00     0.025 A 
ATOM     87  C   UNL A   1      33.100  28.351  26.708  1.00  0.00     0.040 A 
ATOM     88  C   UNL A   1      31.605  29.236  25.014  1.00  0.00     0.040 A 
ATOM     89  C   UNL A   1      32.619  29.415  25.953  1.00  0.00     0.123 A 
ATOM     90  F   UNL A   1      33.142  30.635  26.133  1.00  0.00    -0.207 F 
ENDBRANCH  81  84
ENDBRANCH  80  81
ENDBRANCH  75  77
ENDBRANCH  74  75
ENDBRANCH  73  74
ENDBRANCH  72  73
ENDBRANCH  71  72
ENDBRANCH   1  71
TORSDOF 19
ENDMDL
MODEL 2
REMARK VINA RESULT:     -10.9      2.013      2.524
REMARK SMILES O=C(OCCOCCOC(=O)C1CN(S(=O)(=O)c2ccc(F)cc2)C1)c1ccc(-c2c3nc(c(-c4cccc(S(=O)(=O)[O-])c4F)c4ccc([nH]4)c(-c4cccc(S(=O)(=O)[O-])c4F)c4nc(c(-c5cccc(S(=O)(=O)[O-])c5F)c5ccc2[nH]5)C=C4)C=C3)cc1
REMARK SMILES IDX 5 1 4 2 3 3 2 4 1 5 26 6 27 7 88 8 28 9 87 10 29 11 30 12
REMARK SMILES IDX 31 13 81 14 32 15 86 16 80 17 82 18 33 19 85 20 79 21 78 22
REMARK SMILES IDX 34 24 66 25 46 26 65 27 47 28 50 29 64 30 83 31 48 32 49 33
REMARK SMILES IDX 63 35 84 36 51 37 35 38 36 39 44 40 37 41 39 42 45 43 38 44
REMARK SMILES IDX 40 45 41 46 42 47 43 48 67 49 68 50 76 51 69 52 71 53 77 54
REMARK SMILES IDX 70 55 72 56 73 57 74 58 75 59 52 60 53 61 61 62 54 63 56 64
REMARK SMILES IDX 62 65 55 66 57 67 58 68 59 69 60 70 6 71 7 72 8 73 9 74
REMARK SMILES IDX 10 75 11 76 12 77 13 78 25 79 14 80 15 81 16 82 17 83 18 84
REMARK SMILES IDX 19 85 24 86 20 87 23 88 21 89 22 90
REMARK H PARENT 82 23 50 34
REMARK Flexibility Score: inf
ROOT
ATOM      1  C   UNL A   1      37.684  20.382  25.182  1.00  0.00     0.202 C 
ENDROOT
BRANCH   1   2
ATOM      2  C   UNL A   1      38.705  19.288  25.517  1.00  0.00     0.261 C 
BRANCH   2   3
ATOM      3  O   UNL A   1      40.001  19.861  25.742  1.00  0.00    -0.460 OA
BRANCH   3   4
ATOM      4  C   UNL A   1      40.509  20.327  26.907  1.00  0.00     0.338 C 
ATOM      5  O   UNL A   1      40.727  19.525  27.813  1.00  0.00    -0.246 OA
BRANCH   4   6
ATOM      6  C   UNL A   1      40.810  21.771  27.149  1.00  0.00     0.060 A 
ATOM      7  C   UNL A   1      40.221  22.839  26.466  1.00  0.00     0.016 A 
ATOM      8  C   UNL A   1      41.687  22.065  28.203  1.00  0.00     0.016 A 
ATOM      9  C   UNL A   1      40.517  24.151  26.763  1.00  0.00     0.010 A 
ATOM     10  C   UNL A   1      41.984  23.390  28.527  1.00  0.00     0.010 A 
ATOM     11  C   UNL A   1      41.407  24.427  27.788  1.00  0.00    -0.014 A 
BRANCH  11  12
ATOM     12  C   UNL A   1      41.831  25.819  27.935  1.00  0.00     0.031 A 
ATOM     13  C   UNL A   1      43.136  26.205  27.323  1.00  0.00     0.074 A 
ATOM     14  C   UNL A   1      40.992  26.710  28.488  1.00  0.00     0.049 A 
ATOM     15  N   UNL A   1      43.773  27.336  27.399  1.00  0.00    -0.248 NA
ATOM     16  C   UNL A   1      43.811  25.182  26.499  1.00  0.00     0.031 C 
ATOM     17  C   UNL A   1      39.638  26.414  28.967  1.00  0.00     0.029 A 
ATOM     18  N   UNL A   1      41.151  28.044  28.736  1.00  0.00    -0.354 N 
ATOM     19  C   UNL A   1      44.950  27.144  26.690  1.00  0.00     0.074 A 
ATOM     20  C   UNL A   1      44.932  25.801  26.163  1.00  0.00     0.031 C 
ATOM     21  C   UNL A   1      39.099  27.534  29.474  1.00  0.00     0.029 A 
ATOM     22  C   UNL A   1      40.093  28.598  29.418  1.00  0.00     0.049 A 
ATOM     23  H   UNL A   1      41.943  28.556  28.455  1.00  0.00     0.167 HD
ATOM     24  C   UNL A   1      45.954  28.027  26.513  1.00  0.00     0.034 A 
ATOM     25  C   UNL A   1      39.984  29.816  29.978  1.00  0.00     0.034 A 
ATOM     26  C   UNL A   1      45.916  29.358  27.045  1.00  0.00     0.049 A 
ATOM     27  C   UNL A   1      41.156  30.750  29.833  1.00  0.00     0.074 A 
ATOM     28  C   UNL A   1      46.884  30.340  26.976  1.00  0.00     0.029 A 
ATOM     29  N   UNL A   1      44.844  29.889  27.750  1.00  0.00    -0.354 N 
ATOM     30  N   UNL A   1      42.278  30.568  29.175  1.00  0.00    -0.248 NA
ATOM     31  C   UNL A   1      41.050  32.056  30.492  1.00  0.00     0.031 C 
ATOM     32  C   UNL A   1      46.407  31.456  27.669  1.00  0.00     0.029 A 
ATOM     33  C   UNL A   1      45.127  31.185  28.132  1.00  0.00     0.049 A 
ATOM     34  H   UNL A   1      44.007  29.412  27.949  1.00  0.00     0.167 HD
ATOM     35  C   UNL A   1      43.004  31.742  29.321  1.00  0.00     0.074 A 
ATOM     36  C   UNL A   1      42.177  32.640  30.105  1.00  0.00     0.031 C 
ATOM     37  C   UNL A   1      44.246  32.052  28.874  1.00  0.00     0.034 A 
BRANCH  24  38
ATOM     38  C   UNL A   1      47.168  27.571  25.759  1.00  0.00     0.023 A 
ATOM     39  C   UNL A   1      47.249  27.755  24.365  1.00  0.00     0.012 A 
ATOM     40  C   UNL A   1      48.254  26.997  26.448  1.00  0.00     0.148 A 
ATOM     41  C   UNL A   1      48.392  27.366  23.666  1.00  0.00     0.002 A 
ATOM     42  C   UNL A   1      49.406  26.656  25.753  1.00  0.00     0.091 A 
ATOM     43  F   UNL A   1      48.137  26.798  27.768  1.00  0.00    -0.205 F 
ATOM     44  C   UNL A   1      49.474  26.829  24.361  1.00  0.00     0.022 A 
BRANCH  42  45
ATOM     45  S   UNL A   1      50.878  26.026  26.565  1.00  0.00     0.127 S 
ATOM     46  O   UNL A   1      51.809  25.910  25.442  1.00  0.00    -0.237 OA
ATOM     47  O   UNL A   1      51.186  27.101  27.506  1.00  0.00    -0.237 OA
ATOM     48  O   UNL A   1      50.495  24.761  27.177  1.00  0.00    -0.744 OA
ENDBRANCH  42  45
ENDBRANCH  24  38
BRANCH  25  49
ATOM     49  C   UNL A   1      38.755  30.199  30.730  1.00  0.00     0.023 A 
ATOM     50  C   UNL A   1      38.623  29.832  32.083  1.00  0.00     0.012 A 
ATOM     51  C   UNL A   1      37.722  30.941  30.120  1.00  0.00     0.148 A 
ATOM     52  C   UNL A   1      37.475  30.168  32.803  1.00  0.00     0.002 A 
ATOM     53  C   UNL A   1      36.609  31.324  30.859  1.00  0.00     0.091 A 
ATOM     54  F   UNL A   1      37.852  31.267  28.826  1.00  0.00    -0.205 F 
ATOM     55  C   UNL A   1      36.474  30.922  32.197  1.00  0.00     0.022 A 
BRANCH  53  56
ATOM     56  S   UNL A   1      35.335  32.405  30.197  1.00  0.00     0.127 S 
ATOM     57  O   UNL A   1      34.862  31.639  29.047  1.00  0.00    -0.237 OA
ATOM     58  O   UNL A   1      34.394  32.482  31.316  1.00  0.00    -0.237 OA
ATOM     59  O   UNL A   1      36.005  33.660  29.889  1.00  0.00    -0.744 OA
ENDBRANCH  53  56
ENDBRANCH  25  49
BRANCH  37  60
ATOM     60  C   UNL A   1      44.772  33.422  29.196  1.00  0.00     0.023 A 
ATOM     61  C   UNL A   1      45.622  33.600  30.304  1.00  0.00     0.012 A 
ATOM     62  C   UNL A   1      44.513  34.503  28.331  1.00  0.00     0.148 A 
ATOM     63  C   UNL A   1      46.186  34.848  30.564  1.00  0.00     0.002 A 
ATOM     64  C   UNL A   1      45.128  35.725  28.562  1.00  0.00     0.091 A 
ATOM     65  F   UNL A   1      43.688  34.308  27.292  1.00  0.00    -0.205 F 
ATOM     66  C   UNL A   1      45.953  35.903  29.685  1.00  0.00     0.022 A 
BRANCH  64  67
ATOM     67  S   UNL A   1      44.984  37.100  27.417  1.00  0.00     0.127 S 
ATOM     68  O   UNL A   1      45.227  38.243  28.296  1.00  0.00    -0.237 OA
ATOM     69  O   UNL A   1      46.060  36.822  26.466  1.00  0.00    -0.237 OA
ATOM     70  O   UNL A   1      43.643  37.019  26.856  1.00  0.00    -0.744 OA
ENDBRANCH  64  67
ENDBRANCH  37  60
ENDBRANCH  11  12
ENDBRANCH   4   6
ENDBRANCH   3   4
ENDBRANCH   2   3
ENDBRANCH   1   2
BRANCH   1  71
ATOM     71  O   UNL A   1      36.330  19.982  24.947  1.00  0.00    -0.374 OA
BRANCH  71  72
ATOM     72  C   UNL A   1      35.343  21.026  24.920  1.00  0.00     0.202 C 
BRANCH  72  73
ATOM     73  C   UNL A   1      35.077  21.538  26.334  1.00  0.00     0.261 C 
BRANCH  73  74
ATOM     74  O   UNL A   1      34.542  22.860  26.194  1.00  0.00    -0.463 OA
BRANCH  74  75
ATOM     75  C   UNL A   1      35.462  23.769  25.771  1.00  0.00     0.311 C 
ATOM     76  O   UNL A   1      36.654  23.732  26.073  1.00  0.00    -0.252 OA
BRANCH  75  77
ATOM     77  C   UNL A   1      34.866  24.797  24.831  1.00  0.00     0.129 C 
ATOM     78  C   UNL A   1      34.033  24.423  23.585  1.00  0.00     0.119 C 
ATOM     79  C   UNL A   1      33.571  25.447  25.313  1.00  0.00     0.119 C 
ATOM     80  N   UNL A   1      33.125  25.588  23.883  1.00  0.00    -0.196 NA
BRANCH  80  81
ATOM     81  S   UNL A   1      33.267  27.051  22.998  1.00  0.00     0.243 S 
ATOM     82  O   UNL A   1      34.115  27.955  23.740  1.00  0.00    -0.207 OA
ATOM     83  O   UNL A   1      33.551  26.705  21.619  1.00  0.00    -0.207 OA
BRANCH  81  84
ATOM     84  C   UNL A   1      31.602  27.651  23.099  1.00  0.00     0.082 A 
ATOM     85  C   UNL A   1      30.587  26.774  23.504  1.00  0.00     0.025 A 
ATOM     86  C   UNL A   1      31.309  28.964  22.723  1.00  0.00     0.025 A 
ATOM     87  C   UNL A   1      29.259  27.178  23.425  1.00  0.00     0.040 A 
ATOM     88  C   UNL A   1      29.977  29.376  22.691  1.00  0.00     0.040 A 
ATOM     89  C   UNL A   1      28.966  28.473  23.015  1.00  0.00     0.123 A 
ATOM     90  F   UNL A   1      27.687  28.860  22.930  1.00  0.00    -0.207 F 
ENDBRANCH  81  84
ENDBRANCH  80  81
ENDBRANCH  75  77
ENDBRANCH  74  75
ENDBRANCH  73  74
ENDBRANCH  72  73
ENDBRANCH  71  72
ENDBRANCH   1  71
TORSDOF 19
ENDMDL
MODEL 3
REMARK VINA RESULT:     -10.9      1.521      7.831
REMARK SMILES O=C(OCCOCCOC(=O)C1CN(S(=O)(=O)c2ccc(F)cc2)C1)c1ccc(-c2c3nc(c(-c4cccc(S(=O)(=O)[O-])c4F)c4ccc([nH]4)c(-c4cccc(S(=O)(=O)[O-])c4F)c4nc(c(-c5cccc(S(=O)(=O)[O-])c5F)c5ccc2[nH]5)C=C4)C=C3)cc1
REMARK SMILES IDX 5 1 4 2 3 3 2 4 1 5 26 6 27 7 88 8 28 9 87 10 29 11 30 12
REMARK SMILES IDX 31 13 81 14 32 15 86 16 80 17 82 18 33 19 85 20 79 21 78 22
REMARK SMILES IDX 34 24 66 25 46 26 65 27 47 28 50 29 64 30 83 31 48 32 49 33
REMARK SMILES IDX 63 35 84 36 51 37 35 38 36 39 44 40 37 41 39 42 45 43 38 44
REMARK SMILES IDX 40 45 41 46 42 47 43 48 67 49 68 50 76 51 69 52 71 53 77 54
REMARK SMILES IDX 70 55 72 56 73 57 74 58 75 59 52 60 53 61 61 62 54 63 56 64
REMARK SMILES IDX 62 65 55 66 57 67 58 68 59 69 60 70 6 71 7 72 8 73 9 74
REMARK SMILES IDX 10 75 11 76 12 77 13 78 25 79 14 80 15 81 16 82 17 83 18 84
REMARK SMILES IDX 19 85 24 86 20 87 23 88 21 89 22 90
REMARK H PARENT 82 23 50 34
REMARK Flexibility Score: inf
ROOT
ATOM      1  C   UNL A   1      36.053  21.294  24.605  1.00  0.00     0.202 C 
ENDROOT
BRANCH   1   2
ATOM      2  C   UNL A   1      37.478  20.794  24.867  1.00  0.00     0.261 C 
BRANCH   2   3
ATOM      3  O   UNL A   1      38.037  21.446  26.017  1.00  0.00    -0.460 OA
BRANCH   3   4
ATOM      4  C   UNL A   1      39.346  21.644  26.301  1.00  0.00     0.338 C 
ATOM      5  O   UNL A   1      40.119  20.695  26.193  1.00  0.00    -0.246 OA
BRANCH   4   6
ATOM      6  C   UNL A   1      39.894  22.960  26.749  1.00  0.00     0.060 A 
ATOM      7  C   UNL A   1      39.463  24.208  26.290  1.00  0.00     0.016 A 
ATOM      8  C   UNL A   1      40.852  22.930  27.773  1.00  0.00     0.016 A 
ATOM      9  C   UNL A   1      39.987  25.387  26.773  1.00  0.00     0.010 A 
ATOM     10  C   UNL A   1      41.380  24.116  28.284  1.00  0.00     0.010 A 
ATOM     11  C   UNL A   1      40.953  25.341  27.763  1.00  0.00    -0.014 A 
BRANCH  11  12
ATOM     12  C   UNL A   1      41.610  26.604  28.102  1.00  0.00     0.031 A 
ATOM     13  C   UNL A   1      40.811  27.608  28.864  1.00  0.00     0.074 A 
ATOM     14  C   UNL A   1      42.918  26.758  27.840  1.00  0.00     0.049 A 
ATOM     15  N   UNL A   1      41.127  28.826  29.193  1.00  0.00    -0.248 NA
ATOM     16  C   UNL A   1      39.478  27.178  29.331  1.00  0.00     0.031 C 
ATOM     17  C   UNL A   1      43.785  25.744  27.232  1.00  0.00     0.029 A 
ATOM     18  N   UNL A   1      43.747  27.823  28.055  1.00  0.00    -0.354 N 
ATOM     19  C   UNL A   1      40.013  29.329  29.849  1.00  0.00     0.074 A 
ATOM     20  C   UNL A   1      39.021  28.283  29.900  1.00  0.00     0.031 C 
ATOM     21  C   UNL A   1      45.022  26.249  27.102  1.00  0.00     0.029 A 
ATOM     22  C   UNL A   1      45.011  27.636  27.549  1.00  0.00     0.049 A 
ATOM     23  H   UNL A   1      43.466  28.642  28.523  1.00  0.00     0.167 HD
ATOM     24  C   UNL A   1      39.849  30.571  30.351  1.00  0.00     0.034 A 
ATOM     25  C   UNL A   1      46.017  28.520  27.419  1.00  0.00     0.034 A 
ATOM     26  C   UNL A   1      40.874  31.572  30.288  1.00  0.00     0.049 A 
ATOM     27  C   UNL A   1      45.774  29.920  27.916  1.00  0.00     0.074 A 
ATOM     28  C   UNL A   1      40.824  32.883  30.720  1.00  0.00     0.029 A 
ATOM     29  N   UNL A   1      42.139  31.365  29.753  1.00  0.00    -0.354 N 
ATOM     30  N   UNL A   1      44.716  30.406  28.523  1.00  0.00    -0.248 NA
ATOM     31  C   UNL A   1      46.856  30.891  27.721  1.00  0.00     0.031 C 
ATOM     32  C   UNL A   1      42.051  33.477  30.415  1.00  0.00     0.029 A 
ATOM     33  C   UNL A   1      42.879  32.527  29.834  1.00  0.00     0.049 A 
ATOM     34  H   UNL A   1      42.458  30.516  29.372  1.00  0.00     0.167 HD
ATOM     35  C   UNL A   1      45.012  31.733  28.805  1.00  0.00     0.074 A 
ATOM     36  C   UNL A   1      46.362  31.962  28.328  1.00  0.00     0.031 C 
ATOM     37  C   UNL A   1      44.240  32.687  29.383  1.00  0.00     0.034 A 
BRANCH  24  38
ATOM     38  C   UNL A   1      38.523  30.913  30.964  1.00  0.00     0.023 A 
ATOM     39  C   UNL A   1      38.285  30.662  32.329  1.00  0.00     0.012 A 
ATOM     40  C   UNL A   1      37.524  31.531  30.187  1.00  0.00     0.148 A 
ATOM     41  C   UNL A   1      37.066  31.014  32.910  1.00  0.00     0.002 A 
ATOM     42  C   UNL A   1      36.333  31.921  30.782  1.00  0.00     0.091 A 
ATOM     43  F   UNL A   1      37.762  31.726  28.882  1.00  0.00    -0.205 F 
ATOM     44  C   UNL A   1      36.097  31.654  32.141  1.00  0.00     0.022 A 
BRANCH  42  45
ATOM     45  S   UNL A   1      35.053  32.815  29.897  1.00  0.00     0.127 S 
ATOM     46  O   UNL A   1      34.096  33.099  30.966  1.00  0.00    -0.237 OA
ATOM     47  O   UNL A   1      35.784  33.981  29.405  1.00  0.00    -0.237 OA
ATOM     48  O   UNL A   1      34.565  31.911  28.864  1.00  0.00    -0.744 OA
ENDBRANCH  42  45
ENDBRANCH  24  38
BRANCH  25  49
ATOM     49  C   UNL A   1      47.304  28.117  26.784  1.00  0.00     0.023 A 
ATOM     50  C   UNL A   1      48.419  27.823  27.592  1.00  0.00     0.012 A 
ATOM     51  C   UNL A   1      47.428  28.004  25.383  1.00  0.00     0.148 A 
ATOM     52  C   UNL A   1      49.638  27.457  27.019  1.00  0.00     0.002 A 
ATOM     53  C   UNL A   1      48.627  27.581  24.822  1.00  0.00     0.091 A 
ATOM     54  F   UNL A   1      46.365  28.305  24.624  1.00  0.00    -0.205 F 
ATOM     55  C   UNL A   1      49.740  27.325  25.636  1.00  0.00     0.022 A 
BRANCH  53  56
ATOM     56  S   UNL A   1      48.809  27.258  23.063  1.00  0.00     0.127 S 
ATOM     57  O   UNL A   1      50.252  27.391  22.883  1.00  0.00    -0.237 OA
ATOM     58  O   UNL A   1      48.298  25.891  22.953  1.00  0.00    -0.237 OA
ATOM     59  O   UNL A   1      47.993  28.260  22.392  1.00  0.00    -0.744 OA
ENDBRANCH  53  56
ENDBRANCH  25  49
BRANCH  37  60
ATOM     60  C   UNL A   1      44.845  34.051  29.556  1.00  0.00     0.023 A 
ATOM     61  C   UNL A   1      45.511  34.373  30.754  1.00  0.00     0.012 A 
ATOM     62  C   UNL A   1      44.849  34.966  28.485  1.00  0.00     0.148 A 
ATOM     63  C   UNL A   1      46.150  35.603  30.894  1.00  0.00     0.002 A 
ATOM     64  C   UNL A   1      45.540  36.162  28.611  1.00  0.00     0.091 A 
ATOM     65  F   UNL A   1      44.193  34.640  27.362  1.00  0.00    -0.205 F 
ATOM     66  C   UNL A   1      46.179  36.488  29.819  1.00  0.00     0.022 A 
BRANCH  64  67
ATOM     67  S   UNL A   1      45.735  37.304  27.240  1.00  0.00     0.127 S 
ATOM     68  O   UNL A   1      44.351  37.707  26.991  1.00  0.00    -0.237 OA
ATOM     69  O   UNL A   1      46.579  38.347  27.826  1.00  0.00    -0.237 OA
ATOM     70  O   UNL A   1      46.366  36.545  26.170  1.00  0.00    -0.744 OA
ENDBRANCH  64  67
ENDBRANCH  37  60
ENDBRANCH  11  12
ENDBRANCH   4   6
ENDBRANCH   3   4
ENDBRANCH   2   3
ENDBRANCH   1   2
BRANCH   1  71
ATOM     71  O   UNL A   1      34.987  20.341  24.674  1.00  0.00    -0.374 OA
BRANCH  71  72
ATOM     72  C   UNL A   1      33.931  20.619  25.609  1.00  0.00     0.202 C 
BRANCH  72  73
ATOM     73  C   UNL A   1      32.614  20.032  25.108  1.00  0.00     0.261 C 
BRANCH  73  74
ATOM     74  O   UNL A   1      31.827  21.136  24.644  1.00  0.00    -0.463 OA
BRANCH  74  75
ATOM     75  C   UNL A   1      32.009  21.408  23.323  1.00  0.00     0.311 C 
ATOM     76  O   UNL A   1      32.034  20.550  22.443  1.00  0.00    -0.252 OA
BRANCH  75  77
ATOM     77  C   UNL A   1      32.116  22.895  23.050  1.00  0.00     0.129 C 
ATOM     78  C   UNL A   1      31.892  23.972  24.134  1.00  0.00     0.119 C 
ATOM     79  C   UNL A   1      33.538  23.450  23.009  1.00  0.00     0.119 C 
ATOM     80  N   UNL A   1      33.027  24.763  23.535  1.00  0.00    -0.196 NA
BRANCH  80  81
ATOM     81  S   UNL A   1      32.710  26.115  22.528  1.00  0.00     0.243 S 
ATOM     82  O   UNL A   1      33.851  26.322  21.666  1.00  0.00    -0.207 OA
ATOM     83  O   UNL A   1      31.372  25.959  21.990  1.00  0.00    -0.207 OA
BRANCH  81  84
ATOM     84  C   UNL A   1      32.687  27.415  23.732  1.00  0.00     0.082 A 
ATOM     85  C   UNL A   1      33.642  27.410  24.756  1.00  0.00     0.025 A 
ATOM     86  C   UNL A   1      31.691  28.394  23.685  1.00  0.00     0.025 A 
ATOM     87  C   UNL A   1      33.534  28.321  25.802  1.00  0.00     0.040 A 
ATOM     88  C   UNL A   1      31.616  29.333  24.712  1.00  0.00     0.040 A 
ATOM     89  C   UNL A   1      32.519  29.271  25.772  1.00  0.00     0.123 A 
ATOM     90  F   UNL A   1      32.409  30.143  26.783  1.00  0.00    -0.207 F 
ENDBRANCH  81  84
ENDBRANCH  80  81
ENDBRANCH  75  77
ENDBRANCH  74  75
ENDBRANCH  73  74
ENDBRANCH  72  73
ENDBRANCH  71  72
ENDBRANCH   1  71
TORSDOF 19
ENDMDL
