MODEL 1
REMARK VINA RESULT:     -10.4      0.000      0.000
REMARK SMILES CC[NH+]1CCC2(CC1)OC[C@@H](C(=O)OCCOCCOC(=O)c1ccc(-c3c4nc(c(-c5cccc(S(=O)(=O)[O-])c5F)c5ccc([nH]5)c(-c5cccc(S(=O)(=O)[O-])c5F)c5nc(c(-c6cccc(S(=O)(=O)[O-])c6F)c6ccc3[nH]6)C=C5)C=C4)cc1)N2C(=O)c1ccc(Cl)c([N+](=O)[O-])c1
REMARK SMILES IDX 17 1 16 2 15 3 14 4 12 5 13 6 11 7 3 8 4 9 8 10 5 12 7 13
REMARK SMILES IDX 6 14 9 15 86 16 10 17 2 18 1 19 87 20 88 21 89 22 90 23
REMARK SMILES IDX 98 24 91 25 94 26 92 27 93 28 95 29 96 30 97 31 18 32 19 33
REMARK SMILES IDX 20 34 21 35 22 36 23 37 24 38 85 39 25 40 84 41 26 42 27 43
REMARK SMILES IDX 28 44 78 45 29 46 83 47 77 48 79 49 30 50 82 51 76 52 75 53
REMARK SMILES IDX 31 55 63 56 43 57 62 58 44 59 47 60 61 61 80 62 45 63 46 64
REMARK SMILES IDX 60 66 81 67 48 68 32 69 33 70 41 71 34 72 36 73 42 74 35 75
REMARK SMILES IDX 37 76 38 77 39 78 40 79 64 80 65 81 73 82 66 83 68 84 74 85
REMARK SMILES IDX 67 86 69 87 70 88 71 89 72 90 49 91 50 92 58 93 51 94 53 95
REMARK SMILES IDX 59 96 52 97 54 98 55 99 56 100 57 101
REMARK H PARENT 3 11 79 54 47 65
REMARK Flexibility Score: inf
ROOT
ATOM      1  O   UNL A   1      32.708  31.587  27.716  1.00  0.00    -0.374 OA
ENDROOT
BRANCH   1   2
ATOM      2  C   UNL A   1      31.843  31.613  26.585  1.00  0.00     0.202 C 
BRANCH   2   3
ATOM      3  C   UNL A   1      31.616  30.306  25.809  1.00  0.00     0.261 C 
BRANCH   3   4
ATOM      4  O   UNL A   1      32.058  29.105  26.474  1.00  0.00    -0.462 OA
BRANCH   4   5
ATOM      5  C   UNL A   1      32.847  28.310  25.708  1.00  0.00     0.331 C 
ATOM      6  O   UNL A   1      33.921  28.665  25.221  1.00  0.00    -0.250 OA
BRANCH   5   7
ATOM      7  C   UNL A   1      32.289  26.921  25.395  1.00  0.00     0.224 C 
ATOM      8  N   UNL A   1      32.061  22.589  22.545  1.00  0.00    -0.335 N 
ATOM      9  C   UNL A   1      30.926  22.963  23.373  1.00  0.00     0.267 C 
ATOM     10  C   UNL A   1      33.408  23.005  22.924  1.00  0.00     0.267 C 
ATOM     11  H   UNL A   1      31.917  23.197  21.739  1.00  0.00     0.348 HD
ATOM     12  C   UNL A   1      31.091  23.975  24.496  1.00  0.00     0.120 C 
ATOM     13  C   UNL A   1      33.596  23.750  24.228  1.00  0.00     0.120 C 
ATOM     14  C   UNL A   1      32.454  24.657  24.644  1.00  0.00     0.155 C 
ATOM     15  O   UNL A   1      32.588  24.721  26.104  1.00  0.00    -0.352 OA
ATOM     16  N   UNL A   1      32.488  26.074  24.217  1.00  0.00    -0.293 N 
ATOM     17  C   UNL A   1      32.880  26.058  26.484  1.00  0.00     0.200 C 
BRANCH   8  18
ATOM     18  C   UNL A   1      31.997  21.175  22.141  1.00  0.00     0.258 C 
ATOM     19  C   UNL A   1      32.344  20.218  23.272  1.00  0.00     0.071 C 
ENDBRANCH   8  18
BRANCH  16  20
ATOM     20  C   UNL A   1      32.167  26.628  22.990  1.00  0.00     0.257 C 
ATOM     21  O   UNL A   1      32.800  26.386  21.966  1.00  0.00    -0.269 OA
BRANCH  20  22
ATOM     22  C   UNL A   1      31.085  27.597  22.805  1.00  0.00     0.047 A 
ATOM     23  C   UNL A   1      31.343  28.893  22.345  1.00  0.00     0.016 A 
ATOM     24  C   UNL A   1      29.827  27.272  23.309  1.00  0.00     0.101 A 
ATOM     25  C   UNL A   1      30.299  29.828  22.291  1.00  0.00     0.028 A 
ATOM     26  C   UNL A   1      28.778  28.196  23.198  1.00  0.00     0.288 A 
ATOM     27  C   UNL A   1      29.002  29.481  22.699  1.00  0.00     0.118 A 
ATOM     28  Cl  UNL A   1      27.791  30.707  22.616  1.00  0.00    -0.077 Cl
BRANCH  26  29
ATOM     29  N   UNL A   1      27.456  27.742  23.596  1.00  0.00     0.064 N 
ATOM     30  O   UNL A   1      27.347  26.614  24.093  1.00  0.00    -0.258 OA
ATOM     31  O   UNL A   1      26.527  28.556  23.486  1.00  0.00    -0.258 OA
ENDBRANCH  26  29
ENDBRANCH  20  22
ENDBRANCH  16  20
ENDBRANCH   5   7
ENDBRANCH   4   5
ENDBRANCH   3   4
ENDBRANCH   2   3
ENDBRANCH   1   2
BRANCH   1  32
ATOM     32  C   UNL A   1      34.111  31.673  27.464  1.00  0.00     0.202 C 
BRANCH  32  33
ATOM     33  C   UNL A   1      34.844  32.911  28.003  1.00  0.00     0.261 C 
BRANCH  33  34
ATOM     34  O   UNL A   1      33.957  34.023  28.239  1.00  0.00    -0.460 OA
BRANCH  34  35
ATOM     35  C   UNL A   1      33.763  34.334  29.540  1.00  0.00     0.338 C 
ATOM     36  O   UNL A   1      32.757  34.822  30.043  1.00  0.00    -0.246 OA
BRANCH  35  37
ATOM     37  C   UNL A   1      34.876  33.816  30.357  1.00  0.00     0.060 A 
ATOM     38  C   UNL A   1      36.147  34.358  30.129  1.00  0.00     0.016 A 
ATOM     39  C   UNL A   1      34.705  32.765  31.261  1.00  0.00     0.016 A 
ATOM     40  C   UNL A   1      37.264  33.808  30.756  1.00  0.00     0.010 A 
ATOM     41  C   UNL A   1      35.831  32.212  31.888  1.00  0.00     0.010 A 
ATOM     42  C   UNL A   1      37.120  32.701  31.604  1.00  0.00    -0.014 A 
BRANCH  42  43
ATOM     43  C   UNL A   1      38.339  31.974  32.045  1.00  0.00     0.031 A 
ATOM     44  C   UNL A   1      38.960  32.323  33.374  1.00  0.00     0.074 A 
ATOM     45  C   UNL A   1      38.862  30.981  31.304  1.00  0.00     0.049 A 
ATOM     46  N   UNL A   1      39.972  31.762  33.984  1.00  0.00    -0.248 NA
ATOM     47  C   UNL A   1      38.363  33.448  34.111  1.00  0.00     0.031 C 
ATOM     48  C   UNL A   1      38.369  30.548  29.998  1.00  0.00     0.029 A 
ATOM     49  N   UNL A   1      39.937  30.160  31.545  1.00  0.00    -0.354 N 
ATOM     50  C   UNL A   1      40.144  32.473  35.166  1.00  0.00     0.074 A 
ATOM     51  C   UNL A   1      39.146  33.521  35.178  1.00  0.00     0.031 C 
ATOM     52  C   UNL A   1      39.151  29.553  29.544  1.00  0.00     0.029 A 
ATOM     53  C   UNL A   1      40.204  29.282  30.523  1.00  0.00     0.049 A 
ATOM     54  H   UNL A   1      40.468  30.198  32.375  1.00  0.00     0.167 HD
ATOM     55  C   UNL A   1      41.032  32.260  36.164  1.00  0.00     0.034 A 
ATOM     56  C   UNL A   1      41.185  28.366  30.388  1.00  0.00     0.034 A 
ATOM     57  C   UNL A   1      42.002  31.199  36.179  1.00  0.00     0.049 A 
ATOM     58  C   UNL A   1      42.163  28.152  31.515  1.00  0.00     0.074 A 
ATOM     59  C   UNL A   1      42.898  30.870  37.181  1.00  0.00     0.029 A 
ATOM     60  N   UNL A   1      42.210  30.304  35.144  1.00  0.00    -0.354 N 
ATOM     61  N   UNL A   1      42.209  28.731  32.690  1.00  0.00    -0.248 NA
ATOM     62  C   UNL A   1      43.202  27.128  31.313  1.00  0.00     0.031 C 
ATOM     63  C   UNL A   1      43.663  29.783  36.743  1.00  0.00     0.029 A 
ATOM     64  C   UNL A   1      43.230  29.429  35.476  1.00  0.00     0.049 A 
ATOM     65  H   UNL A   1      41.707  30.290  34.298  1.00  0.00     0.167 HD
ATOM     66  C   UNL A   1      43.253  28.119  33.378  1.00  0.00     0.074 A 
ATOM     67  C   UNL A   1      43.800  27.110  32.497  1.00  0.00     0.031 C 
ATOM     68  C   UNL A   1      43.727  28.383  34.620  1.00  0.00     0.034 A 
BRANCH  55  69
ATOM     69  C   UNL A   1      40.973  33.169  37.361  1.00  0.00     0.023 A 
ATOM     70  C   UNL A   1      40.065  32.885  38.401  1.00  0.00     0.012 A 
ATOM     71  C   UNL A   1      41.867  34.248  37.496  1.00  0.00     0.148 A 
ATOM     72  C   UNL A   1      40.037  33.673  39.551  1.00  0.00     0.002 A 
ATOM     73  C   UNL A   1      41.858  35.006  38.660  1.00  0.00     0.091 A 
ATOM     74  F   UNL A   1      42.705  34.513  36.483  1.00  0.00    -0.205 F 
ATOM     75  C   UNL A   1      40.940  34.724  39.685  1.00  0.00     0.022 A 
BRANCH  73  76
ATOM     76  S   UNL A   1      43.029  36.335  38.958  1.00  0.00     0.127 S 
ATOM     77  O   UNL A   1      44.250  35.790  38.367  1.00  0.00    -0.237 OA
ATOM     78  O   UNL A   1      42.433  37.445  38.213  1.00  0.00    -0.237 OA
ATOM     79  O   UNL A   1      43.064  36.523  40.401  1.00  0.00    -0.744 OA
ENDBRANCH  73  76
ENDBRANCH  55  69
BRANCH  56  80
ATOM     80  C   UNL A   1      41.270  27.542  29.148  1.00  0.00     0.023 A 
ATOM     81  C   UNL A   1      40.600  26.306  29.082  1.00  0.00     0.012 A 
ATOM     82  C   UNL A   1      42.015  27.979  28.036  1.00  0.00     0.148 A 
ATOM     83  C   UNL A   1      40.695  25.505  27.943  1.00  0.00     0.002 A 
ATOM     84  C   UNL A   1      42.060  27.204  26.883  1.00  0.00     0.091 A 
ATOM     85  F   UNL A   1      42.669  29.146  28.125  1.00  0.00    -0.205 F 
ATOM     86  C   UNL A   1      41.416  25.958  26.840  1.00  0.00     0.022 A 
BRANCH  84  87
ATOM     87  S   UNL A   1      42.856  27.782  25.381  1.00  0.00     0.127 S 
ATOM     88  O   UNL A   1      42.022  28.925  25.019  1.00  0.00    -0.237 OA
ATOM     89  O   UNL A   1      44.198  28.122  25.855  1.00  0.00    -0.237 OA
ATOM     90  O   UNL A   1      42.820  26.648  24.467  1.00  0.00    -0.744 OA
ENDBRANCH  84  87
ENDBRANCH  56  80
BRANCH  68  91
ATOM     91  C   UNL A   1      44.880  27.556  35.128  1.00  0.00     0.023 A 
ATOM     92  C   UNL A   1      46.197  28.032  34.983  1.00  0.00     0.012 A 
ATOM     93  C   UNL A   1      44.653  26.352  35.827  1.00  0.00     0.148 A 
ATOM     94  C   UNL A   1      47.273  27.312  35.500  1.00  0.00     0.002 A 
ATOM     95  C   UNL A   1      45.727  25.662  36.378  1.00  0.00     0.091 A 
ATOM     96  F   UNL A   1      43.394  25.904  35.940  1.00  0.00    -0.205 F 
ATOM     97  C   UNL A   1      47.038  26.135  36.207  1.00  0.00     0.022 A 
BRANCH  95  98
ATOM     98  S   UNL A   1      45.507  24.189  37.382  1.00  0.00     0.127 S 
ATOM     99  O   UNL A   1      44.873  23.274  36.435  1.00  0.00    -0.237 OA
ATOM    100  O   UNL A   1      46.884  23.841  37.736  1.00  0.00    -0.237 OA
ATOM    101  O   UNL A   1      44.682  24.597  38.512  1.00  0.00    -0.744 OA
ENDBRANCH  95  98
ENDBRANCH  68  91
ENDBRANCH  42  43
ENDBRANCH  35  37
ENDBRANCH  34  35
ENDBRANCH  33  34
ENDBRANCH  32  33
ENDBRANCH   1  32
TORSDOF 21
ENDMDL
MODEL 2
REMARK VINA RESULT:     -10.0      4.068      9.270
REMARK SMILES CC[NH+]1CCC2(CC1)OC[C@@H](C(=O)OCCOCCOC(=O)c1ccc(-c3c4nc(c(-c5cccc(S(=O)(=O)[O-])c5F)c5ccc([nH]5)c(-c5cccc(S(=O)(=O)[O-])c5F)c5nc(c(-c6cccc(S(=O)(=O)[O-])c6F)c6ccc3[nH]6)C=C5)C=C4)cc1)N2C(=O)c1ccc(Cl)c([N+](=O)[O-])c1
REMARK SMILES IDX 17 1 16 2 15 3 14 4 12 5 13 6 11 7 3 8 4 9 8 10 5 12 7 13
REMARK SMILES IDX 6 14 9 15 86 16 10 17 2 18 1 19 87 20 88 21 89 22 90 23
REMARK SMILES IDX 98 24 91 25 94 26 92 27 93 28 95 29 96 30 97 31 18 32 19 33
REMARK SMILES IDX 20 34 21 35 22 36 23 37 24 38 85 39 25 40 84 41 26 42 27 43
REMARK SMILES IDX 28 44 78 45 29 46 83 47 77 48 79 49 30 50 82 51 76 52 75 53
REMARK SMILES IDX 31 55 63 56 43 57 62 58 44 59 47 60 61 61 80 62 45 63 46 64
REMARK SMILES IDX 60 66 81 67 48 68 32 69 33 70 41 71 34 72 36 73 42 74 35 75
REMARK SMILES IDX 37 76 38 77 39 78 40 79 64 80 65 81 73 82 66 83 68 84 74 85
REMARK SMILES IDX 67 86 69 87 70 88 71 89 72 90 49 91 50 92 58 93 51 94 53 95
REMARK SMILES IDX 59 96 52 97 54 98 55 99 56 100 57 101
REMARK H PARENT 3 11 79 54 47 65
REMARK Flexibility Score: inf
ROOT
ATOM      1  O   UNL A   1      34.433  32.922  29.437  1.00  0.00    -0.374 OA
ENDROOT
BRANCH   1   2
ATOM      2  C   UNL A   1      34.199  32.695  28.051  1.00  0.00     0.202 C 
BRANCH   2   3
ATOM      3  C   UNL A   1      33.750  31.294  27.607  1.00  0.00     0.261 C 
BRANCH   3   4
ATOM      4  O   UNL A   1      32.408  31.208  27.086  1.00  0.00    -0.462 OA
BRANCH   4   5
ATOM      5  C   UNL A   1      31.992  29.940  26.840  1.00  0.00     0.331 C 
ATOM      6  O   UNL A   1      31.453  29.215  27.678  1.00  0.00    -0.250 OA
BRANCH   5   7
ATOM      7  C   UNL A   1      32.303  29.395  25.447  1.00  0.00     0.224 C 
ATOM      8  N   UNL A   1      32.926  25.513  22.057  1.00  0.00    -0.335 N 
ATOM      9  C   UNL A   1      33.554  26.799  21.799  1.00  0.00     0.267 C 
ATOM     10  C   UNL A   1      31.701  25.447  22.849  1.00  0.00     0.267 C 
ATOM     11  H   UNL A   1      33.583  25.112  22.728  1.00  0.00     0.348 HD
ATOM     12  C   UNL A   1      33.089  28.046  22.534  1.00  0.00     0.120 C 
ATOM     13  C   UNL A   1      31.067  26.740  23.312  1.00  0.00     0.120 C 
ATOM     14  C   UNL A   1      32.025  27.875  23.621  1.00  0.00     0.155 C 
ATOM     15  O   UNL A   1      31.205  29.075  23.415  1.00  0.00    -0.352 OA
ATOM     16  N   UNL A   1      32.526  28.016  25.007  1.00  0.00    -0.293 N 
ATOM     17  C   UNL A   1      31.073  29.763  24.650  1.00  0.00     0.200 C 
BRANCH   8  18
ATOM     18  C   UNL A   1      32.861  24.685  20.842  1.00  0.00     0.258 C 
ATOM     19  C   UNL A   1      32.573  25.496  19.586  1.00  0.00     0.071 C 
ENDBRANCH   8  18
BRANCH  16  20
ATOM     20  C   UNL A   1      33.527  27.311  25.653  1.00  0.00     0.257 C 
ATOM     21  O   UNL A   1      34.443  27.862  26.258  1.00  0.00    -0.269 OA
BRANCH  20  22
ATOM     22  C   UNL A   1      33.625  25.850  25.627  1.00  0.00     0.047 A 
ATOM     23  C   UNL A   1      34.668  25.206  24.953  1.00  0.00     0.016 A 
ATOM     24  C   UNL A   1      32.537  25.117  26.096  1.00  0.00     0.101 A 
ATOM     25  C   UNL A   1      34.665  23.807  24.852  1.00  0.00     0.028 A 
ATOM     26  C   UNL A   1      32.572  23.716  26.039  1.00  0.00     0.288 A 
ATOM     27  C   UNL A   1      33.627  23.048  25.412  1.00  0.00     0.118 A 
ATOM     28  Cl  UNL A   1      33.701  21.336  25.214  1.00  0.00    -0.077 Cl
BRANCH  26  29
ATOM     29  N   UNL A   1      31.483  23.003  26.686  1.00  0.00     0.064 N 
ATOM     30  O   UNL A   1      30.531  22.629  25.990  1.00  0.00    -0.258 OA
ATOM     31  O   UNL A   1      31.621  22.743  27.891  1.00  0.00    -0.258 OA
ENDBRANCH  26  29
ENDBRANCH  20  22
ENDBRANCH  16  20
ENDBRANCH   5   7
ENDBRANCH   4   5
ENDBRANCH   3   4
ENDBRANCH   2   3
ENDBRANCH   1   2
BRANCH   1  32
ATOM     32  C   UNL A   1      35.162  31.920  30.148  1.00  0.00     0.202 C 
BRANCH  32  33
ATOM     33  C   UNL A   1      36.639  32.213  30.450  1.00  0.00     0.261 C 
BRANCH  33  34
ATOM     34  O   UNL A   1      37.479  31.051  30.296  1.00  0.00    -0.460 OA
BRANCH  34  35
ATOM     35  C   UNL A   1      37.192  30.023  31.125  1.00  0.00     0.338 C 
ATOM     36  O   UNL A   1      36.111  29.462  31.263  1.00  0.00    -0.246 OA
BRANCH  35  37
ATOM     37  C   UNL A   1      38.430  29.501  31.733  1.00  0.00     0.060 A 
ATOM     38  C   UNL A   1      39.554  30.337  31.724  1.00  0.00     0.016 A 
ATOM     39  C   UNL A   1      38.522  28.195  32.220  1.00  0.00     0.016 A 
ATOM     40  C   UNL A   1      40.790  29.850  32.142  1.00  0.00     0.010 A 
ATOM     41  C   UNL A   1      39.768  27.707  32.638  1.00  0.00     0.010 A 
ATOM     42  C   UNL A   1      40.917  28.516  32.558  1.00  0.00    -0.014 A 
BRANCH  42  43
ATOM     43  C   UNL A   1      42.278  27.951  32.743  1.00  0.00     0.031 A 
ATOM     44  C   UNL A   1      43.068  27.527  31.530  1.00  0.00     0.074 A 
ATOM     45  C   UNL A   1      42.834  27.861  33.965  1.00  0.00     0.049 A 
ATOM     46  N   UNL A   1      44.297  27.087  31.458  1.00  0.00    -0.248 NA
ATOM     47  C   UNL A   1      42.383  27.613  30.229  1.00  0.00     0.031 C 
ATOM     48  C   UNL A   1      42.181  28.224  35.221  1.00  0.00     0.029 A 
ATOM     49  N   UNL A   1      44.078  27.423  34.348  1.00  0.00    -0.354 N 
ATOM     50  C   UNL A   1      44.529  26.827  30.112  1.00  0.00     0.074 A 
ATOM     51  C   UNL A   1      43.306  27.138  29.405  1.00  0.00     0.031 C 
ATOM     52  C   UNL A   1      43.024  27.977  36.238  1.00  0.00     0.029 A 
ATOM     53  C   UNL A   1      44.274  27.432  35.709  1.00  0.00     0.049 A 
ATOM     54  H   UNL A   1      44.767  27.129  33.708  1.00  0.00     0.167 HD
ATOM     55  C   UNL A   1      45.663  26.394  29.513  1.00  0.00     0.034 A 
ATOM     56  C   UNL A   1      45.336  27.043  36.444  1.00  0.00     0.034 A 
ATOM     57  C   UNL A   1      46.894  26.119  30.203  1.00  0.00     0.049 A 
ATOM     58  C   UNL A   1      46.585  26.563  35.750  1.00  0.00     0.074 A 
ATOM     59  C   UNL A   1      48.111  25.740  29.666  1.00  0.00     0.029 A 
ATOM     60  N   UNL A   1      47.064  26.184  31.575  1.00  0.00    -0.354 N 
ATOM     61  N   UNL A   1      46.835  26.474  34.466  1.00  0.00    -0.248 NA
ATOM     62  C   UNL A   1      47.715  26.166  36.607  1.00  0.00     0.031 C 
ATOM     63  C   UNL A   1      49.015  25.556  30.717  1.00  0.00     0.029 A 
ATOM     64  C   UNL A   1      48.362  25.838  31.906  1.00  0.00     0.049 A 
ATOM     65  H   UNL A   1      46.365  26.439  32.220  1.00  0.00     0.167 HD
ATOM     66  C   UNL A   1      48.156  26.048  34.362  1.00  0.00     0.074 A 
ATOM     67  C   UNL A   1      48.661  25.917  35.712  1.00  0.00     0.031 C 
ATOM     68  C   UNL A   1      48.878  25.773  33.249  1.00  0.00     0.034 A 
BRANCH  55  69
ATOM     69  C   UNL A   1      45.647  26.232  28.018  1.00  0.00     0.023 A 
ATOM     70  C   UNL A   1      45.972  27.332  27.200  1.00  0.00     0.012 A 
ATOM     71  C   UNL A   1      45.397  24.978  27.429  1.00  0.00     0.148 A 
ATOM     72  C   UNL A   1      46.030  27.190  25.814  1.00  0.00     0.002 A 
ATOM     73  C   UNL A   1      45.492  24.835  26.051  1.00  0.00     0.091 A 
ATOM     74  F   UNL A   1      45.066  23.952  28.227  1.00  0.00    -0.205 F 
ATOM     75  C   UNL A   1      45.803  25.942  25.241  1.00  0.00     0.022 A 
BRANCH  73  76
ATOM     76  S   UNL A   1      45.288  23.254  25.225  1.00  0.00     0.127 S 
ATOM     77  O   UNL A   1      46.263  22.425  25.930  1.00  0.00    -0.237 OA
ATOM     78  O   UNL A   1      43.890  22.933  25.515  1.00  0.00    -0.237 OA
ATOM     79  O   UNL A   1      45.575  23.496  23.818  1.00  0.00    -0.744 OA
ENDBRANCH  73  76
ENDBRANCH  55  69
BRANCH  56  80
ATOM     80  C   UNL A   1      45.286  27.132  37.931  1.00  0.00     0.023 A 
ATOM     81  C   UNL A   1      44.830  26.033  38.684  1.00  0.00     0.012 A 
ATOM     82  C   UNL A   1      45.687  28.304  38.601  1.00  0.00     0.148 A 
ATOM     83  C   UNL A   1      44.745  26.110  40.075  1.00  0.00     0.002 A 
ATOM     84  C   UNL A   1      45.653  28.354  39.990  1.00  0.00     0.091 A 
ATOM     85  F   UNL A   1      46.092  29.350  37.869  1.00  0.00    -0.205 F 
ATOM     86  C   UNL A   1      45.166  27.265  40.729  1.00  0.00     0.022 A 
BRANCH  84  87
ATOM     87  S   UNL A   1      46.303  29.757  40.904  1.00  0.00     0.127 S 
ATOM     88  O   UNL A   1      46.110  29.331  42.287  1.00  0.00    -0.237 OA
ATOM     89  O   UNL A   1      47.697  29.795  40.459  1.00  0.00    -0.237 OA
ATOM     90  O   UNL A   1      45.511  30.899  40.468  1.00  0.00    -0.744 OA
ENDBRANCH  84  87
ENDBRANCH  56  80
BRANCH  68  91
ATOM     91  C   UNL A   1      50.307  25.327  33.424  1.00  0.00     0.023 A 
ATOM     92  C   UNL A   1      50.608  23.953  33.480  1.00  0.00     0.012 A 
ATOM     93  C   UNL A   1      51.360  26.266  33.445  1.00  0.00     0.148 A 
ATOM     94  C   UNL A   1      51.928  23.518  33.581  1.00  0.00     0.002 A 
ATOM     95  C   UNL A   1      52.677  25.824  33.501  1.00  0.00     0.091 A 
ATOM     96  F   UNL A   1      51.055  27.571  33.409  1.00  0.00    -0.205 F 
ATOM     97  C   UNL A   1      52.963  24.451  33.579  1.00  0.00     0.022 A 
BRANCH  95  98
ATOM     98  S   UNL A   1      54.072  26.952  33.409  1.00  0.00     0.127 S 
ATOM     99  O   UNL A   1      55.204  26.027  33.414  1.00  0.00    -0.237 OA
ATOM    100  O   UNL A   1      53.844  27.630  32.133  1.00  0.00    -0.237 OA
ATOM    101  O   UNL A   1      53.962  27.817  34.577  1.00  0.00    -0.744 OA
ENDBRANCH  95  98
ENDBRANCH  68  91
ENDBRANCH  42  43
ENDBRANCH  35  37
ENDBRANCH  34  35
ENDBRANCH  33  34
ENDBRANCH  32  33
ENDBRANCH   1  32
TORSDOF 21
ENDMDL
MODEL 3
REMARK VINA RESULT:      -9.8      6.301     10.688
REMARK SMILES CC[NH+]1CCC2(CC1)OC[C@@H](C(=O)OCCOCCOC(=O)c1ccc(-c3c4nc(c(-c5cccc(S(=O)(=O)[O-])c5F)c5ccc([nH]5)c(-c5cccc(S(=O)(=O)[O-])c5F)c5nc(c(-c6cccc(S(=O)(=O)[O-])c6F)c6ccc3[nH]6)C=C5)C=C4)cc1)N2C(=O)c1ccc(Cl)c([N+](=O)[O-])c1
REMARK SMILES IDX 17 1 16 2 15 3 14 4 12 5 13 6 11 7 3 8 4 9 8 10 5 12 7 13
REMARK SMILES IDX 6 14 9 15 86 16 10 17 2 18 1 19 87 20 88 21 89 22 90 23
REMARK SMILES IDX 98 24 91 25 94 26 92 27 93 28 95 29 96 30 97 31 18 32 19 33
REMARK SMILES IDX 20 34 21 35 22 36 23 37 24 38 85 39 25 40 84 41 26 42 27 43
REMARK SMILES IDX 28 44 78 45 29 46 83 47 77 48 79 49 30 50 82 51 76 52 75 53
REMARK SMILES IDX 31 55 63 56 43 57 62 58 44 59 47 60 61 61 80 62 45 63 46 64
REMARK SMILES IDX 60 66 81 67 48 68 32 69 33 70 41 71 34 72 36 73 42 74 35 75
REMARK SMILES IDX 37 76 38 77 39 78 40 79 64 80 65 81 73 82 66 83 68 84 74 85
REMARK SMILES IDX 67 86 69 87 70 88 71 89 72 90 49 91 50 92 58 93 51 94 53 95
REMARK SMILES IDX 59 96 52 97 54 98 55 99 56 100 57 101
REMARK H PARENT 3 11 79 54 47 65
REMARK Flexibility Score: inf
ROOT
ATOM      1  O   UNL A   1      38.848  35.230  38.683  1.00  0.00    -0.374 OA
ENDROOT
BRANCH   1   2
ATOM      2  C   UNL A   1      38.760  34.509  37.458  1.00  0.00     0.202 C 
BRANCH   2   3
ATOM      3  C   UNL A   1      38.377  33.022  37.513  1.00  0.00     0.261 C 
BRANCH   3   4
ATOM      4  O   UNL A   1      38.206  32.378  36.234  1.00  0.00    -0.462 OA
BRANCH   4   5
ATOM      5  C   UNL A   1      38.180  31.023  36.298  1.00  0.00     0.331 C 
ATOM      6  O   UNL A   1      37.636  30.384  37.200  1.00  0.00    -0.250 OA
BRANCH   5   7
ATOM      7  C   UNL A   1      38.953  30.288  35.203  1.00  0.00     0.224 C 
ATOM      8  N   UNL A   1      40.201  29.424  30.239  1.00  0.00    -0.335 N 
ATOM      9  C   UNL A   1      40.412  28.376  31.225  1.00  0.00     0.267 C 
ATOM     10  C   UNL A   1      40.237  30.826  30.647  1.00  0.00     0.267 C 
ATOM     11  H   UNL A   1      39.200  29.324  30.067  1.00  0.00     0.348 HD
ATOM     12  C   UNL A   1      40.436  28.706  32.709  1.00  0.00     0.120 C 
ATOM     13  C   UNL A   1      40.581  31.153  32.084  1.00  0.00     0.120 C 
ATOM     14  C   UNL A   1      40.122  30.147  33.122  1.00  0.00     0.155 C 
ATOM     15  O   UNL A   1      41.069  30.344  34.226  1.00  0.00    -0.352 OA
ATOM     16  N   UNL A   1      38.794  30.337  33.749  1.00  0.00    -0.293 N 
ATOM     17  C   UNL A   1      40.361  30.812  35.365  1.00  0.00     0.200 C 
BRANCH   8  18
ATOM     18  C   UNL A   1      40.963  29.173  29.006  1.00  0.00     0.258 C 
ATOM     19  C   UNL A   1      40.075  29.030  27.777  1.00  0.00     0.071 C 
ENDBRANCH   8  18
BRANCH  16  20
ATOM     20  C   UNL A   1      37.538  30.039  33.249  1.00  0.00     0.257 C 
ATOM     21  O   UNL A   1      37.084  28.898  33.232  1.00  0.00    -0.269 OA
BRANCH  20  22
ATOM     22  C   UNL A   1      36.658  31.038  32.640  1.00  0.00     0.047 A 
ATOM     23  C   UNL A   1      36.175  30.880  31.337  1.00  0.00     0.016 A 
ATOM     24  C   UNL A   1      36.495  32.252  33.304  1.00  0.00     0.101 A 
ATOM     25  C   UNL A   1      35.430  31.912  30.746  1.00  0.00     0.028 A 
ATOM     26  C   UNL A   1      35.702  33.254  32.727  1.00  0.00     0.288 A 
ATOM     27  C   UNL A   1      35.170  33.101  31.444  1.00  0.00     0.118 A 
ATOM     28  Cl  UNL A   1      34.265  34.319  30.624  1.00  0.00    -0.077 Cl
BRANCH  26  29
ATOM     29  N   UNL A   1      35.440  34.434  33.535  1.00  0.00     0.064 N 
ATOM     30  O   UNL A   1      35.192  34.279  34.737  1.00  0.00    -0.258 OA
ATOM     31  O   UNL A   1      35.564  35.535  32.977  1.00  0.00    -0.258 OA
ENDBRANCH  26  29
ENDBRANCH  20  22
ENDBRANCH  16  20
ENDBRANCH   5   7
ENDBRANCH   4   5
ENDBRANCH   3   4
ENDBRANCH   2   3
ENDBRANCH   1   2
BRANCH   1  32
ATOM     32  C   UNL A   1      39.760  34.737  39.666  1.00  0.00     0.202 C 
BRANCH  32  33
ATOM     33  C   UNL A   1      40.992  35.602  39.973  1.00  0.00     0.261 C 
BRANCH  33  34
ATOM     34  O   UNL A   1      42.232  34.925  39.684  1.00  0.00    -0.460 OA
BRANCH  34  35
ATOM     35  C   UNL A   1      43.142  35.662  39.010  1.00  0.00     0.338 C 
ATOM     36  O   UNL A   1      43.847  36.559  39.460  1.00  0.00    -0.246 OA
BRANCH  35  37
ATOM     37  C   UNL A   1      43.341  35.111  37.657  1.00  0.00     0.060 A 
ATOM     38  C   UNL A   1      42.198  34.738  36.940  1.00  0.00     0.016 A 
ATOM     39  C   UNL A   1      44.615  34.877  37.133  1.00  0.00     0.016 A 
ATOM     40  C   UNL A   1      42.323  34.071  35.723  1.00  0.00     0.010 A 
ATOM     41  C   UNL A   1      44.737  34.204  35.909  1.00  0.00     0.010 A 
ATOM     42  C   UNL A   1      43.594  33.757  35.220  1.00  0.00    -0.014 A 
BRANCH  42  43
ATOM     43  C   UNL A   1      43.698  32.824  34.069  1.00  0.00     0.031 A 
ATOM     44  C   UNL A   1      43.650  33.378  32.668  1.00  0.00     0.074 A 
ATOM     45  C   UNL A   1      43.885  31.504  34.259  1.00  0.00     0.049 A 
ATOM     46  N   UNL A   1      43.803  32.755  31.529  1.00  0.00    -0.248 NA
ATOM     47  C   UNL A   1      43.399  34.822  32.534  1.00  0.00     0.031 C 
ATOM     48  C   UNL A   1      43.941  30.835  35.557  1.00  0.00     0.029 A 
ATOM     49  N   UNL A   1      44.054  30.489  33.350  1.00  0.00    -0.354 N 
ATOM     50  C   UNL A   1      43.650  33.723  30.543  1.00  0.00     0.074 A 
ATOM     51  C   UNL A   1      43.372  34.972  31.217  1.00  0.00     0.031 C 
ATOM     52  C   UNL A   1      44.112  29.516  35.361  1.00  0.00     0.029 A 
ATOM     53  C   UNL A   1      44.172  29.246  33.924  1.00  0.00     0.049 A 
ATOM     54  H   UNL A   1      44.087  30.637  32.376  1.00  0.00     0.167 HD
ATOM     55  C   UNL A   1      43.758  33.593  29.200  1.00  0.00     0.034 A 
ATOM     56  C   UNL A   1      44.309  28.029  33.359  1.00  0.00     0.034 A 
ATOM     57  C   UNL A   1      44.072  32.365  28.524  1.00  0.00     0.049 A 
ATOM     58  C   UNL A   1      44.424  27.914  31.860  1.00  0.00     0.074 A 
ATOM     59  C   UNL A   1      44.266  32.157  27.169  1.00  0.00     0.029 A 
ATOM     60  N   UNL A   1      44.228  31.137  29.144  1.00  0.00    -0.354 N 
ATOM     61  N   UNL A   1      44.435  28.864  30.956  1.00  0.00    -0.248 NA
ATOM     62  C   UNL A   1      44.587  26.560  31.304  1.00  0.00     0.031 C 
ATOM     63  C   UNL A   1      44.522  30.796  26.968  1.00  0.00     0.029 A 
ATOM     64  C   UNL A   1      44.503  30.163  28.200  1.00  0.00     0.049 A 
ATOM     65  H   UNL A   1      44.156  30.980  30.113  1.00  0.00     0.167 HD
ATOM     66  C   UNL A   1      44.640  28.229  29.735  1.00  0.00     0.074 A 
ATOM     67  C   UNL A   1      44.771  26.815  30.015  1.00  0.00     0.031 C 
ATOM     68  C   UNL A   1      44.697  28.767  28.493  1.00  0.00     0.034 A 
BRANCH  55  69
ATOM     69  C   UNL A   1      43.581  34.829  28.360  1.00  0.00     0.023 A 
ATOM     70  C   UNL A   1      42.289  35.195  27.934  1.00  0.00     0.012 A 
ATOM     71  C   UNL A   1      44.674  35.667  28.067  1.00  0.00     0.148 A 
ATOM     72  C   UNL A   1      42.090  36.371  27.211  1.00  0.00     0.002 A 
ATOM     73  C   UNL A   1      44.462  36.855  27.379  1.00  0.00     0.091 A 
ATOM     74  F   UNL A   1      45.896  35.285  28.463  1.00  0.00    -0.205 F 
ATOM     75  C   UNL A   1      43.172  37.205  26.945  1.00  0.00     0.022 A 
BRANCH  73  76
ATOM     76  S   UNL A   1      45.779  38.031  27.051  1.00  0.00     0.127 S 
ATOM     77  O   UNL A   1      46.579  37.309  26.064  1.00  0.00    -0.237 OA
ATOM     78  O   UNL A   1      45.043  39.179  26.520  1.00  0.00    -0.237 OA
ATOM     79  O   UNL A   1      46.432  38.269  28.330  1.00  0.00    -0.744 OA
ENDBRANCH  73  76
ENDBRANCH  55  69
BRANCH  56  80
ATOM     80  C   UNL A   1      44.392  26.813  34.217  1.00  0.00     0.023 A 
ATOM     81  C   UNL A   1      43.213  26.150  34.607  1.00  0.00     0.012 A 
ATOM     82  C   UNL A   1      45.636  26.313  34.649  1.00  0.00     0.148 A 
ATOM     83  C   UNL A   1      43.269  25.029  35.438  1.00  0.00     0.002 A 
ATOM     84  C   UNL A   1      45.688  25.164  35.430  1.00  0.00     0.091 A 
ATOM     85  F   UNL A   1      46.747  26.972  34.291  1.00  0.00    -0.205 F 
ATOM     86  C   UNL A   1      44.505  24.530  35.840  1.00  0.00     0.022 A 
BRANCH  84  87
ATOM     87  S   UNL A   1      47.246  24.389  35.873  1.00  0.00     0.127 S 
ATOM     88  O   UNL A   1      47.892  24.244  34.573  1.00  0.00    -0.237 OA
ATOM     89  O   UNL A   1      47.848  25.391  36.754  1.00  0.00    -0.237 OA
ATOM     90  O   UNL A   1      46.879  23.151  36.549  1.00  0.00    -0.744 OA
ENDBRANCH  84  87
ENDBRANCH  56  80
BRANCH  68  91
ATOM     91  C   UNL A   1      44.938  27.839  27.330  1.00  0.00     0.023 A 
ATOM     92  C   UNL A   1      43.843  27.262  26.658  1.00  0.00     0.012 A 
ATOM     93  C   UNL A   1      46.243  27.609  26.847  1.00  0.00     0.148 A 
ATOM     94  C   UNL A   1      44.041  26.450  25.543  1.00  0.00     0.002 A 
ATOM     95  C   UNL A   1      46.430  26.833  25.708  1.00  0.00     0.091 A 
ATOM     96  F   UNL A   1      47.276  28.151  27.509  1.00  0.00    -0.205 F 
ATOM     97  C   UNL A   1      45.332  26.245  25.061  1.00  0.00     0.022 A 
BRANCH  95  98
ATOM     98  S   UNL A   1      48.049  26.595  24.964  1.00  0.00     0.127 S 
ATOM     99  O   UNL A   1      48.401  27.960  24.575  1.00  0.00    -0.237 OA
ATOM    100  O   UNL A   1      48.830  26.058  26.078  1.00  0.00    -0.237 OA
ATOM    101  O   UNL A   1      47.847  25.659  23.865  1.00  0.00    -0.744 OA
ENDBRANCH  95  98
ENDBRANCH  68  91
ENDBRANCH  42  43
ENDBRANCH  35  37
ENDBRANCH  34  35
ENDBRANCH  33  34
ENDBRANCH  32  33
ENDBRANCH   1  32
TORSDOF 21
ENDMDL
