MODEL 1
REMARK VINA RESULT:     -11.0      0.000      0.000
REMARK SMILES CCn1cc(C)c(C(=O)OCCOCCOC(=O)c2ccc(-c3c4nc(c(-c5cccc(S(=O)(=O)[O-])c5F)c5ccc([nH]5)c(-c5cccc(S(=O)(=O)[O-])c5F)c5nc(c(-c6cccc(S(=O)(=O)[O-])c6F)c6ccc3[nH]6)C=C5)C=C4)cc2)c1CC(=O)N1CCc2ccccc21
REMARK SMILES IDX 13 1 12 2 11 3 10 4 8 5 9 6 7 7 3 8 4 9 82 10 5 11 6 12 2 13
REMARK SMILES IDX 1 14 83 15 84 16 85 17 86 18 87 19 94 20 88 21 89 22 93 23
REMARK SMILES IDX 90 24 92 25 91 26 14 27 15 28 16 29 17 30 18 31 19 32 20 33
REMARK SMILES IDX 81 34 21 35 80 36 22 37 23 38 24 39 74 40 25 41 79 42 73 43
REMARK SMILES IDX 75 44 26 45 78 46 72 47 71 48 27 50 59 51 39 52 58 53 40 54
REMARK SMILES IDX 43 55 57 56 76 57 41 58 42 59 56 61 77 62 44 63 28 64 29 65
REMARK SMILES IDX 37 66 30 67 32 68 38 69 31 70 33 71 34 72 35 73 36 74 60 75
REMARK SMILES IDX 61 76 69 77 62 78 64 79 70 80 63 81 65 82 66 83 67 84 68 85
REMARK SMILES IDX 45 86 46 87 54 88 47 89 49 90 55 91 48 92 50 93 51 94 52 95
REMARK SMILES IDX 53 96
REMARK H PARENT 75 49 43 60
REMARK Flexibility Score: inf
ROOT
ATOM      1  O   UNL A   1      38.233  22.580  26.140  1.00  0.00    -0.374 OA
ENDROOT
BRANCH   1   2
ATOM      2  C   UNL A   1      37.786  21.456  25.389  1.00  0.00     0.202 C 
BRANCH   2   3
ATOM      3  C   UNL A   1      36.285  21.254  25.139  1.00  0.00     0.261 C 
BRANCH   3   4
ATOM      4  O   UNL A   1      35.429  21.711  26.202  1.00  0.00    -0.460 OA
BRANCH   4   5
ATOM      5  C   UNL A   1      34.097  21.614  25.940  1.00  0.00     0.340 C 
ATOM      6  O   UNL A   1      33.323  20.948  26.621  1.00  0.00    -0.246 OA
BRANCH   5   7
ATOM      7  C   UNL A   1      33.609  22.453  24.838  1.00  0.00     0.084 A 
ATOM      8  N   UNL A   1      33.377  24.091  23.344  1.00  0.00    -0.350 N 
ATOM      9  C   UNL A   1      32.869  22.959  22.761  1.00  0.00     0.090 A 
ATOM     10  C   UNL A   1      33.610  23.846  24.689  1.00  0.00     0.042 A 
ATOM     11  C   UNL A   1      32.967  21.925  23.659  1.00  0.00    -0.019 A 
ATOM     12  C   UNL A   1      32.466  20.541  23.439  1.00  0.00     0.047 C 
BRANCH   8  13
ATOM     13  C   UNL A   1      33.614  25.309  22.576  1.00  0.00     0.118 C 
ATOM     14  C   UNL A   1      32.493  25.643  21.603  1.00  0.00     0.027 C 
ENDBRANCH   8  13
BRANCH  10  15
ATOM     15  C   UNL A   1      33.844  24.948  25.693  1.00  0.00     0.155 C 
BRANCH  15  16
ATOM     16  C   UNL A   1      32.525  25.658  26.001  1.00  0.00     0.232 C 
ATOM     17  O   UNL A   1      31.781  25.224  26.887  1.00  0.00    -0.274 OA
BRANCH  16  18
ATOM     18  N   UNL A   1      32.264  26.840  25.354  1.00  0.00    -0.311 N 
ATOM     19  C   UNL A   1      32.992  28.100  25.676  1.00  0.00     0.130 C 
ATOM     20  C   UNL A   1      31.092  27.165  24.657  1.00  0.00     0.047 A 
ATOM     21  C   UNL A   1      32.566  29.283  24.736  1.00  0.00     0.059 C 
ATOM     22  C   UNL A   1      31.223  28.910  24.223  1.00  0.00    -0.022 A 
ATOM     23  C   UNL A   1      29.547  26.277  24.315  1.00  0.00     0.026 A 
ATOM     24  C   UNL A   1      29.851  29.811  23.452  1.00  0.00     0.006 A 
ATOM     25  C   UNL A   1      28.132  27.152  23.584  1.00  0.00     0.002 A 
ATOM     26  C   UNL A   1      28.254  28.922  23.139  1.00  0.00     0.000 A 
ENDBRANCH  16  18
ENDBRANCH  15  16
ENDBRANCH  10  15
ENDBRANCH   5   7
ENDBRANCH   4   5
ENDBRANCH   3   4
ENDBRANCH   2   3
ENDBRANCH   1   2
BRANCH   1  27
ATOM     27  C   UNL A   1      39.605  22.674  26.503  1.00  0.00     0.202 C 
BRANCH  27  28
ATOM     28  C   UNL A   1      40.512  21.463  26.366  1.00  0.00     0.261 C 
BRANCH  28  29
ATOM     29  O   UNL A   1      41.633  21.702  25.491  1.00  0.00    -0.460 OA
BRANCH  29  30
ATOM     30  C   UNL A   1      42.676  22.618  26.020  1.00  0.00     0.338 C 
ATOM     31  O   UNL A   1      43.357  21.768  26.664  1.00  0.00    -0.246 OA
BRANCH  30  32
ATOM     32  C   UNL A   1      42.799  24.765  25.819  1.00  0.00     0.060 A 
ATOM     33  C   UNL A   1      43.840  25.707  26.286  1.00  0.00     0.016 A 
ATOM     34  C   UNL A   1      41.838  25.782  25.431  1.00  0.00     0.016 A 
ATOM     35  C   UNL A   1      43.562  26.678  27.250  1.00  0.00     0.010 A 
ATOM     36  C   UNL A   1      41.433  26.740  26.371  1.00  0.00     0.010 A 
ATOM     37  C   UNL A   1      42.244  27.007  27.459  1.00  0.00    -0.014 A 
BRANCH  37  38
ATOM     38  C   UNL A   1      41.917  28.075  28.394  1.00  0.00     0.031 A 
ATOM     39  C   UNL A   1      42.885  29.168  28.131  1.00  0.00     0.074 A 
ATOM     40  C   UNL A   1      40.916  28.179  29.294  1.00  0.00     0.049 A 
ATOM     41  N   UNL A   1      44.025  29.314  28.732  1.00  0.00    -0.248 NA
ATOM     42  C   UNL A   1      42.790  29.866  26.839  1.00  0.00     0.031 C 
ATOM     43  C   UNL A   1      39.777  27.320  29.598  1.00  0.00     0.029 A 
ATOM     44  N   UNL A   1      40.664  29.237  30.112  1.00  0.00    -0.354 N 
ATOM     45  C   UNL A   1      44.650  30.310  27.999  1.00  0.00     0.074 A 
ATOM     46  C   UNL A   1      44.051  30.278  26.697  1.00  0.00     0.031 C 
ATOM     47  C   UNL A   1      38.806  28.031  30.220  1.00  0.00     0.029 A 
ATOM     48  C   UNL A   1      39.351  29.328  30.559  1.00  0.00     0.049 A 
ATOM     49  H   UNL A   1      41.359  29.888  30.367  1.00  0.00     0.167 HD
ATOM     50  C   UNL A   1      45.259  31.351  28.624  1.00  0.00     0.034 A 
ATOM     51  C   UNL A   1      38.761  30.397  31.151  1.00  0.00     0.034 A 
ATOM     52  C   UNL A   1      45.513  31.044  30.011  1.00  0.00     0.049 A 
ATOM     53  C   UNL A   1      39.855  31.261  31.652  1.00  0.00     0.074 A 
ATOM     54  C   UNL A   1      46.193  30.045  30.680  1.00  0.00     0.029 A 
ATOM     55  N   UNL A   1      44.639  31.587  30.924  1.00  0.00    -0.354 N 
ATOM     56  N   UNL A   1      40.657  30.901  32.616  1.00  0.00    -0.248 NA
ATOM     57  C   UNL A   1      40.367  32.283  30.754  1.00  0.00     0.031 C 
ATOM     58  C   UNL A   1      45.384  29.740  31.815  1.00  0.00     0.029 A 
ATOM     59  C   UNL A   1      44.296  30.615  31.825  1.00  0.00     0.049 A 
ATOM     60  H   UNL A   1      44.316  32.517  30.928  1.00  0.00     0.167 HD
ATOM     61  C   UNL A   1      41.917  31.284  32.172  1.00  0.00     0.074 A 
ATOM     62  C   UNL A   1      41.664  32.210  31.065  1.00  0.00     0.031 C 
ATOM     63  C   UNL A   1      43.032  30.584  32.530  1.00  0.00     0.034 A 
BRANCH  50  64
ATOM     64  C   UNL A   1      45.206  32.772  28.104  1.00  0.00     0.023 A 
ATOM     65  C   UNL A   1      46.419  33.333  27.669  1.00  0.00     0.012 A 
ATOM     66  C   UNL A   1      44.110  33.664  28.245  1.00  0.00     0.148 A 
ATOM     67  C   UNL A   1      46.544  34.707  27.433  1.00  0.00     0.002 A 
ATOM     68  C   UNL A   1      44.213  35.007  27.925  1.00  0.00     0.091 A 
ATOM     69  F   UNL A   1      42.979  33.278  28.830  1.00  0.00    -0.205 F 
ATOM     70  C   UNL A   1      45.440  35.545  27.550  1.00  0.00     0.022 A 
BRANCH  68  71
ATOM     71  S   UNL A   1      42.788  36.103  28.038  1.00  0.00     0.127 S 
ATOM     72  O   UNL A   1      41.734  35.264  27.478  1.00  0.00    -0.237 OA
ATOM     73  O   UNL A   1      42.706  36.330  29.481  1.00  0.00    -0.237 OA
ATOM     74  O   UNL A   1      43.138  37.291  27.270  1.00  0.00    -0.744 OA
ENDBRANCH  68  71
ENDBRANCH  50  64
BRANCH  51  75
ATOM     75  C   UNL A   1      37.363  30.883  31.056  1.00  0.00     0.023 A 
ATOM     76  C   UNL A   1      36.671  31.277  32.221  1.00  0.00     0.012 A 
ATOM     77  C   UNL A   1      36.812  31.241  29.805  1.00  0.00     0.148 A 
ATOM     78  C   UNL A   1      35.492  32.031  32.143  1.00  0.00     0.002 A 
ATOM     79  C   UNL A   1      35.640  31.991  29.732  1.00  0.00     0.091 A 
ATOM     80  F   UNL A   1      37.488  30.926  28.693  1.00  0.00    -0.205 F 
ATOM     81  C   UNL A   1      34.982  32.398  30.900  1.00  0.00     0.022 A 
BRANCH  79  82
ATOM     82  S   UNL A   1      34.938  32.531  28.167  1.00  0.00     0.127 S 
ATOM     83  O   UNL A   1      36.041  33.303  27.593  1.00  0.00    -0.237 OA
ATOM     84  O   UNL A   1      34.670  31.259  27.500  1.00  0.00    -0.237 OA
ATOM     85  O   UNL A   1      33.764  33.324  28.508  1.00  0.00    -0.744 OA
ENDBRANCH  79  82
ENDBRANCH  51  75
BRANCH  63  86
ATOM     86  C   UNL A   1      42.899  29.546  33.619  1.00  0.00     0.023 A 
ATOM     87  C   UNL A   1      42.350  28.263  33.401  1.00  0.00     0.012 A 
ATOM     88  C   UNL A   1      43.498  29.826  34.856  1.00  0.00     0.148 A 
ATOM     89  C   UNL A   1      42.386  27.291  34.406  1.00  0.00     0.002 A 
ATOM     90  C   UNL A   1      43.573  28.844  35.835  1.00  0.00     0.091 A 
ATOM     91  F   UNL A   1      44.016  31.050  35.043  1.00  0.00    -0.205 F 
ATOM     92  C   UNL A   1      43.011  27.576  35.619  1.00  0.00     0.022 A 
BRANCH  90  93
ATOM     93  S   UNL A   1      44.471  29.119  37.362  1.00  0.00     0.127 S 
ATOM     94  O   UNL A   1      45.816  29.417  36.874  1.00  0.00    -0.237 OA
ATOM     95  O   UNL A   1      43.762  30.262  37.940  1.00  0.00    -0.237 OA
ATOM     96  O   UNL A   1      44.342  27.889  38.133  1.00  0.00    -0.744 OA
ENDBRANCH  90  93
ENDBRANCH  63  86
ENDBRANCH  37  38
ENDBRANCH  30  32
ENDBRANCH  29  30
ENDBRANCH  28  29
ENDBRANCH  27  28
ENDBRANCH   1  27
TORSDOF 21
ENDMDL
MODEL 2
REMARK VINA RESULT:     -11.0      2.980      8.981
REMARK SMILES CCn1cc(C)c(C(=O)OCCOCCOC(=O)c2ccc(-c3c4nc(c(-c5cccc(S(=O)(=O)[O-])c5F)c5ccc([nH]5)c(-c5cccc(S(=O)(=O)[O-])c5F)c5nc(c(-c6cccc(S(=O)(=O)[O-])c6F)c6ccc3[nH]6)C=C5)C=C4)cc2)c1CC(=O)N1CCc2ccccc21
REMARK SMILES IDX 13 1 12 2 11 3 10 4 8 5 9 6 7 7 3 8 4 9 82 10 5 11 6 12 2 13
REMARK SMILES IDX 1 14 83 15 84 16 85 17 86 18 87 19 94 20 88 21 89 22 93 23
REMARK SMILES IDX 90 24 92 25 91 26 14 27 15 28 16 29 17 30 18 31 19 32 20 33
REMARK SMILES IDX 81 34 21 35 80 36 22 37 23 38 24 39 74 40 25 41 79 42 73 43
REMARK SMILES IDX 75 44 26 45 78 46 72 47 71 48 27 50 59 51 39 52 58 53 40 54
REMARK SMILES IDX 43 55 57 56 76 57 41 58 42 59 56 61 77 62 44 63 28 64 29 65
REMARK SMILES IDX 37 66 30 67 32 68 38 69 31 70 33 71 34 72 35 73 36 74 60 75
REMARK SMILES IDX 61 76 69 77 62 78 64 79 70 80 63 81 65 82 66 83 67 84 68 85
REMARK SMILES IDX 45 86 46 87 54 88 47 89 49 90 55 91 48 92 50 93 51 94 52 95
REMARK SMILES IDX 53 96
REMARK H PARENT 75 49 43 60
REMARK Flexibility Score: inf
ROOT
ATOM      1  O   UNL A   1      34.044  30.667  27.238  1.00  0.00    -0.374 OA
ENDROOT
BRANCH   1   2
ATOM      2  C   UNL A   1      33.190  29.531  27.152  1.00  0.00     0.202 C 
BRANCH   2   3
ATOM      3  C   UNL A   1      32.365  29.291  25.880  1.00  0.00     0.261 C 
BRANCH   3   4
ATOM      4  O   UNL A   1      33.123  29.299  24.658  1.00  0.00    -0.460 OA
BRANCH   4   5
ATOM      5  C   UNL A   1      32.607  28.527  23.663  1.00  0.00     0.340 C 
ATOM      6  O   UNL A   1      32.682  28.821  22.474  1.00  0.00    -0.246 OA
BRANCH   5   7
ATOM      7  C   UNL A   1      32.037  27.244  24.094  1.00  0.00     0.084 A 
ATOM      8  N   UNL A   1      31.652  25.337  25.184  1.00  0.00    -0.350 N 
ATOM      9  C   UNL A   1      30.441  25.761  24.702  1.00  0.00     0.090 A 
ATOM     10  C   UNL A   1      32.661  26.105  24.619  1.00  0.00     0.042 A 
ATOM     11  C   UNL A   1      30.634  26.924  23.997  1.00  0.00    -0.019 A 
ATOM     12  C   UNL A   1      29.579  27.669  23.258  1.00  0.00     0.047 C 
BRANCH   8  13
ATOM     13  C   UNL A   1      31.756  24.251  26.152  1.00  0.00     0.118 C 
ATOM     14  C   UNL A   1      30.409  23.732  26.632  1.00  0.00     0.027 C 
ENDBRANCH   8  13
BRANCH  10  15
ATOM     15  C   UNL A   1      34.115  25.703  24.661  1.00  0.00     0.155 C 
BRANCH  15  16
ATOM     16  C   UNL A   1      34.373  24.581  23.656  1.00  0.00     0.232 C 
ATOM     17  O   UNL A   1      34.045  24.723  22.473  1.00  0.00    -0.274 OA
BRANCH  16  18
ATOM     18  N   UNL A   1      35.078  23.484  24.083  1.00  0.00    -0.311 N 
ATOM     19  C   UNL A   1      36.561  23.395  23.960  1.00  0.00     0.130 C 
ATOM     20  C   UNL A   1      34.567  22.194  24.286  1.00  0.00     0.047 A 
ATOM     21  C   UNL A   1      37.127  22.078  24.600  1.00  0.00     0.059 C 
ATOM     22  C   UNL A   1      35.984  21.130  24.618  1.00  0.00    -0.022 A 
ATOM     23  C   UNL A   1      32.921  21.454  24.107  1.00  0.00     0.026 A 
ATOM     24  C   UNL A   1      35.814  19.331  24.778  1.00  0.00     0.006 A 
ATOM     25  C   UNL A   1      32.711  19.652  24.216  1.00  0.00     0.002 A 
ATOM     26  C   UNL A   1      34.141  18.562  24.553  1.00  0.00     0.000 A 
ENDBRANCH  16  18
ENDBRANCH  15  16
ENDBRANCH  10  15
ENDBRANCH   5   7
ENDBRANCH   4   5
ENDBRANCH   3   4
ENDBRANCH   2   3
ENDBRANCH   1   2
BRANCH   1  27
ATOM     27  C   UNL A   1      33.653  31.774  28.040  1.00  0.00     0.202 C 
BRANCH  27  28
ATOM     28  C   UNL A   1      34.329  33.122  27.856  1.00  0.00     0.261 C 
BRANCH  28  29
ATOM     29  O   UNL A   1      35.755  33.009  27.672  1.00  0.00    -0.460 OA
BRANCH  29  30
ATOM     30  C   UNL A   1      36.576  33.177  28.899  1.00  0.00     0.338 C 
ATOM     31  O   UNL A   1      36.632  34.441  28.910  1.00  0.00    -0.246 OA
BRANCH  30  32
ATOM     32  C   UNL A   1      37.480  31.646  30.125  1.00  0.00     0.060 A 
ATOM     33  C   UNL A   1      38.613  31.729  31.072  1.00  0.00     0.016 A 
ATOM     34  C   UNL A   1      37.380  30.197  30.137  1.00  0.00     0.016 A 
ATOM     35  C   UNL A   1      39.805  31.038  30.844  1.00  0.00     0.010 A 
ATOM     36  C   UNL A   1      38.509  29.427  29.825  1.00  0.00     0.010 A 
ATOM     37  C   UNL A   1      39.768  29.984  29.963  1.00  0.00    -0.014 A 
BRANCH  37  38
ATOM     38  C   UNL A   1      40.969  29.184  29.762  1.00  0.00     0.031 A 
ATOM     39  C   UNL A   1      41.435  28.787  31.113  1.00  0.00     0.074 A 
ATOM     40  C   UNL A   1      41.567  28.767  28.625  1.00  0.00     0.049 A 
ATOM     41  N   UNL A   1      42.285  29.450  31.832  1.00  0.00    -0.248 NA
ATOM     42  C   UNL A   1      40.587  27.861  31.882  1.00  0.00     0.031 C 
ATOM     43  C   UNL A   1      41.198  28.894  27.219  1.00  0.00     0.029 A 
ATOM     44  N   UNL A   1      42.678  27.988  28.529  1.00  0.00    -0.354 N 
ATOM     45  C   UNL A   1      42.220  28.825  33.067  1.00  0.00     0.074 A 
ATOM     46  C   UNL A   1      40.932  28.198  33.125  1.00  0.00     0.031 C 
ATOM     47  C   UNL A   1      41.822  27.943  26.483  1.00  0.00     0.029 A 
ATOM     48  C   UNL A   1      42.803  27.297  27.328  1.00  0.00     0.049 A 
ATOM     49  H   UNL A   1      43.342  27.918  29.254  1.00  0.00     0.167 HD
ATOM     50  C   UNL A   1      43.354  28.489  33.734  1.00  0.00     0.034 A 
ATOM     51  C   UNL A   1      43.644  26.266  27.063  1.00  0.00     0.034 A 
ATOM     52  C   UNL A   1      44.491  29.215  33.219  1.00  0.00     0.049 A 
ATOM     53  C   UNL A   1      44.707  26.308  28.094  1.00  0.00     0.074 A 
ATOM     54  C   UNL A   1      44.801  30.551  33.054  1.00  0.00     0.029 A 
ATOM     55  N   UNL A   1      45.319  28.523  32.366  1.00  0.00    -0.354 N 
ATOM     56  N   UNL A   1      45.578  27.277  28.174  1.00  0.00    -0.248 NA
ATOM     57  C   UNL A   1      44.482  25.559  29.319  1.00  0.00     0.031 C 
ATOM     58  C   UNL A   1      45.472  30.624  31.797  1.00  0.00     0.029 A 
ATOM     59  C   UNL A   1      45.606  29.327  31.295  1.00  0.00     0.049 A 
ATOM     60  H   UNL A   1      45.649  27.605  32.502  1.00  0.00     0.167 HD
ATOM     61  C   UNL A   1      45.647  27.561  29.532  1.00  0.00     0.074 A 
ATOM     62  C   UNL A   1      45.022  26.413  30.194  1.00  0.00     0.031 C 
ATOM     63  C   UNL A   1      45.916  28.824  29.974  1.00  0.00     0.034 A 
BRANCH  50  64
ATOM     64  C   UNL A   1      43.502  27.201  34.517  1.00  0.00     0.023 A 
ATOM     65  C   UNL A   1      43.581  27.316  35.916  1.00  0.00     0.012 A 
ATOM     66  C   UNL A   1      43.813  25.929  33.968  1.00  0.00     0.148 A 
ATOM     67  C   UNL A   1      43.990  26.242  36.714  1.00  0.00     0.002 A 
ATOM     68  C   UNL A   1      44.132  24.844  34.767  1.00  0.00     0.091 A 
ATOM     69  F   UNL A   1      43.957  25.763  32.656  1.00  0.00    -0.205 F 
ATOM     70  C   UNL A   1      44.256  25.002  36.144  1.00  0.00     0.022 A 
BRANCH  68  71
ATOM     71  S   UNL A   1      44.447  23.222  34.052  1.00  0.00     0.127 S 
ATOM     72  O   UNL A   1      45.874  23.307  33.762  1.00  0.00    -0.237 OA
ATOM     73  O   UNL A   1      44.085  22.337  35.159  1.00  0.00    -0.237 OA
ATOM     74  O   UNL A   1      43.564  23.117  32.896  1.00  0.00    -0.744 OA
ENDBRANCH  68  71
ENDBRANCH  50  64
BRANCH  51  75
ATOM     75  C   UNL A   1      43.447  25.081  26.192  1.00  0.00     0.023 A 
ATOM     76  C   UNL A   1      44.344  24.826  25.134  1.00  0.00     0.012 A 
ATOM     77  C   UNL A   1      42.566  24.046  26.579  1.00  0.00     0.148 A 
ATOM     78  C   UNL A   1      44.385  23.573  24.506  1.00  0.00     0.002 A 
ATOM     79  C   UNL A   1      42.610  22.803  25.953  1.00  0.00     0.091 A 
ATOM     80  F   UNL A   1      41.751  24.254  27.621  1.00  0.00    -0.205 F 
ATOM     81  C   UNL A   1      43.527  22.558  24.922  1.00  0.00     0.022 A 
BRANCH  79  82
ATOM     82  S   UNL A   1      41.558  21.433  26.455  1.00  0.00     0.127 S 
ATOM     83  O   UNL A   1      41.850  21.339  27.886  1.00  0.00    -0.237 OA
ATOM     84  O   UNL A   1      40.227  21.940  26.134  1.00  0.00    -0.237 OA
ATOM     85  O   UNL A   1      42.001  20.284  25.676  1.00  0.00    -0.744 OA
ENDBRANCH  79  82
ENDBRANCH  51  75
BRANCH  63  86
ATOM     86  C   UNL A   1      46.386  29.843  28.964  1.00  0.00     0.023 A 
ATOM     87  C   UNL A   1      47.724  29.930  28.518  1.00  0.00     0.012 A 
ATOM     88  C   UNL A   1      45.408  30.625  28.330  1.00  0.00     0.148 A 
ATOM     89  C   UNL A   1      48.074  30.792  27.473  1.00  0.00     0.002 A 
ATOM     90  C   UNL A   1      45.751  31.445  27.263  1.00  0.00     0.091 A 
ATOM     91  F   UNL A   1      44.143  30.526  28.767  1.00  0.00    -0.205 F 
ATOM     92  C   UNL A   1      47.084  31.539  26.836  1.00  0.00     0.022 A 
BRANCH  90  93
ATOM     93  S   UNL A   1      44.501  32.331  26.333  1.00  0.00     0.127 S 
ATOM     94  O   UNL A   1      45.277  32.866  25.216  1.00  0.00    -0.237 OA
ATOM     95  O   UNL A   1      43.564  31.265  25.973  1.00  0.00    -0.237 OA
ATOM     96  O   UNL A   1      43.948  33.325  27.246  1.00  0.00    -0.744 OA
ENDBRANCH  90  93
ENDBRANCH  63  86
ENDBRANCH  37  38
ENDBRANCH  30  32
ENDBRANCH  29  30
ENDBRANCH  28  29
ENDBRANCH  27  28
ENDBRANCH   1  27
TORSDOF 21
ENDMDL
MODEL 3
REMARK VINA RESULT:     -10.6      6.536     14.460
REMARK SMILES CCn1cc(C)c(C(=O)OCCOCCOC(=O)c2ccc(-c3c4nc(c(-c5cccc(S(=O)(=O)[O-])c5F)c5ccc([nH]5)c(-c5cccc(S(=O)(=O)[O-])c5F)c5nc(c(-c6cccc(S(=O)(=O)[O-])c6F)c6ccc3[nH]6)C=C5)C=C4)cc2)c1CC(=O)N1CCc2ccccc21
REMARK SMILES IDX 13 1 12 2 11 3 10 4 8 5 9 6 7 7 3 8 4 9 82 10 5 11 6 12 2 13
REMARK SMILES IDX 1 14 83 15 84 16 85 17 86 18 87 19 94 20 88 21 89 22 93 23
REMARK SMILES IDX 90 24 92 25 91 26 14 27 15 28 16 29 17 30 18 31 19 32 20 33
REMARK SMILES IDX 81 34 21 35 80 36 22 37 23 38 24 39 74 40 25 41 79 42 73 43
REMARK SMILES IDX 75 44 26 45 78 46 72 47 71 48 27 50 59 51 39 52 58 53 40 54
REMARK SMILES IDX 43 55 57 56 76 57 41 58 42 59 56 61 77 62 44 63 28 64 29 65
REMARK SMILES IDX 37 66 30 67 32 68 38 69 31 70 33 71 34 72 35 73 36 74 60 75
REMARK SMILES IDX 61 76 69 77 62 78 64 79 70 80 63 81 65 82 66 83 67 84 68 85
REMARK SMILES IDX 45 86 46 87 54 88 47 89 49 90 55 91 48 92 50 93 51 94 52 95
REMARK SMILES IDX 53 96
REMARK H PARENT 75 49 43 60
REMARK Flexibility Score: inf
ROOT
ATOM      1  O   UNL A   1      41.260  40.006  25.583  1.00  0.00    -0.374 OA
ENDROOT
BRANCH   1   2
ATOM      2  C   UNL A   1      41.599  41.296  25.087  1.00  0.00     0.202 C 
BRANCH   2   3
ATOM      3  C   UNL A   1      43.046  41.799  25.191  1.00  0.00     0.261 C 
BRANCH   3   4
ATOM      4  O   UNL A   1      43.666  42.120  23.933  1.00  0.00    -0.460 OA
BRANCH   4   5
ATOM      5  C   UNL A   1      43.880  43.448  23.728  1.00  0.00     0.340 C 
ATOM      6  O   UNL A   1      42.972  44.261  23.576  1.00  0.00    -0.246 OA
BRANCH   5   7
ATOM      7  C   UNL A   1      45.281  43.880  23.807  1.00  0.00     0.084 A 
ATOM      8  N   UNL A   1      47.297  44.689  23.304  1.00  0.00    -0.350 N 
ATOM      9  C   UNL A   1      47.105  44.925  24.641  1.00  0.00     0.090 A 
ATOM     10  C   UNL A   1      46.297  43.845  22.844  1.00  0.00     0.042 A 
ATOM     11  C   UNL A   1      45.882  44.418  25.003  1.00  0.00    -0.019 A 
ATOM     12  C   UNL A   1      45.326  44.410  26.383  1.00  0.00     0.047 C 
BRANCH   8  13
ATOM     13  C   UNL A   1      48.402  45.293  22.568  1.00  0.00     0.118 C 
ATOM     14  C   UNL A   1      49.621  44.391  22.450  1.00  0.00     0.027 C 
ENDBRANCH   8  13
BRANCH  10  15
ATOM     15  C   UNL A   1      46.385  43.116  21.524  1.00  0.00     0.155 C 
BRANCH  15  16
ATOM     16  C   UNL A   1      45.951  44.044  20.390  1.00  0.00     0.232 C 
ATOM     17  O   UNL A   1      46.799  44.655  19.731  1.00  0.00    -0.274 OA
BRANCH  16  18
ATOM     18  N   UNL A   1      44.619  44.076  20.059  1.00  0.00    -0.311 N 
ATOM     19  C   UNL A   1      43.714  42.915  20.291  1.00  0.00     0.130 C 
ATOM     20  C   UNL A   1      44.012  44.939  19.136  1.00  0.00     0.047 A 
ATOM     21  C   UNL A   1      42.228  43.240  19.905  1.00  0.00     0.059 C 
ATOM     22  C   UNL A   1      42.312  44.372  18.947  1.00  0.00    -0.022 A 
ATOM     23  C   UNL A   1      44.628  46.273  18.071  1.00  0.00     0.026 A 
ATOM     24  C   UNL A   1      41.190  45.095  17.718  1.00  0.00     0.006 A 
ATOM     25  C   UNL A   1      43.553  46.997  16.797  1.00  0.00     0.002 A 
ATOM     26  C   UNL A   1      41.826  46.429  16.597  1.00  0.00     0.000 A 
ENDBRANCH  16  18
ENDBRANCH  15  16
ENDBRANCH  10  15
ENDBRANCH   5   7
ENDBRANCH   4   5
ENDBRANCH   3   4
ENDBRANCH   2   3
ENDBRANCH   1   2
BRANCH   1  27
ATOM     27  C   UNL A   1      41.673  39.633  26.892  1.00  0.00     0.202 C 
BRANCH  27  28
ATOM     28  C   UNL A   1      41.415  40.564  28.064  1.00  0.00     0.261 C 
BRANCH  28  29
ATOM     29  O   UNL A   1      41.699  39.948  29.337  1.00  0.00    -0.460 OA
BRANCH  29  30
ATOM     30  C   UNL A   1      43.113  39.548  29.554  1.00  0.00     0.338 C 
ATOM     31  O   UNL A   1      43.633  40.701  29.552  1.00  0.00    -0.246 OA
BRANCH  30  32
ATOM     32  C   UNL A   1      43.937  37.554  29.666  1.00  0.00     0.060 A 
ATOM     33  C   UNL A   1      44.091  36.527  28.613  1.00  0.00     0.016 A 
ATOM     34  C   UNL A   1      44.288  36.686  30.776  1.00  0.00     0.016 A 
ATOM     35  C   UNL A   1      43.402  35.314  28.674  1.00  0.00     0.010 A 
ATOM     36  C   UNL A   1      43.580  35.492  30.965  1.00  0.00     0.010 A 
ATOM     37  C   UNL A   1      42.908  34.926  29.897  1.00  0.00    -0.014 A 
BRANCH  37  38
ATOM     38  C   UNL A   1      42.258  33.628  30.021  1.00  0.00     0.031 A 
ATOM     39  C   UNL A   1      40.852  33.902  30.407  1.00  0.00     0.074 A 
ATOM     40  C   UNL A   1      42.726  32.384  29.781  1.00  0.00     0.049 A 
ATOM     41  N   UNL A   1      40.414  33.971  31.625  1.00  0.00    -0.248 NA
ATOM     42  C   UNL A   1      39.992  34.570  29.417  1.00  0.00     0.031 C 
ATOM     43  C   UNL A   1      43.994  31.900  29.246  1.00  0.00     0.029 A 
ATOM     44  N   UNL A   1      42.034  31.219  29.893  1.00  0.00    -0.354 N 
ATOM     45  C   UNL A   1      39.128  34.466  31.477  1.00  0.00     0.074 A 
ATOM     46  C   UNL A   1      39.116  35.167  30.227  1.00  0.00     0.031 C 
ATOM     47  C   UNL A   1      43.846  30.649  28.747  1.00  0.00     0.029 A 
ATOM     48  C   UNL A   1      42.539  30.166  29.137  1.00  0.00     0.049 A 
ATOM     49  H   UNL A   1      41.237  31.127  30.464  1.00  0.00     0.167 HD
ATOM     50  C   UNL A   1      38.086  33.898  32.137  1.00  0.00     0.034 A 
ATOM     51  C   UNL A   1      41.917  28.995  28.849  1.00  0.00     0.034 A 
ATOM     52  C   UNL A   1      38.553  33.086  33.236  1.00  0.00     0.049 A 
ATOM     53  C   UNL A   1      40.827  28.838  29.839  1.00  0.00     0.074 A 
ATOM     54  C   UNL A   1      39.336  33.312  34.352  1.00  0.00     0.029 A 
ATOM     55  N   UNL A   1      38.579  31.728  33.021  1.00  0.00    -0.354 N 
ATOM     56  N   UNL A   1      41.048  28.653  31.111  1.00  0.00    -0.248 NA
ATOM     57  C   UNL A   1      39.527  29.391  29.498  1.00  0.00     0.031 C 
ATOM     58  C   UNL A   1      40.150  32.147  34.477  1.00  0.00     0.029 A 
ATOM     59  C   UNL A   1      39.772  31.240  33.485  1.00  0.00     0.049 A 
ATOM     60  H   UNL A   1      37.863  31.197  32.604  1.00  0.00     0.167 HD
ATOM     61  C   UNL A   1      40.135  29.492  31.741  1.00  0.00     0.074 A 
ATOM     62  C   UNL A   1      39.167  29.849  30.701  1.00  0.00     0.031 C 
ATOM     63  C   UNL A   1      40.421  30.063  32.947  1.00  0.00     0.034 A 
BRANCH  50  64
ATOM     64  C   UNL A   1      36.716  33.715  31.518  1.00  0.00     0.023 A 
ATOM     65  C   UNL A   1      36.615  32.786  30.468  1.00  0.00     0.012 A 
ATOM     66  C   UNL A   1      35.594  34.559  31.728  1.00  0.00     0.148 A 
ATOM     67  C   UNL A   1      35.483  32.735  29.647  1.00  0.00     0.002 A 
ATOM     68  C   UNL A   1      34.440  34.446  30.971  1.00  0.00     0.091 A 
ATOM     69  F   UNL A   1      35.658  35.594  32.562  1.00  0.00    -0.205 F 
ATOM     70  C   UNL A   1      34.390  33.556  29.903  1.00  0.00     0.022 A 
BRANCH  68  71
ATOM     71  S   UNL A   1      33.002  35.475  31.307  1.00  0.00     0.127 S 
ATOM     72  O   UNL A   1      32.263  35.356  30.055  1.00  0.00    -0.237 OA
ATOM     73  O   UNL A   1      32.407  34.786  32.452  1.00  0.00    -0.237 OA
ATOM     74  O   UNL A   1      33.524  36.800  31.619  1.00  0.00    -0.744 OA
ENDBRANCH  68  71
ENDBRANCH  50  64
BRANCH  51  75
ATOM     75  C   UNL A   1      41.986  28.160  27.624  1.00  0.00     0.023 A 
ATOM     76  C   UNL A   1      41.777  28.746  26.358  1.00  0.00     0.012 A 
ATOM     77  C   UNL A   1      42.547  26.864  27.671  1.00  0.00     0.148 A 
ATOM     78  C   UNL A   1      42.147  28.079  25.182  1.00  0.00     0.002 A 
ATOM     79  C   UNL A   1      42.913  26.205  26.499  1.00  0.00     0.091 A 
ATOM     80  F   UNL A   1      42.806  26.321  28.866  1.00  0.00    -0.205 F 
ATOM     81  C   UNL A   1      42.724  26.814  25.252  1.00  0.00     0.022 A 
BRANCH  79  82
ATOM     82  S   UNL A   1      43.695  24.585  26.509  1.00  0.00     0.127 S 
ATOM     83  O   UNL A   1      43.788  24.287  25.080  1.00  0.00    -0.237 OA
ATOM     84  O   UNL A   1      44.972  24.869  27.159  1.00  0.00    -0.237 OA
ATOM     85  O   UNL A   1      42.792  23.712  27.247  1.00  0.00    -0.744 OA
ENDBRANCH  79  82
ENDBRANCH  51  75
BRANCH  63  86
ATOM     86  C   UNL A   1      41.632  29.565  33.699  1.00  0.00     0.023 A 
ATOM     87  C   UNL A   1      42.832  30.301  33.806  1.00  0.00     0.012 A 
ATOM     88  C   UNL A   1      41.487  28.390  34.453  1.00  0.00     0.148 A 
ATOM     89  C   UNL A   1      43.869  29.860  34.637  1.00  0.00     0.002 A 
ATOM     90  C   UNL A   1      42.499  27.981  35.310  1.00  0.00     0.091 A 
ATOM     91  F   UNL A   1      40.339  27.706  34.338  1.00  0.00    -0.205 F 
ATOM     92  C   UNL A   1      43.696  28.707  35.400  1.00  0.00     0.022 A 
BRANCH  90  93
ATOM     93  S   UNL A   1      42.281  26.576  36.403  1.00  0.00     0.127 S 
ATOM     94  O   UNL A   1      41.193  27.030  37.267  1.00  0.00    -0.237 OA
ATOM     95  O   UNL A   1      41.917  25.508  35.470  1.00  0.00    -0.237 OA
ATOM     96  O   UNL A   1      43.565  26.376  37.064  1.00  0.00    -0.744 OA
ENDBRANCH  90  93
ENDBRANCH  63  86
ENDBRANCH  37  38
ENDBRANCH  30  32
ENDBRANCH  29  30
ENDBRANCH  28  29
ENDBRANCH  27  28
ENDBRANCH   1  27
TORSDOF 21
ENDMDL
