MODEL 1
REMARK VINA RESULT:     -10.8      0.000      0.000
REMARK SMILES CC(C)c1ccc(O[C@H](C)C(=O)Nc2cccc(C(=O)OCCOCCOC(=O)c3ccc(-c4c5nc(c(-c6cccc(S(=O)(=O)[O-])c6F)c6ccc([nH]6)c(-c6cccc(S(=O)(=O)[O-])c6F)c6nc(c(-c7cccc(S(=O)(=O)[O-])c7F)c7ccc4[nH]7)C=C6)C=C5)cc3)c2)cc1
REMARK SMILES IDX 23 1 22 2 21 3 19 4 20 5 18 6 14 7 15 8 93 9 16 10 17 11
REMARK SMILES IDX 13 12 11 13 12 14 9 16 10 17 8 18 7 19 4 20 5 21 95 22 6 23
REMARK SMILES IDX 94 24 2 25 1 26 3 27 24 28 25 29 26 30 27 31 28 32 29 33
REMARK SMILES IDX 30 34 31 35 92 36 32 37 91 38 33 39 34 40 35 41 85 42 36 43
REMARK SMILES IDX 90 44 84 45 86 46 37 47 89 48 83 49 82 50 38 52 70 53 50 54
REMARK SMILES IDX 69 55 51 56 54 57 68 58 87 59 52 60 53 61 67 63 88 64 55 65
REMARK SMILES IDX 39 66 40 67 48 68 41 69 43 70 49 71 42 72 44 73 45 74 46 75
REMARK SMILES IDX 47 76 71 77 72 78 80 79 73 80 75 81 81 82 74 83 76 84 77 85
REMARK SMILES IDX 78 86 79 87 56 88 57 89 65 90 58 91 60 92 66 93 59 94 61 95
REMARK SMILES IDX 62 96 63 97 64 98
REMARK H PARENT 13 15 86 51 54 62
REMARK Flexibility Score: inf
ROOT
ATOM      1  C   UNL A   1      31.008  29.483  24.299  1.00  0.00     0.202 C 
ENDROOT
BRANCH   1   2
ATOM      2  C   UNL A   1      29.801  29.093  23.438  1.00  0.00     0.261 C 
BRANCH   2   3
ATOM      3  O   UNL A   1      30.069  27.921  22.653  1.00  0.00    -0.460 OA
BRANCH   3   4
ATOM      4  C   UNL A   1      29.898  26.731  23.280  1.00  0.00     0.338 C 
ATOM      5  O   UNL A   1      28.915  26.379  23.920  1.00  0.00    -0.246 OA
BRANCH   4   6
ATOM      6  C   UNL A   1      31.033  25.818  22.977  1.00  0.00     0.062 A 
ATOM      7  C   UNL A   1      31.949  23.585  22.718  1.00  0.00     0.042 A 
ATOM      8  C   UNL A   1      33.165  24.146  22.318  1.00  0.00     0.026 A 
ATOM      9  C   UNL A   1      30.929  24.432  23.134  1.00  0.00     0.041 A 
ATOM     10  C   UNL A   1      33.303  25.532  22.207  1.00  0.00     0.003 A 
ATOM     11  C   UNL A   1      32.227  26.366  22.506  1.00  0.00     0.016 A 
BRANCH   7  12
ATOM     12  N   UNL A   1      31.824  22.190  22.673  1.00  0.00    -0.323 N 
ATOM     13  C   UNL A   1      32.439  21.184  23.378  1.00  0.00     0.265 C 
ATOM     14  O   UNL A   1      32.145  20.029  23.038  1.00  0.00    -0.270 OA
ATOM     15  H   UNL A   1      31.170  21.869  22.011  1.00  0.00     0.170 HD
BRANCH  13  16
ATOM     16  C   UNL A   1      33.400  21.421  24.572  1.00  0.00     0.259 C 
ATOM     17  C   UNL A   1      33.135  20.385  25.660  1.00  0.00     0.064 C 
BRANCH  16  18
ATOM     18  O   UNL A   1      34.699  21.710  24.062  1.00  0.00    -0.481 OA
BRANCH  18  19
ATOM     19  C   UNL A   1      35.739  22.347  24.647  1.00  0.00     0.120 A 
ATOM     20  C   UNL A   1      38.066  23.217  26.051  1.00  0.00    -0.045 A 
ATOM     21  C   UNL A   1      36.911  24.010  25.964  1.00  0.00     0.008 A 
ATOM     22  C   UNL A   1      38.046  21.995  25.368  1.00  0.00     0.008 A 
ATOM     23  C   UNL A   1      35.768  23.589  25.258  1.00  0.00     0.047 A 
ATOM     24  C   UNL A   1      36.906  21.576  24.674  1.00  0.00     0.047 A 
BRANCH  20  25
ATOM     25  C   UNL A   1      39.268  23.587  26.918  1.00  0.00     0.013 C 
ATOM     26  C   UNL A   1      40.262  22.428  27.090  1.00  0.00     0.012 C 
ATOM     27  C   UNL A   1      40.046  24.827  26.453  1.00  0.00     0.012 C 
ENDBRANCH  20  25
ENDBRANCH  18  19
ENDBRANCH  16  18
ENDBRANCH  13  16
ENDBRANCH   7  12
ENDBRANCH   4   6
ENDBRANCH   3   4
ENDBRANCH   2   3
ENDBRANCH   1   2
BRANCH   1  28
ATOM     28  O   UNL A   1      31.381  28.562  25.326  1.00  0.00    -0.374 OA
BRANCH  28  29
ATOM     29  C   UNL A   1      32.707  28.668  25.844  1.00  0.00     0.202 C 
BRANCH  29  30
ATOM     30  C   UNL A   1      33.271  30.080  26.036  1.00  0.00     0.261 C 
BRANCH  30  31
ATOM     31  O   UNL A   1      33.196  30.531  27.396  1.00  0.00    -0.460 OA
BRANCH  31  32
ATOM     32  C   UNL A   1      33.967  31.610  27.668  1.00  0.00     0.338 C 
ATOM     33  O   UNL A   1      33.628  32.787  27.629  1.00  0.00    -0.246 OA
BRANCH  32  34
ATOM     34  C   UNL A   1      35.282  31.190  28.181  1.00  0.00     0.060 A 
ATOM     35  C   UNL A   1      35.391  29.883  28.674  1.00  0.00     0.016 A 
ATOM     36  C   UNL A   1      36.362  32.072  28.262  1.00  0.00     0.016 A 
ATOM     37  C   UNL A   1      36.560  29.473  29.308  1.00  0.00     0.010 A 
ATOM     38  C   UNL A   1      37.536  31.658  28.901  1.00  0.00     0.010 A 
ATOM     39  C   UNL A   1      37.624  30.371  29.464  1.00  0.00    -0.014 A 
BRANCH  39  40
ATOM     40  C   UNL A   1      38.774  29.993  30.320  1.00  0.00     0.031 A 
ATOM     41  C   UNL A   1      38.908  30.603  31.688  1.00  0.00     0.074 A 
ATOM     42  C   UNL A   1      39.682  29.103  29.886  1.00  0.00     0.049 A 
ATOM     43  N   UNL A   1      39.818  30.389  32.602  1.00  0.00    -0.248 NA
ATOM     44  C   UNL A   1      37.884  31.587  32.076  1.00  0.00     0.031 C 
ATOM     45  C   UNL A   1      39.668  28.455  28.576  1.00  0.00     0.029 A 
ATOM     46  N   UNL A   1      40.807  28.608  30.497  1.00  0.00    -0.354 N 
ATOM     47  C   UNL A   1      39.495  31.228  33.662  1.00  0.00     0.074 A 
ATOM     48  C   UNL A   1      38.312  31.966  33.271  1.00  0.00     0.031 C 
ATOM     49  C   UNL A   1      40.750  27.667  28.470  1.00  0.00     0.029 A 
ATOM     50  C   UNL A   1      41.541  27.767  29.697  1.00  0.00     0.049 A 
ATOM     51  H   UNL A   1      41.063  28.834  31.421  1.00  0.00     0.167 HD
ATOM     52  C   UNL A   1      40.115  31.361  34.859  1.00  0.00     0.034 A 
ATOM     53  C   UNL A   1      42.722  27.159  29.920  1.00  0.00     0.034 A 
ATOM     54  C   UNL A   1      41.277  30.611  35.254  1.00  0.00     0.049 A 
ATOM     55  C   UNL A   1      43.395  27.324  31.257  1.00  0.00     0.074 A 
ATOM     56  C   UNL A   1      41.933  30.620  36.473  1.00  0.00     0.029 A 
ATOM     57  N   UNL A   1      41.968  29.732  34.435  1.00  0.00    -0.354 N 
ATOM     58  N   UNL A   1      42.995  28.003  32.304  1.00  0.00    -0.248 NA
ATOM     59  C   UNL A   1      44.663  26.607  31.456  1.00  0.00     0.031 C 
ATOM     60  C   UNL A   1      43.040  29.768  36.379  1.00  0.00     0.029 A 
ATOM     61  C   UNL A   1      43.057  29.208  35.111  1.00  0.00     0.049 A 
ATOM     62  H   UNL A   1      41.722  29.514  33.507  1.00  0.00     0.167 HD
ATOM     63  C   UNL A   1      43.946  27.776  33.294  1.00  0.00     0.074 A 
ATOM     64  C   UNL A   1      44.929  26.875  32.728  1.00  0.00     0.031 C 
ATOM     65  C   UNL A   1      44.007  28.280  34.553  1.00  0.00     0.034 A 
BRANCH  52  66
ATOM     66  C   UNL A   1      39.528  32.341  35.841  1.00  0.00     0.023 A 
ATOM     67  C   UNL A   1      38.504  31.925  36.715  1.00  0.00     0.012 A 
ATOM     68  C   UNL A   1      40.019  33.658  35.928  1.00  0.00     0.148 A 
ATOM     69  C   UNL A   1      37.951  32.814  37.636  1.00  0.00     0.002 A 
ATOM     70  C   UNL A   1      39.491  34.528  36.878  1.00  0.00     0.091 A 
ATOM     71  F   UNL A   1      40.975  34.045  35.072  1.00  0.00    -0.205 F 
ATOM     72  C   UNL A   1      38.451  34.111  37.724  1.00  0.00     0.022 A 
BRANCH  70  73
ATOM     73  S   UNL A   1      40.122  36.192  37.114  1.00  0.00     0.127 S 
ATOM     74  O   UNL A   1      39.822  36.808  35.823  1.00  0.00    -0.237 OA
ATOM     75  O   UNL A   1      39.305  36.679  38.226  1.00  0.00    -0.237 OA
ATOM     76  O   UNL A   1      41.536  36.042  37.427  1.00  0.00    -0.744 OA
ENDBRANCH  70  73
ENDBRANCH  52  66
BRANCH  53  77
ATOM     77  C   UNL A   1      43.320  26.305  28.856  1.00  0.00     0.023 A 
ATOM     78  C   UNL A   1      42.978  24.941  28.783  1.00  0.00     0.012 A 
ATOM     79  C   UNL A   1      44.187  26.851  27.891  1.00  0.00     0.148 A 
ATOM     80  C   UNL A   1      43.505  24.132  27.776  1.00  0.00     0.002 A 
ATOM     81  C   UNL A   1      44.662  26.053  26.858  1.00  0.00     0.091 A 
ATOM     82  F   UNL A   1      44.511  28.148  27.990  1.00  0.00    -0.205 F 
ATOM     83  C   UNL A   1      44.336  24.689  26.808  1.00  0.00     0.022 A 
BRANCH  81  84
ATOM     84  S   UNL A   1      45.620  26.718  25.491  1.00  0.00     0.127 S 
ATOM     85  O   UNL A   1      46.857  27.114  26.157  1.00  0.00    -0.237 OA
ATOM     86  O   UNL A   1      45.736  25.552  24.613  1.00  0.00    -0.237 OA
ATOM     87  O   UNL A   1      44.819  27.803  24.942  1.00  0.00    -0.744 OA
ENDBRANCH  81  84
ENDBRANCH  53  77
BRANCH  65  88
ATOM     88  C   UNL A   1      45.167  27.858  35.418  1.00  0.00     0.023 A 
ATOM     89  C   UNL A   1      46.311  28.677  35.501  1.00  0.00     0.012 A 
ATOM     90  C   UNL A   1      45.098  26.689  36.202  1.00  0.00     0.148 A 
ATOM     91  C   UNL A   1      47.379  28.323  36.324  1.00  0.00     0.002 A 
ATOM     92  C   UNL A   1      46.147  26.366  37.055  1.00  0.00     0.091 A 
ATOM     93  F   UNL A   1      44.011  25.910  36.096  1.00  0.00    -0.205 F 
ATOM     94  C   UNL A   1      47.293  27.175  37.108  1.00  0.00     0.022 A 
BRANCH  92  95
ATOM     95  S   UNL A   1      46.081  24.958  38.170  1.00  0.00     0.127 S 
ATOM     96  O   UNL A   1      44.694  25.007  38.631  1.00  0.00    -0.237 OA
ATOM     97  O   UNL A   1      46.389  23.839  37.278  1.00  0.00    -0.237 OA
ATOM     98  O   UNL A   1      47.090  25.209  39.190  1.00  0.00    -0.744 OA
ENDBRANCH  92  95
ENDBRANCH  65  88
ENDBRANCH  39  40
ENDBRANCH  32  34
ENDBRANCH  31  32
ENDBRANCH  30  31
ENDBRANCH  29  30
ENDBRANCH  28  29
ENDBRANCH   1  28
TORSDOF 22
ENDMDL
MODEL 2
REMARK VINA RESULT:      -9.5      1.937      2.353
REMARK SMILES CC(C)c1ccc(O[C@H](C)C(=O)Nc2cccc(C(=O)OCCOCCOC(=O)c3ccc(-c4c5nc(c(-c6cccc(S(=O)(=O)[O-])c6F)c6ccc([nH]6)c(-c6cccc(S(=O)(=O)[O-])c6F)c6nc(c(-c7cccc(S(=O)(=O)[O-])c7F)c7ccc4[nH]7)C=C6)C=C5)cc3)c2)cc1
REMARK SMILES IDX 23 1 22 2 21 3 19 4 20 5 18 6 14 7 15 8 93 9 16 10 17 11
REMARK SMILES IDX 13 12 11 13 12 14 9 16 10 17 8 18 7 19 4 20 5 21 95 22 6 23
REMARK SMILES IDX 94 24 2 25 1 26 3 27 24 28 25 29 26 30 27 31 28 32 29 33
REMARK SMILES IDX 30 34 31 35 92 36 32 37 91 38 33 39 34 40 35 41 85 42 36 43
REMARK SMILES IDX 90 44 84 45 86 46 37 47 89 48 83 49 82 50 38 52 70 53 50 54
REMARK SMILES IDX 69 55 51 56 54 57 68 58 87 59 52 60 53 61 67 63 88 64 55 65
REMARK SMILES IDX 39 66 40 67 48 68 41 69 43 70 49 71 42 72 44 73 45 74 46 75
REMARK SMILES IDX 47 76 71 77 72 78 80 79 73 80 75 81 81 82 74 83 76 84 77 85
REMARK SMILES IDX 78 86 79 87 56 88 57 89 65 90 58 91 60 92 66 93 59 94 61 95
REMARK SMILES IDX 62 96 63 97 64 98
REMARK H PARENT 13 15 86 51 54 62
REMARK Flexibility Score: inf
ROOT
ATOM      1  C   UNL A   1      30.253  31.950  24.598  1.00  0.00     0.202 C 
ENDROOT
BRANCH   1   2
ATOM      2  C   UNL A   1      29.263  30.996  23.920  1.00  0.00     0.261 C 
BRANCH   2   3
ATOM      3  O   UNL A   1      29.943  29.954  23.203  1.00  0.00    -0.460 OA
BRANCH   3   4
ATOM      4  C   UNL A   1      29.350  28.736  23.215  1.00  0.00     0.338 C 
ATOM      5  O   UNL A   1      28.204  28.480  22.866  1.00  0.00    -0.246 OA
BRANCH   4   6
ATOM      6  C   UNL A   1      30.332  27.685  23.590  1.00  0.00     0.062 A 
ATOM      7  C   UNL A   1      31.860  25.895  22.990  1.00  0.00     0.042 A 
ATOM      8  C   UNL A   1      32.233  25.783  24.333  1.00  0.00     0.026 A 
ATOM      9  C   UNL A   1      30.843  26.781  22.652  1.00  0.00     0.041 A 
ATOM     10  C   UNL A   1      31.692  26.643  25.293  1.00  0.00     0.003 A 
ATOM     11  C   UNL A   1      30.766  27.614  24.916  1.00  0.00     0.016 A 
BRANCH   7  12
ATOM     12  N   UNL A   1      32.539  25.106  22.052  1.00  0.00    -0.323 N 
ATOM     13  C   UNL A   1      33.047  23.832  22.113  1.00  0.00     0.265 C 
ATOM     14  O   UNL A   1      33.663  23.448  21.109  1.00  0.00    -0.270 OA
ATOM     15  H   UNL A   1      32.678  25.549  21.184  1.00  0.00     0.170 HD
BRANCH  13  16
ATOM     16  C   UNL A   1      32.838  22.868  23.311  1.00  0.00     0.259 C 
ATOM     17  C   UNL A   1      31.556  22.065  23.108  1.00  0.00     0.064 C 
BRANCH  16  18
ATOM     18  O   UNL A   1      34.091  22.277  23.645  1.00  0.00    -0.481 OA
BRANCH  18  19
ATOM     19  C   UNL A   1      35.122  22.778  24.361  1.00  0.00     0.120 A 
ATOM     20  C   UNL A   1      37.502  23.358  25.825  1.00  0.00    -0.045 A 
ATOM     21  C   UNL A   1      36.267  23.939  26.154  1.00  0.00     0.008 A 
ATOM     22  C   UNL A   1      37.527  22.519  24.704  1.00  0.00     0.008 A 
ATOM     23  C   UNL A   1      35.095  23.666  25.423  1.00  0.00     0.047 A 
ATOM     24  C   UNL A   1      36.359  22.243  23.985  1.00  0.00     0.047 A 
BRANCH  20  25
ATOM     25  C   UNL A   1      38.759  23.530  26.676  1.00  0.00     0.013 C 
ATOM     26  C   UNL A   1      39.767  22.385  26.496  1.00  0.00     0.012 C 
ATOM     27  C   UNL A   1      39.498  24.862  26.481  1.00  0.00     0.012 C 
ENDBRANCH  20  25
ENDBRANCH  18  19
ENDBRANCH  16  18
ENDBRANCH  13  16
ENDBRANCH   7  12
ENDBRANCH   4   6
ENDBRANCH   3   4
ENDBRANCH   2   3
ENDBRANCH   1   2
BRANCH   1  28
ATOM     28  O   UNL A   1      30.662  31.607  25.923  1.00  0.00    -0.374 OA
BRANCH  28  29
ATOM     29  C   UNL A   1      31.640  30.576  26.055  1.00  0.00     0.202 C 
BRANCH  29  30
ATOM     30  C   UNL A   1      32.618  30.687  27.230  1.00  0.00     0.261 C 
BRANCH  30  31
ATOM     31  O   UNL A   1      33.851  31.330  26.872  1.00  0.00    -0.460 OA
BRANCH  31  32
ATOM     32  C   UNL A   1      34.359  32.133  27.835  1.00  0.00     0.338 C 
ATOM     33  O   UNL A   1      33.806  33.090  28.364  1.00  0.00    -0.246 OA
BRANCH  32  34
ATOM     34  C   UNL A   1      35.657  31.619  28.305  1.00  0.00     0.060 A 
ATOM     35  C   UNL A   1      35.721  30.266  28.658  1.00  0.00     0.016 A 
ATOM     36  C   UNL A   1      36.763  32.453  28.482  1.00  0.00     0.016 A 
ATOM     37  C   UNL A   1      36.872  29.754  29.249  1.00  0.00     0.010 A 
ATOM     38  C   UNL A   1      37.920  31.937  29.078  1.00  0.00     0.010 A 
ATOM     39  C   UNL A   1      37.963  30.596  29.502  1.00  0.00    -0.014 A 
BRANCH  39  40
ATOM     40  C   UNL A   1      39.095  30.094  30.318  1.00  0.00     0.031 A 
ATOM     41  C   UNL A   1      39.300  30.632  31.707  1.00  0.00     0.074 A 
ATOM     42  C   UNL A   1      39.923  29.155  29.828  1.00  0.00     0.049 A 
ATOM     43  N   UNL A   1      40.207  30.309  32.592  1.00  0.00    -0.248 NA
ATOM     44  C   UNL A   1      38.364  31.675  32.157  1.00  0.00     0.031 C 
ATOM     45  C   UNL A   1      39.836  28.568  28.493  1.00  0.00     0.029 A 
ATOM     46  N   UNL A   1      41.017  28.549  30.394  1.00  0.00    -0.354 N 
ATOM     47  C   UNL A   1      39.969  31.124  33.693  1.00  0.00     0.074 A 
ATOM     48  C   UNL A   1      38.841  31.967  33.358  1.00  0.00     0.031 C 
ATOM     49  C   UNL A   1      40.850  27.704  28.331  1.00  0.00     0.029 A 
ATOM     50  C   UNL A   1      41.668  27.689  29.544  1.00  0.00     0.049 A 
ATOM     51  H   UNL A   1      41.305  28.715  31.321  1.00  0.00     0.167 HD
ATOM     52  C   UNL A   1      40.619  31.157  34.880  1.00  0.00     0.034 A 
ATOM     53  C   UNL A   1      42.802  26.982  29.717  1.00  0.00     0.034 A 
ATOM     54  C   UNL A   1      41.726  30.302  35.219  1.00  0.00     0.049 A 
ATOM     55  C   UNL A   1      43.509  27.037  31.045  1.00  0.00     0.074 A 
ATOM     56  C   UNL A   1      42.402  30.208  36.424  1.00  0.00     0.029 A 
ATOM     57  N   UNL A   1      42.332  29.409  34.350  1.00  0.00    -0.354 N 
ATOM     58  N   UNL A   1      43.183  27.699  32.128  1.00  0.00    -0.248 NA
ATOM     59  C   UNL A   1      44.721  26.216  31.188  1.00  0.00     0.031 C 
ATOM     60  C   UNL A   1      43.437  29.278  36.272  1.00  0.00     0.029 A 
ATOM     61  C   UNL A   1      43.388  28.774  34.981  1.00  0.00     0.049 A 
ATOM     62  H   UNL A   1      42.053  29.251  33.419  1.00  0.00     0.167 HD
ATOM     63  C   UNL A   1      44.130  27.357  33.088  1.00  0.00     0.074 A 
ATOM     64  C   UNL A   1      45.029  26.408  32.463  1.00  0.00     0.031 C 
ATOM     65  C   UNL A   1      44.252  27.799  34.365  1.00  0.00     0.034 A 
BRANCH  52  66
ATOM     66  C   UNL A   1      40.128  32.135  35.915  1.00  0.00     0.023 A 
ATOM     67  C   UNL A   1      40.768  33.383  36.056  1.00  0.00     0.012 A 
ATOM     68  C   UNL A   1      39.010  31.838  36.717  1.00  0.00     0.148 A 
ATOM     69  C   UNL A   1      40.327  34.305  37.005  1.00  0.00     0.002 A 
ATOM     70  C   UNL A   1      38.548  32.779  37.632  1.00  0.00     0.091 A 
ATOM     71  F   UNL A   1      38.429  30.636  36.588  1.00  0.00    -0.205 F 
ATOM     72  C   UNL A   1      39.211  34.008  37.784  1.00  0.00     0.022 A 
BRANCH  70  73
ATOM     73  S   UNL A   1      37.077  32.514  38.626  1.00  0.00     0.127 S 
ATOM     74  O   UNL A   1      36.040  33.107  37.784  1.00  0.00    -0.237 OA
ATOM     75  O   UNL A   1      37.025  31.054  38.720  1.00  0.00    -0.237 OA
ATOM     76  O   UNL A   1      37.324  33.189  39.892  1.00  0.00    -0.744 OA
ENDBRANCH  70  73
ENDBRANCH  52  66
BRANCH  53  77
ATOM     77  C   UNL A   1      43.312  26.131  28.606  1.00  0.00     0.023 A 
ATOM     78  C   UNL A   1      42.741  24.865  28.379  1.00  0.00     0.012 A 
ATOM     79  C   UNL A   1      44.327  26.594  27.747  1.00  0.00     0.148 A 
ATOM     80  C   UNL A   1      43.186  24.066  27.326  1.00  0.00     0.002 A 
ATOM     81  C   UNL A   1      44.725  25.818  26.666  1.00  0.00     0.091 A 
ATOM     82  F   UNL A   1      44.867  27.796  27.992  1.00  0.00    -0.205 F 
ATOM     83  C   UNL A   1      44.167  24.546  26.463  1.00  0.00     0.022 A 
BRANCH  81  84
ATOM     84  S   UNL A   1      45.877  26.415  25.424  1.00  0.00     0.127 S 
ATOM     85  O   UNL A   1      45.176  27.586  24.905  1.00  0.00    -0.237 OA
ATOM     86  O   UNL A   1      47.061  26.711  26.233  1.00  0.00    -0.237 OA
ATOM     87  O   UNL A   1      46.052  25.313  24.488  1.00  0.00    -0.744 OA
ENDBRANCH  81  84
ENDBRANCH  53  77
BRANCH  65  88
ATOM     88  C   UNL A   1      45.391  27.252  35.187  1.00  0.00     0.023 A 
ATOM     89  C   UNL A   1      45.201  26.088  35.956  1.00  0.00     0.012 A 
ATOM     90  C   UNL A   1      46.667  27.849  35.142  1.00  0.00     0.148 A 
ATOM     91  C   UNL A   1      46.252  25.545  36.695  1.00  0.00     0.002 A 
ATOM     92  C   UNL A   1      47.722  27.276  35.844  1.00  0.00     0.091 A 
ATOM     93  F   UNL A   1      46.826  28.968  34.420  1.00  0.00    -0.205 F 
ATOM     94  C   UNL A   1      47.513  26.132  36.630  1.00  0.00     0.022 A 
BRANCH  92  95
ATOM     95  S   UNL A   1      49.400  27.911  35.743  1.00  0.00     0.127 S 
ATOM     96  O   UNL A   1      50.110  27.029  36.668  1.00  0.00    -0.237 OA
ATOM     97  O   UNL A   1      49.728  27.704  34.331  1.00  0.00    -0.237 OA
ATOM     98  O   UNL A   1      49.323  29.309  36.143  1.00  0.00    -0.744 OA
ENDBRANCH  92  95
ENDBRANCH  65  88
ENDBRANCH  39  40
ENDBRANCH  32  34
ENDBRANCH  31  32
ENDBRANCH  30  31
ENDBRANCH  29  30
ENDBRANCH  28  29
ENDBRANCH   1  28
TORSDOF 22
ENDMDL
MODEL 3
REMARK VINA RESULT:      -9.4      4.601      8.319
REMARK SMILES CC(C)c1ccc(O[C@H](C)C(=O)Nc2cccc(C(=O)OCCOCCOC(=O)c3ccc(-c4c5nc(c(-c6cccc(S(=O)(=O)[O-])c6F)c6ccc([nH]6)c(-c6cccc(S(=O)(=O)[O-])c6F)c6nc(c(-c7cccc(S(=O)(=O)[O-])c7F)c7ccc4[nH]7)C=C6)C=C5)cc3)c2)cc1
REMARK SMILES IDX 23 1 22 2 21 3 19 4 20 5 18 6 14 7 15 8 93 9 16 10 17 11
REMARK SMILES IDX 13 12 11 13 12 14 9 16 10 17 8 18 7 19 4 20 5 21 95 22 6 23
REMARK SMILES IDX 94 24 2 25 1 26 3 27 24 28 25 29 26 30 27 31 28 32 29 33
REMARK SMILES IDX 30 34 31 35 92 36 32 37 91 38 33 39 34 40 35 41 85 42 36 43
REMARK SMILES IDX 90 44 84 45 86 46 37 47 89 48 83 49 82 50 38 52 70 53 50 54
REMARK SMILES IDX 69 55 51 56 54 57 68 58 87 59 52 60 53 61 67 63 88 64 55 65
REMARK SMILES IDX 39 66 40 67 48 68 41 69 43 70 49 71 42 72 44 73 45 74 46 75
REMARK SMILES IDX 47 76 71 77 72 78 80 79 73 80 75 81 81 82 74 83 76 84 77 85
REMARK SMILES IDX 78 86 79 87 56 88 57 89 65 90 58 91 60 92 66 93 59 94 61 95
REMARK SMILES IDX 62 96 63 97 64 98
REMARK H PARENT 13 15 86 51 54 62
REMARK Flexibility Score: inf
ROOT
ATOM      1  C   UNL A   1      36.538  19.606  24.803  1.00  0.00     0.202 C 
ENDROOT
BRANCH   1   2
ATOM      2  C   UNL A   1      35.010  19.513  24.711  1.00  0.00     0.261 C 
BRANCH   2   3
ATOM      3  O   UNL A   1      34.394  20.803  24.842  1.00  0.00    -0.460 OA
BRANCH   3   4
ATOM      4  C   UNL A   1      33.228  20.841  25.531  1.00  0.00     0.338 C 
ATOM      5  O   UNL A   1      32.906  20.110  26.459  1.00  0.00    -0.246 OA
BRANCH   4   6
ATOM      6  C   UNL A   1      32.409  22.005  25.100  1.00  0.00     0.062 A 
ATOM      7  C   UNL A   1      31.295  24.109  25.577  1.00  0.00     0.042 A 
ATOM      8  C   UNL A   1      30.943  24.212  24.228  1.00  0.00     0.026 A 
ATOM      9  C   UNL A   1      31.940  22.958  26.012  1.00  0.00     0.041 A 
ATOM     10  C   UNL A   1      31.358  23.241  23.312  1.00  0.00     0.003 A 
ATOM     11  C   UNL A   1      32.117  22.155  23.743  1.00  0.00     0.016 A 
BRANCH   7  12
ATOM     12  N   UNL A   1      30.976  25.181  26.422  1.00  0.00    -0.323 N 
ATOM     13  C   UNL A   1      31.441  26.471  26.492  1.00  0.00     0.265 C 
ATOM     14  O   UNL A   1      30.990  27.158  27.420  1.00  0.00    -0.270 OA
ATOM     15  H   UNL A   1      30.288  24.969  27.093  1.00  0.00     0.170 HD
BRANCH  13  16
ATOM     16  C   UNL A   1      32.419  27.101  25.465  1.00  0.00     0.259 C 
ATOM     17  C   UNL A   1      31.630  27.836  24.386  1.00  0.00     0.064 C 
BRANCH  16  18
ATOM     18  O   UNL A   1      33.512  27.680  26.172  1.00  0.00    -0.481 OA
BRANCH  18  19
ATOM     19  C   UNL A   1      33.707  28.957  26.573  1.00  0.00     0.120 A 
ATOM     20  C   UNL A   1      34.397  31.437  27.803  1.00  0.00    -0.045 A 
ATOM     21  C   UNL A   1      33.155  31.237  27.179  1.00  0.00     0.008 A 
ATOM     22  C   UNL A   1      35.311  30.377  27.746  1.00  0.00     0.008 A 
ATOM     23  C   UNL A   1      32.820  30.019  26.558  1.00  0.00     0.047 A 
ATOM     24  C   UNL A   1      34.971  29.166  27.136  1.00  0.00     0.047 A 
BRANCH  20  25
ATOM     25  C   UNL A   1      34.739  32.696  28.598  1.00  0.00     0.013 C 
ATOM     26  C   UNL A   1      33.894  33.912  28.188  1.00  0.00     0.012 C 
ATOM     27  C   UNL A   1      34.659  32.543  30.123  1.00  0.00     0.012 C 
ENDBRANCH  20  25
ENDBRANCH  18  19
ENDBRANCH  16  18
ENDBRANCH  13  16
ENDBRANCH   7  12
ENDBRANCH   4   6
ENDBRANCH   3   4
ENDBRANCH   2   3
ENDBRANCH   1   2
BRANCH   1  28
ATOM     28  O   UNL A   1      37.129  20.830  24.362  1.00  0.00    -0.374 OA
BRANCH  28  29
ATOM     29  C   UNL A   1      38.083  21.441  25.229  1.00  0.00     0.202 C 
BRANCH  29  30
ATOM     30  C   UNL A   1      39.085  20.515  25.928  1.00  0.00     0.261 C 
BRANCH  30  31
ATOM     31  O   UNL A   1      40.380  21.114  26.088  1.00  0.00    -0.460 OA
BRANCH  31  32
ATOM     32  C   UNL A   1      40.832  21.127  27.364  1.00  0.00     0.338 C 
ATOM     33  O   UNL A   1      40.991  20.160  28.099  1.00  0.00    -0.246 OA
BRANCH  32  34
ATOM     34  C   UNL A   1      41.272  22.481  27.743  1.00  0.00     0.060 A 
ATOM     35  C   UNL A   1      40.856  23.542  26.929  1.00  0.00     0.016 A 
ATOM     36  C   UNL A   1      42.140  22.705  28.814  1.00  0.00     0.016 A 
ATOM     37  C   UNL A   1      41.357  24.822  27.145  1.00  0.00     0.010 A 
ATOM     38  C   UNL A   1      42.643  23.993  29.028  1.00  0.00     0.010 A 
ATOM     39  C   UNL A   1      42.287  25.047  28.168  1.00  0.00    -0.014 A 
BRANCH  39  40
ATOM     40  C   UNL A   1      42.969  26.361  28.253  1.00  0.00     0.031 A 
ATOM     41  C   UNL A   1      42.267  27.516  28.912  1.00  0.00     0.074 A 
ATOM     42  C   UNL A   1      44.210  26.517  27.760  1.00  0.00     0.049 A 
ATOM     43  N   UNL A   1      42.695  28.735  29.116  1.00  0.00    -0.248 NA
ATOM     44  C   UNL A   1      40.902  27.267  29.404  1.00  0.00     0.031 C 
ATOM     45  C   UNL A   1      44.986  25.478  27.087  1.00  0.00     0.029 A 
ATOM     46  N   UNL A   1      45.024  27.622  27.731  1.00  0.00    -0.354 N 
ATOM     47  C   UNL A   1      41.646  29.407  29.733  1.00  0.00     0.074 A 
ATOM     48  C   UNL A   1      40.556  28.463  29.857  1.00  0.00     0.031 C 
ATOM     49  C   UNL A   1      46.156  26.001  26.686  1.00  0.00     0.029 A 
ATOM     50  C   UNL A   1      46.204  27.414  27.060  1.00  0.00     0.049 A 
ATOM     51  H   UNL A   1      44.785  28.479  28.152  1.00  0.00     0.167 HD
ATOM     52  C   UNL A   1      41.599  30.687  30.171  1.00  0.00     0.034 A 
ATOM     53  C   UNL A   1      47.203  28.270  26.766  1.00  0.00     0.034 A 
ATOM     54  C   UNL A   1      42.692  31.617  30.066  1.00  0.00     0.049 A 
ATOM     55  C   UNL A   1      47.128  29.690  27.261  1.00  0.00     0.074 A 
ATOM     56  C   UNL A   1      42.768  32.913  30.548  1.00  0.00     0.029 A 
ATOM     57  N   UNL A   1      43.891  31.360  29.421  1.00  0.00    -0.354 N 
ATOM     58  N   UNL A   1      46.193  30.266  27.976  1.00  0.00    -0.248 NA
ATOM     59  C   UNL A   1      48.264  30.566  26.942  1.00  0.00     0.031 C 
ATOM     60  C   UNL A   1      44.003  33.449  30.167  1.00  0.00     0.029 A 
ATOM     61  C   UNL A   1      44.707  32.478  29.471  1.00  0.00     0.049 A 
ATOM     62  H   UNL A   1      44.127  30.508  28.989  1.00  0.00     0.167 HD
ATOM     63  C   UNL A   1      46.638  31.563  28.215  1.00  0.00     0.074 A 
ATOM     64  C   UNL A   1      47.939  31.678  27.588  1.00  0.00     0.031 C 
ATOM     65  C   UNL A   1      46.018  32.570  28.880  1.00  0.00     0.034 A 
BRANCH  52  66
ATOM     66  C   UNL A   1      40.327  31.150  30.833  1.00  0.00     0.023 A 
ATOM     67  C   UNL A   1      39.253  31.603  30.042  1.00  0.00     0.012 A 
ATOM     68  C   UNL A   1      40.181  31.097  32.233  1.00  0.00     0.148 A 
ATOM     69  C   UNL A   1      38.065  32.031  30.634  1.00  0.00     0.002 A 
ATOM     70  C   UNL A   1      38.978  31.485  32.814  1.00  0.00     0.091 A 
ATOM     71  F   UNL A   1      41.222  30.688  32.972  1.00  0.00    -0.205 F 
ATOM     72  C   UNL A   1      37.924  31.962  32.017  1.00  0.00     0.022 A 
BRANCH  70  73
ATOM     73  S   UNL A   1      38.679  31.362  34.580  1.00  0.00     0.127 S 
ATOM     74  O   UNL A   1      39.607  32.361  35.107  1.00  0.00    -0.237 OA
ATOM     75  O   UNL A   1      37.266  31.730  34.682  1.00  0.00    -0.237 OA
ATOM     76  O   UNL A   1      38.969  29.981  34.938  1.00  0.00    -0.744 OA
ENDBRANCH  70  73
ENDBRANCH  52  66
BRANCH  53  77
ATOM     77  C   UNL A   1      48.379  27.785  25.991  1.00  0.00     0.023 A 
ATOM     78  C   UNL A   1      49.486  27.241  26.671  1.00  0.00     0.012 A 
ATOM     79  C   UNL A   1      48.383  27.817  24.584  1.00  0.00     0.148 A 
ATOM     80  C   UNL A   1      50.584  26.754  25.961  1.00  0.00     0.002 A 
ATOM     81  C   UNL A   1      49.455  27.279  23.882  1.00  0.00     0.091 A 
ATOM     82  F   UNL A   1      47.326  28.354  23.958  1.00  0.00    -0.205 F 
ATOM     83  C   UNL A   1      50.564  26.763  24.569  1.00  0.00     0.022 A 
BRANCH  81  84
ATOM     84  S   UNL A   1      49.450  27.117  22.093  1.00  0.00     0.127 S 
ATOM     85  O   UNL A   1      48.906  28.407  21.678  1.00  0.00    -0.237 OA
ATOM     86  O   UNL A   1      50.873  26.925  21.807  1.00  0.00    -0.237 OA
ATOM     87  O   UNL A   1      48.619  25.956  21.806  1.00  0.00    -0.744 OA
ENDBRANCH  81  84
ENDBRANCH  53  77
BRANCH  65  88
ATOM     88  C   UNL A   1      46.742  33.888  28.983  1.00  0.00     0.023 A 
ATOM     89  C   UNL A   1      47.744  34.061  29.959  1.00  0.00     0.012 A 
ATOM     90  C   UNL A   1      46.483  34.930  28.069  1.00  0.00     0.148 A 
ATOM     91  C   UNL A   1      48.451  35.259  30.047  1.00  0.00     0.002 A 
ATOM     92  C   UNL A   1      47.224  36.104  28.133  1.00  0.00     0.091 A 
ATOM     93  F   UNL A   1      45.513  34.756  27.159  1.00  0.00    -0.205 F 
ATOM     94  C   UNL A   1      48.199  36.275  29.129  1.00  0.00     0.022 A 
BRANCH  92  95
ATOM     95  S   UNL A   1      47.031  37.428  26.932  1.00  0.00     0.127 S 
ATOM     96  O   UNL A   1      47.915  36.985  25.855  1.00  0.00    -0.237 OA
ATOM     97  O   UNL A   1      45.603  37.358  26.618  1.00  0.00    -0.237 OA
ATOM     98  O   UNL A   1      47.438  38.648  27.616  1.00  0.00    -0.744 OA
ENDBRANCH  92  95
ENDBRANCH  65  88
ENDBRANCH  39  40
ENDBRANCH  32  34
ENDBRANCH  31  32
ENDBRANCH  30  31
ENDBRANCH  29  30
ENDBRANCH  28  29
ENDBRANCH   1  28
TORSDOF 22
ENDMDL
