MODEL 1
REMARK VINA RESULT:     -11.1      0.000      0.000
REMARK SMILES CC(C)Cc1ccc(-c2cc(Cl)cc3c2O[C@@H](C(F)(F)F)C(C(=O)OCCOCCOC(=O)c2ccc(-c4c5nc(c(-c6cccc(S(=O)(=O)[O-])c6F)c6ccc([nH]6)c(-c6cccc(S(=O)(=O)[O-])c6F)c6nc(c(-c7cccc(S(=O)(=O)[O-])c7F)c7ccc4[nH]7)C=C6)C=C5)cc2)=C3)cc1
REMARK SMILES IDX 28 1 27 2 26 3 25 4 23 5 24 6 22 7 9 8 10 9 15 10 11 11
REMARK SMILES IDX 14 12 16 13 12 14 13 15 97 16 17 17 8 18 5 19 6 20 99 21
REMARK SMILES IDX 7 22 98 23 4 24 2 25 1 26 3 27 18 28 19 29 20 30 21 31 29 32
REMARK SMILES IDX 30 33 31 34 32 35 33 36 34 37 35 38 96 39 36 40 95 41 37 42
REMARK SMILES IDX 38 43 39 44 89 45 40 46 94 47 88 48 90 49 41 50 93 51 87 52
REMARK SMILES IDX 86 53 42 55 74 56 54 57 73 58 55 59 58 60 72 61 91 62 56 63
REMARK SMILES IDX 57 64 71 66 92 67 59 68 43 69 44 70 52 71 45 72 47 73 53 74
REMARK SMILES IDX 46 75 48 76 49 77 50 78 51 79 75 80 76 81 84 82 77 83 79 84
REMARK SMILES IDX 85 85 78 86 80 87 81 88 82 89 83 90 60 91 61 92 69 93 62 94
REMARK SMILES IDX 64 95 70 96 63 97 65 98 66 99 67 100 68 101
REMARK H PARENT 90 54 58 65
REMARK Flexibility Score: inf
ROOT
ATOM      1  O   UNL A   1      47.287  38.949  24.887  1.00  0.00    -0.374 OA
ENDROOT
BRANCH   1   2
ATOM      2  C   UNL A   1      46.751  40.184  24.427  1.00  0.00     0.202 C 
BRANCH   2   3
ATOM      3  C   UNL A   1      45.779  40.954  25.337  1.00  0.00     0.261 C 
BRANCH   3   4
ATOM      4  O   UNL A   1      44.818  41.733  24.608  1.00  0.00    -0.460 OA
BRANCH   4   5
ATOM      5  C   UNL A   1      44.334  42.815  25.245  1.00  0.00     0.338 C 
ATOM      6  O   UNL A   1      44.521  43.088  26.424  1.00  0.00    -0.246 OA
BRANCH   5   7
ATOM      7  C   UNL A   1      43.698  43.781  24.315  1.00  0.00     0.087 C 
ATOM      8  C   UNL A   1      45.410  43.861  20.538  1.00  0.00     0.026 A 
ATOM      9  C   UNL A   1      46.754  43.458  20.716  1.00  0.00     0.033 A 
ATOM     10  C   UNL A   1      44.661  44.014  21.723  1.00  0.00     0.135 A 
ATOM     11  C   UNL A   1      47.372  43.527  21.963  1.00  0.00     0.042 A 
ATOM     12  C   UNL A   1      45.338  44.338  22.910  1.00  0.00     0.019 A 
ATOM     13  O   UNL A   1      43.356  43.512  21.819  1.00  0.00    -0.475 OA
ATOM     14  Cl  UNL A   1      49.014  43.054  22.127  1.00  0.00    -0.084 Cl
ATOM     15  C   UNL A   1      46.695  44.071  23.041  1.00  0.00     0.032 A 
ATOM     16  C   UNL A   1      44.547  44.793  24.072  1.00  0.00     0.027 C 
ATOM     17  C   UNL A   1      42.735  43.491  23.181  1.00  0.00     0.316 C 
BRANCH   8  18
ATOM     18  C   UNL A   1      45.174  44.623  19.261  1.00  0.00    -0.015 A 
ATOM     19  C   UNL A   1      44.759  46.758  17.378  1.00  0.00    -0.048 A 
ATOM     20  C   UNL A   1      46.042  46.275  17.650  1.00  0.00     0.004 A 
ATOM     21  C   UNL A   1      43.679  46.144  18.021  1.00  0.00     0.004 A 
ATOM     22  C   UNL A   1      46.242  45.217  18.555  1.00  0.00     0.009 A 
ATOM     23  C   UNL A   1      43.883  45.095  18.940  1.00  0.00     0.009 A 
BRANCH  19  24
ATOM     24  C   UNL A   1      44.554  47.886  16.383  1.00  0.00     0.038 C 
BRANCH  24  25
ATOM     25  C   UNL A   1      43.504  48.909  16.867  1.00  0.00    -0.013 C 
ATOM     26  C   UNL A   1      44.039  50.340  16.774  1.00  0.00     0.008 C 
ATOM     27  C   UNL A   1      42.200  48.797  16.074  1.00  0.00     0.008 C 
ENDBRANCH  24  25
ENDBRANCH  19  24
ENDBRANCH   8  18
BRANCH  17  28
ATOM     28  C   UNL A   1      41.702  42.375  23.460  1.00  0.00     0.430 C 
ATOM     29  F   UNL A   1      41.778  42.018  24.773  1.00  0.00    -0.167 F 
ATOM     30  F   UNL A   1      40.436  42.807  23.258  1.00  0.00    -0.167 F 
ATOM     31  F   UNL A   1      41.860  41.252  22.740  1.00  0.00    -0.167 F 
ENDBRANCH  17  28
ENDBRANCH   5   7
ENDBRANCH   4   5
ENDBRANCH   3   4
ENDBRANCH   2   3
ENDBRANCH   1   2
BRANCH   1  32
ATOM     32  C   UNL A   1      47.322  38.716  26.294  1.00  0.00     0.202 C 
BRANCH  32  33
ATOM     33  C   UNL A   1      47.081  37.298  26.819  1.00  0.00     0.261 C 
BRANCH  33  34
ATOM     34  O   UNL A   1      47.610  37.070  28.133  1.00  0.00    -0.460 OA
BRANCH  34  35
ATOM     35  C   UNL A   1      46.699  37.185  29.128  1.00  0.00     0.338 C 
ATOM     36  O   UNL A   1      46.489  38.168  29.829  1.00  0.00    -0.246 OA
BRANCH  35  37
ATOM     37  C   UNL A   1      45.834  35.998  29.171  1.00  0.00     0.060 A 
ATOM     38  C   UNL A   1      46.299  34.885  29.881  1.00  0.00     0.016 A 
ATOM     39  C   UNL A   1      44.653  35.932  28.430  1.00  0.00     0.016 A 
ATOM     40  C   UNL A   1      45.611  33.678  29.806  1.00  0.00     0.010 A 
ATOM     41  C   UNL A   1      43.967  34.717  28.352  1.00  0.00     0.010 A 
ATOM     42  C   UNL A   1      44.468  33.574  29.003  1.00  0.00    -0.014 A 
BRANCH  42  43
ATOM     43  C   UNL A   1      43.897  32.232  28.741  1.00  0.00     0.031 A 
ATOM     44  C   UNL A   1      42.561  31.873  29.334  1.00  0.00     0.074 A 
ATOM     45  C   UNL A   1      44.546  31.359  27.949  1.00  0.00     0.049 A 
ATOM     46  N   UNL A   1      41.868  30.773  29.202  1.00  0.00    -0.248 NA
ATOM     47  C   UNL A   1      41.921  32.887  30.190  1.00  0.00     0.031 C 
ATOM     48  C   UNL A   1      45.846  31.594  27.323  1.00  0.00     0.029 A 
ATOM     49  N   UNL A   1      44.204  30.093  27.550  1.00  0.00    -0.354 N 
ATOM     50  C   UNL A   1      40.729  30.946  29.981  1.00  0.00     0.074 A 
ATOM     51  C   UNL A   1      40.827  32.254  30.590  1.00  0.00     0.031 C 
ATOM     52  C   UNL A   1      46.206  30.495  26.639  1.00  0.00     0.029 A 
ATOM     53  C   UNL A   1      45.172  29.474  26.794  1.00  0.00     0.049 A 
ATOM     54  H   UNL A   1      43.347  29.666  27.782  1.00  0.00     0.167 HD
ATOM     55  C   UNL A   1      39.690  30.098  30.160  1.00  0.00     0.034 A 
ATOM     56  C   UNL A   1      45.225  28.219  26.305  1.00  0.00     0.034 A 
ATOM     57  C   UNL A   1      39.584  28.810  29.529  1.00  0.00     0.049 A 
ATOM     58  C   UNL A   1      44.054  27.297  26.522  1.00  0.00     0.074 A 
ATOM     59  C   UNL A   1      38.538  27.907  29.593  1.00  0.00     0.029 A 
ATOM     60  N   UNL A   1      40.562  28.234  28.735  1.00  0.00    -0.354 N 
ATOM     61  N   UNL A   1      42.924  27.529  27.145  1.00  0.00    -0.248 NA
ATOM     62  C   UNL A   1      44.151  25.952  25.939  1.00  0.00     0.031 C 
ATOM     63  C   UNL A   1      38.901  26.767  28.869  1.00  0.00     0.029 A 
ATOM     64  C   UNL A   1      40.156  26.978  28.319  1.00  0.00     0.049 A 
ATOM     65  H   UNL A   1      41.420  28.656  28.500  1.00  0.00     0.167 HD
ATOM     66  C   UNL A   1      42.164  26.374  26.999  1.00  0.00     0.074 A 
ATOM     67  C   UNL A   1      42.952  25.454  26.206  1.00  0.00     0.031 C 
ATOM     68  C   UNL A   1      40.931  26.092  27.490  1.00  0.00     0.034 A 
BRANCH  55  69
ATOM     69  C   UNL A   1      38.568  30.535  31.066  1.00  0.00     0.023 A 
ATOM     70  C   UNL A   1      38.646  30.286  32.450  1.00  0.00     0.012 A 
ATOM     71  C   UNL A   1      37.478  31.265  30.553  1.00  0.00     0.148 A 
ATOM     72  C   UNL A   1      37.643  30.735  33.309  1.00  0.00     0.002 A 
ATOM     73  C   UNL A   1      36.506  31.749  31.420  1.00  0.00     0.091 A 
ATOM     74  F   UNL A   1      37.414  31.473  29.230  1.00  0.00    -0.205 F 
ATOM     75  C   UNL A   1      36.581  31.477  32.796  1.00  0.00     0.022 A 
BRANCH  73  76
ATOM     76  S   UNL A   1      35.143  32.782  30.870  1.00  0.00     0.127 S 
ATOM     77  O   UNL A   1      35.846  33.987  30.433  1.00  0.00    -0.237 OA
ATOM     78  O   UNL A   1      34.571  31.982  29.787  1.00  0.00    -0.237 OA
ATOM     79  O   UNL A   1      34.274  32.955  32.025  1.00  0.00    -0.744 OA
ENDBRANCH  73  76
ENDBRANCH  55  69
BRANCH  56  80
ATOM     80  C   UNL A   1      46.424  27.765  25.546  1.00  0.00     0.023 A 
ATOM     81  C   UNL A   1      46.503  27.987  24.157  1.00  0.00     0.012 A 
ATOM     82  C   UNL A   1      47.488  27.108  26.197  1.00  0.00     0.148 A 
ATOM     83  C   UNL A   1      47.600  27.529  23.426  1.00  0.00     0.002 A 
ATOM     84  C   UNL A   1      48.603  26.708  25.473  1.00  0.00     0.091 A 
ATOM     85  F   UNL A   1      47.385  26.890  27.516  1.00  0.00    -0.205 F 
ATOM     86  C   UNL A   1      48.653  26.899  24.084  1.00  0.00     0.022 A 
BRANCH  84  87
ATOM     87  S   UNL A   1      50.057  26.007  26.260  1.00  0.00     0.127 S 
ATOM     88  O   UNL A   1      50.460  27.085  27.157  1.00  0.00    -0.237 OA
ATOM     89  O   UNL A   1      49.503  24.827  26.923  1.00  0.00    -0.237 OA
ATOM     90  O   UNL A   1      50.981  25.705  25.174  1.00  0.00    -0.744 OA
ENDBRANCH  84  87
ENDBRANCH  56  80
BRANCH  68  91
ATOM     91  C   UNL A   1      40.336  24.748  27.159  1.00  0.00     0.023 A 
ATOM     92  C   UNL A   1      39.095  24.671  26.496  1.00  0.00     0.012 A 
ATOM     93  C   UNL A   1      41.041  23.560  27.444  1.00  0.00     0.148 A 
ATOM     94  C   UNL A   1      38.547  23.435  26.157  1.00  0.00     0.002 A 
ATOM     95  C   UNL A   1      40.513  22.335  27.056  1.00  0.00     0.091 A 
ATOM     96  F   UNL A   1      42.212  23.652  28.089  1.00  0.00    -0.205 F 
ATOM     97  C   UNL A   1      39.260  22.269  26.426  1.00  0.00     0.022 A 
BRANCH  95  98
ATOM     98  S   UNL A   1      41.405  20.791  27.271  1.00  0.00     0.127 S 
ATOM     99  O   UNL A   1      40.910  20.339  28.570  1.00  0.00    -0.237 OA
ATOM    100  O   UNL A   1      40.938  20.002  26.130  1.00  0.00    -0.237 OA
ATOM    101  O   UNL A   1      42.821  21.134  27.227  1.00  0.00    -0.744 OA
ENDBRANCH  95  98
ENDBRANCH  68  91
ENDBRANCH  42  43
ENDBRANCH  35  37
ENDBRANCH  34  35
ENDBRANCH  33  34
ENDBRANCH  32  33
ENDBRANCH   1  32
TORSDOF 21
ENDMDL
MODEL 2
REMARK VINA RESULT:     -10.9      1.287      7.495
REMARK SMILES CC(C)Cc1ccc(-c2cc(Cl)cc3c2O[C@@H](C(F)(F)F)C(C(=O)OCCOCCOC(=O)c2ccc(-c4c5nc(c(-c6cccc(S(=O)(=O)[O-])c6F)c6ccc([nH]6)c(-c6cccc(S(=O)(=O)[O-])c6F)c6nc(c(-c7cccc(S(=O)(=O)[O-])c7F)c7ccc4[nH]7)C=C6)C=C5)cc2)=C3)cc1
REMARK SMILES IDX 28 1 27 2 26 3 25 4 23 5 24 6 22 7 9 8 10 9 15 10 11 11
REMARK SMILES IDX 14 12 16 13 12 14 13 15 97 16 17 17 8 18 5 19 6 20 99 21
REMARK SMILES IDX 7 22 98 23 4 24 2 25 1 26 3 27 18 28 19 29 20 30 21 31 29 32
REMARK SMILES IDX 30 33 31 34 32 35 33 36 34 37 35 38 96 39 36 40 95 41 37 42
REMARK SMILES IDX 38 43 39 44 89 45 40 46 94 47 88 48 90 49 41 50 93 51 87 52
REMARK SMILES IDX 86 53 42 55 74 56 54 57 73 58 55 59 58 60 72 61 91 62 56 63
REMARK SMILES IDX 57 64 71 66 92 67 59 68 43 69 44 70 52 71 45 72 47 73 53 74
REMARK SMILES IDX 46 75 48 76 49 77 50 78 51 79 75 80 76 81 84 82 77 83 79 84
REMARK SMILES IDX 85 85 78 86 80 87 81 88 82 89 83 90 60 91 61 92 69 93 62 94
REMARK SMILES IDX 64 95 70 96 63 97 65 98 66 99 67 100 68 101
REMARK H PARENT 90 54 58 65
REMARK Flexibility Score: inf
ROOT
ATOM      1  O   UNL A   1      47.379  39.180  24.584  1.00  0.00    -0.374 OA
ENDROOT
BRANCH   1   2
ATOM      2  C   UNL A   1      47.071  40.532  24.266  1.00  0.00     0.202 C 
BRANCH   2   3
ATOM      3  C   UNL A   1      45.982  41.253  25.079  1.00  0.00     0.261 C 
BRANCH   3   4
ATOM      4  O   UNL A   1      45.097  42.040  24.265  1.00  0.00    -0.460 OA
BRANCH   4   5
ATOM      5  C   UNL A   1      44.119  42.691  24.921  1.00  0.00     0.338 C 
ATOM      6  O   UNL A   1      43.795  42.498  26.086  1.00  0.00    -0.246 OA
BRANCH   5   7
ATOM      7  C   UNL A   1      43.582  43.836  24.145  1.00  0.00     0.087 C 
ATOM      8  C   UNL A   1      45.766  44.731  20.734  1.00  0.00     0.026 A 
ATOM      9  C   UNL A   1      47.085  44.296  20.997  1.00  0.00     0.033 A 
ATOM     10  C   UNL A   1      44.866  44.624  21.814  1.00  0.00     0.135 A 
ATOM     11  C   UNL A   1      47.536  44.093  22.300  1.00  0.00     0.042 A 
ATOM     12  C   UNL A   1      45.374  44.683  23.121  1.00  0.00     0.019 A 
ATOM     13  O   UNL A   1      43.574  44.115  21.627  1.00  0.00    -0.475 OA
ATOM     14  Cl  UNL A   1      49.155  43.593  22.574  1.00  0.00    -0.084 Cl
ATOM     15  C   UNL A   1      46.710  44.391  23.371  1.00  0.00     0.032 A 
ATOM     16  C   UNL A   1      44.428  44.876  24.239  1.00  0.00     0.027 C 
ATOM     17  C   UNL A   1      42.783  43.800  22.858  1.00  0.00     0.316 C 
BRANCH   8  18
ATOM     18  C   UNL A   1      45.676  45.752  19.630  1.00  0.00    -0.015 A 
ATOM     19  C   UNL A   1      44.670  47.426  17.519  1.00  0.00    -0.048 A 
ATOM     20  C   UNL A   1      44.677  47.864  18.846  1.00  0.00     0.004 A 
ATOM     21  C   UNL A   1      45.204  46.162  17.244  1.00  0.00     0.004 A 
ATOM     22  C   UNL A   1      45.188  47.053  19.875  1.00  0.00     0.009 A 
ATOM     23  C   UNL A   1      45.702  45.345  18.279  1.00  0.00     0.009 A 
BRANCH  19  24
ATOM     24  C   UNL A   1      44.135  48.319  16.414  1.00  0.00     0.038 C 
BRANCH  24  25
ATOM     25  C   UNL A   1      42.602  48.490  16.491  1.00  0.00    -0.013 C 
ATOM     26  C   UNL A   1      41.884  47.148  16.331  1.00  0.00     0.008 C 
ATOM     27  C   UNL A   1      42.173  49.147  17.805  1.00  0.00     0.008 C 
ENDBRANCH  24  25
ENDBRANCH  19  24
ENDBRANCH   8  18
BRANCH  17  28
ATOM     28  C   UNL A   1      41.753  42.651  22.752  1.00  0.00     0.430 C 
ATOM     29  F   UNL A   1      41.561  42.348  21.437  1.00  0.00    -0.167 F 
ATOM     30  F   UNL A   1      42.207  41.520  23.339  1.00  0.00    -0.167 F 
ATOM     31  F   UNL A   1      40.543  42.914  23.274  1.00  0.00    -0.167 F 
ENDBRANCH  17  28
ENDBRANCH   5   7
ENDBRANCH   4   5
ENDBRANCH   3   4
ENDBRANCH   2   3
ENDBRANCH   1   2
BRANCH   1  32
ATOM     32  C   UNL A   1      47.452  38.815  25.961  1.00  0.00     0.202 C 
BRANCH  32  33
ATOM     33  C   UNL A   1      46.903  37.454  26.399  1.00  0.00     0.261 C 
BRANCH  33  34
ATOM     34  O   UNL A   1      47.612  36.873  27.503  1.00  0.00    -0.460 OA
BRANCH  34  35
ATOM     35  C   UNL A   1      46.932  36.895  28.674  1.00  0.00     0.338 C 
ATOM     36  O   UNL A   1      46.891  37.810  29.489  1.00  0.00    -0.246 OA
BRANCH  35  37
ATOM     37  C   UNL A   1      46.077  35.706  28.793  1.00  0.00     0.060 A 
ATOM     38  C   UNL A   1      46.616  34.582  29.429  1.00  0.00     0.016 A 
ATOM     39  C   UNL A   1      44.822  35.651  28.186  1.00  0.00     0.016 A 
ATOM     40  C   UNL A   1      45.924  33.376  29.410  1.00  0.00     0.010 A 
ATOM     41  C   UNL A   1      44.130  34.437  28.164  1.00  0.00     0.010 A 
ATOM     42  C   UNL A   1      44.700  33.284  28.736  1.00  0.00    -0.014 A 
BRANCH  42  43
ATOM     43  C   UNL A   1      44.102  31.945  28.516  1.00  0.00     0.031 A 
ATOM     44  C   UNL A   1      44.838  30.942  27.669  1.00  0.00     0.074 A 
ATOM     45  C   UNL A   1      42.934  31.618  29.098  1.00  0.00     0.049 A 
ATOM     46  N   UNL A   1      44.513  29.710  27.380  1.00  0.00    -0.248 NA
ATOM     47  C   UNL A   1      46.108  31.385  27.069  1.00  0.00     0.031 C 
ATOM     48  C   UNL A   1      42.130  32.507  29.934  1.00  0.00     0.029 A 
ATOM     49  N   UNL A   1      42.216  30.450  29.059  1.00  0.00    -0.354 N 
ATOM     50  C   UNL A   1      45.517  29.240  26.540  1.00  0.00     0.074 A 
ATOM     51  C   UNL A   1      46.459  30.322  26.358  1.00  0.00     0.031 C 
ATOM     52  C   UNL A   1      41.013  31.861  30.309  1.00  0.00     0.029 A 
ATOM     53  C   UNL A   1      41.014  30.522  29.724  1.00  0.00     0.049 A 
ATOM     54  H   UNL A   1      42.530  29.638  28.600  1.00  0.00     0.167 HD
ATOM     55  C   UNL A   1      45.648  28.014  25.983  1.00  0.00     0.034 A 
ATOM     56  C   UNL A   1      40.021  29.617  29.828  1.00  0.00     0.034 A 
ATOM     57  C   UNL A   1      44.723  26.932  26.189  1.00  0.00     0.049 A 
ATOM     58  C   UNL A   1      40.195  28.261  29.195  1.00  0.00     0.074 A 
ATOM     59  C   UNL A   1      44.806  25.632  25.724  1.00  0.00     0.029 A 
ATOM     60  N   UNL A   1      43.541  27.027  26.904  1.00  0.00    -0.354 N 
ATOM     61  N   UNL A   1      41.216  27.789  28.522  1.00  0.00    -0.248 NA
ATOM     62  C   UNL A   1      39.095  27.302  29.367  1.00  0.00     0.031 C 
ATOM     63  C   UNL A   1      43.653  24.951  26.125  1.00  0.00     0.029 A 
ATOM     64  C   UNL A   1      42.872  25.816  26.876  1.00  0.00     0.049 A 
ATOM     65  H   UNL A   1      43.223  27.837  27.365  1.00  0.00     0.167 HD
ATOM     66  C   UNL A   1      40.896  26.469  28.219  1.00  0.00     0.074 A 
ATOM     67  C   UNL A   1      39.598  26.210  28.808  1.00  0.00     0.031 C 
ATOM     68  C   UNL A   1      41.603  25.558  27.506  1.00  0.00     0.034 A 
BRANCH  55  69
ATOM     69  C   UNL A   1      46.844  27.762  25.101  1.00  0.00     0.023 A 
ATOM     70  C   UNL A   1      46.770  28.036  23.721  1.00  0.00     0.012 A 
ATOM     71  C   UNL A   1      48.065  27.333  25.658  1.00  0.00     0.148 A 
ATOM     72  C   UNL A   1      47.886  27.862  22.903  1.00  0.00     0.002 A 
ATOM     73  C   UNL A   1      49.185  27.206  24.845  1.00  0.00     0.091 A 
ATOM     74  F   UNL A   1      48.107  27.059  26.970  1.00  0.00    -0.205 F 
ATOM     75  C   UNL A   1      49.096  27.461  23.467  1.00  0.00     0.022 A 
BRANCH  73  76
ATOM     76  S   UNL A   1      50.806  26.774  25.487  1.00  0.00     0.127 S 
ATOM     77  O   UNL A   1      51.599  26.706  24.261  1.00  0.00    -0.237 OA
ATOM     78  O   UNL A   1      51.108  27.917  26.348  1.00  0.00    -0.237 OA
ATOM     79  O   UNL A   1      50.639  25.509  26.190  1.00  0.00    -0.744 OA
ENDBRANCH  73  76
ENDBRANCH  55  69
BRANCH  56  80
ATOM     80  C   UNL A   1      38.777  29.957  30.576  1.00  0.00     0.023 A 
ATOM     81  C   UNL A   1      38.593  29.478  31.888  1.00  0.00     0.012 A 
ATOM     82  C   UNL A   1      37.773  30.751  29.987  1.00  0.00     0.148 A 
ATOM     83  C   UNL A   1      37.415  29.752  32.584  1.00  0.00     0.002 A 
ATOM     84  C   UNL A   1      36.629  31.068  30.708  1.00  0.00     0.091 A 
ATOM     85  F   UNL A   1      37.959  31.180  28.731  1.00  0.00    -0.205 F 
ATOM     86  C   UNL A   1      36.438  30.555  31.999  1.00  0.00     0.022 A 
BRANCH  84  87
ATOM     87  S   UNL A   1      35.382  32.199  30.080  1.00  0.00     0.127 S 
ATOM     88  O   UNL A   1      34.886  31.478  28.912  1.00  0.00    -0.237 OA
ATOM     89  O   UNL A   1      34.448  32.272  31.203  1.00  0.00    -0.237 OA
ATOM     90  O   UNL A   1      36.087  33.444  29.805  1.00  0.00    -0.744 OA
ENDBRANCH  84  87
ENDBRANCH  56  80
BRANCH  68  91
ATOM     91  C   UNL A   1      41.012  24.181  27.347  1.00  0.00     0.023 A 
ATOM     92  C   UNL A   1      41.557  23.094  28.059  1.00  0.00     0.012 A 
ATOM     93  C   UNL A   1      39.872  23.978  26.543  1.00  0.00     0.148 A 
ATOM     94  C   UNL A   1      41.002  21.821  27.944  1.00  0.00     0.002 A 
ATOM     95  C   UNL A   1      39.292  22.718  26.475  1.00  0.00     0.091 A 
ATOM     96  F   UNL A   1      39.377  25.020  25.861  1.00  0.00    -0.205 F 
ATOM     97  C   UNL A   1      39.863  21.635  27.163  1.00  0.00     0.022 A 
BRANCH  95  98
ATOM     98  S   UNL A   1      37.769  22.405  25.576  1.00  0.00     0.127 S 
ATOM     99  O   UNL A   1      37.724  23.544  24.660  1.00  0.00    -0.237 OA
ATOM    100  O   UNL A   1      38.045  21.118  24.936  1.00  0.00    -0.237 OA
ATOM    101  O   UNL A   1      36.711  22.366  26.577  1.00  0.00    -0.744 OA
ENDBRANCH  95  98
ENDBRANCH  68  91
ENDBRANCH  42  43
ENDBRANCH  35  37
ENDBRANCH  34  35
ENDBRANCH  33  34
ENDBRANCH  32  33
ENDBRANCH   1  32
TORSDOF 21
ENDMDL
MODEL 3
REMARK VINA RESULT:     -10.9      1.744      2.263
REMARK SMILES CC(C)Cc1ccc(-c2cc(Cl)cc3c2O[C@@H](C(F)(F)F)C(C(=O)OCCOCCOC(=O)c2ccc(-c4c5nc(c(-c6cccc(S(=O)(=O)[O-])c6F)c6ccc([nH]6)c(-c6cccc(S(=O)(=O)[O-])c6F)c6nc(c(-c7cccc(S(=O)(=O)[O-])c7F)c7ccc4[nH]7)C=C6)C=C5)cc2)=C3)cc1
REMARK SMILES IDX 28 1 27 2 26 3 25 4 23 5 24 6 22 7 9 8 10 9 15 10 11 11
REMARK SMILES IDX 14 12 16 13 12 14 13 15 97 16 17 17 8 18 5 19 6 20 99 21
REMARK SMILES IDX 7 22 98 23 4 24 2 25 1 26 3 27 18 28 19 29 20 30 21 31 29 32
REMARK SMILES IDX 30 33 31 34 32 35 33 36 34 37 35 38 96 39 36 40 95 41 37 42
REMARK SMILES IDX 38 43 39 44 89 45 40 46 94 47 88 48 90 49 41 50 93 51 87 52
REMARK SMILES IDX 86 53 42 55 74 56 54 57 73 58 55 59 58 60 72 61 91 62 56 63
REMARK SMILES IDX 57 64 71 66 92 67 59 68 43 69 44 70 52 71 45 72 47 73 53 74
REMARK SMILES IDX 46 75 48 76 49 77 50 78 51 79 75 80 76 81 84 82 77 83 79 84
REMARK SMILES IDX 85 85 78 86 80 87 81 88 82 89 83 90 60 91 61 92 69 93 62 94
REMARK SMILES IDX 64 95 70 96 63 97 65 98 66 99 67 100 68 101
REMARK H PARENT 90 54 58 65
REMARK Flexibility Score: inf
ROOT
ATOM      1  O   UNL A   1      47.511  39.533  26.197  1.00  0.00    -0.374 OA
ENDROOT
BRANCH   1   2
ATOM      2  C   UNL A   1      48.224  40.407  27.063  1.00  0.00     0.202 C 
BRANCH   2   3
ATOM      3  C   UNL A   1      47.545  41.708  27.525  1.00  0.00     0.261 C 
BRANCH   3   4
ATOM      4  O   UNL A   1      46.654  42.260  26.543  1.00  0.00    -0.460 OA
BRANCH   4   5
ATOM      5  C   UNL A   1      46.184  43.495  26.804  1.00  0.00     0.338 C 
ATOM      6  O   UNL A   1      46.758  44.345  27.472  1.00  0.00    -0.246 OA
BRANCH   5   7
ATOM      7  C   UNL A   1      44.964  43.812  26.021  1.00  0.00     0.087 C 
ATOM      8  C   UNL A   1      45.405  43.300  21.929  1.00  0.00     0.026 A 
ATOM      9  C   UNL A   1      46.781  43.492  21.663  1.00  0.00     0.033 A 
ATOM     10  C   UNL A   1      45.006  43.539  23.260  1.00  0.00     0.135 A 
ATOM     11  C   UNL A   1      47.604  44.175  22.557  1.00  0.00     0.042 A 
ATOM     12  C   UNL A   1      45.748  44.448  24.032  1.00  0.00     0.019 A 
ATOM     13  O   UNL A   1      44.142  42.657  23.922  1.00  0.00    -0.475 OA
ATOM     14  Cl  UNL A   1      49.262  44.409  22.180  1.00  0.00    -0.084 Cl
ATOM     15  C   UNL A   1      47.062  44.748  23.695  1.00  0.00     0.032 A 
ATOM     16  C   UNL A   1      45.171  44.929  25.304  1.00  0.00     0.027 C 
ATOM     17  C   UNL A   1      43.977  42.847  25.397  1.00  0.00     0.316 C 
BRANCH   8  18
ATOM     18  C   UNL A   1      44.527  43.474  20.718  1.00  0.00    -0.015 A 
ATOM     19  C   UNL A   1      42.437  44.357  18.950  1.00  0.00    -0.048 A 
ATOM     20  C   UNL A   1      43.673  45.009  18.989  1.00  0.00     0.004 A 
ATOM     21  C   UNL A   1      42.263  43.236  19.770  1.00  0.00     0.004 A 
ATOM     22  C   UNL A   1      44.702  44.564  19.838  1.00  0.00     0.009 A 
ATOM     23  C   UNL A   1      43.290  42.802  20.631  1.00  0.00     0.009 A 
BRANCH  19  24
ATOM     24  C   UNL A   1      41.342  44.834  18.013  1.00  0.00     0.038 C 
BRANCH  24  25
ATOM     25  C   UNL A   1      41.899  45.306  16.653  1.00  0.00    -0.013 C 
ATOM     26  C   UNL A   1      42.379  46.758  16.723  1.00  0.00     0.008 C 
ATOM     27  C   UNL A   1      43.044  44.411  16.171  1.00  0.00     0.008 C 
ENDBRANCH  24  25
ENDBRANCH  19  24
ENDBRANCH   8  18
BRANCH  17  28
ATOM     28  C   UNL A   1      43.669  41.583  26.234  1.00  0.00     0.430 C 
ATOM     29  F   UNL A   1      42.375  41.213  26.019  1.00  0.00    -0.167 F 
ATOM     30  F   UNL A   1      44.432  40.534  25.851  1.00  0.00    -0.167 F 
ATOM     31  F   UNL A   1      43.820  41.723  27.562  1.00  0.00    -0.167 F 
ENDBRANCH  17  28
ENDBRANCH   5   7
ENDBRANCH   4   5
ENDBRANCH   3   4
ENDBRANCH   2   3
ENDBRANCH   1   2
BRANCH   1  32
ATOM     32  C   UNL A   1      47.113  38.261  26.707  1.00  0.00     0.202 C 
BRANCH  32  33
ATOM     33  C   UNL A   1      47.762  37.740  27.992  1.00  0.00     0.261 C 
BRANCH  33  34
ATOM     34  O   UNL A   1      46.818  37.357  29.003  1.00  0.00    -0.460 OA
BRANCH  34  35
ATOM     35  C   UNL A   1      47.206  36.301  29.756  1.00  0.00     0.338 C 
ATOM     36  O   UNL A   1      48.115  36.273  30.578  1.00  0.00    -0.246 OA
BRANCH  35  37
ATOM     37  C   UNL A   1      46.270  35.181  29.589  1.00  0.00     0.060 A 
ATOM     38  C   UNL A   1      46.206  34.234  30.618  1.00  0.00     0.016 A 
ATOM     39  C   UNL A   1      45.564  34.995  28.400  1.00  0.00     0.016 A 
ATOM     40  C   UNL A   1      45.477  33.063  30.438  1.00  0.00     0.010 A 
ATOM     41  C   UNL A   1      44.836  33.815  28.219  1.00  0.00     0.010 A 
ATOM     42  C   UNL A   1      44.828  32.825  29.220  1.00  0.00    -0.014 A 
BRANCH  42  43
ATOM     43  C   UNL A   1      44.270  31.477  28.956  1.00  0.00     0.031 A 
ATOM     44  C   UNL A   1      42.892  31.141  29.461  1.00  0.00     0.074 A 
ATOM     45  C   UNL A   1      44.970  30.579  28.241  1.00  0.00     0.049 A 
ATOM     46  N   UNL A   1      42.204  30.040  29.312  1.00  0.00    -0.248 NA
ATOM     47  C   UNL A   1      42.197  32.183  30.237  1.00  0.00     0.031 C 
ATOM     48  C   UNL A   1      46.314  30.790  27.705  1.00  0.00     0.029 A 
ATOM     49  N   UNL A   1      44.650  29.301  27.857  1.00  0.00    -0.354 N 
ATOM     50  C   UNL A   1      41.013  30.240  30.000  1.00  0.00     0.074 A 
ATOM     51  C   UNL A   1      41.073  31.566  30.575  1.00  0.00     0.031 C 
ATOM     52  C   UNL A   1      46.716  29.669  27.083  1.00  0.00     0.029 A 
ATOM     53  C   UNL A   1      45.668  28.657  27.193  1.00  0.00     0.049 A 
ATOM     54  H   UNL A   1      43.777  28.885  28.038  1.00  0.00     0.167 HD
ATOM     55  C   UNL A   1      39.959  29.401  30.128  1.00  0.00     0.034 A 
ATOM     56  C   UNL A   1      45.750  27.387  26.747  1.00  0.00     0.034 A 
ATOM     57  C   UNL A   1      39.891  28.095  29.531  1.00  0.00     0.049 A 
ATOM     58  C   UNL A   1      44.561  26.477  26.906  1.00  0.00     0.074 A 
ATOM     59  C   UNL A   1      38.839  27.198  29.545  1.00  0.00     0.029 A 
ATOM     60  N   UNL A   1      40.922  27.492  28.828  1.00  0.00    -0.354 N 
ATOM     61  N   UNL A   1      43.390  26.731  27.437  1.00  0.00    -0.248 NA
ATOM     62  C   UNL A   1      44.693  25.113  26.372  1.00  0.00     0.031 C 
ATOM     63  C   UNL A   1      39.248  26.035  28.885  1.00  0.00     0.029 A 
ATOM     64  C   UNL A   1      40.540  26.226  28.422  1.00  0.00     0.049 A 
ATOM     65  H   UNL A   1      41.797  27.904  28.644  1.00  0.00     0.167 HD
ATOM     66  C   UNL A   1      42.636  25.574  27.271  1.00  0.00     0.074 A 
ATOM     67  C   UNL A   1      43.474  24.628  26.565  1.00  0.00     0.031 C 
ATOM     68  C   UNL A   1      41.369  25.311  27.679  1.00  0.00     0.034 A 
BRANCH  55  69
ATOM     69  C   UNL A   1      38.776  29.869  30.936  1.00  0.00     0.023 A 
ATOM     70  C   UNL A   1      38.613  29.427  32.264  1.00  0.00     0.012 A 
ATOM     71  C   UNL A   1      37.875  30.812  30.404  1.00  0.00     0.148 A 
ATOM     72  C   UNL A   1      37.556  29.897  33.043  1.00  0.00     0.002 A 
ATOM     73  C   UNL A   1      36.851  31.310  31.201  1.00  0.00     0.091 A 
ATOM     74  F   UNL A   1      38.037  31.203  29.132  1.00  0.00    -0.205 F 
ATOM     75  C   UNL A   1      36.684  30.847  32.516  1.00  0.00     0.022 A 
BRANCH  73  76
ATOM     76  S   UNL A   1      35.725  32.594  30.643  1.00  0.00     0.127 S 
ATOM     77  O   UNL A   1      34.843  31.844  29.749  1.00  0.00    -0.237 OA
ATOM     78  O   UNL A   1      35.103  33.020  31.897  1.00  0.00    -0.237 OA
ATOM     79  O   UNL A   1      36.551  33.604  29.997  1.00  0.00    -0.744 OA
ENDBRANCH  73  76
ENDBRANCH  55  69
BRANCH  56  80
ATOM     80  C   UNL A   1      46.999  26.906  26.091  1.00  0.00     0.023 A 
ATOM     81  C   UNL A   1      47.133  26.986  24.691  1.00  0.00     0.012 A 
ATOM     82  C   UNL A   1      48.053  26.365  26.853  1.00  0.00     0.148 A 
ATOM     83  C   UNL A   1      48.278  26.499  24.060  1.00  0.00     0.002 A 
ATOM     84  C   UNL A   1      49.215  25.937  26.223  1.00  0.00     0.091 A 
ATOM     85  F   UNL A   1      47.898  26.281  28.181  1.00  0.00    -0.205 F 
ATOM     86  C   UNL A   1      49.323  25.985  24.825  1.00  0.00     0.022 A 
BRANCH  84  87
ATOM     87  S   UNL A   1      50.656  25.382  27.140  1.00  0.00     0.127 S 
ATOM     88  O   UNL A   1      50.989  26.570  27.920  1.00  0.00    -0.237 OA
ATOM     89  O   UNL A   1      50.110  24.268  27.914  1.00  0.00    -0.237 OA
ATOM     90  O   UNL A   1      51.632  24.989  26.132  1.00  0.00    -0.744 OA
ENDBRANCH  84  87
ENDBRANCH  56  80
BRANCH  68  91
ATOM     91  C   UNL A   1      40.792  23.960  27.345  1.00  0.00     0.023 A 
ATOM     92  C   UNL A   1      41.349  22.797  27.912  1.00  0.00     0.012 A 
ATOM     93  C   UNL A   1      39.653  23.849  26.522  1.00  0.00     0.148 A 
ATOM     94  C   UNL A   1      40.807  21.543  27.636  1.00  0.00     0.002 A 
ATOM     95  C   UNL A   1      39.086  22.602  26.293  1.00  0.00     0.091 A 
ATOM     96  F   UNL A   1      39.146  24.964  25.979  1.00  0.00    -0.205 F 
ATOM     97  C   UNL A   1      39.670  21.446  26.837  1.00  0.00     0.022 A 
BRANCH  95  98
ATOM     98  S   UNL A   1      37.566  22.390  25.361  1.00  0.00     0.127 S 
ATOM     99  O   UNL A   1      37.899  21.256  24.501  1.00  0.00    -0.237 OA
ATOM    100  O   UNL A   1      36.594  22.094  26.414  1.00  0.00    -0.237 OA
ATOM    101  O   UNL A   1      37.339  23.653  24.669  1.00  0.00    -0.744 OA
ENDBRANCH  95  98
ENDBRANCH  68  91
ENDBRANCH  42  43
ENDBRANCH  35  37
ENDBRANCH  34  35
ENDBRANCH  33  34
ENDBRANCH  32  33
ENDBRANCH   1  32
TORSDOF 21
ENDMDL
