MODEL 1
REMARK VINA RESULT:     -11.3      0.000      0.000
REMARK SMILES O=C(OCCOCCOC(=O)c1ccc(S(=O)(=O)NCc2ccn[nH]2)c(F)c1)c1ccc(-c2c3nc(c(-c4cccc(S(=O)(=O)[O-])c4F)c4ccc([nH]4)c(-c4cccc(S(=O)(=O)[O-])c4F)c4nc(c(-c5cccc(S(=O)(=O)[O-])c5F)c5ccc2[nH]5)C=C4)C=C3)cc1
REMARK SMILES IDX 7 1 6 2 5 3 4 4 3 5 2 6 1 7 29 8 30 9 91 10 31 11 90 12
REMARK SMILES IDX 32 13 33 14 34 15 84 16 35 17 89 18 83 19 85 20 36 21 88 22
REMARK SMILES IDX 82 23 81 24 37 26 69 27 49 28 68 29 50 30 53 31 67 32 86 33
REMARK SMILES IDX 51 34 52 35 66 37 87 38 54 39 38 40 39 41 47 42 40 43 42 44
REMARK SMILES IDX 48 45 41 46 43 47 44 48 45 49 46 50 70 51 71 52 79 53 72 54
REMARK SMILES IDX 74 55 80 56 73 57 75 58 76 59 77 60 78 61 55 62 56 63 64 64
REMARK SMILES IDX 57 65 59 66 65 67 58 68 60 69 61 70 62 71 63 72 8 73 9 74
REMARK SMILES IDX 10 75 11 76 12 77 13 78 28 79 14 80 26 81 15 82 27 83 16 84
REMARK SMILES IDX 17 85 18 86 19 87 20 89 21 90 22 91 25 92 23 93 24 94
REMARK H PARENT 85 25 53 36 19 88 25 95
REMARK Flexibility Score: inf
ROOT
ATOM      1  C   UNL A   1      31.160  27.180  24.713  1.00  0.00     0.202 C 
ENDROOT
BRANCH   1   2
ATOM      2  O   UNL A   1      31.066  28.315  25.583  1.00  0.00    -0.374 OA
BRANCH   2   3
ATOM      3  C   UNL A   1      31.511  29.555  25.038  1.00  0.00     0.202 C 
BRANCH   3   4
ATOM      4  C   UNL A   1      32.824  30.076  25.632  1.00  0.00     0.261 C 
BRANCH   4   5
ATOM      5  O   UNL A   1      32.553  31.054  26.651  1.00  0.00    -0.460 OA
BRANCH   5   6
ATOM      6  C   UNL A   1      33.427  31.841  27.323  1.00  0.00     0.338 C 
ATOM      7  O   UNL A   1      33.133  33.022  27.499  1.00  0.00    -0.246 OA
BRANCH   6   8
ATOM      8  C   UNL A   1      34.718  31.344  27.886  1.00  0.00     0.060 A 
ATOM      9  C   UNL A   1      34.973  30.017  28.232  1.00  0.00     0.016 A 
ATOM     10  C   UNL A   1      35.770  32.268  28.007  1.00  0.00     0.016 A 
ATOM     11  C   UNL A   1      36.182  29.630  28.788  1.00  0.00     0.010 A 
ATOM     12  C   UNL A   1      37.014  31.877  28.514  1.00  0.00     0.010 A 
ATOM     13  C   UNL A   1      37.205  30.559  28.942  1.00  0.00    -0.014 A 
BRANCH  13  14
ATOM     14  C   UNL A   1      38.411  30.121  29.669  1.00  0.00     0.031 A 
ATOM     15  C   UNL A   1      38.569  30.538  31.099  1.00  0.00     0.074 A 
ATOM     16  C   UNL A   1      39.247  29.240  29.090  1.00  0.00     0.049 A 
ATOM     17  N   UNL A   1      39.509  30.226  31.946  1.00  0.00    -0.248 NA
ATOM     18  C   UNL A   1      37.515  31.404  31.661  1.00  0.00     0.031 C 
ATOM     19  C   UNL A   1      39.102  28.714  27.730  1.00  0.00     0.029 A 
ATOM     20  N   UNL A   1      40.359  28.607  29.575  1.00  0.00    -0.354 N 
ATOM     21  C   UNL A   1      39.187  30.888  33.122  1.00  0.00     0.074 A 
ATOM     22  C   UNL A   1      37.959  31.612  32.892  1.00  0.00     0.031 C 
ATOM     23  C   UNL A   1      40.077  27.820  27.499  1.00  0.00     0.029 A 
ATOM     24  C   UNL A   1      40.946  27.754  28.668  1.00  0.00     0.049 A 
ATOM     25  H   UNL A   1      40.705  28.746  30.486  1.00  0.00     0.167 HD
ATOM     26  C   UNL A   1      39.860  30.880  34.294  1.00  0.00     0.034 A 
ATOM     27  C   UNL A   1      42.074  27.025  28.771  1.00  0.00     0.034 A 
ATOM     28  C   UNL A   1      41.063  30.129  34.505  1.00  0.00     0.049 A 
ATOM     29  C   UNL A   1      42.834  27.083  30.069  1.00  0.00     0.074 A 
ATOM     30  C   UNL A   1      41.846  30.064  35.639  1.00  0.00     0.029 A 
ATOM     31  N   UNL A   1      41.654  29.310  33.553  1.00  0.00    -0.354 N 
ATOM     32  N   UNL A   1      42.507  27.692  31.185  1.00  0.00    -0.248 NA
ATOM     33  C   UNL A   1      44.111  26.361  30.131  1.00  0.00     0.031 C 
ATOM     34  C   UNL A   1      42.930  29.225  35.364  1.00  0.00     0.029 A 
ATOM     35  C   UNL A   1      42.805  28.747  34.067  1.00  0.00     0.049 A 
ATOM     36  H   UNL A   1      41.305  29.154  32.645  1.00  0.00     0.167 HD
ATOM     37  C   UNL A   1      43.530  27.422  32.083  1.00  0.00     0.074 A 
ATOM     38  C   UNL A   1      44.473  26.566  31.391  1.00  0.00     0.031 C 
ATOM     39  C   UNL A   1      43.693  27.862  33.355  1.00  0.00     0.034 A 
BRANCH  26  40
ATOM     40  C   UNL A   1      39.317  31.716  35.418  1.00  0.00     0.023 A 
ATOM     41  C   UNL A   1      38.390  31.162  36.322  1.00  0.00     0.012 A 
ATOM     42  C   UNL A   1      39.757  33.042  35.598  1.00  0.00     0.148 A 
ATOM     43  C   UNL A   1      37.891  31.923  37.379  1.00  0.00     0.002 A 
ATOM     44  C   UNL A   1      39.283  33.782  36.673  1.00  0.00     0.091 A 
ATOM     45  F   UNL A   1      40.621  33.553  34.710  1.00  0.00    -0.205 F 
ATOM     46  C   UNL A   1      38.345  33.228  37.559  1.00  0.00     0.022 A 
BRANCH  44  47
ATOM     47  S   UNL A   1      39.843  35.452  37.027  1.00  0.00     0.127 S 
ATOM     48  O   UNL A   1      38.978  35.821  38.147  1.00  0.00    -0.237 OA
ATOM     49  O   UNL A   1      41.244  35.233  37.384  1.00  0.00    -0.237 OA
ATOM     50  O   UNL A   1      39.631  36.216  35.807  1.00  0.00    -0.744 OA
ENDBRANCH  44  47
ENDBRANCH  26  40
BRANCH  27  51
ATOM     51  C   UNL A   1      42.536  26.191  27.622  1.00  0.00     0.023 A 
ATOM     52  C   UNL A   1      43.495  26.700  26.725  1.00  0.00     0.012 A 
ATOM     53  C   UNL A   1      42.063  24.875  27.439  1.00  0.00     0.148 A 
ATOM     54  C   UNL A   1      43.961  25.920  25.664  1.00  0.00     0.002 A 
ATOM     55  C   UNL A   1      42.576  24.084  26.418  1.00  0.00     0.091 A 
ATOM     56  F   UNL A   1      41.128  24.413  28.282  1.00  0.00    -0.205 F 
ATOM     57  C   UNL A   1      43.515  24.610  25.519  1.00  0.00     0.022 A 
BRANCH  55  58
ATOM     58  S   UNL A   1      42.159  22.343  26.252  1.00  0.00     0.127 S 
ATOM     59  O   UNL A   1      42.714  21.784  27.482  1.00  0.00    -0.237 OA
ATOM     60  O   UNL A   1      40.697  22.384  26.199  1.00  0.00    -0.237 OA
ATOM     61  O   UNL A   1      42.790  21.908  25.014  1.00  0.00    -0.744 OA
ENDBRANCH  55  58
ENDBRANCH  27  51
BRANCH  39  62
ATOM     62  C   UNL A   1      44.935  27.438  34.089  1.00  0.00     0.023 A 
ATOM     63  C   UNL A   1      46.075  28.262  34.042  1.00  0.00     0.012 A 
ATOM     64  C   UNL A   1      44.912  26.324  34.948  1.00  0.00     0.148 A 
ATOM     65  C   UNL A   1      47.180  27.981  34.840  1.00  0.00     0.002 A 
ATOM     66  C   UNL A   1      45.997  26.078  35.778  1.00  0.00     0.091 A 
ATOM     67  F   UNL A   1      43.816  25.549  34.961  1.00  0.00    -0.205 F 
ATOM     68  C   UNL A   1      47.134  26.900  35.721  1.00  0.00     0.022 A 
BRANCH  66  69
ATOM     69  S   UNL A   1      45.982  24.786  37.026  1.00  0.00     0.127 S 
ATOM     70  O   UNL A   1      47.018  25.252  37.946  1.00  0.00    -0.237 OA
ATOM     71  O   UNL A   1      44.618  24.874  37.545  1.00  0.00    -0.237 OA
ATOM     72  O   UNL A   1      46.286  23.545  36.326  1.00  0.00    -0.744 OA
ENDBRANCH  66  69
ENDBRANCH  39  62
ENDBRANCH  13  14
ENDBRANCH   6   8
ENDBRANCH   5   6
ENDBRANCH   4   5
ENDBRANCH   3   4
ENDBRANCH   2   3
ENDBRANCH   1   2
BRANCH   1  73
ATOM     73  C   UNL A   1      31.763  27.609  23.374  1.00  0.00     0.261 C 
BRANCH  73  74
ATOM     74  O   UNL A   1      33.137  27.184  23.347  1.00  0.00    -0.460 OA
BRANCH  74  75
ATOM     75  C   UNL A   1      33.405  26.188  22.466  1.00  0.00     0.338 C 
ATOM     76  O   UNL A   1      33.631  26.283  21.272  1.00  0.00    -0.246 OA
BRANCH  75  77
ATOM     77  C   UNL A   1      33.598  24.937  23.231  1.00  0.00     0.063 A 
ATOM     78  C   UNL A   1      32.916  23.761  22.895  1.00  0.00     0.017 A 
ATOM     79  C   UNL A   1      34.438  24.968  24.353  1.00  0.00     0.056 A 
ATOM     80  C   UNL A   1      33.080  22.618  23.679  1.00  0.00     0.026 A 
ATOM     81  C   UNL A   1      34.593  23.825  25.132  1.00  0.00     0.144 A 
ATOM     82  C   UNL A   1      33.923  22.654  24.798  1.00  0.00     0.118 A 
ATOM     83  F   UNL A   1      35.381  23.887  26.213  1.00  0.00    -0.205 F 
BRANCH  82  84
ATOM     84  S   UNL A   1      34.208  21.169  25.702  1.00  0.00     0.243 S 
ATOM     85  O   UNL A   1      35.310  20.485  25.063  1.00  0.00    -0.207 OA
ATOM     86  O   UNL A   1      34.282  21.549  27.095  1.00  0.00    -0.207 OA
BRANCH  84  87
ATOM     87  N   UNL A   1      32.839  20.210  25.564  1.00  0.00    -0.205 NA
ATOM     88  H   UNL A   1      32.484  20.363  24.621  1.00  0.00     0.141 HD
BRANCH  87  89
ATOM     89  C   UNL A   1      32.855  18.768  25.755  1.00  0.00     0.154 C 
BRANCH  89  90
ATOM     90  C   UNL A   1      33.175  18.054  24.505  1.00  0.00     0.050 A 
ATOM     91  C   UNL A   1      34.280  17.328  24.118  1.00  0.00     0.046 A 
ATOM     92  N   UNL A   1      32.320  18.015  23.437  1.00  0.00    -0.281 N 
ATOM     93  C   UNL A   1      34.000  16.915  22.804  1.00  0.00     0.135 A 
ATOM     94  N   UNL A   1      32.820  17.363  22.372  1.00  0.00    -0.184 NA
ATOM     95  H   UNL A   1      31.425  18.424  23.447  1.00  0.00     0.190 HD
ENDBRANCH  89  90
ENDBRANCH  87  89
ENDBRANCH  84  87
ENDBRANCH  82  84
ENDBRANCH  75  77
ENDBRANCH  74  75
ENDBRANCH  73  74
ENDBRANCH   1  73
TORSDOF 21
ENDMDL
MODEL 2
REMARK VINA RESULT:     -11.3      1.505      7.648
REMARK SMILES O=C(OCCOCCOC(=O)c1ccc(S(=O)(=O)NCc2ccn[nH]2)c(F)c1)c1ccc(-c2c3nc(c(-c4cccc(S(=O)(=O)[O-])c4F)c4ccc([nH]4)c(-c4cccc(S(=O)(=O)[O-])c4F)c4nc(c(-c5cccc(S(=O)(=O)[O-])c5F)c5ccc2[nH]5)C=C4)C=C3)cc1
REMARK SMILES IDX 7 1 6 2 5 3 4 4 3 5 2 6 1 7 29 8 30 9 91 10 31 11 90 12
REMARK SMILES IDX 32 13 33 14 34 15 84 16 35 17 89 18 83 19 85 20 36 21 88 22
REMARK SMILES IDX 82 23 81 24 37 26 69 27 49 28 68 29 50 30 53 31 67 32 86 33
REMARK SMILES IDX 51 34 52 35 66 37 87 38 54 39 38 40 39 41 47 42 40 43 42 44
REMARK SMILES IDX 48 45 41 46 43 47 44 48 45 49 46 50 70 51 71 52 79 53 72 54
REMARK SMILES IDX 74 55 80 56 73 57 75 58 76 59 77 60 78 61 55 62 56 63 64 64
REMARK SMILES IDX 57 65 59 66 65 67 58 68 60 69 61 70 62 71 63 72 8 73 9 74
REMARK SMILES IDX 10 75 11 76 12 77 13 78 28 79 14 80 26 81 15 82 27 83 16 84
REMARK SMILES IDX 17 85 18 86 19 87 20 89 21 90 22 91 25 92 23 93 24 94
REMARK H PARENT 85 25 53 36 19 88 25 95
REMARK Flexibility Score: inf
ROOT
ATOM      1  C   UNL A   1      30.983  27.648  23.604  1.00  0.00     0.202 C 
ENDROOT
BRANCH   1   2
ATOM      2  O   UNL A   1      32.176  28.385  23.896  1.00  0.00    -0.374 OA
BRANCH   2   3
ATOM      3  C   UNL A   1      32.281  28.898  25.222  1.00  0.00     0.202 C 
BRANCH   3   4
ATOM      4  C   UNL A   1      31.757  30.328  25.393  1.00  0.00     0.261 C 
BRANCH   4   5
ATOM      5  O   UNL A   1      31.956  30.770  26.747  1.00  0.00    -0.460 OA
BRANCH   5   6
ATOM      6  C   UNL A   1      32.902  31.611  27.232  1.00  0.00     0.338 C 
ATOM      7  O   UNL A   1      32.702  32.822  27.153  1.00  0.00    -0.246 OA
BRANCH   6   8
ATOM      8  C   UNL A   1      34.162  31.144  27.883  1.00  0.00     0.060 A 
ATOM      9  C   UNL A   1      34.448  29.814  28.194  1.00  0.00     0.016 A 
ATOM     10  C   UNL A   1      35.156  32.105  28.134  1.00  0.00     0.016 A 
ATOM     11  C   UNL A   1      35.622  29.455  28.836  1.00  0.00     0.010 A 
ATOM     12  C   UNL A   1      36.370  31.744  28.730  1.00  0.00     0.010 A 
ATOM     13  C   UNL A   1      36.585  30.418  29.118  1.00  0.00    -0.014 A 
BRANCH  13  14
ATOM     14  C   UNL A   1      37.743  29.999  29.927  1.00  0.00     0.031 A 
ATOM     15  C   UNL A   1      38.786  29.138  29.282  1.00  0.00     0.074 A 
ATOM     16  C   UNL A   1      37.916  30.523  31.154  1.00  0.00     0.049 A 
ATOM     17  N   UNL A   1      39.909  28.700  29.777  1.00  0.00    -0.248 NA
ATOM     18  C   UNL A   1      38.545  28.732  27.885  1.00  0.00     0.031 C 
ATOM     19  C   UNL A   1      36.987  31.448  31.809  1.00  0.00     0.029 A 
ATOM     20  N   UNL A   1      38.938  30.385  32.053  1.00  0.00    -0.354 N 
ATOM     21  C   UNL A   1      40.488  27.936  28.774  1.00  0.00     0.074 A 
ATOM     22  C   UNL A   1      39.602  27.973  27.634  1.00  0.00     0.031 C 
ATOM     23  C   UNL A   1      37.495  31.811  32.998  1.00  0.00     0.029 A 
ATOM     24  C   UNL A   1      38.751  31.103  33.213  1.00  0.00     0.049 A 
ATOM     25  H   UNL A   1      39.732  29.827  31.887  1.00  0.00     0.167 HD
ATOM     26  C   UNL A   1      41.662  27.269  28.806  1.00  0.00     0.034 A 
ATOM     27  C   UNL A   1      39.504  31.155  34.329  1.00  0.00     0.034 A 
ATOM     28  C   UNL A   1      42.537  27.272  29.941  1.00  0.00     0.049 A 
ATOM     29  C   UNL A   1      40.778  30.354  34.357  1.00  0.00     0.074 A 
ATOM     30  C   UNL A   1      43.740  26.612  30.100  1.00  0.00     0.029 A 
ATOM     31  N   UNL A   1      42.298  27.972  31.115  1.00  0.00    -0.354 N 
ATOM     32  N   UNL A   1      41.329  29.655  33.392  1.00  0.00    -0.248 NA
ATOM     33  C   UNL A   1      41.537  30.345  35.613  1.00  0.00     0.031 C 
ATOM     34  C   UNL A   1      44.216  26.894  31.383  1.00  0.00     0.029 A 
ATOM     35  C   UNL A   1      43.323  27.749  32.013  1.00  0.00     0.049 A 
ATOM     36  H   UNL A   1      41.513  28.544  31.283  1.00  0.00     0.167 HD
ATOM     37  C   UNL A   1      42.500  29.128  33.920  1.00  0.00     0.074 A 
ATOM     38  C   UNL A   1      42.595  29.617  35.281  1.00  0.00     0.031 C 
ATOM     39  C   UNL A   1      43.400  28.294  33.345  1.00  0.00     0.034 A 
BRANCH  26  40
ATOM     40  C   UNL A   1      42.050  26.478  27.589  1.00  0.00     0.023 A 
ATOM     41  C   UNL A   1      42.697  27.116  26.512  1.00  0.00     0.012 A 
ATOM     42  C   UNL A   1      41.806  25.092  27.530  1.00  0.00     0.148 A 
ATOM     43  C   UNL A   1      43.077  26.389  25.385  1.00  0.00     0.002 A 
ATOM     44  C   UNL A   1      42.220  24.368  26.420  1.00  0.00     0.091 A 
ATOM     45  F   UNL A   1      41.168  24.514  28.558  1.00  0.00    -0.205 F 
ATOM     46  C   UNL A   1      42.847  25.016  25.343  1.00  0.00     0.022 A 
BRANCH  44  47
ATOM     47  S   UNL A   1      42.020  22.588  26.289  1.00  0.00     0.127 S 
ATOM     48  O   UNL A   1      40.563  22.454  26.296  1.00  0.00    -0.237 OA
ATOM     49  O   UNL A   1      42.652  22.305  25.001  1.00  0.00    -0.237 OA
ATOM     50  O   UNL A   1      42.697  22.019  27.445  1.00  0.00    -0.744 OA
ENDBRANCH  44  47
ENDBRANCH  26  40
BRANCH  27  51
ATOM     51  C   UNL A   1      39.071  31.989  35.488  1.00  0.00     0.023 A 
ATOM     52  C   UNL A   1      39.268  33.384  35.463  1.00  0.00     0.012 A 
ATOM     53  C   UNL A   1      38.419  31.413  36.599  1.00  0.00     0.148 A 
ATOM     54  C   UNL A   1      38.838  34.183  36.526  1.00  0.00     0.002 A 
ATOM     55  C   UNL A   1      37.940  32.220  37.624  1.00  0.00     0.091 A 
ATOM     56  F   UNL A   1      38.265  30.082  36.624  1.00  0.00    -0.205 F 
ATOM     57  C   UNL A   1      38.163  33.605  37.597  1.00  0.00     0.022 A 
BRANCH  55  58
ATOM     58  S   UNL A   1      36.936  31.571  38.966  1.00  0.00     0.127 S 
ATOM     59  O   UNL A   1      35.793  32.479  38.951  1.00  0.00    -0.237 OA
ATOM     60  O   UNL A   1      36.650  30.212  38.503  1.00  0.00    -0.237 OA
ATOM     61  O   UNL A   1      37.783  31.633  40.150  1.00  0.00    -0.744 OA
ENDBRANCH  55  58
ENDBRANCH  27  51
BRANCH  39  62
ATOM     62  C   UNL A   1      44.569  27.845  34.178  1.00  0.00     0.023 A 
ATOM     63  C   UNL A   1      45.717  28.655  34.244  1.00  0.00     0.012 A 
ATOM     64  C   UNL A   1      44.459  26.718  35.014  1.00  0.00     0.148 A 
ATOM     65  C   UNL A   1      46.745  28.349  35.131  1.00  0.00     0.002 A 
ATOM     66  C   UNL A   1      45.464  26.447  35.932  1.00  0.00     0.091 A 
ATOM     67  F   UNL A   1      43.358  25.956  34.919  1.00  0.00    -0.205 F 
ATOM     68  C   UNL A   1      46.611  27.256  35.987  1.00  0.00     0.022 A 
BRANCH  66  69
ATOM     69  S   UNL A   1      45.326  25.138  37.153  1.00  0.00     0.127 S 
ATOM     70  O   UNL A   1      44.017  25.419  37.743  1.00  0.00    -0.237 OA
ATOM     71  O   UNL A   1      45.377  23.934  36.324  1.00  0.00    -0.237 OA
ATOM     72  O   UNL A   1      46.460  25.304  38.053  1.00  0.00    -0.744 OA
ENDBRANCH  66  69
ENDBRANCH  39  62
ENDBRANCH  13  14
ENDBRANCH   6   8
ENDBRANCH   5   6
ENDBRANCH   4   5
ENDBRANCH   3   4
ENDBRANCH   2   3
ENDBRANCH   1   2
BRANCH   1  73
ATOM     73  C   UNL A   1      31.162  26.881  22.292  1.00  0.00     0.261 C 
BRANCH  73  74
ATOM     74  O   UNL A   1      32.570  26.664  22.091  1.00  0.00    -0.460 OA
BRANCH  74  75
ATOM     75  C   UNL A   1      32.886  25.465  21.543  1.00  0.00     0.338 C 
ATOM     76  O   UNL A   1      33.047  25.198  20.363  1.00  0.00    -0.246 OA
BRANCH  75  77
ATOM     77  C   UNL A   1      33.227  24.533  22.639  1.00  0.00     0.063 A 
ATOM     78  C   UNL A   1      32.712  23.232  22.681  1.00  0.00     0.017 A 
ATOM     79  C   UNL A   1      34.034  25.004  23.684  1.00  0.00     0.056 A 
ATOM     80  C   UNL A   1      33.010  22.404  23.764  1.00  0.00     0.026 A 
ATOM     81  C   UNL A   1      34.323  24.174  24.763  1.00  0.00     0.144 A 
ATOM     82  C   UNL A   1      33.820  22.880  24.804  1.00  0.00     0.118 A 
ATOM     83  F   UNL A   1      35.076  24.656  25.760  1.00  0.00    -0.205 F 
BRANCH  82  84
ATOM     84  S   UNL A   1      34.279  21.780  26.101  1.00  0.00     0.243 S 
ATOM     85  O   UNL A   1      35.725  21.735  26.130  1.00  0.00    -0.207 OA
ATOM     86  O   UNL A   1      33.530  22.191  27.268  1.00  0.00    -0.207 OA
BRANCH  84  87
ATOM     87  N   UNL A   1      33.711  20.252  25.709  1.00  0.00    -0.205 NA
ATOM     88  H   UNL A   1      32.721  20.368  25.496  1.00  0.00     0.141 HD
BRANCH  87  89
ATOM     89  C   UNL A   1      34.261  19.452  24.626  1.00  0.00     0.154 C 
BRANCH  89  90
ATOM     90  C   UNL A   1      33.838  18.043  24.718  1.00  0.00     0.050 A 
ATOM     91  C   UNL A   1      33.995  16.978  23.857  1.00  0.00     0.046 A 
ATOM     92  N   UNL A   1      33.151  17.545  25.792  1.00  0.00    -0.281 N 
ATOM     93  C   UNL A   1      33.355  15.901  24.493  1.00  0.00     0.135 A 
ATOM     94  N   UNL A   1      32.806  16.253  25.658  1.00  0.00    -0.184 NA
ATOM     95  H   UNL A   1      32.929  18.083  26.586  1.00  0.00     0.190 HD
ENDBRANCH  89  90
ENDBRANCH  87  89
ENDBRANCH  84  87
ENDBRANCH  82  84
ENDBRANCH  75  77
ENDBRANCH  74  75
ENDBRANCH  73  74
ENDBRANCH   1  73
TORSDOF 21
ENDMDL
MODEL 3
REMARK VINA RESULT:     -10.8      1.481      2.090
REMARK SMILES O=C(OCCOCCOC(=O)c1ccc(S(=O)(=O)NCc2ccn[nH]2)c(F)c1)c1ccc(-c2c3nc(c(-c4cccc(S(=O)(=O)[O-])c4F)c4ccc([nH]4)c(-c4cccc(S(=O)(=O)[O-])c4F)c4nc(c(-c5cccc(S(=O)(=O)[O-])c5F)c5ccc2[nH]5)C=C4)C=C3)cc1
REMARK SMILES IDX 7 1 6 2 5 3 4 4 3 5 2 6 1 7 29 8 30 9 91 10 31 11 90 12
REMARK SMILES IDX 32 13 33 14 34 15 84 16 35 17 89 18 83 19 85 20 36 21 88 22
REMARK SMILES IDX 82 23 81 24 37 26 69 27 49 28 68 29 50 30 53 31 67 32 86 33
REMARK SMILES IDX 51 34 52 35 66 37 87 38 54 39 38 40 39 41 47 42 40 43 42 44
REMARK SMILES IDX 48 45 41 46 43 47 44 48 45 49 46 50 70 51 71 52 79 53 72 54
REMARK SMILES IDX 74 55 80 56 73 57 75 58 76 59 77 60 78 61 55 62 56 63 64 64
REMARK SMILES IDX 57 65 59 66 65 67 58 68 60 69 61 70 62 71 63 72 8 73 9 74
REMARK SMILES IDX 10 75 11 76 12 77 13 78 28 79 14 80 26 81 15 82 27 83 16 84
REMARK SMILES IDX 17 85 18 86 19 87 20 89 21 90 22 91 25 92 23 93 24 94
REMARK H PARENT 85 25 53 36 19 88 25 95
REMARK Flexibility Score: inf
ROOT
ATOM      1  C   UNL A   1      31.332  26.889  25.024  1.00  0.00     0.202 C 
ENDROOT
BRANCH   1   2
ATOM      2  O   UNL A   1      31.284  28.044  25.870  1.00  0.00    -0.374 OA
BRANCH   2   3
ATOM      3  C   UNL A   1      31.566  29.291  25.237  1.00  0.00     0.202 C 
BRANCH   3   4
ATOM      4  C   UNL A   1      32.846  29.975  25.726  1.00  0.00     0.261 C 
BRANCH   4   5
ATOM      5  O   UNL A   1      32.529  30.980  26.705  1.00  0.00    -0.460 OA
BRANCH   5   6
ATOM      6  C   UNL A   1      33.373  31.761  27.421  1.00  0.00     0.338 C 
ATOM      7  O   UNL A   1      33.023  32.911  27.683  1.00  0.00    -0.246 OA
BRANCH   6   8
ATOM      8  C   UNL A   1      34.695  31.292  27.932  1.00  0.00     0.060 A 
ATOM      9  C   UNL A   1      34.990  29.971  28.273  1.00  0.00     0.016 A 
ATOM     10  C   UNL A   1      35.733  32.236  28.005  1.00  0.00     0.016 A 
ATOM     11  C   UNL A   1      36.228  29.611  28.780  1.00  0.00     0.010 A 
ATOM     12  C   UNL A   1      37.005  31.872  28.462  1.00  0.00     0.010 A 
ATOM     13  C   UNL A   1      37.239  30.560  28.887  1.00  0.00    -0.014 A 
BRANCH  13  14
ATOM     14  C   UNL A   1      38.482  30.149  29.565  1.00  0.00     0.031 A 
ATOM     15  C   UNL A   1      38.726  30.639  30.960  1.00  0.00     0.074 A 
ATOM     16  C   UNL A   1      39.277  29.231  28.987  1.00  0.00     0.049 A 
ATOM     17  N   UNL A   1      39.712  30.363  31.766  1.00  0.00    -0.248 NA
ATOM     18  C   UNL A   1      37.712  31.544  31.535  1.00  0.00     0.031 C 
ATOM     19  C   UNL A   1      39.049  28.635  27.668  1.00  0.00     0.029 A 
ATOM     20  N   UNL A   1      40.411  28.613  29.440  1.00  0.00    -0.354 N 
ATOM     21  C   UNL A   1      39.463  31.089  32.922  1.00  0.00     0.074 A 
ATOM     22  C   UNL A   1      38.229  31.812  32.725  1.00  0.00     0.031 C 
ATOM     23  C   UNL A   1      40.003  27.721  27.428  1.00  0.00     0.029 A 
ATOM     24  C   UNL A   1      40.938  27.708  28.547  1.00  0.00     0.049 A 
ATOM     25  H   UNL A   1      40.811  28.797  30.320  1.00  0.00     0.167 HD
ATOM     26  C   UNL A   1      40.203  31.136  34.051  1.00  0.00     0.034 A 
ATOM     27  C   UNL A   1      42.066  26.973  28.622  1.00  0.00     0.034 A 
ATOM     28  C   UNL A   1      41.411  30.385  34.232  1.00  0.00     0.049 A 
ATOM     29  C   UNL A   1      42.900  27.093  29.869  1.00  0.00     0.074 A 
ATOM     30  C   UNL A   1      42.259  30.373  35.322  1.00  0.00     0.029 A 
ATOM     31  N   UNL A   1      41.941  29.512  33.292  1.00  0.00    -0.354 N 
ATOM     32  N   UNL A   1      42.642  27.762  30.969  1.00  0.00    -0.248 NA
ATOM     33  C   UNL A   1      44.173  26.362  29.896  1.00  0.00     0.031 C 
ATOM     34  C   UNL A   1      43.319  29.509  35.029  1.00  0.00     0.029 A 
ATOM     35  C   UNL A   1      43.116  28.965  33.768  1.00  0.00     0.049 A 
ATOM     36  H   UNL A   1      41.538  29.312  32.416  1.00  0.00     0.167 HD
ATOM     37  C   UNL A   1      43.715  27.530  31.820  1.00  0.00     0.074 A 
ATOM     38  C   UNL A   1      44.610  26.630  31.120  1.00  0.00     0.031 C 
ATOM     39  C   UNL A   1      43.954  28.035  33.054  1.00  0.00     0.034 A 
BRANCH  26  40
ATOM     40  C   UNL A   1      39.732  32.035  35.159  1.00  0.00     0.023 A 
ATOM     41  C   UNL A   1      40.059  33.405  35.140  1.00  0.00     0.012 A 
ATOM     42  C   UNL A   1      38.933  31.526  36.200  1.00  0.00     0.148 A 
ATOM     43  C   UNL A   1      39.614  34.253  36.154  1.00  0.00     0.002 A 
ATOM     44  C   UNL A   1      38.463  32.383  37.187  1.00  0.00     0.091 A 
ATOM     45  F   UNL A   1      38.657  30.214  36.208  1.00  0.00    -0.205 F 
ATOM     46  C   UNL A   1      38.809  33.744  37.171  1.00  0.00     0.022 A 
BRANCH  44  47
ATOM     47  S   UNL A   1      37.377  31.839  38.511  1.00  0.00     0.127 S 
ATOM     48  O   UNL A   1      37.120  30.451  38.129  1.00  0.00    -0.237 OA
ATOM     49  O   UNL A   1      38.230  32.000  39.689  1.00  0.00    -0.237 OA
ATOM     50  O   UNL A   1      36.217  32.717  38.468  1.00  0.00    -0.744 OA
ENDBRANCH  44  47
ENDBRANCH  26  40
BRANCH  27  51
ATOM     51  C   UNL A   1      42.453  26.076  27.495  1.00  0.00     0.023 A 
ATOM     52  C   UNL A   1      43.343  26.536  26.505  1.00  0.00     0.012 A 
ATOM     53  C   UNL A   1      41.981  24.749  27.423  1.00  0.00     0.148 A 
ATOM     54  C   UNL A   1      43.742  25.698  25.461  1.00  0.00     0.002 A 
ATOM     55  C   UNL A   1      42.429  23.902  26.416  1.00  0.00     0.091 A 
ATOM     56  F   UNL A   1      41.111  24.333  28.354  1.00  0.00    -0.205 F 
ATOM     57  C   UNL A   1      43.298  24.379  25.424  1.00  0.00     0.022 A 
BRANCH  55  58
ATOM     58  S   UNL A   1      42.017  22.152  26.382  1.00  0.00     0.127 S 
ATOM     59  O   UNL A   1      42.873  21.665  25.302  1.00  0.00    -0.237 OA
ATOM     60  O   UNL A   1      42.411  21.720  27.723  1.00  0.00    -0.237 OA
ATOM     61  O   UNL A   1      40.584  22.095  26.132  1.00  0.00    -0.744 OA
ENDBRANCH  55  58
ENDBRANCH  27  51
BRANCH  39  62
ATOM     62  C   UNL A   1      45.234  27.638  33.736  1.00  0.00     0.023 A 
ATOM     63  C   UNL A   1      46.354  28.486  33.643  1.00  0.00     0.012 A 
ATOM     64  C   UNL A   1      45.270  26.524  34.596  1.00  0.00     0.148 A 
ATOM     65  C   UNL A   1      47.496  28.229  34.395  1.00  0.00     0.002 A 
ATOM     66  C   UNL A   1      46.393  26.302  35.380  1.00  0.00     0.091 A 
ATOM     67  F   UNL A   1      44.192  25.727  34.654  1.00  0.00    -0.205 F 
ATOM     68  C   UNL A   1      47.509  27.148  35.277  1.00  0.00     0.022 A 
BRANCH  66  69
ATOM     69  S   UNL A   1      46.456  25.012  36.628  1.00  0.00     0.127 S 
ATOM     70  O   UNL A   1      46.181  23.816  35.832  1.00  0.00    -0.237 OA
ATOM     71  O   UNL A   1      47.831  25.119  37.114  1.00  0.00    -0.237 OA
ATOM     72  O   UNL A   1      45.436  25.350  37.611  1.00  0.00    -0.744 OA
ENDBRANCH  66  69
ENDBRANCH  39  62
ENDBRANCH  13  14
ENDBRANCH   6   8
ENDBRANCH   5   6
ENDBRANCH   4   5
ENDBRANCH   3   4
ENDBRANCH   2   3
ENDBRANCH   1   2
BRANCH   1  73
ATOM     73  C   UNL A   1      31.596  27.321  23.581  1.00  0.00     0.261 C 
BRANCH  73  74
ATOM     74  O   UNL A   1      33.011  27.223  23.337  1.00  0.00    -0.460 OA
BRANCH  74  75
ATOM     75  C   UNL A   1      33.360  26.339  22.369  1.00  0.00     0.338 C 
ATOM     76  O   UNL A   1      33.436  26.535  21.167  1.00  0.00    -0.246 OA
BRANCH  75  77
ATOM     77  C   UNL A   1      33.856  25.110  23.025  1.00  0.00     0.063 A 
ATOM     78  C   UNL A   1      33.588  23.841  22.499  1.00  0.00     0.017 A 
ATOM     79  C   UNL A   1      34.555  25.239  24.233  1.00  0.00     0.056 A 
ATOM     80  C   UNL A   1      34.024  22.704  23.180  1.00  0.00     0.026 A 
ATOM     81  C   UNL A   1      34.983  24.100  24.909  1.00  0.00     0.144 A 
ATOM     82  C   UNL A   1      34.724  22.838  24.387  1.00  0.00     0.118 A 
ATOM     83  F   UNL A   1      35.626  24.248  26.074  1.00  0.00    -0.205 F 
BRANCH  82  84
ATOM     84  S   UNL A   1      35.367  21.396  25.168  1.00  0.00     0.243 S 
ATOM     85  O   UNL A   1      36.589  21.046  24.478  1.00  0.00    -0.207 OA
ATOM     86  O   UNL A   1      35.373  21.671  26.588  1.00  0.00    -0.207 OA
BRANCH  84  87
ATOM     87  N   UNL A   1      34.262  20.154  24.948  1.00  0.00    -0.205 NA
ATOM     88  H   UNL A   1      34.808  19.293  24.931  1.00  0.00     0.141 HD
BRANCH  87  89
ATOM     89  C   UNL A   1      33.153  19.906  25.856  1.00  0.00     0.154 C 
BRANCH  89  90
ATOM     90  C   UNL A   1      32.382  21.132  26.127  1.00  0.00     0.050 A 
ATOM     91  C   UNL A   1      31.439  21.809  25.383  1.00  0.00     0.046 A 
ATOM     92  N   UNL A   1      32.517  21.849  27.285  1.00  0.00    -0.281 N 
ATOM     93  C   UNL A   1      31.088  22.920  26.169  1.00  0.00     0.135 A 
ATOM     94  N   UNL A   1      31.771  22.968  27.315  1.00  0.00    -0.184 NA
ATOM     95  H   UNL A   1      33.104  21.573  28.025  1.00  0.00     0.190 HD
ENDBRANCH  89  90
ENDBRANCH  87  89
ENDBRANCH  84  87
ENDBRANCH  82  84
ENDBRANCH  75  77
ENDBRANCH  74  75
ENDBRANCH  73  74
ENDBRANCH   1  73
TORSDOF 21
ENDMDL
