MODEL 1
REMARK VINA RESULT:     -11.4      0.000      0.000
REMARK SMILES Cc1ccc(F)c(C(=O)N[C@@H]2C=C[C@@H](C(=O)OCCOCCOC(=O)c3ccc(-c4c5nc(c(-c6cccc(S(=O)(=O)[O-])c6F)c6ccc([nH]6)c(-c6cccc(S(=O)(=O)[O-])c6F)c6nc(c(-c7cccc(S(=O)(=O)[O-])c7F)c7ccc4[nH]7)C=C6)C=C5)cc3)C2)c1
REMARK SMILES IDX 21 1 20 2 19 3 18 4 17 5 15 6 16 7 14 8 11 9 12 10 89 11
REMARK SMILES IDX 13 12 10 13 8 14 9 15 7 17 1 18 2 19 3 20 90 21 4 22 5 23
REMARK SMILES IDX 6 24 22 25 23 26 24 27 25 28 26 29 27 30 88 31 28 32 87 33
REMARK SMILES IDX 29 34 30 35 31 36 81 37 32 38 86 39 80 40 82 41 33 42 85 43
REMARK SMILES IDX 79 44 78 45 34 47 66 48 46 49 65 50 47 51 50 52 64 53 83 54
REMARK SMILES IDX 48 55 49 56 63 58 84 59 51 60 35 61 36 62 44 63 37 64 39 65
REMARK SMILES IDX 45 66 38 67 40 68 41 69 42 70 43 71 67 72 68 73 76 74 69 75
REMARK SMILES IDX 71 76 77 77 70 78 72 79 73 80 74 81 75 82 52 83 53 84 61 85
REMARK SMILES IDX 54 86 56 87 62 88 55 89 57 90 58 91 59 92 60 93
REMARK H PARENT 10 16 82 46 50 57
REMARK Flexibility Score: inf
ROOT
ATOM      1  C   UNL A   1      31.536  30.230  25.897  1.00  0.00     0.202 C 
ENDROOT
BRANCH   1   2
ATOM      2  O   UNL A   1      31.475  29.747  24.553  1.00  0.00    -0.374 OA
BRANCH   2   3
ATOM      3  C   UNL A   1      30.240  29.911  23.852  1.00  0.00     0.202 C 
BRANCH   3   4
ATOM      4  C   UNL A   1      29.816  28.736  22.963  1.00  0.00     0.261 C 
BRANCH   4   5
ATOM      5  O   UNL A   1      30.351  27.488  23.433  1.00  0.00    -0.463 OA
BRANCH   5   6
ATOM      6  C   UNL A   1      29.478  26.679  24.088  1.00  0.00     0.312 C 
ATOM      7  O   UNL A   1      28.279  26.601  23.834  1.00  0.00    -0.252 OA
BRANCH   6   8
ATOM      8  C   UNL A   1      30.137  25.811  25.160  1.00  0.00     0.124 C 
ATOM      9  C   UNL A   1      31.863  24.045  25.316  1.00  0.00     0.106 C 
ATOM     10  C   UNL A   1      32.422  25.413  25.541  1.00  0.00    -0.006 C 
ATOM     11  C   UNL A   1      30.435  24.338  24.828  1.00  0.00     0.048 C 
ATOM     12  C   UNL A   1      31.489  26.367  25.482  1.00  0.00    -0.014 C 
BRANCH   9  13
ATOM     13  N   UNL A   1      31.976  23.335  26.577  1.00  0.00    -0.346 N 
ATOM     14  C   UNL A   1      33.007  22.672  27.194  1.00  0.00     0.254 C 
ATOM     15  O   UNL A   1      32.844  22.298  28.354  1.00  0.00    -0.269 OA
ATOM     16  H   UNL A   1      31.140  23.329  27.099  1.00  0.00     0.164 HD
BRANCH  14  17
ATOM     17  C   UNL A   1      34.274  22.359  26.503  1.00  0.00     0.075 A 
ATOM     18  C   UNL A   1      37.708  23.825  25.800  1.00  0.00     0.044 C 
ATOM     19  C   UNL A   1      36.544  22.882  25.810  1.00  0.00    -0.050 A 
ATOM     20  C   UNL A   1      36.623  21.659  25.135  1.00  0.00     0.006 A 
ATOM     21  C   UNL A   1      35.383  23.208  26.530  1.00  0.00     0.020 A 
ATOM     22  C   UNL A   1      35.539  20.786  25.150  1.00  0.00     0.040 A 
ATOM     23  C   UNL A   1      34.373  21.140  25.823  1.00  0.00     0.135 A 
ATOM     24  F   UNL A   1      33.340  20.286  25.771  1.00  0.00    -0.206 F 
ENDBRANCH  14  17
ENDBRANCH   9  13
ENDBRANCH   6   8
ENDBRANCH   5   6
ENDBRANCH   4   5
ENDBRANCH   3   4
ENDBRANCH   2   3
ENDBRANCH   1   2
BRANCH   1  25
ATOM     25  C   UNL A   1      32.916  30.679  26.390  1.00  0.00     0.261 C 
BRANCH  25  26
ATOM     26  O   UNL A   1      32.844  31.450  27.606  1.00  0.00    -0.460 OA
BRANCH  26  27
ATOM     27  C   UNL A   1      33.840  32.363  27.737  1.00  0.00     0.338 C 
ATOM     28  O   UNL A   1      33.735  33.576  27.669  1.00  0.00    -0.246 OA
BRANCH  27  29
ATOM     29  C   UNL A   1      35.117  31.705  28.064  1.00  0.00     0.060 A 
ATOM     30  C   UNL A   1      35.107  30.351  28.419  1.00  0.00     0.016 A 
ATOM     31  C   UNL A   1      36.284  32.459  28.191  1.00  0.00     0.016 A 
ATOM     32  C   UNL A   1      36.263  29.763  28.942  1.00  0.00     0.010 A 
ATOM     33  C   UNL A   1      37.442  31.865  28.700  1.00  0.00     0.010 A 
ATOM     34  C   UNL A   1      37.428  30.525  29.117  1.00  0.00    -0.014 A 
BRANCH  34  35
ATOM     35  C   UNL A   1      38.612  29.955  29.808  1.00  0.00     0.031 A 
ATOM     36  C   UNL A   1      38.997  30.454  31.177  1.00  0.00     0.074 A 
ATOM     37  C   UNL A   1      39.374  29.033  29.193  1.00  0.00     0.049 A 
ATOM     38  N   UNL A   1      39.987  30.076  31.943  1.00  0.00    -0.248 NA
ATOM     39  C   UNL A   1      38.168  31.526  31.753  1.00  0.00     0.031 C 
ATOM     40  C   UNL A   1      39.147  28.517  27.845  1.00  0.00     0.029 A 
ATOM     41  N   UNL A   1      40.513  28.393  29.613  1.00  0.00    -0.354 N 
ATOM     42  C   UNL A   1      39.918  30.873  33.079  1.00  0.00     0.074 A 
ATOM     43  C   UNL A   1      38.798  31.771  32.895  1.00  0.00     0.031 C 
ATOM     44  C   UNL A   1      40.133  27.657  27.536  1.00  0.00     0.029 A 
ATOM     45  C   UNL A   1      41.060  27.565  28.662  1.00  0.00     0.049 A 
ATOM     46  H   UNL A   1      40.901  28.515  30.510  1.00  0.00     0.167 HD
ATOM     47  C   UNL A   1      40.696  30.844  34.187  1.00  0.00     0.034 A 
ATOM     48  C   UNL A   1      42.184  26.821  28.693  1.00  0.00     0.034 A 
ATOM     49  C   UNL A   1      41.780  29.922  34.391  1.00  0.00     0.049 A 
ATOM     50  C   UNL A   1      43.011  26.779  29.950  1.00  0.00     0.074 A 
ATOM     51  C   UNL A   1      42.554  29.743  35.525  1.00  0.00     0.029 A 
ATOM     52  N   UNL A   1      42.254  29.033  33.439  1.00  0.00    -0.354 N 
ATOM     53  N   UNL A   1      42.810  27.393  31.089  1.00  0.00    -0.248 NA
ATOM     54  C   UNL A   1      44.197  25.910  29.939  1.00  0.00     0.031 C 
ATOM     55  C   UNL A   1      43.506  28.752  35.253  1.00  0.00     0.029 A 
ATOM     56  C   UNL A   1      43.319  28.313  33.953  1.00  0.00     0.049 A 
ATOM     57  H   UNL A   1      41.887  28.930  32.532  1.00  0.00     0.167 HD
ATOM     58  C   UNL A   1      43.822  26.962  31.941  1.00  0.00     0.074 A 
ATOM     59  C   UNL A   1      44.624  26.018  31.191  1.00  0.00     0.031 C 
ATOM     60  C   UNL A   1      44.075  27.330  33.221  1.00  0.00     0.034 A 
BRANCH  47  61
ATOM     61  C   UNL A   1      40.365  31.793  35.305  1.00  0.00     0.023 A 
ATOM     62  C   UNL A   1      41.101  32.988  35.432  1.00  0.00     0.012 A 
ATOM     63  C   UNL A   1      39.282  31.550  36.172  1.00  0.00     0.148 A 
ATOM     64  C   UNL A   1      40.776  33.920  36.415  1.00  0.00     0.002 A 
ATOM     65  C   UNL A   1      38.945  32.500  37.130  1.00  0.00     0.091 A 
ATOM     66  F   UNL A   1      38.611  30.396  36.052  1.00  0.00    -0.205 F 
ATOM     67  C   UNL A   1      39.693  33.682  37.256  1.00  0.00     0.022 A 
BRANCH  65  68
ATOM     68  S   UNL A   1      37.526  32.307  38.217  1.00  0.00     0.127 S 
ATOM     69  O   UNL A   1      37.995  32.967  39.434  1.00  0.00    -0.237 OA
ATOM     70  O   UNL A   1      36.479  33.031  37.495  1.00  0.00    -0.237 OA
ATOM     71  O   UNL A   1      37.301  30.872  38.325  1.00  0.00    -0.744 OA
ENDBRANCH  65  68
ENDBRANCH  47  61
BRANCH  48  72
ATOM     72  C   UNL A   1      42.551  25.995  27.510  1.00  0.00     0.023 A 
ATOM     73  C   UNL A   1      43.347  26.557  26.495  1.00  0.00     0.012 A 
ATOM     74  C   UNL A   1      42.150  24.650  27.405  1.00  0.00     0.148 A 
ATOM     75  C   UNL A   1      43.718  25.801  25.383  1.00  0.00     0.002 A 
ATOM     76  C   UNL A   1      42.568  23.887  26.320  1.00  0.00     0.091 A 
ATOM     77  F   UNL A   1      41.373  24.137  28.368  1.00  0.00    -0.205 F 
ATOM     78  C   UNL A   1      43.340  24.463  25.300  1.00  0.00     0.022 A 
BRANCH  76  79
ATOM     79  S   UNL A   1      42.231  22.125  26.226  1.00  0.00     0.127 S 
ATOM     80  O   UNL A   1      42.757  21.648  27.500  1.00  0.00    -0.237 OA
ATOM     81  O   UNL A   1      40.772  22.090  26.109  1.00  0.00    -0.237 OA
ATOM     82  O   UNL A   1      42.930  21.672  25.030  1.00  0.00    -0.744 OA
ENDBRANCH  76  79
ENDBRANCH  48  72
BRANCH  60  83
ATOM     83  C   UNL A   1      45.258  26.705  33.909  1.00  0.00     0.023 A 
ATOM     84  C   UNL A   1      46.514  27.339  33.839  1.00  0.00     0.012 A 
ATOM     85  C   UNL A   1      45.113  25.542  34.691  1.00  0.00     0.148 A 
ATOM     86  C   UNL A   1      47.614  26.812  34.516  1.00  0.00     0.002 A 
ATOM     87  C   UNL A   1      46.205  25.044  35.396  1.00  0.00     0.091 A 
ATOM     88  F   UNL A   1      43.916  24.938  34.728  1.00  0.00    -0.205 F 
ATOM     89  C   UNL A   1      47.457  25.673  35.303  1.00  0.00     0.022 A 
BRANCH  87  90
ATOM     90  S   UNL A   1      46.060  23.633  36.498  1.00  0.00     0.127 S 
ATOM     91  O   UNL A   1      47.427  23.502  36.998  1.00  0.00    -0.237 OA
ATOM     92  O   UNL A   1      45.091  24.103  37.490  1.00  0.00    -0.237 OA
ATOM     93  O   UNL A   1      45.580  22.535  35.668  1.00  0.00    -0.744 OA
ENDBRANCH  87  90
ENDBRANCH  60  83
ENDBRANCH  34  35
ENDBRANCH  27  29
ENDBRANCH  26  27
ENDBRANCH  25  26
ENDBRANCH   1  25
TORSDOF 19
ENDMDL
MODEL 2
REMARK VINA RESULT:     -11.1      1.479      2.000
REMARK SMILES Cc1ccc(F)c(C(=O)N[C@@H]2C=C[C@@H](C(=O)OCCOCCOC(=O)c3ccc(-c4c5nc(c(-c6cccc(S(=O)(=O)[O-])c6F)c6ccc([nH]6)c(-c6cccc(S(=O)(=O)[O-])c6F)c6nc(c(-c7cccc(S(=O)(=O)[O-])c7F)c7ccc4[nH]7)C=C6)C=C5)cc3)C2)c1
REMARK SMILES IDX 21 1 20 2 19 3 18 4 17 5 15 6 16 7 14 8 11 9 12 10 89 11
REMARK SMILES IDX 13 12 10 13 8 14 9 15 7 17 1 18 2 19 3 20 90 21 4 22 5 23
REMARK SMILES IDX 6 24 22 25 23 26 24 27 25 28 26 29 27 30 88 31 28 32 87 33
REMARK SMILES IDX 29 34 30 35 31 36 81 37 32 38 86 39 80 40 82 41 33 42 85 43
REMARK SMILES IDX 79 44 78 45 34 47 66 48 46 49 65 50 47 51 50 52 64 53 83 54
REMARK SMILES IDX 48 55 49 56 63 58 84 59 51 60 35 61 36 62 44 63 37 64 39 65
REMARK SMILES IDX 45 66 38 67 40 68 41 69 42 70 43 71 67 72 68 73 76 74 69 75
REMARK SMILES IDX 71 76 77 77 70 78 72 79 73 80 74 81 75 82 52 83 53 84 61 85
REMARK SMILES IDX 54 86 56 87 62 88 55 89 57 90 58 91 59 92 60 93
REMARK H PARENT 10 16 82 46 50 57
REMARK Flexibility Score: inf
ROOT
ATOM      1  C   UNL A   1      31.305  31.462  26.356  1.00  0.00     0.202 C 
ENDROOT
BRANCH   1   2
ATOM      2  O   UNL A   1      32.270  30.414  26.245  1.00  0.00    -0.374 OA
BRANCH   2   3
ATOM      3  C   UNL A   1      32.249  29.393  27.246  1.00  0.00     0.202 C 
BRANCH   3   4
ATOM      4  C   UNL A   1      31.560  28.082  26.848  1.00  0.00     0.261 C 
BRANCH   4   5
ATOM      5  O   UNL A   1      31.942  27.655  25.530  1.00  0.00    -0.463 OA
BRANCH   5   6
ATOM      6  C   UNL A   1      33.018  26.829  25.464  1.00  0.00     0.312 C 
ATOM      7  O   UNL A   1      34.055  26.987  26.101  1.00  0.00    -0.252 OA
BRANCH   6   8
ATOM      8  C   UNL A   1      32.808  25.625  24.544  1.00  0.00     0.124 C 
ATOM      9  C   UNL A   1      30.966  24.545  23.294  1.00  0.00     0.106 C 
ATOM     10  C   UNL A   1      31.724  25.529  22.461  1.00  0.00    -0.006 C 
ATOM     11  C   UNL A   1      31.520  24.798  24.705  1.00  0.00     0.048 C 
ATOM     12  C   UNL A   1      32.734  26.096  23.126  1.00  0.00    -0.014 C 
BRANCH   9  13
ATOM     13  N   UNL A   1      31.226  23.233  22.729  1.00  0.00    -0.346 N 
ATOM     14  C   UNL A   1      32.083  22.217  23.068  1.00  0.00     0.254 C 
ATOM     15  O   UNL A   1      31.965  21.140  22.485  1.00  0.00    -0.269 OA
ATOM     16  H   UNL A   1      30.673  23.030  21.940  1.00  0.00     0.164 HD
BRANCH  14  17
ATOM     17  C   UNL A   1      33.158  22.385  24.066  1.00  0.00     0.075 A 
ATOM     18  C   UNL A   1      33.834  22.010  27.786  1.00  0.00     0.044 C 
ATOM     19  C   UNL A   1      34.037  22.299  26.331  1.00  0.00    -0.050 A 
ATOM     20  C   UNL A   1      35.274  22.765  25.871  1.00  0.00     0.006 A 
ATOM     21  C   UNL A   1      32.995  22.069  25.417  1.00  0.00     0.020 A 
ATOM     22  C   UNL A   1      35.457  23.031  24.518  1.00  0.00     0.040 A 
ATOM     23  C   UNL A   1      34.402  22.849  23.626  1.00  0.00     0.135 A 
ATOM     24  F   UNL A   1      34.614  23.161  22.339  1.00  0.00    -0.206 F 
ENDBRANCH  14  17
ENDBRANCH   9  13
ENDBRANCH   6   8
ENDBRANCH   5   6
ENDBRANCH   4   5
ENDBRANCH   3   4
ENDBRANCH   2   3
ENDBRANCH   1   2
BRANCH   1  25
ATOM     25  C   UNL A   1      31.778  32.744  27.050  1.00  0.00     0.261 C 
BRANCH  25  26
ATOM     26  O   UNL A   1      33.191  32.972  26.885  1.00  0.00    -0.460 OA
BRANCH  26  27
ATOM     27  C   UNL A   1      33.803  33.452  27.999  1.00  0.00     0.338 C 
ATOM     28  O   UNL A   1      33.416  34.360  28.714  1.00  0.00    -0.246 OA
BRANCH  27  29
ATOM     29  C   UNL A   1      35.009  32.666  28.315  1.00  0.00     0.060 A 
ATOM     30  C   UNL A   1      34.858  31.360  28.793  1.00  0.00     0.016 A 
ATOM     31  C   UNL A   1      36.265  33.274  28.309  1.00  0.00     0.016 A 
ATOM     32  C   UNL A   1      35.966  30.675  29.303  1.00  0.00     0.010 A 
ATOM     33  C   UNL A   1      37.373  32.582  28.805  1.00  0.00     0.010 A 
ATOM     34  C   UNL A   1      37.223  31.295  29.343  1.00  0.00    -0.014 A 
BRANCH  34  35
ATOM     35  C   UNL A   1      38.372  30.640  30.018  1.00  0.00     0.031 A 
ATOM     36  C   UNL A   1      38.758  31.049  31.416  1.00  0.00     0.074 A 
ATOM     37  C   UNL A   1      39.104  29.719  29.365  1.00  0.00     0.049 A 
ATOM     38  N   UNL A   1      39.720  30.589  32.173  1.00  0.00    -0.248 NA
ATOM     39  C   UNL A   1      37.967  32.124  32.038  1.00  0.00     0.031 C 
ATOM     40  C   UNL A   1      38.875  29.284  27.988  1.00  0.00     0.029 A 
ATOM     41  N   UNL A   1      40.208  29.010  29.764  1.00  0.00    -0.354 N 
ATOM     42  C   UNL A   1      39.667  31.328  33.349  1.00  0.00     0.074 A 
ATOM     43  C   UNL A   1      38.589  32.281  33.199  1.00  0.00     0.031 C 
ATOM     44  C   UNL A   1      39.828  28.400  27.646  1.00  0.00     0.029 A 
ATOM     45  C   UNL A   1      40.734  28.210  28.777  1.00  0.00     0.049 A 
ATOM     46  H   UNL A   1      40.588  29.068  30.671  1.00  0.00     0.167 HD
ATOM     47  C   UNL A   1      40.428  31.207  34.463  1.00  0.00     0.034 A 
ATOM     48  C   UNL A   1      41.825  27.417  28.783  1.00  0.00     0.034 A 
ATOM     49  C   UNL A   1      41.469  30.230  34.632  1.00  0.00     0.049 A 
ATOM     50  C   UNL A   1      42.631  27.274  30.046  1.00  0.00     0.074 A 
ATOM     51  C   UNL A   1      42.218  29.959  35.764  1.00  0.00     0.029 A 
ATOM     52  N   UNL A   1      41.919  29.373  33.640  1.00  0.00    -0.354 N 
ATOM     53  N   UNL A   1      42.439  27.836  31.214  1.00  0.00    -0.248 NA
ATOM     54  C   UNL A   1      43.780  26.357  30.004  1.00  0.00     0.031 C 
ATOM     55  C   UNL A   1      43.131  28.944  35.452  1.00  0.00     0.029 A 
ATOM     56  C   UNL A   1      42.945  28.582  34.128  1.00  0.00     0.049 A 
ATOM     57  H   UNL A   1      41.561  29.334  32.724  1.00  0.00     0.167 HD
ATOM     58  C   UNL A   1      43.420  27.318  32.053  1.00  0.00     0.074 A 
ATOM     59  C   UNL A   1      44.192  26.381  31.265  1.00  0.00     0.031 C 
ATOM     60  C   UNL A   1      43.669  27.608  33.354  1.00  0.00     0.034 A 
BRANCH  47  61
ATOM     61  C   UNL A   1      40.120  32.110  35.626  1.00  0.00     0.023 A 
ATOM     62  C   UNL A   1      40.830  33.320  35.762  1.00  0.00     0.012 A 
ATOM     63  C   UNL A   1      39.082  31.809  36.529  1.00  0.00     0.148 A 
ATOM     64  C   UNL A   1      40.524  34.210  36.789  1.00  0.00     0.002 A 
ATOM     65  C   UNL A   1      38.762  32.718  37.532  1.00  0.00     0.091 A 
ATOM     66  F   UNL A   1      38.436  30.642  36.398  1.00  0.00    -0.205 F 
ATOM     67  C   UNL A   1      39.484  33.915  37.667  1.00  0.00     0.022 A 
BRANCH  65  68
ATOM     68  S   UNL A   1      37.397  32.452  38.670  1.00  0.00     0.127 S 
ATOM     69  O   UNL A   1      36.264  32.956  37.895  1.00  0.00    -0.237 OA
ATOM     70  O   UNL A   1      37.416  30.999  38.847  1.00  0.00    -0.237 OA
ATOM     71  O   UNL A   1      37.727  33.209  39.869  1.00  0.00    -0.744 OA
ENDBRANCH  65  68
ENDBRANCH  47  61
BRANCH  48  72
ATOM     72  C   UNL A   1      42.174  26.640  27.562  1.00  0.00     0.023 A 
ATOM     73  C   UNL A   1      42.842  27.281  26.502  1.00  0.00     0.012 A 
ATOM     74  C   UNL A   1      41.885  25.266  27.463  1.00  0.00     0.148 A 
ATOM     75  C   UNL A   1      43.194  26.572  25.353  1.00  0.00     0.002 A 
ATOM     76  C   UNL A   1      42.286  24.554  26.338  1.00  0.00     0.091 A 
ATOM     77  F   UNL A   1      41.228  24.677  28.472  1.00  0.00    -0.205 F 
ATOM     78  C   UNL A   1      42.928  25.207  25.275  1.00  0.00     0.022 A 
BRANCH  76  79
ATOM     79  S   UNL A   1      42.097  22.770  26.239  1.00  0.00     0.127 S 
ATOM     80  O   UNL A   1      40.646  22.619  26.256  1.00  0.00    -0.237 OA
ATOM     81  O   UNL A   1      42.735  22.458  24.959  1.00  0.00    -0.237 OA
ATOM     82  O   UNL A   1      42.813  22.252  27.398  1.00  0.00    -0.744 OA
ENDBRANCH  76  79
ENDBRANCH  48  72
BRANCH  60  83
ATOM     83  C   UNL A   1      44.815  26.897  34.023  1.00  0.00     0.023 A 
ATOM     84  C   UNL A   1      46.114  27.431  33.923  1.00  0.00     0.012 A 
ATOM     85  C   UNL A   1      44.597  25.754  34.817  1.00  0.00     0.148 A 
ATOM     86  C   UNL A   1      47.184  26.826  34.581  1.00  0.00     0.002 A 
ATOM     87  C   UNL A   1      45.661  25.177  35.503  1.00  0.00     0.091 A 
ATOM     88  F   UNL A   1      43.358  25.244  34.883  1.00  0.00    -0.205 F 
ATOM     89  C   UNL A   1      46.956  25.707  35.380  1.00  0.00     0.022 A 
BRANCH  87  90
ATOM     90  S   UNL A   1      45.431  23.788  36.619  1.00  0.00     0.127 S 
ATOM     91  O   UNL A   1      46.805  23.501  37.027  1.00  0.00    -0.237 OA
ATOM     92  O   UNL A   1      44.590  24.362  37.671  1.00  0.00    -0.237 OA
ATOM     93  O   UNL A   1      44.775  22.755  35.828  1.00  0.00    -0.744 OA
ENDBRANCH  87  90
ENDBRANCH  60  83
ENDBRANCH  34  35
ENDBRANCH  27  29
ENDBRANCH  26  27
ENDBRANCH  25  26
ENDBRANCH   1  25
TORSDOF 19
ENDMDL
MODEL 3
REMARK VINA RESULT:     -11.1      5.143      8.570
REMARK SMILES Cc1ccc(F)c(C(=O)N[C@@H]2C=C[C@@H](C(=O)OCCOCCOC(=O)c3ccc(-c4c5nc(c(-c6cccc(S(=O)(=O)[O-])c6F)c6ccc([nH]6)c(-c6cccc(S(=O)(=O)[O-])c6F)c6nc(c(-c7cccc(S(=O)(=O)[O-])c7F)c7ccc4[nH]7)C=C6)C=C5)cc3)C2)c1
REMARK SMILES IDX 21 1 20 2 19 3 18 4 17 5 15 6 16 7 14 8 11 9 12 10 89 11
REMARK SMILES IDX 13 12 10 13 8 14 9 15 7 17 1 18 2 19 3 20 90 21 4 22 5 23
REMARK SMILES IDX 6 24 22 25 23 26 24 27 25 28 26 29 27 30 88 31 28 32 87 33
REMARK SMILES IDX 29 34 30 35 31 36 81 37 32 38 86 39 80 40 82 41 33 42 85 43
REMARK SMILES IDX 79 44 78 45 34 47 66 48 46 49 65 50 47 51 50 52 64 53 83 54
REMARK SMILES IDX 48 55 49 56 63 58 84 59 51 60 35 61 36 62 44 63 37 64 39 65
REMARK SMILES IDX 45 66 38 67 40 68 41 69 42 70 43 71 67 72 68 73 76 74 69 75
REMARK SMILES IDX 71 76 77 77 70 78 72 79 73 80 74 81 75 82 52 83 53 84 61 85
REMARK SMILES IDX 54 86 56 87 62 88 55 89 57 90 58 91 59 92 60 93
REMARK H PARENT 10 16 82 46 50 57
REMARK Flexibility Score: inf
ROOT
ATOM      1  C   UNL A   1      37.334  20.134  24.743  1.00  0.00     0.202 C 
ENDROOT
BRANCH   1   2
ATOM      2  O   UNL A   1      36.977  21.177  25.652  1.00  0.00    -0.374 OA
BRANCH   2   3
ATOM      3  C   UNL A   1      36.541  22.416  25.090  1.00  0.00     0.202 C 
BRANCH   3   4
ATOM      4  C   UNL A   1      35.289  23.034  25.724  1.00  0.00     0.261 C 
BRANCH   4   5
ATOM      5  O   UNL A   1      34.283  22.044  25.994  1.00  0.00    -0.463 OA
BRANCH   5   6
ATOM      6  C   UNL A   1      33.318  22.408  26.879  1.00  0.00     0.312 C 
ATOM      7  O   UNL A   1      33.426  22.324  28.099  1.00  0.00    -0.252 OA
BRANCH   6   8
ATOM      8  C   UNL A   1      32.071  22.995  26.215  1.00  0.00     0.124 C 
ATOM      9  C   UNL A   1      31.480  24.275  24.182  1.00  0.00     0.106 C 
ATOM     10  C   UNL A   1      31.353  22.798  23.986  1.00  0.00    -0.006 C 
ATOM     11  C   UNL A   1      32.181  24.377  25.546  1.00  0.00     0.048 C 
ATOM     12  C   UNL A   1      31.647  22.105  25.089  1.00  0.00    -0.014 C 
BRANCH   9  13
ATOM     13  N   UNL A   1      30.138  24.823  24.108  1.00  0.00    -0.346 N 
ATOM     14  C   UNL A   1      29.643  26.102  24.116  1.00  0.00     0.254 C 
ATOM     15  O   UNL A   1      28.447  26.263  23.877  1.00  0.00    -0.269 OA
ATOM     16  H   UNL A   1      29.437  24.134  24.038  1.00  0.00     0.164 HD
BRANCH  14  17
ATOM     17  C   UNL A   1      30.480  27.275  24.441  1.00  0.00     0.075 A 
ATOM     18  C   UNL A   1      32.122  29.018  27.390  1.00  0.00     0.044 C 
ATOM     19  C   UNL A   1      31.684  28.706  25.993  1.00  0.00    -0.050 A 
ATOM     20  C   UNL A   1      32.050  29.548  24.936  1.00  0.00     0.006 A 
ATOM     21  C   UNL A   1      30.936  27.547  25.733  1.00  0.00     0.020 A 
ATOM     22  C   UNL A   1      31.642  29.252  23.638  1.00  0.00     0.040 A 
ATOM     23  C   UNL A   1      30.856  28.128  23.398  1.00  0.00     0.135 A 
ATOM     24  F   UNL A   1      30.451  27.910  22.139  1.00  0.00    -0.206 F 
ENDBRANCH  14  17
ENDBRANCH   9  13
ENDBRANCH   6   8
ENDBRANCH   5   6
ENDBRANCH   4   5
ENDBRANCH   3   4
ENDBRANCH   2   3
ENDBRANCH   1   2
BRANCH   1  25
ATOM     25  C   UNL A   1      38.538  19.273  25.142  1.00  0.00     0.261 C 
BRANCH  25  26
ATOM     26  O   UNL A   1      39.104  19.668  26.407  1.00  0.00    -0.460 OA
BRANCH  26  27
ATOM     27  C   UNL A   1      40.435  19.934  26.353  1.00  0.00     0.338 C 
ATOM     28  O   UNL A   1      41.310  19.208  25.913  1.00  0.00    -0.246 OA
BRANCH  27  29
ATOM     29  C   UNL A   1      40.718  21.297  26.836  1.00  0.00     0.060 A 
ATOM     30  C   UNL A   1      40.110  22.381  26.195  1.00  0.00     0.016 A 
ATOM     31  C   UNL A   1      41.710  21.510  27.795  1.00  0.00     0.016 A 
ATOM     32  C   UNL A   1      40.527  23.684  26.488  1.00  0.00     0.010 A 
ATOM     33  C   UNL A   1      42.114  22.813  28.096  1.00  0.00     0.010 A 
ATOM     34  C   UNL A   1      41.555  23.906  27.416  1.00  0.00    -0.014 A 
BRANCH  34  35
ATOM     35  C   UNL A   1      42.110  25.267  27.624  1.00  0.00     0.031 A 
ATOM     36  C   UNL A   1      41.281  26.320  28.312  1.00  0.00     0.074 A 
ATOM     37  C   UNL A   1      43.330  25.579  27.152  1.00  0.00     0.049 A 
ATOM     38  N   UNL A   1      41.592  27.559  28.595  1.00  0.00    -0.248 NA
ATOM     39  C   UNL A   1      39.921  25.934  28.726  1.00  0.00     0.031 C 
ATOM     40  C   UNL A   1      44.204  24.670  26.411  1.00  0.00     0.029 A 
ATOM     41  N   UNL A   1      44.030  26.758  27.198  1.00  0.00    -0.354 N 
ATOM     42  C   UNL A   1      40.466  28.108  29.196  1.00  0.00     0.074 A 
ATOM     43  C   UNL A   1      39.456  27.073  29.223  1.00  0.00     0.031 C 
ATOM     44  C   UNL A   1      45.315  25.334  26.047  1.00  0.00     0.029 A 
ATOM     45  C   UNL A   1      45.229  26.712  26.526  1.00  0.00     0.049 A 
ATOM     46  H   UNL A   1      43.705  27.561  27.666  1.00  0.00     0.167 HD
ATOM     47  C   UNL A   1      40.296  29.351  29.706  1.00  0.00     0.034 A 
ATOM     48  C   UNL A   1      46.151  27.673  26.316  1.00  0.00     0.034 A 
ATOM     49  C   UNL A   1      41.314  30.367  29.722  1.00  0.00     0.049 A 
ATOM     50  C   UNL A   1      45.953  29.036  26.925  1.00  0.00     0.074 A 
ATOM     51  C   UNL A   1      41.271  31.617  30.314  1.00  0.00     0.029 A 
ATOM     52  N   UNL A   1      42.552  30.257  29.109  1.00  0.00    -0.354 N 
ATOM     53  N   UNL A   1      44.964  29.472  27.665  1.00  0.00    -0.248 NA
ATOM     54  C   UNL A   1      47.017  30.027  26.703  1.00  0.00     0.031 C 
ATOM     55  C   UNL A   1      42.481  32.269  30.048  1.00  0.00     0.029 A 
ATOM     56  C   UNL A   1      43.277  31.422  29.295  1.00  0.00     0.049 A 
ATOM     57  H   UNL A   1      42.868  29.467  28.614  1.00  0.00     0.167 HD
ATOM     58  C   UNL A   1      45.299  30.774  28.024  1.00  0.00     0.074 A 
ATOM     59  C   UNL A   1      46.594  31.048  27.437  1.00  0.00     0.031 C 
ATOM     60  C   UNL A   1      44.590  31.666  28.758  1.00  0.00     0.034 A 
BRANCH  47  61
ATOM     61  C   UNL A   1      38.978  29.670  30.356  1.00  0.00     0.023 A 
ATOM     62  C   UNL A   1      38.731  29.214  31.667  1.00  0.00     0.012 A 
ATOM     63  C   UNL A   1      38.025  30.484  29.714  1.00  0.00     0.148 A 
ATOM     64  C   UNL A   1      37.549  29.549  32.323  1.00  0.00     0.002 A 
ATOM     65  C   UNL A   1      36.861  30.839  30.388  1.00  0.00     0.091 A 
ATOM     66  F   UNL A   1      38.267  30.886  28.458  1.00  0.00    -0.205 F 
ATOM     67  C   UNL A   1      36.620  30.369  31.689  1.00  0.00     0.022 A 
BRANCH  65  68
ATOM     68  S   UNL A   1      35.636  31.943  29.674  1.00  0.00     0.127 S 
ATOM     69  O   UNL A   1      35.062  31.107  28.622  1.00  0.00    -0.237 OA
ATOM     70  O   UNL A   1      34.745  32.195  30.808  1.00  0.00    -0.237 OA
ATOM     71  O   UNL A   1      36.375  33.113  29.218  1.00  0.00    -0.744 OA
ENDBRANCH  65  68
ENDBRANCH  47  61
BRANCH  48  72
ATOM     72  C   UNL A   1      47.384  27.353  25.548  1.00  0.00     0.023 A 
ATOM     73  C   UNL A   1      48.424  26.640  26.174  1.00  0.00     0.012 A 
ATOM     74  C   UNL A   1      47.516  27.715  24.193  1.00  0.00     0.148 A 
ATOM     75  C   UNL A   1      49.584  26.314  25.471  1.00  0.00     0.002 A 
ATOM     76  C   UNL A   1      48.653  27.341  23.485  1.00  0.00     0.091 A 
ATOM     77  F   UNL A   1      46.528  28.414  23.619  1.00  0.00    -0.205 F 
ATOM     78  C   UNL A   1      49.695  26.652  24.125  1.00  0.00     0.022 A 
BRANCH  76  79
ATOM     79  S   UNL A   1      48.794  27.625  21.717  1.00  0.00     0.127 S 
ATOM     80  O   UNL A   1      47.397  27.772  21.323  1.00  0.00    -0.237 OA
ATOM     81  O   UNL A   1      49.584  28.855  21.659  1.00  0.00    -0.237 OA
ATOM     82  O   UNL A   1      49.488  26.451  21.202  1.00  0.00    -0.744 OA
ENDBRANCH  76  79
ENDBRANCH  48  72
BRANCH  60  83
ATOM     83  C   UNL A   1      45.196  33.024  28.988  1.00  0.00     0.023 A 
ATOM     84  C   UNL A   1      45.984  33.245  30.134  1.00  0.00     0.012 A 
ATOM     85  C   UNL A   1      45.059  34.052  28.035  1.00  0.00     0.148 A 
ATOM     86  C   UNL A   1      46.605  34.476  30.342  1.00  0.00     0.002 A 
ATOM     87  C   UNL A   1      45.713  35.265  28.228  1.00  0.00     0.091 A 
ATOM     88  F   UNL A   1      44.286  33.833  26.960  1.00  0.00    -0.205 F 
ATOM     89  C   UNL A   1      46.480  35.481  29.385  1.00  0.00     0.022 A 
BRANCH  87  90
ATOM     90  S   UNL A   1      45.670  36.574  26.999  1.00  0.00     0.127 S 
ATOM     91  O   UNL A   1      44.243  36.884  26.942  1.00  0.00    -0.237 OA
ATOM     92  O   UNL A   1      46.495  37.614  27.613  1.00  0.00    -0.237 OA
ATOM     93  O   UNL A   1      46.241  35.994  25.790  1.00  0.00    -0.744 OA
ENDBRANCH  87  90
ENDBRANCH  60  83
ENDBRANCH  34  35
ENDBRANCH  27  29
ENDBRANCH  26  27
ENDBRANCH  25  26
ENDBRANCH   1  25
TORSDOF 19
ENDMDL
