MODEL 1
REMARK VINA RESULT:     -10.5      0.000      0.000
REMARK SMILES O=C(/C=C/c1cccs1)NCC(=O)OCCOCCOC(=O)c1ccc(-c2c3nc(c(-c4cccc(S(=O)(=O)[O-])c4F)c4ccc([nH]4)c(-c4cccc(S(=O)(=O)[O-])c4F)c4nc(c(-c5cccc(S(=O)(=O)[O-])c5F)c5ccc2[nH]5)C=C4)C=C3)cc1
REMARK SMILES IDX 17 1 16 2 15 3 14 4 12 5 13 6 11 7 10 8 1 9 2 10 3 12 4 13
REMARK SMILES IDX 5 14 6 15 9 16 7 17 8 18 18 19 19 20 20 21 21 22 22 23 23 24
REMARK SMILES IDX 24 25 85 26 25 27 84 28 26 29 27 30 28 31 78 32 29 33 83 34
REMARK SMILES IDX 77 35 79 36 30 37 82 38 76 39 75 40 31 42 63 43 43 44 62 45
REMARK SMILES IDX 44 46 47 47 61 48 80 49 45 50 46 51 60 53 81 54 48 55 32 56
REMARK SMILES IDX 33 57 41 58 34 59 36 60 42 61 35 62 37 63 38 64 39 65 40 66
REMARK SMILES IDX 64 67 65 68 73 69 66 70 68 71 74 72 67 73 69 74 70 75 71 76
REMARK SMILES IDX 72 77 49 78 50 79 58 80 51 81 53 82 59 83 52 84 54 85 55 86
REMARK SMILES IDX 56 87 57 88
REMARK H PARENT 10 11 79 41 47 52
REMARK Flexibility Score: inf
ROOT
ATOM      1  O   UNL A   1      31.389  29.420  25.588  1.00  0.00    -0.374 OA
ENDROOT
BRANCH   1   2
ATOM      2  C   UNL A   1      32.442  28.869  24.792  1.00  0.00     0.202 C 
BRANCH   2   3
ATOM      3  C   UNL A   1      32.217  28.887  23.278  1.00  0.00     0.261 C 
BRANCH   3   4
ATOM      4  O   UNL A   1      30.818  28.752  22.974  1.00  0.00    -0.462 OA
BRANCH   4   5
ATOM      5  C   UNL A   1      30.334  27.481  23.009  1.00  0.00     0.325 C 
ATOM      6  O   UNL A   1      29.331  27.125  23.619  1.00  0.00    -0.250 OA
BRANCH   5   7
ATOM      7  C   UNL A   1      31.078  26.553  22.054  1.00  0.00     0.239 C 
BRANCH   7   8
ATOM      8  N   UNL A   1      31.930  25.519  22.631  1.00  0.00    -0.342 N 
ATOM      9  O   UNL A   1      33.803  26.203  21.520  1.00  0.00    -0.270 OA
ATOM     10  C   UNL A   1      33.266  25.477  22.350  1.00  0.00     0.244 C 
ATOM     11  H   UNL A   1      31.537  24.844  23.231  1.00  0.00     0.164 HD
BRANCH  10  12
ATOM     12  C   UNL A   1      34.115  24.570  23.162  1.00  0.00     0.072 C 
ATOM     13  C   UNL A   1      34.385  23.273  22.948  1.00  0.00     0.024 C 
BRANCH  13  14
ATOM     14  C   UNL A   1      35.117  22.519  23.916  1.00  0.00     0.027 A 
ATOM     15  C   UNL A   1      34.722  21.436  24.689  1.00  0.00     0.020 A 
ATOM     16  S   UNL A   1      36.769  22.898  24.227  1.00  0.00    -0.144 S 
ATOM     17  C   UNL A   1      35.750  20.951  25.547  1.00  0.00     0.012 A 
ATOM     18  C   UNL A   1      36.913  21.671  25.408  1.00  0.00     0.065 A 
ENDBRANCH  13  14
ENDBRANCH  10  12
ENDBRANCH   7   8
ENDBRANCH   5   7
ENDBRANCH   4   5
ENDBRANCH   3   4
ENDBRANCH   2   3
ENDBRANCH   1   2
BRANCH   1  19
ATOM     19  C   UNL A   1      31.025  30.780  25.361  1.00  0.00     0.202 C 
BRANCH  19  20
ATOM     20  C   UNL A   1      31.423  31.797  26.440  1.00  0.00     0.261 C 
BRANCH  20  21
ATOM     21  O   UNL A   1      32.565  31.384  27.211  1.00  0.00    -0.460 OA
BRANCH  21  22
ATOM     22  C   UNL A   1      33.368  32.408  27.598  1.00  0.00     0.338 C 
ATOM     23  O   UNL A   1      33.020  33.560  27.830  1.00  0.00    -0.246 OA
BRANCH  22  24
ATOM     24  C   UNL A   1      34.739  31.944  27.885  1.00  0.00     0.060 A 
ATOM     25  C   UNL A   1      34.901  30.581  28.161  1.00  0.00     0.016 A 
ATOM     26  C   UNL A   1      35.817  32.823  28.004  1.00  0.00     0.016 A 
ATOM     27  C   UNL A   1      36.124  30.102  28.626  1.00  0.00     0.010 A 
ATOM     28  C   UNL A   1      37.048  32.338  28.474  1.00  0.00     0.010 A 
ATOM     29  C   UNL A   1      37.192  30.985  28.833  1.00  0.00    -0.014 A 
BRANCH  29  30
ATOM     30  C   UNL A   1      38.390  30.497  29.562  1.00  0.00     0.031 A 
ATOM     31  C   UNL A   1      38.615  30.932  30.987  1.00  0.00     0.074 A 
ATOM     32  C   UNL A   1      39.238  29.624  28.987  1.00  0.00     0.049 A 
ATOM     33  N   UNL A   1      39.537  30.550  31.833  1.00  0.00    -0.248 NA
ATOM     34  C   UNL A   1      37.677  31.927  31.531  1.00  0.00     0.031 C 
ATOM     35  C   UNL A   1      39.138  29.130  27.615  1.00  0.00     0.029 A 
ATOM     36  N   UNL A   1      40.355  29.004  29.489  1.00  0.00    -0.354 N 
ATOM     37  C   UNL A   1      39.301  31.265  33.001  1.00  0.00     0.074 A 
ATOM     38  C   UNL A   1      38.163  32.122  32.749  1.00  0.00     0.031 C 
ATOM     39  C   UNL A   1      40.162  28.291  27.379  1.00  0.00     0.029 A 
ATOM     40  C   UNL A   1      40.990  28.192  28.580  1.00  0.00     0.049 A 
ATOM     41  H   UNL A   1      40.672  29.129  30.413  1.00  0.00     0.167 HD
ATOM     42  C   UNL A   1      39.955  31.200  34.185  1.00  0.00     0.034 A 
ATOM     43  C   UNL A   1      42.111  27.452  28.701  1.00  0.00     0.034 A 
ATOM     44  C   UNL A   1      41.071  30.332  34.449  1.00  0.00     0.049 A 
ATOM     45  C   UNL A   1      42.816  27.391  30.032  1.00  0.00     0.074 A 
ATOM     46  C   UNL A   1      41.772  30.165  35.630  1.00  0.00     0.029 A 
ATOM     47  N   UNL A   1      41.655  29.488  33.517  1.00  0.00    -0.354 N 
ATOM     48  N   UNL A   1      42.496  27.969  31.164  1.00  0.00    -0.248 NA
ATOM     49  C   UNL A   1      44.013  26.539  30.112  1.00  0.00     0.031 C 
ATOM     50  C   UNL A   1      42.789  29.230  35.409  1.00  0.00     0.029 A 
ATOM     51  C   UNL A   1      42.709  28.801  34.093  1.00  0.00     0.049 A 
ATOM     52  H   UNL A   1      41.363  29.393  32.582  1.00  0.00     0.167 HD
ATOM     53  C   UNL A   1      43.424  27.520  32.098  1.00  0.00     0.074 A 
ATOM     54  C   UNL A   1      44.308  26.607  31.404  1.00  0.00     0.031 C 
ATOM     55  C   UNL A   1      43.543  27.846  33.410  1.00  0.00     0.034 A 
BRANCH  42  56
ATOM     56  C   UNL A   1      39.450  32.066  35.310  1.00  0.00     0.023 A 
ATOM     57  C   UNL A   1      38.528  31.532  36.234  1.00  0.00     0.012 A 
ATOM     58  C   UNL A   1      39.927  33.379  35.489  1.00  0.00     0.148 A 
ATOM     59  C   UNL A   1      38.068  32.300  37.302  1.00  0.00     0.002 A 
ATOM     60  C   UNL A   1      39.493  34.125  36.578  1.00  0.00     0.091 A 
ATOM     61  F   UNL A   1      40.784  33.876  34.586  1.00  0.00    -0.205 F 
ATOM     62  C   UNL A   1      38.556  33.591  37.480  1.00  0.00     0.022 A 
BRANCH  60  63
ATOM     63  S   UNL A   1      40.119  35.771  36.931  1.00  0.00     0.127 S 
ATOM     64  O   UNL A   1      41.556  35.524  37.038  1.00  0.00    -0.237 OA
ATOM     65  O   UNL A   1      39.716  36.520  35.740  1.00  0.00    -0.237 OA
ATOM     66  O   UNL A   1      39.462  36.193  38.161  1.00  0.00    -0.744 OA
ENDBRANCH  60  63
ENDBRANCH  42  56
BRANCH  43  67
ATOM     67  C   UNL A   1      42.599  26.650  27.544  1.00  0.00     0.023 A 
ATOM     68  C   UNL A   1      43.487  27.233  26.619  1.00  0.00     0.012 A 
ATOM     69  C   UNL A   1      42.205  25.309  27.368  1.00  0.00     0.148 A 
ATOM     70  C   UNL A   1      43.951  26.503  25.524  1.00  0.00     0.002 A 
ATOM     71  C   UNL A   1      42.714  24.572  26.305  1.00  0.00     0.091 A 
ATOM     72  F   UNL A   1      41.343  24.780  28.247  1.00  0.00    -0.205 F 
ATOM     73  C   UNL A   1      43.575  25.172  25.373  1.00  0.00     0.022 A 
BRANCH  71  74
ATOM     74  S   UNL A   1      42.382  22.818  26.110  1.00  0.00     0.127 S 
ATOM     75  O   UNL A   1      43.055  22.255  27.278  1.00  0.00    -0.237 OA
ATOM     76  O   UNL A   1      40.920  22.777  26.162  1.00  0.00    -0.237 OA
ATOM     77  O   UNL A   1      42.944  22.457  24.815  1.00  0.00    -0.744 OA
ENDBRANCH  71  74
ENDBRANCH  43  67
BRANCH  55  78
ATOM     78  C   UNL A   1      44.641  27.186  34.201  1.00  0.00     0.023 A 
ATOM     79  C   UNL A   1      45.927  27.762  34.231  1.00  0.00     0.012 A 
ATOM     80  C   UNL A   1      44.382  26.035  34.974  1.00  0.00     0.148 A 
ATOM     81  C   UNL A   1      46.946  27.186  34.990  1.00  0.00     0.002 A 
ATOM     82  C   UNL A   1      45.391  25.493  35.764  1.00  0.00     0.091 A 
ATOM     83  F   UNL A   1      43.160  25.487  34.919  1.00  0.00    -0.205 F 
ATOM     84  C   UNL A   1      46.675  26.060  35.764  1.00  0.00     0.022 A 
BRANCH  82  85
ATOM     85  S   UNL A   1      45.097  24.101  36.861  1.00  0.00     0.127 S 
ATOM     86  O   UNL A   1      44.120  24.657  37.795  1.00  0.00    -0.237 OA
ATOM     87  O   UNL A   1      44.562  23.088  35.950  1.00  0.00    -0.237 OA
ATOM     88  O   UNL A   1      46.396  23.767  37.430  1.00  0.00    -0.744 OA
ENDBRANCH  82  85
ENDBRANCH  55  78
ENDBRANCH  29  30
ENDBRANCH  22  24
ENDBRANCH  21  22
ENDBRANCH  20  21
ENDBRANCH  19  20
ENDBRANCH   1  19
TORSDOF 20
ENDMDL
MODEL 2
REMARK VINA RESULT:     -10.2      4.924     10.526
REMARK SMILES O=C(/C=C/c1cccs1)NCC(=O)OCCOCCOC(=O)c1ccc(-c2c3nc(c(-c4cccc(S(=O)(=O)[O-])c4F)c4ccc([nH]4)c(-c4cccc(S(=O)(=O)[O-])c4F)c4nc(c(-c5cccc(S(=O)(=O)[O-])c5F)c5ccc2[nH]5)C=C4)C=C3)cc1
REMARK SMILES IDX 17 1 16 2 15 3 14 4 12 5 13 6 11 7 10 8 1 9 2 10 3 12 4 13
REMARK SMILES IDX 5 14 6 15 9 16 7 17 8 18 18 19 19 20 20 21 21 22 22 23 23 24
REMARK SMILES IDX 24 25 85 26 25 27 84 28 26 29 27 30 28 31 78 32 29 33 83 34
REMARK SMILES IDX 77 35 79 36 30 37 82 38 76 39 75 40 31 42 63 43 43 44 62 45
REMARK SMILES IDX 44 46 47 47 61 48 80 49 45 50 46 51 60 53 81 54 48 55 32 56
REMARK SMILES IDX 33 57 41 58 34 59 36 60 42 61 35 62 37 63 38 64 39 65 40 66
REMARK SMILES IDX 64 67 65 68 73 69 66 70 68 71 74 72 67 73 69 74 70 75 71 76
REMARK SMILES IDX 72 77 49 78 50 79 58 80 51 81 53 82 59 83 52 84 54 85 55 86
REMARK SMILES IDX 56 87 57 88
REMARK H PARENT 10 11 79 41 47 52
REMARK Flexibility Score: inf
ROOT
ATOM      1  O   UNL A   1      34.575  20.761  26.010  1.00  0.00    -0.374 OA
ENDROOT
BRANCH   1   2
ATOM      2  C   UNL A   1      34.462  21.848  26.934  1.00  0.00     0.202 C 
BRANCH   2   3
ATOM      3  C   UNL A   1      33.253  22.767  26.741  1.00  0.00     0.261 C 
BRANCH   3   4
ATOM      4  O   UNL A   1      33.597  23.886  25.906  1.00  0.00    -0.462 OA
BRANCH   4   5
ATOM      5  C   UNL A   1      32.771  24.963  26.005  1.00  0.00     0.325 C 
ATOM      6  O   UNL A   1      31.781  25.028  26.725  1.00  0.00    -0.250 OA
BRANCH   5   7
ATOM      7  C   UNL A   1      33.307  26.173  25.246  1.00  0.00     0.239 C 
BRANCH   7   8
ATOM      8  N   UNL A   1      32.376  27.253  24.938  1.00  0.00    -0.342 N 
ATOM      9  O   UNL A   1      33.940  28.522  23.864  1.00  0.00    -0.270 OA
ATOM     10  C   UNL A   1      32.777  28.331  24.200  1.00  0.00     0.244 C 
ATOM     11  H   UNL A   1      31.449  27.205  25.265  1.00  0.00     0.164 HD
BRANCH  10  12
ATOM     12  C   UNL A   1      31.729  29.259  23.706  1.00  0.00     0.072 C 
ATOM     13  C   UNL A   1      30.435  29.311  24.055  1.00  0.00     0.024 C 
BRANCH  13  14
ATOM     14  C   UNL A   1      29.536  30.186  23.370  1.00  0.00     0.027 A 
ATOM     15  C   UNL A   1      28.749  31.218  23.860  1.00  0.00     0.020 A 
ATOM     16  S   UNL A   1      29.349  30.058  21.662  1.00  0.00    -0.144 S 
ATOM     17  C   UNL A   1      27.980  31.868  22.853  1.00  0.00     0.012 A 
ATOM     18  C   UNL A   1      28.199  31.321  21.612  1.00  0.00     0.065 A 
ENDBRANCH  13  14
ENDBRANCH  10  12
ENDBRANCH   7   8
ENDBRANCH   5   7
ENDBRANCH   4   5
ENDBRANCH   3   4
ENDBRANCH   2   3
ENDBRANCH   1   2
BRANCH   1  19
ATOM     19  C   UNL A   1      35.422  20.936  24.877  1.00  0.00     0.202 C 
BRANCH  19  20
ATOM     20  C   UNL A   1      36.861  20.417  24.996  1.00  0.00     0.261 C 
BRANCH  20  21
ATOM     21  O   UNL A   1      37.838  21.470  25.052  1.00  0.00    -0.460 OA
BRANCH  21  22
ATOM     22  C   UNL A   1      38.926  21.173  25.809  1.00  0.00     0.338 C 
ATOM     23  O   UNL A   1      39.574  20.134  25.778  1.00  0.00    -0.246 OA
BRANCH  22  24
ATOM     24  C   UNL A   1      39.375  22.338  26.595  1.00  0.00     0.060 A 
ATOM     25  C   UNL A   1      38.792  23.573  26.285  1.00  0.00     0.016 A 
ATOM     26  C   UNL A   1      40.417  22.260  27.521  1.00  0.00     0.016 A 
ATOM     27  C   UNL A   1      39.296  24.745  26.846  1.00  0.00     0.010 A 
ATOM     28  C   UNL A   1      40.923  23.442  28.083  1.00  0.00     0.010 A 
ATOM     29  C   UNL A   1      40.396  24.693  27.711  1.00  0.00    -0.014 A 
BRANCH  29  30
ATOM     30  C   UNL A   1      41.066  25.963  28.090  1.00  0.00     0.031 A 
ATOM     31  C   UNL A   1      42.488  26.207  27.653  1.00  0.00     0.074 A 
ATOM     32  C   UNL A   1      40.400  26.920  28.761  1.00  0.00     0.049 A 
ATOM     33  N   UNL A   1      43.223  27.280  27.790  1.00  0.00    -0.248 NA
ATOM     34  C   UNL A   1      43.170  25.096  26.968  1.00  0.00     0.031 C 
ATOM     35  C   UNL A   1      39.026  26.807  29.248  1.00  0.00     0.029 A 
ATOM     36  N   UNL A   1      40.795  28.175  29.154  1.00  0.00    -0.354 N 
ATOM     37  C   UNL A   1      44.455  26.972  27.226  1.00  0.00     0.074 A 
ATOM     38  C   UNL A   1      44.377  25.604  26.764  1.00  0.00     0.031 C 
ATOM     39  C   UNL A   1      38.696  27.944  29.887  1.00  0.00     0.029 A 
ATOM     40  C   UNL A   1      39.834  28.860  29.858  1.00  0.00     0.049 A 
ATOM     41  H   UNL A   1      41.683  28.548  28.950  1.00  0.00     0.167 HD
ATOM     42  C   UNL A   1      45.546  27.762  27.082  1.00  0.00     0.034 A 
ATOM     43  C   UNL A   1      39.868  30.088  30.415  1.00  0.00     0.034 A 
ATOM     44  C   UNL A   1      45.621  29.130  27.517  1.00  0.00     0.049 A 
ATOM     45  C   UNL A   1      41.092  30.949  30.234  1.00  0.00     0.074 A 
ATOM     46  C   UNL A   1      46.668  30.023  27.376  1.00  0.00     0.029 A 
ATOM     47  N   UNL A   1      44.609  29.805  28.183  1.00  0.00    -0.354 N 
ATOM     48  N   UNL A   1      42.196  30.688  29.578  1.00  0.00    -0.248 NA
ATOM     49  C   UNL A   1      41.055  32.291  30.835  1.00  0.00     0.031 C 
ATOM     50  C   UNL A   1      46.296  31.233  27.971  1.00  0.00     0.029 A 
ATOM     51  C   UNL A   1      45.008  31.100  28.464  1.00  0.00     0.049 A 
ATOM     52  H   UNL A   1      43.736  29.419  28.421  1.00  0.00     0.167 HD
ATOM     53  C   UNL A   1      42.966  31.844  29.651  1.00  0.00     0.074 A 
ATOM     54  C   UNL A   1      42.195  32.814  30.400  1.00  0.00     0.031 C 
ATOM     55  C   UNL A   1      44.207  32.078  29.154  1.00  0.00     0.034 A 
BRANCH  42  56
ATOM     56  C   UNL A   1      46.745  27.175  26.382  1.00  0.00     0.023 A 
ATOM     57  C   UNL A   1      46.813  27.217  24.974  1.00  0.00     0.012 A 
ATOM     58  C   UNL A   1      47.823  26.637  27.111  1.00  0.00     0.148 A 
ATOM     59  C   UNL A   1      47.924  26.710  24.301  1.00  0.00     0.002 A 
ATOM     60  C   UNL A   1      48.943  26.169  26.435  1.00  0.00     0.091 A 
ATOM     61  F   UNL A   1      47.727  26.583  28.447  1.00  0.00    -0.205 F 
ATOM     62  C   UNL A   1      48.992  26.195  25.031  1.00  0.00     0.022 A 
BRANCH  60  63
ATOM     63  S   UNL A   1      50.398  25.553  27.290  1.00  0.00     0.127 S 
ATOM     64  O   UNL A   1      49.955  24.225  27.709  1.00  0.00    -0.237 OA
ATOM     65  O   UNL A   1      51.407  25.553  26.229  1.00  0.00    -0.237 OA
ATOM     66  O   UNL A   1      50.657  26.498  28.368  1.00  0.00    -0.744 OA
ENDBRANCH  60  63
ENDBRANCH  42  56
BRANCH  43  67
ATOM     67  C   UNL A   1      38.674  30.606  31.141  1.00  0.00     0.023 A 
ATOM     68  C   UNL A   1      38.595  30.465  32.540  1.00  0.00     0.012 A 
ATOM     69  C   UNL A   1      37.628  31.254  30.455  1.00  0.00     0.148 A 
ATOM     70  C   UNL A   1      37.483  30.936  33.240  1.00  0.00     0.002 A 
ATOM     71  C   UNL A   1      36.549  31.767  31.164  1.00  0.00     0.091 A 
ATOM     72  F   UNL A   1      37.712  31.357  29.122  1.00  0.00    -0.205 F 
ATOM     73  C   UNL A   1      36.467  31.596  32.555  1.00  0.00     0.022 A 
BRANCH  71  74
ATOM     74  S   UNL A   1      35.262  32.742  30.377  1.00  0.00     0.127 S 
ATOM     75  O   UNL A   1      34.856  31.869  29.279  1.00  0.00    -0.237 OA
ATOM     76  O   UNL A   1      34.281  32.876  31.454  1.00  0.00    -0.237 OA
ATOM     77  O   UNL A   1      35.902  33.993  29.992  1.00  0.00    -0.744 OA
ENDBRANCH  71  74
ENDBRANCH  43  67
BRANCH  55  78
ATOM     78  C   UNL A   1      44.802  33.446  29.365  1.00  0.00     0.023 A 
ATOM     79  C   UNL A   1      45.554  33.711  30.526  1.00  0.00     0.012 A 
ATOM     80  C   UNL A   1      44.679  34.445  28.378  1.00  0.00     0.148 A 
ATOM     81  C   UNL A   1      46.145  34.960  30.719  1.00  0.00     0.002 A 
ATOM     82  C   UNL A   1      45.310  35.672  28.557  1.00  0.00     0.091 A 
ATOM     83  F   UNL A   1      43.944  34.184  27.288  1.00  0.00    -0.205 F 
ATOM     84  C   UNL A   1      46.033  35.935  29.731  1.00  0.00     0.022 A 
BRANCH  82  85
ATOM     85  S   UNL A   1      45.291  36.946  27.290  1.00  0.00     0.127 S 
ATOM     86  O   UNL A   1      46.122  37.984  27.898  1.00  0.00    -0.237 OA
ATOM     87  O   UNL A   1      45.904  36.266  26.149  1.00  0.00    -0.237 OA
ATOM     88  O   UNL A   1      43.889  37.292  27.098  1.00  0.00    -0.744 OA
ENDBRANCH  82  85
ENDBRANCH  55  78
ENDBRANCH  29  30
ENDBRANCH  22  24
ENDBRANCH  21  22
ENDBRANCH  20  21
ENDBRANCH  19  20
ENDBRANCH   1  19
TORSDOF 20
ENDMDL
MODEL 3
REMARK VINA RESULT:     -10.2      5.048      8.569
REMARK SMILES O=C(/C=C/c1cccs1)NCC(=O)OCCOCCOC(=O)c1ccc(-c2c3nc(c(-c4cccc(S(=O)(=O)[O-])c4F)c4ccc([nH]4)c(-c4cccc(S(=O)(=O)[O-])c4F)c4nc(c(-c5cccc(S(=O)(=O)[O-])c5F)c5ccc2[nH]5)C=C4)C=C3)cc1
REMARK SMILES IDX 17 1 16 2 15 3 14 4 12 5 13 6 11 7 10 8 1 9 2 10 3 12 4 13
REMARK SMILES IDX 5 14 6 15 9 16 7 17 8 18 18 19 19 20 20 21 21 22 22 23 23 24
REMARK SMILES IDX 24 25 85 26 25 27 84 28 26 29 27 30 28 31 78 32 29 33 83 34
REMARK SMILES IDX 77 35 79 36 30 37 82 38 76 39 75 40 31 42 63 43 43 44 62 45
REMARK SMILES IDX 44 46 47 47 61 48 80 49 45 50 46 51 60 53 81 54 48 55 32 56
REMARK SMILES IDX 33 57 41 58 34 59 36 60 42 61 35 62 37 63 38 64 39 65 40 66
REMARK SMILES IDX 64 67 65 68 73 69 66 70 68 71 74 72 67 73 69 74 70 75 71 76
REMARK SMILES IDX 72 77 49 78 50 79 58 80 51 81 53 82 59 83 52 84 54 85 55 86
REMARK SMILES IDX 56 87 57 88
REMARK H PARENT 10 11 79 41 47 52
REMARK Flexibility Score: inf
ROOT
ATOM      1  O   UNL A   1      34.748  36.320  33.681  1.00  0.00    -0.374 OA
ENDROOT
BRANCH   1   2
ATOM      2  C   UNL A   1      33.486  36.852  33.267  1.00  0.00     0.202 C 
BRANCH   2   3
ATOM      3  C   UNL A   1      32.790  36.110  32.123  1.00  0.00     0.261 C 
BRANCH   3   4
ATOM      4  O   UNL A   1      32.643  36.968  30.979  1.00  0.00    -0.462 OA
BRANCH   4   5
ATOM      5  C   UNL A   1      32.889  36.381  29.775  1.00  0.00     0.325 C 
ATOM      6  O   UNL A   1      32.524  36.820  28.690  1.00  0.00    -0.250 OA
BRANCH   5   7
ATOM      7  C   UNL A   1      33.830  35.188  29.896  1.00  0.00     0.239 C 
BRANCH   7   8
ATOM      8  N   UNL A   1      33.500  33.978  29.152  1.00  0.00    -0.342 N 
ATOM      9  O   UNL A   1      35.626  33.152  29.218  1.00  0.00    -0.270 OA
ATOM     10  C   UNL A   1      34.443  33.015  28.929  1.00  0.00     0.244 C 
ATOM     11  H   UNL A   1      32.587  33.854  28.806  1.00  0.00     0.164 HD
BRANCH  10  12
ATOM     12  C   UNL A   1      33.984  31.708  28.397  1.00  0.00     0.072 C 
ATOM     13  C   UNL A   1      34.369  31.088  27.272  1.00  0.00     0.024 C 
BRANCH  13  14
ATOM     14  C   UNL A   1      33.716  29.891  26.845  1.00  0.00     0.027 A 
ATOM     15  C   UNL A   1      34.033  28.564  27.093  1.00  0.00     0.020 A 
ATOM     16  S   UNL A   1      32.276  29.990  25.903  1.00  0.00    -0.144 S 
ATOM     17  C   UNL A   1      33.129  27.644  26.489  1.00  0.00     0.012 A 
ATOM     18  C   UNL A   1      32.133  28.290  25.794  1.00  0.00     0.065 A 
ENDBRANCH  13  14
ENDBRANCH  10  12
ENDBRANCH   7   8
ENDBRANCH   5   7
ENDBRANCH   4   5
ENDBRANCH   3   4
ENDBRANCH   2   3
ENDBRANCH   1   2
BRANCH   1  19
ATOM     19  C   UNL A   1      34.819  34.927  33.976  1.00  0.00     0.202 C 
BRANCH  19  20
ATOM     20  C   UNL A   1      35.834  34.098  33.178  1.00  0.00     0.261 C 
BRANCH  20  21
ATOM     21  O   UNL A   1      35.688  32.681  33.379  1.00  0.00    -0.460 OA
BRANCH  21  22
ATOM     22  C   UNL A   1      36.786  32.082  33.907  1.00  0.00     0.338 C 
ATOM     23  O   UNL A   1      37.096  32.043  35.092  1.00  0.00    -0.246 OA
BRANCH  22  24
ATOM     24  C   UNL A   1      37.523  31.307  32.891  1.00  0.00     0.060 A 
ATOM     25  C   UNL A   1      38.664  30.620  33.325  1.00  0.00     0.016 A 
ATOM     26  C   UNL A   1      37.190  31.341  31.535  1.00  0.00     0.016 A 
ATOM     27  C   UNL A   1      39.517  30.024  32.397  1.00  0.00     0.010 A 
ATOM     28  C   UNL A   1      38.052  30.742  30.604  1.00  0.00     0.010 A 
ATOM     29  C   UNL A   1      39.243  30.124  31.027  1.00  0.00    -0.014 A 
BRANCH  29  30
ATOM     30  C   UNL A   1      40.289  29.706  30.060  1.00  0.00     0.031 A 
ATOM     31  C   UNL A   1      41.476  30.604  29.822  1.00  0.00     0.074 A 
ATOM     32  C   UNL A   1      40.221  28.512  29.443  1.00  0.00     0.049 A 
ATOM     33  N   UNL A   1      42.546  30.389  29.099  1.00  0.00    -0.248 NA
ATOM     34  C   UNL A   1      41.458  31.916  30.490  1.00  0.00     0.031 C 
ATOM     35  C   UNL A   1      39.125  27.554  29.580  1.00  0.00     0.029 A 
ATOM     36  N   UNL A   1      41.093  27.905  28.573  1.00  0.00    -0.354 N 
ATOM     37  C   UNL A   1      43.318  31.539  29.211  1.00  0.00     0.074 A 
ATOM     38  C   UNL A   1      42.586  32.459  30.053  1.00  0.00     0.031 C 
ATOM     39  C   UNL A   1      39.384  26.483  28.809  1.00  0.00     0.029 A 
ATOM     40  C   UNL A   1      40.659  26.681  28.123  1.00  0.00     0.049 A 
ATOM     41  H   UNL A   1      41.948  28.308  28.299  1.00  0.00     0.167 HD
ATOM     42  C   UNL A   1      44.537  31.799  28.682  1.00  0.00     0.034 A 
ATOM     43  C   UNL A   1      41.227  25.817  27.257  1.00  0.00     0.034 A 
ATOM     44  C   UNL A   1      45.280  30.878  27.864  1.00  0.00     0.049 A 
ATOM     45  C   UNL A   1      42.588  26.128  26.687  1.00  0.00     0.074 A 
ATOM     46  C   UNL A   1      46.542  31.037  27.318  1.00  0.00     0.029 A 
ATOM     47  N   UNL A   1      44.829  29.629  27.469  1.00  0.00    -0.354 N 
ATOM     48  N   UNL A   1      43.363  27.160  26.914  1.00  0.00    -0.248 NA
ATOM     49  C   UNL A   1      43.171  25.131  25.775  1.00  0.00     0.031 C 
ATOM     50  C   UNL A   1      46.847  29.888  26.580  1.00  0.00     0.029 A 
ATOM     51  C   UNL A   1      45.783  29.006  26.684  1.00  0.00     0.049 A 
ATOM     52  H   UNL A   1      43.957  29.242  27.712  1.00  0.00     0.167 HD
ATOM     53  C   UNL A   1      44.537  26.919  26.209  1.00  0.00     0.074 A 
ATOM     54  C   UNL A   1      44.380  25.634  25.561  1.00  0.00     0.031 C 
ATOM     55  C   UNL A   1      45.642  27.698  26.096  1.00  0.00     0.034 A 
BRANCH  42  56
ATOM     56  C   UNL A   1      45.170  33.127  29.008  1.00  0.00     0.023 A 
ATOM     57  C   UNL A   1      46.018  33.232  30.129  1.00  0.00     0.012 A 
ATOM     58  C   UNL A   1      44.976  34.249  28.180  1.00  0.00     0.148 A 
ATOM     59  C   UNL A   1      46.642  34.440  30.437  1.00  0.00     0.002 A 
ATOM     60  C   UNL A   1      45.632  35.440  28.471  1.00  0.00     0.091 A 
ATOM     61  F   UNL A   1      44.147  34.136  27.133  1.00  0.00    -0.205 F 
ATOM     62  C   UNL A   1      46.457  35.540  29.605  1.00  0.00     0.022 A 
BRANCH  60  63
ATOM     63  S   UNL A   1      45.513  36.890  27.418  1.00  0.00     0.127 S 
ATOM     64  O   UNL A   1      46.336  36.494  26.276  1.00  0.00    -0.237 OA
ATOM     65  O   UNL A   1      44.077  36.957  27.141  1.00  0.00    -0.237 OA
ATOM     66  O   UNL A   1      46.028  38.000  28.207  1.00  0.00    -0.744 OA
ENDBRANCH  60  63
ENDBRANCH  42  56
BRANCH  43  67
ATOM     67  C   UNL A   1      40.538  24.538  26.926  1.00  0.00     0.023 A 
ATOM     68  C   UNL A   1      39.274  24.568  26.305  1.00  0.00     0.012 A 
ATOM     69  C   UNL A   1      41.138  23.294  27.205  1.00  0.00     0.148 A 
ATOM     70  C   UNL A   1      38.608  23.382  25.994  1.00  0.00     0.002 A 
ATOM     71  C   UNL A   1      40.493  22.118  26.843  1.00  0.00     0.091 A 
ATOM     72  F   UNL A   1      42.331  23.287  27.816  1.00  0.00    -0.205 F 
ATOM     73  C   UNL A   1      39.220  22.159  26.252  1.00  0.00     0.022 A 
BRANCH  71  74
ATOM     74  S   UNL A   1      41.266  20.507  27.022  1.00  0.00     0.127 S 
ATOM     75  O   UNL A   1      42.674  20.825  26.797  1.00  0.00    -0.237 OA
ATOM     76  O   UNL A   1      40.925  20.157  28.402  1.00  0.00    -0.237 OA
ATOM     77  O   UNL A   1      40.636  19.659  26.018  1.00  0.00    -0.744 OA
ENDBRANCH  71  74
ENDBRANCH  43  67
BRANCH  55  78
ATOM     78  C   UNL A   1      46.791  27.174  25.275  1.00  0.00     0.023 A 
ATOM     79  C   UNL A   1      47.583  26.119  25.770  1.00  0.00     0.012 A 
ATOM     80  C   UNL A   1      47.042  27.677  23.982  1.00  0.00     0.148 A 
ATOM     81  C   UNL A   1      48.626  25.595  25.007  1.00  0.00     0.002 A 
ATOM     82  C   UNL A   1      48.055  27.119  23.209  1.00  0.00     0.091 A 
ATOM     83  F   UNL A   1      46.294  28.695  23.533  1.00  0.00    -0.205 F 
ATOM     84  C   UNL A   1      48.854  26.087  23.724  1.00  0.00     0.022 A 
BRANCH  82  85
ATOM     85  S   UNL A   1      48.351  27.632  21.513  1.00  0.00     0.127 S 
ATOM     86  O   UNL A   1      49.279  28.747  21.695  1.00  0.00    -0.237 OA
ATOM     87  O   UNL A   1      48.947  26.434  20.920  1.00  0.00    -0.237 OA
ATOM     88  O   UNL A   1      47.044  27.981  20.972  1.00  0.00    -0.744 OA
ENDBRANCH  82  85
ENDBRANCH  55  78
ENDBRANCH  29  30
ENDBRANCH  22  24
ENDBRANCH  21  22
ENDBRANCH  20  21
ENDBRANCH  19  20
ENDBRANCH   1  19
TORSDOF 20
ENDMDL
