MODEL 1
REMARK VINA RESULT:     -10.4      0.000      0.000
REMARK SMILES O=C(OCCOCCOC(=O)[C@@H]1CCCN1C(=O)[C@@H]1CCCN1C(=O)OCC1c2ccccc2-c2ccccc21)c1ccc(-c2c3nc(c(-c4cccc(S(=O)(=O)[O-])c4F)c4ccc([nH]4)c(-c4cccc(S(=O)(=O)[O-])c4F)c4nc(c(-c5cccc(S(=O)(=O)[O-])c5F)c5ccc2[nH]5)C=C4)C=C3)cc1
REMARK SMILES IDX 7 1 6 2 5 3 4 4 3 5 2 6 1 7 41 8 42 9 103 10 43 11 102 12
REMARK SMILES IDX 44 13 45 14 46 15 96 16 47 17 101 18 95 19 97 20 48 21
REMARK SMILES IDX 100 22 94 23 93 24 49 26 81 27 61 28 80 29 62 30 65 31 79 32
REMARK SMILES IDX 98 33 63 34 64 35 78 37 99 38 66 39 50 40 51 41 59 42 52 43
REMARK SMILES IDX 54 44 60 45 53 46 55 47 56 48 57 49 58 50 82 51 83 52 91 53
REMARK SMILES IDX 84 54 86 55 92 56 85 57 87 58 88 59 89 60 90 61 67 62 68 63
REMARK SMILES IDX 76 64 69 65 71 66 77 67 70 68 72 69 73 70 74 71 75 72 8 73
REMARK SMILES IDX 9 74 10 75 11 76 12 77 13 78 16 79 14 80 15 81 17 82 18 83
REMARK SMILES IDX 19 84 20 85 23 86 21 87 22 88 24 89 25 90 26 91 27 92 28 93
REMARK SMILES IDX 29 94 40 95 30 96 34 97 35 98 39 99 31 100 33 101 36 102
REMARK SMILES IDX 38 103 32 104 37 105
REMARK H PARENT 97 25 65 36
REMARK Flexibility Score: inf
ROOT
ATOM      1  C   UNL A   1      33.019  31.394  27.327  1.00  0.00     0.202 C 
ENDROOT
BRANCH   1   2
ATOM      2  O   UNL A   1      33.716  32.531  27.844  1.00  0.00    -0.374 OA
BRANCH   2   3
ATOM      3  C   UNL A   1      33.026  33.780  27.793  1.00  0.00     0.202 C 
BRANCH   3   4
ATOM      4  C   UNL A   1      33.277  34.716  28.974  1.00  0.00     0.261 C 
BRANCH   4   5
ATOM      5  O   UNL A   1      34.580  34.477  29.520  1.00  0.00    -0.460 OA
BRANCH   5   6
ATOM      6  C   UNL A   1      34.862  33.605  30.519  1.00  0.00     0.338 C 
ATOM      7  O   UNL A   1      34.029  33.423  31.403  1.00  0.00    -0.246 OA
BRANCH   6   8
ATOM      8  C   UNL A   1      36.106  32.783  30.521  1.00  0.00     0.060 A 
ATOM      9  C   UNL A   1      36.233  31.516  31.096  1.00  0.00     0.016 A 
ATOM     10  C   UNL A   1      37.212  33.327  29.855  1.00  0.00     0.016 A 
ATOM     11  C   UNL A   1      37.430  30.837  31.103  1.00  0.00     0.010 A 
ATOM     12  C   UNL A   1      38.426  32.640  29.833  1.00  0.00     0.010 A 
ATOM     13  C   UNL A   1      38.534  31.413  30.496  1.00  0.00    -0.014 A 
BRANCH  13  14
ATOM     14  C   UNL A   1      39.823  30.781  30.784  1.00  0.00     0.031 A 
ATOM     15  C   UNL A   1      40.515  31.185  32.045  1.00  0.00     0.074 A 
ATOM     16  C   UNL A   1      40.237  29.756  30.022  1.00  0.00     0.049 A 
ATOM     17  N   UNL A   1      41.666  30.800  32.512  1.00  0.00    -0.248 NA
ATOM     18  C   UNL A   1      39.801  32.144  32.911  1.00  0.00     0.031 C 
ATOM     19  C   UNL A   1      39.509  29.207  28.874  1.00  0.00     0.029 A 
ATOM     20  N   UNL A   1      41.354  28.978  30.116  1.00  0.00    -0.354 N 
ATOM     21  C   UNL A   1      41.853  31.527  33.680  1.00  0.00     0.074 A 
ATOM     22  C   UNL A   1      40.682  32.348  33.875  1.00  0.00     0.031 C 
ATOM     23  C   UNL A   1      40.206  28.179  28.366  1.00  0.00     0.029 A 
ATOM     24  C   UNL A   1      41.454  28.050  29.108  1.00  0.00     0.049 A 
ATOM     25  H   UNL A   1      42.021  29.072  30.833  1.00  0.00     0.167 HD
ATOM     26  C   UNL A   1      42.927  31.514  34.498  1.00  0.00     0.034 A 
ATOM     27  C   UNL A   1      42.474  27.228  28.808  1.00  0.00     0.034 A 
ATOM     28  C   UNL A   1      44.061  30.665  34.268  1.00  0.00     0.049 A 
ATOM     29  C   UNL A   1      43.686  27.282  29.699  1.00  0.00     0.074 A 
ATOM     30  C   UNL A   1      45.235  30.576  34.987  1.00  0.00     0.029 A 
ATOM     31  N   UNL A   1      44.154  29.757  33.221  1.00  0.00    -0.354 N 
ATOM     32  N   UNL A   1      43.877  27.989  30.789  1.00  0.00    -0.248 NA
ATOM     33  C   UNL A   1      44.812  26.419  29.333  1.00  0.00     0.031 C 
ATOM     34  C   UNL A   1      46.055  29.638  34.350  1.00  0.00     0.029 A 
ATOM     35  C   UNL A   1      45.369  29.107  33.265  1.00  0.00     0.049 A 
ATOM     36  H   UNL A   1      43.454  29.600  32.546  1.00  0.00     0.167 HD
ATOM     37  C   UNL A   1      45.130  27.627  31.265  1.00  0.00     0.074 A 
ATOM     38  C   UNL A   1      45.643  26.627  30.346  1.00  0.00     0.031 C 
ATOM     39  C   UNL A   1      45.804  28.078  32.352  1.00  0.00     0.034 A 
BRANCH  26  40
ATOM     40  C   UNL A   1      42.936  32.499  35.633  1.00  0.00     0.023 A 
ATOM     41  C   UNL A   1      43.575  33.748  35.501  1.00  0.00     0.012 A 
ATOM     42  C   UNL A   1      42.342  32.153  36.862  1.00  0.00     0.148 A 
ATOM     43  C   UNL A   1      43.659  34.619  36.589  1.00  0.00     0.002 A 
ATOM     44  C   UNL A   1      42.386  33.045  37.925  1.00  0.00     0.091 A 
ATOM     45  F   UNL A   1      41.774  30.944  36.979  1.00  0.00    -0.205 F 
ATOM     46  C   UNL A   1      43.059  34.271  37.797  1.00  0.00     0.022 A 
BRANCH  44  47
ATOM     47  S   UNL A   1      41.589  32.712  39.499  1.00  0.00     0.127 S 
ATOM     48  O   UNL A   1      42.371  31.580  39.994  1.00  0.00    -0.237 OA
ATOM     49  O   UNL A   1      41.804  33.966  40.220  1.00  0.00    -0.237 OA
ATOM     50  O   UNL A   1      40.195  32.419  39.191  1.00  0.00    -0.744 OA
ENDBRANCH  44  47
ENDBRANCH  26  40
BRANCH  27  51
ATOM     51  C   UNL A   1      42.395  26.318  27.633  1.00  0.00     0.023 A 
ATOM     52  C   UNL A   1      42.703  26.808  26.350  1.00  0.00     0.012 A 
ATOM     53  C   UNL A   1      42.034  24.963  27.778  1.00  0.00     0.148 A 
ATOM     54  C   UNL A   1      42.619  25.977  25.231  1.00  0.00     0.002 A 
ATOM     55  C   UNL A   1      42.005  24.127  26.669  1.00  0.00     0.091 A 
ATOM     56  F   UNL A   1      41.733  24.514  29.006  1.00  0.00    -0.205 F 
ATOM     57  C   UNL A   1      42.279  24.636  25.391  1.00  0.00     0.022 A 
BRANCH  55  58
ATOM     58  S   UNL A   1      41.690  22.363  26.797  1.00  0.00     0.127 S 
ATOM     59  O   UNL A   1      42.671  21.956  27.799  1.00  0.00    -0.237 OA
ATOM     60  O   UNL A   1      40.298  22.337  27.249  1.00  0.00    -0.237 OA
ATOM     61  O   UNL A   1      41.895  21.827  25.458  1.00  0.00    -0.744 OA
ENDBRANCH  55  58
ENDBRANCH  27  51
BRANCH  39  62
ATOM     62  C   UNL A   1      47.132  27.439  32.642  1.00  0.00     0.023 A 
ATOM     63  C   UNL A   1      48.323  28.046  32.204  1.00  0.00     0.012 A 
ATOM     64  C   UNL A   1      47.189  26.274  33.431  1.00  0.00     0.148 A 
ATOM     65  C   UNL A   1      49.556  27.478  32.516  1.00  0.00     0.002 A 
ATOM     66  C   UNL A   1      48.421  25.750  33.789  1.00  0.00     0.091 A 
ATOM     67  F   UNL A   1      46.037  25.705  33.817  1.00  0.00    -0.205 F 
ATOM     68  C   UNL A   1      49.606  26.340  33.321  1.00  0.00     0.022 A 
BRANCH  66  69
ATOM     69  S   UNL A   1      48.572  24.362  34.918  1.00  0.00     0.127 S 
ATOM     70  O   UNL A   1      50.011  24.109  34.888  1.00  0.00    -0.237 OA
ATOM     71  O   UNL A   1      48.077  24.929  36.174  1.00  0.00    -0.237 OA
ATOM     72  O   UNL A   1      47.736  23.305  34.366  1.00  0.00    -0.744 OA
ENDBRANCH  66  69
ENDBRANCH  39  62
ENDBRANCH  13  14
ENDBRANCH   6   8
ENDBRANCH   5   6
ENDBRANCH   4   5
ENDBRANCH   3   4
ENDBRANCH   2   3
ENDBRANCH   1   2
BRANCH   1  73
ATOM     73  C   UNL A   1      31.622  31.792  26.853  1.00  0.00     0.261 C 
BRANCH  73  74
ATOM     74  O   UNL A   1      31.389  31.191  25.570  1.00  0.00    -0.462 OA
BRANCH  74  75
ATOM     75  C   UNL A   1      31.249  29.830  25.638  1.00  0.00     0.328 C 
ATOM     76  O   UNL A   1      31.406  29.210  26.678  1.00  0.00    -0.250 OA
BRANCH  75  77
ATOM     77  C   UNL A   1      30.884  29.199  24.282  1.00  0.00     0.195 C 
ATOM     78  C   UNL A   1      29.899  30.107  23.515  1.00  0.00     0.039 C 
ATOM     79  N   UNL A   1      30.227  27.875  24.176  1.00  0.00    -0.327 N 
ATOM     80  C   UNL A   1      29.269  29.247  22.450  1.00  0.00     0.024 C 
ATOM     81  C   UNL A   1      29.350  27.847  23.010  1.00  0.00     0.120 C 
BRANCH  79  82
ATOM     82  C   UNL A   1      30.552  26.626  24.666  1.00  0.00     0.246 C 
ATOM     83  O   UNL A   1      29.638  25.963  25.196  1.00  0.00    -0.272 OA
BRANCH  82  84
ATOM     84  C   UNL A   1      31.965  26.032  24.824  1.00  0.00     0.178 C 
ATOM     85  C   UNL A   1      32.646  26.607  26.074  1.00  0.00     0.037 C 
ATOM     86  N   UNL A   1      33.012  26.035  23.825  1.00  0.00    -0.296 N 
ATOM     87  C   UNL A   1      34.111  26.210  25.938  1.00  0.00     0.024 C 
ATOM     88  C   UNL A   1      34.321  25.941  24.452  1.00  0.00     0.124 C 
BRANCH  86  89
ATOM     89  C   UNL A   1      32.848  25.642  22.523  1.00  0.00     0.410 C 
ATOM     90  O   UNL A   1      31.933  26.025  21.804  1.00  0.00    -0.224 OA
BRANCH  89  91
ATOM     91  O   UNL A   1      33.755  24.693  22.155  1.00  0.00    -0.448 OA
BRANCH  91  92
ATOM     92  C   UNL A   1      33.255  23.346  22.045  1.00  0.00     0.248 C 
BRANCH  92  93
ATOM     93  C   UNL A   1      33.562  22.419  23.251  1.00  0.00     0.088 C 
ATOM     94  C   UNL A   1      34.943  22.572  23.900  1.00  0.00    -0.029 A 
ATOM     95  C   UNL A   1      32.646  22.521  24.468  1.00  0.00    -0.029 A 
ATOM     96  C   UNL A   1      36.195  22.623  23.303  1.00  0.00     0.005 A 
ATOM     97  C   UNL A   1      34.813  22.634  25.307  1.00  0.00    -0.014 A 
ATOM     98  C   UNL A   1      33.408  22.659  25.649  1.00  0.00    -0.014 A 
ATOM     99  C   UNL A   1      31.262  22.505  24.524  1.00  0.00     0.005 A 
ATOM    100  C   UNL A   1      37.321  22.732  24.128  1.00  0.00     0.000 A 
ATOM    101  C   UNL A   1      35.931  22.716  26.125  1.00  0.00     0.009 A 
ATOM    102  C   UNL A   1      32.791  22.868  26.874  1.00  0.00     0.009 A 
ATOM    103  C   UNL A   1      30.640  22.739  25.751  1.00  0.00     0.000 A 
ATOM    104  C   UNL A   1      37.192  22.768  25.526  1.00  0.00     0.001 A 
ATOM    105  C   UNL A   1      31.397  22.932  26.915  1.00  0.00     0.001 A 
ENDBRANCH  92  93
ENDBRANCH  91  92
ENDBRANCH  89  91
ENDBRANCH  86  89
ENDBRANCH  82  84
ENDBRANCH  79  82
ENDBRANCH  75  77
ENDBRANCH  74  75
ENDBRANCH  73  74
ENDBRANCH   1  73
TORSDOF 23
ENDMDL
MODEL 2
REMARK VINA RESULT:     -10.0     10.355     16.412
REMARK SMILES O=C(OCCOCCOC(=O)[C@@H]1CCCN1C(=O)[C@@H]1CCCN1C(=O)OCC1c2ccccc2-c2ccccc21)c1ccc(-c2c3nc(c(-c4cccc(S(=O)(=O)[O-])c4F)c4ccc([nH]4)c(-c4cccc(S(=O)(=O)[O-])c4F)c4nc(c(-c5cccc(S(=O)(=O)[O-])c5F)c5ccc2[nH]5)C=C4)C=C3)cc1
REMARK SMILES IDX 7 1 6 2 5 3 4 4 3 5 2 6 1 7 41 8 42 9 103 10 43 11 102 12
REMARK SMILES IDX 44 13 45 14 46 15 96 16 47 17 101 18 95 19 97 20 48 21
REMARK SMILES IDX 100 22 94 23 93 24 49 26 81 27 61 28 80 29 62 30 65 31 79 32
REMARK SMILES IDX 98 33 63 34 64 35 78 37 99 38 66 39 50 40 51 41 59 42 52 43
REMARK SMILES IDX 54 44 60 45 53 46 55 47 56 48 57 49 58 50 82 51 83 52 91 53
REMARK SMILES IDX 84 54 86 55 92 56 85 57 87 58 88 59 89 60 90 61 67 62 68 63
REMARK SMILES IDX 76 64 69 65 71 66 77 67 70 68 72 69 73 70 74 71 75 72 8 73
REMARK SMILES IDX 9 74 10 75 11 76 12 77 13 78 16 79 14 80 15 81 17 82 18 83
REMARK SMILES IDX 19 84 20 85 23 86 21 87 22 88 24 89 25 90 26 91 27 92 28 93
REMARK SMILES IDX 29 94 40 95 30 96 34 97 35 98 39 99 31 100 33 101 36 102
REMARK SMILES IDX 38 103 32 104 37 105
REMARK H PARENT 97 25 65 36
REMARK Flexibility Score: inf
ROOT
ATOM      1  C   UNL A   1      45.837  41.270  29.523  1.00  0.00     0.202 C 
ENDROOT
BRANCH   1   2
ATOM      2  O   UNL A   1      46.309  39.949  29.804  1.00  0.00    -0.374 OA
BRANCH   2   3
ATOM      3  C   UNL A   1      45.596  38.874  29.192  1.00  0.00     0.202 C 
BRANCH   3   4
ATOM      4  C   UNL A   1      45.990  37.475  29.664  1.00  0.00     0.261 C 
BRANCH   4   5
ATOM      5  O   UNL A   1      47.269  37.118  29.123  1.00  0.00    -0.460 OA
BRANCH   5   6
ATOM      6  C   UNL A   1      47.707  35.851  28.923  1.00  0.00     0.338 C 
ATOM      7  O   UNL A   1      48.916  35.641  28.863  1.00  0.00    -0.246 OA
BRANCH   6   8
ATOM      8  C   UNL A   1      46.772  34.690  28.881  1.00  0.00     0.060 A 
ATOM      9  C   UNL A   1      46.665  33.705  29.867  1.00  0.00     0.016 A 
ATOM     10  C   UNL A   1      45.914  34.622  27.775  1.00  0.00     0.016 A 
ATOM     11  C   UNL A   1      45.813  32.634  29.735  1.00  0.00     0.010 A 
ATOM     12  C   UNL A   1      45.028  33.553  27.639  1.00  0.00     0.010 A 
ATOM     13  C   UNL A   1      45.015  32.543  28.607  1.00  0.00    -0.014 A 
BRANCH  13  14
ATOM     14  C   UNL A   1      44.353  31.254  28.394  1.00  0.00     0.031 A 
ATOM     15  C   UNL A   1      45.140  30.188  27.704  1.00  0.00     0.074 A 
ATOM     16  C   UNL A   1      43.165  31.022  28.975  1.00  0.00     0.049 A 
ATOM     17  N   UNL A   1      44.780  28.983  27.373  1.00  0.00    -0.248 NA
ATOM     18  C   UNL A   1      46.535  30.521  27.352  1.00  0.00     0.031 C 
ATOM     19  C   UNL A   1      42.429  31.979  29.808  1.00  0.00     0.029 A 
ATOM     20  N   UNL A   1      42.383  29.904  28.975  1.00  0.00    -0.354 N 
ATOM     21  C   UNL A   1      45.869  28.442  26.705  1.00  0.00     0.074 A 
ATOM     22  C   UNL A   1      46.919  29.432  26.708  1.00  0.00     0.031 C 
ATOM     23  C   UNL A   1      41.295  31.403  30.236  1.00  0.00     0.029 A 
ATOM     24  C   UNL A   1      41.197  30.072  29.649  1.00  0.00     0.049 A 
ATOM     25  H   UNL A   1      42.642  29.062  28.537  1.00  0.00     0.167 HD
ATOM     26  C   UNL A   1      45.962  27.227  26.124  1.00  0.00     0.034 A 
ATOM     27  C   UNL A   1      40.142  29.245  29.729  1.00  0.00     0.034 A 
ATOM     28  C   UNL A   1      44.893  26.270  26.163  1.00  0.00     0.049 A 
ATOM     29  C   UNL A   1      40.247  27.923  29.017  1.00  0.00     0.074 A 
ATOM     30  C   UNL A   1      44.829  25.019  25.585  1.00  0.00     0.029 A 
ATOM     31  N   UNL A   1      43.688  26.476  26.824  1.00  0.00    -0.354 N 
ATOM     32  N   UNL A   1      41.266  27.420  28.360  1.00  0.00    -0.248 NA
ATOM     33  C   UNL A   1      39.070  27.051  29.068  1.00  0.00     0.031 C 
ATOM     34  C   UNL A   1      43.567  24.484  25.865  1.00  0.00     0.029 A 
ATOM     35  C   UNL A   1      42.867  25.380  26.662  1.00  0.00     0.049 A 
ATOM     36  H   UNL A   1      43.455  27.286  27.333  1.00  0.00     0.167 HD
ATOM     37  C   UNL A   1      40.871  26.153  27.953  1.00  0.00     0.074 A 
ATOM     38  C   UNL A   1      39.521  25.966  28.452  1.00  0.00     0.031 C 
ATOM     39  C   UNL A   1      41.549  25.228  27.229  1.00  0.00     0.034 A 
BRANCH  26  40
ATOM     40  C   UNL A   1      47.213  26.932  25.345  1.00  0.00     0.023 A 
ATOM     41  C   UNL A   1      48.262  26.186  25.919  1.00  0.00     0.012 A 
ATOM     42  C   UNL A   1      47.363  27.446  24.043  1.00  0.00     0.148 A 
ATOM     43  C   UNL A   1      49.458  25.994  25.224  1.00  0.00     0.002 A 
ATOM     44  C   UNL A   1      48.536  27.211  23.338  1.00  0.00     0.091 A 
ATOM     45  F   UNL A   1      46.369  28.187  23.531  1.00  0.00    -0.205 F 
ATOM     46  C   UNL A   1      49.591  26.499  23.932  1.00  0.00     0.022 A 
BRANCH  44  47
ATOM     47  S   UNL A   1      48.775  27.767  21.648  1.00  0.00     0.127 S 
ATOM     48  O   UNL A   1      48.305  26.611  20.886  1.00  0.00    -0.237 OA
ATOM     49  O   UNL A   1      47.898  28.937  21.587  1.00  0.00    -0.237 OA
ATOM     50  O   UNL A   1      50.195  28.063  21.518  1.00  0.00    -0.744 OA
ENDBRANCH  44  47
ENDBRANCH  26  40
BRANCH  27  51
ATOM     51  C   UNL A   1      38.922  29.642  30.486  1.00  0.00     0.023 A 
ATOM     52  C   UNL A   1      38.726  29.159  31.793  1.00  0.00     0.012 A 
ATOM     53  C   UNL A   1      37.963  30.510  29.926  1.00  0.00     0.148 A 
ATOM     54  C   UNL A   1      37.581  29.504  32.514  1.00  0.00     0.002 A 
ATOM     55  C   UNL A   1      36.853  30.893  30.668  1.00  0.00     0.091 A 
ATOM     56  F   UNL A   1      38.160  30.952  28.675  1.00  0.00    -0.205 F 
ATOM     57  C   UNL A   1      36.650  30.376  31.957  1.00  0.00     0.022 A 
BRANCH  55  58
ATOM     58  S   UNL A   1      35.664  32.102  30.075  1.00  0.00     0.127 S 
ATOM     59  O   UNL A   1      36.522  33.246  29.781  1.00  0.00    -0.237 OA
ATOM     60  O   UNL A   1      35.110  31.427  28.900  1.00  0.00    -0.237 OA
ATOM     61  O   UNL A   1      34.713  32.288  31.163  1.00  0.00    -0.744 OA
ENDBRANCH  55  58
ENDBRANCH  27  51
BRANCH  39  62
ATOM     62  C   UNL A   1      40.867  23.909  27.000  1.00  0.00     0.023 A 
ATOM     63  C   UNL A   1      41.402  22.729  27.547  1.00  0.00     0.012 A 
ATOM     64  C   UNL A   1      39.641  23.867  26.308  1.00  0.00     0.148 A 
ATOM     65  C   UNL A   1      40.742  21.514  27.375  1.00  0.00     0.002 A 
ATOM     66  C   UNL A   1      38.960  22.666  26.195  1.00  0.00     0.091 A 
ATOM     67  F   UNL A   1      39.165  25.004  25.779  1.00  0.00    -0.205 F 
ATOM     68  C   UNL A   1      39.515  21.485  26.714  1.00  0.00     0.022 A 
BRANCH  66  69
ATOM     69  S   UNL A   1      37.323  22.566  25.466  1.00  0.00     0.127 S 
ATOM     70  O   UNL A   1      37.531  23.223  24.177  1.00  0.00    -0.237 OA
ATOM     71  O   UNL A   1      37.106  21.120  25.387  1.00  0.00    -0.237 OA
ATOM     72  O   UNL A   1      36.432  23.257  26.387  1.00  0.00    -0.744 OA
ENDBRANCH  66  69
ENDBRANCH  39  62
ENDBRANCH  13  14
ENDBRANCH   6   8
ENDBRANCH   5   6
ENDBRANCH   4   5
ENDBRANCH   3   4
ENDBRANCH   2   3
ENDBRANCH   1   2
BRANCH   1  73
ATOM     73  C   UNL A   1      44.437  41.221  28.914  1.00  0.00     0.261 C 
BRANCH  73  74
ATOM     74  O   UNL A   1      44.454  41.948  27.676  1.00  0.00    -0.462 OA
BRANCH  74  75
ATOM     75  C   UNL A   1      44.907  43.232  27.820  1.00  0.00     0.328 C 
ATOM     76  O   UNL A   1      44.546  43.952  28.737  1.00  0.00    -0.250 OA
BRANCH  75  77
ATOM     77  C   UNL A   1      45.898  43.643  26.715  1.00  0.00     0.195 C 
ATOM     78  C   UNL A   1      46.647  44.932  27.118  1.00  0.00     0.039 C 
ATOM     79  N   UNL A   1      45.458  43.962  25.336  1.00  0.00    -0.327 N 
ATOM     80  C   UNL A   1      47.239  45.494  25.850  1.00  0.00     0.024 C 
ATOM     81  C   UNL A   1      46.330  44.981  24.760  1.00  0.00     0.120 C 
BRANCH  79  82
ATOM     82  C   UNL A   1      44.714  43.265  24.405  1.00  0.00     0.246 C 
ATOM     83  O   UNL A   1      43.490  43.150  24.619  1.00  0.00    -0.272 OA
BRANCH  82  84
ATOM     84  C   UNL A   1      45.252  42.425  23.232  1.00  0.00     0.178 C 
ATOM     85  C   UNL A   1      46.787  42.381  23.270  1.00  0.00     0.037 C 
ATOM     86  N   UNL A   1      44.944  42.615  21.830  1.00  0.00    -0.296 N 
ATOM     87  C   UNL A   1      47.195  41.820  21.913  1.00  0.00     0.024 C 
ATOM     88  C   UNL A   1      46.007  42.079  20.994  1.00  0.00     0.124 C 
BRANCH  86  89
ATOM     89  C   UNL A   1      43.680  42.758  21.323  1.00  0.00     0.410 C 
ATOM     90  O   UNL A   1      42.833  41.873  21.341  1.00  0.00    -0.224 OA
BRANCH  89  91
ATOM     91  O   UNL A   1      43.511  43.958  20.698  1.00  0.00    -0.448 OA
BRANCH  91  92
ATOM     92  C   UNL A   1      43.341  43.910  19.268  1.00  0.00     0.248 C 
BRANCH  92  93
ATOM     93  C   UNL A   1      44.080  45.018  18.471  1.00  0.00     0.088 C 
ATOM     94  C   UNL A   1      43.204  45.983  17.663  1.00  0.00    -0.029 A 
ATOM     95  C   UNL A   1      44.950  45.991  19.260  1.00  0.00    -0.029 A 
ATOM     96  C   UNL A   1      42.162  45.704  16.790  1.00  0.00     0.005 A 
ATOM     97  C   UNL A   1      43.616  47.317  17.891  1.00  0.00    -0.014 A 
ATOM     98  C   UNL A   1      44.644  47.324  18.908  1.00  0.00    -0.014 A 
ATOM     99  C   UNL A   1      45.918  45.723  20.214  1.00  0.00     0.005 A 
ATOM    100  C   UNL A   1      41.535  46.775  16.140  1.00  0.00     0.000 A 
ATOM    101  C   UNL A   1      43.012  48.375  17.227  1.00  0.00     0.009 A 
ATOM    102  C   UNL A   1      45.240  48.390  19.567  1.00  0.00     0.009 A 
ATOM    103  C   UNL A   1      46.500  46.793  20.896  1.00  0.00     0.000 A 
ATOM    104  C   UNL A   1      41.962  48.097  16.347  1.00  0.00     0.001 A 
ATOM    105  C   UNL A   1      46.155  48.116  20.585  1.00  0.00     0.001 A 
ENDBRANCH  92  93
ENDBRANCH  91  92
ENDBRANCH  89  91
ENDBRANCH  86  89
ENDBRANCH  82  84
ENDBRANCH  79  82
ENDBRANCH  75  77
ENDBRANCH  74  75
ENDBRANCH  73  74
ENDBRANCH   1  73
TORSDOF 23
ENDMDL
MODEL 3
REMARK VINA RESULT:      -9.8      1.815      2.360
REMARK SMILES O=C(OCCOCCOC(=O)[C@@H]1CCCN1C(=O)[C@@H]1CCCN1C(=O)OCC1c2ccccc2-c2ccccc21)c1ccc(-c2c3nc(c(-c4cccc(S(=O)(=O)[O-])c4F)c4ccc([nH]4)c(-c4cccc(S(=O)(=O)[O-])c4F)c4nc(c(-c5cccc(S(=O)(=O)[O-])c5F)c5ccc2[nH]5)C=C4)C=C3)cc1
REMARK SMILES IDX 7 1 6 2 5 3 4 4 3 5 2 6 1 7 41 8 42 9 103 10 43 11 102 12
REMARK SMILES IDX 44 13 45 14 46 15 96 16 47 17 101 18 95 19 97 20 48 21
REMARK SMILES IDX 100 22 94 23 93 24 49 26 81 27 61 28 80 29 62 30 65 31 79 32
REMARK SMILES IDX 98 33 63 34 64 35 78 37 99 38 66 39 50 40 51 41 59 42 52 43
REMARK SMILES IDX 54 44 60 45 53 46 55 47 56 48 57 49 58 50 82 51 83 52 91 53
REMARK SMILES IDX 84 54 86 55 92 56 85 57 87 58 88 59 89 60 90 61 67 62 68 63
REMARK SMILES IDX 76 64 69 65 71 66 77 67 70 68 72 69 73 70 74 71 75 72 8 73
REMARK SMILES IDX 9 74 10 75 11 76 12 77 13 78 16 79 14 80 15 81 17 82 18 83
REMARK SMILES IDX 19 84 20 85 23 86 21 87 22 88 24 89 25 90 26 91 27 92 28 93
REMARK SMILES IDX 29 94 40 95 30 96 34 97 35 98 39 99 31 100 33 101 36 102
REMARK SMILES IDX 38 103 32 104 37 105
REMARK H PARENT 97 25 65 36
REMARK Flexibility Score: inf
ROOT
ATOM      1  C   UNL A   1      33.200  30.695  27.307  1.00  0.00     0.202 C 
ENDROOT
BRANCH   1   2
ATOM      2  O   UNL A   1      33.695  31.988  27.668  1.00  0.00    -0.374 OA
BRANCH   2   3
ATOM      3  C   UNL A   1      32.801  33.086  27.485  1.00  0.00     0.202 C 
BRANCH   3   4
ATOM      4  C   UNL A   1      32.976  34.243  28.467  1.00  0.00     0.261 C 
BRANCH   4   5
ATOM      5  O   UNL A   1      34.356  34.376  28.827  1.00  0.00    -0.460 OA
BRANCH   5   6
ATOM      6  C   UNL A   1      34.899  33.982  30.005  1.00  0.00     0.338 C 
ATOM      7  O   UNL A   1      34.319  34.259  31.051  1.00  0.00    -0.246 OA
BRANCH   6   8
ATOM      8  C   UNL A   1      36.123  33.132  30.064  1.00  0.00     0.060 A 
ATOM      9  C   UNL A   1      36.189  31.854  30.624  1.00  0.00     0.016 A 
ATOM     10  C   UNL A   1      37.277  33.660  29.470  1.00  0.00     0.016 A 
ATOM     11  C   UNL A   1      37.368  31.148  30.688  1.00  0.00     0.010 A 
ATOM     12  C   UNL A   1      38.475  32.946  29.506  1.00  0.00     0.010 A 
ATOM     13  C   UNL A   1      38.518  31.707  30.154  1.00  0.00    -0.014 A 
BRANCH  13  14
ATOM     14  C   UNL A   1      39.774  31.042  30.504  1.00  0.00     0.031 A 
ATOM     15  C   UNL A   1      40.420  31.436  31.793  1.00  0.00     0.074 A 
ATOM     16  C   UNL A   1      40.193  29.999  29.769  1.00  0.00     0.049 A 
ATOM     17  N   UNL A   1      41.537  31.023  32.314  1.00  0.00    -0.248 NA
ATOM     18  C   UNL A   1      39.695  32.423  32.619  1.00  0.00     0.031 C 
ATOM     19  C   UNL A   1      39.502  29.461  28.593  1.00  0.00     0.029 A 
ATOM     20  N   UNL A   1      41.281  29.191  29.919  1.00  0.00    -0.354 N 
ATOM     21  C   UNL A   1      41.692  31.754  33.484  1.00  0.00     0.074 A 
ATOM     22  C   UNL A   1      40.538  32.610  33.620  1.00  0.00     0.031 C 
ATOM     23  C   UNL A   1      40.191  28.410  28.125  1.00  0.00     0.029 A 
ATOM     24  C   UNL A   1      41.400  28.252  28.923  1.00  0.00     0.049 A 
ATOM     25  H   UNL A   1      41.918  29.272  30.665  1.00  0.00     0.167 HD
ATOM     26  C   UNL A   1      42.728  31.718  34.350  1.00  0.00     0.034 A 
ATOM     27  C   UNL A   1      42.410  27.399  28.676  1.00  0.00     0.034 A 
ATOM     28  C   UNL A   1      43.846  30.836  34.177  1.00  0.00     0.049 A 
ATOM     29  C   UNL A   1      43.580  27.426  29.620  1.00  0.00     0.074 A 
ATOM     30  C   UNL A   1      44.984  30.719  34.949  1.00  0.00     0.029 A 
ATOM     31  N   UNL A   1      43.960  29.916  33.142  1.00  0.00    -0.354 N 
ATOM     32  N   UNL A   1      43.743  28.137  30.712  1.00  0.00    -0.248 NA
ATOM     33  C   UNL A   1      44.697  26.529  29.311  1.00  0.00     0.031 C 
ATOM     34  C   UNL A   1      45.804  29.754  34.356  1.00  0.00     0.029 A 
ATOM     35  C   UNL A   1      45.153  29.233  33.245  1.00  0.00     0.049 A 
ATOM     36  H   UNL A   1      43.287  29.774  32.437  1.00  0.00     0.167 HD
ATOM     37  C   UNL A   1      44.962  27.744  31.247  1.00  0.00     0.074 A 
ATOM     38  C   UNL A   1      45.487  26.722  30.359  1.00  0.00     0.031 C 
ATOM     39  C   UNL A   1      45.599  28.185  32.360  1.00  0.00     0.034 A 
BRANCH  26  40
ATOM     40  C   UNL A   1      42.714  32.711  35.477  1.00  0.00     0.023 A 
ATOM     41  C   UNL A   1      43.207  34.019  35.295  1.00  0.00     0.012 A 
ATOM     42  C   UNL A   1      42.247  32.320  36.747  1.00  0.00     0.148 A 
ATOM     43  C   UNL A   1      43.275  34.907  36.370  1.00  0.00     0.002 A 
ATOM     44  C   UNL A   1      42.273  33.224  37.800  1.00  0.00     0.091 A 
ATOM     45  F   UNL A   1      41.819  31.060  36.909  1.00  0.00    -0.205 F 
ATOM     46  C   UNL A   1      42.802  34.512  37.619  1.00  0.00     0.022 A 
BRANCH  44  47
ATOM     47  S   UNL A   1      41.628  32.828  39.428  1.00  0.00     0.127 S 
ATOM     48  O   UNL A   1      40.195  32.714  39.160  1.00  0.00    -0.237 OA
ATOM     49  O   UNL A   1      42.297  31.559  39.720  1.00  0.00    -0.237 OA
ATOM     50  O   UNL A   1      42.015  33.933  40.296  1.00  0.00    -0.744 OA
ENDBRANCH  44  47
ENDBRANCH  26  40
BRANCH  27  51
ATOM     51  C   UNL A   1      42.358  26.482  27.504  1.00  0.00     0.023 A 
ATOM     52  C   UNL A   1      42.815  26.928  26.250  1.00  0.00     0.012 A 
ATOM     53  C   UNL A   1      41.875  25.163  27.627  1.00  0.00     0.148 A 
ATOM     54  C   UNL A   1      42.759  26.090  25.134  1.00  0.00     0.002 A 
ATOM     55  C   UNL A   1      41.873  24.317  26.525  1.00  0.00     0.091 A 
ATOM     56  F   UNL A   1      41.433  24.758  28.827  1.00  0.00    -0.205 F 
ATOM     57  C   UNL A   1      42.297  24.784  25.272  1.00  0.00     0.022 A 
BRANCH  55  58
ATOM     58  S   UNL A   1      41.404  22.586  26.637  1.00  0.00     0.127 S 
ATOM     59  O   UNL A   1      41.793  22.259  28.006  1.00  0.00    -0.237 OA
ATOM     60  O   UNL A   1      39.960  22.649  26.405  1.00  0.00    -0.237 OA
ATOM     61  O   UNL A   1      42.151  21.906  25.588  1.00  0.00    -0.744 OA
ENDBRANCH  55  58
ENDBRANCH  27  51
BRANCH  39  62
ATOM     62  C   UNL A   1      46.894  27.511  32.715  1.00  0.00     0.023 A 
ATOM     63  C   UNL A   1      46.900  26.379  33.550  1.00  0.00     0.012 A 
ATOM     64  C   UNL A   1      48.098  27.963  32.139  1.00  0.00     0.148 A 
ATOM     65  C   UNL A   1      48.097  25.726  33.839  1.00  0.00     0.002 A 
ATOM     66  C   UNL A   1      49.274  27.272  32.382  1.00  0.00     0.091 A 
ATOM     67  F   UNL A   1      48.065  29.057  31.364  1.00  0.00    -0.205 F 
ATOM     68  C   UNL A   1      49.279  26.163  33.243  1.00  0.00     0.022 A 
BRANCH  66  69
ATOM     69  S   UNL A   1      50.812  27.695  31.560  1.00  0.00     0.127 S 
ATOM     70  O   UNL A   1      50.371  27.881  30.179  1.00  0.00    -0.237 OA
ATOM     71  O   UNL A   1      51.202  28.927  32.248  1.00  0.00    -0.237 OA
ATOM     72  O   UNL A   1      51.710  26.571  31.787  1.00  0.00    -0.744 OA
ENDBRANCH  66  69
ENDBRANCH  39  62
ENDBRANCH  13  14
ENDBRANCH   6   8
ENDBRANCH   5   6
ENDBRANCH   4   5
ENDBRANCH   3   4
ENDBRANCH   2   3
ENDBRANCH   1   2
BRANCH   1  73
ATOM     73  C   UNL A   1      31.900  30.820  26.516  1.00  0.00     0.261 C 
BRANCH  73  74
ATOM     74  O   UNL A   1      31.752  29.651  25.695  1.00  0.00    -0.462 OA
BRANCH  74  75
ATOM     75  C   UNL A   1      32.647  28.664  26.011  1.00  0.00     0.328 C 
ATOM     76  O   UNL A   1      32.768  28.232  27.146  1.00  0.00    -0.250 OA
BRANCH  75  77
ATOM     77  C   UNL A   1      33.458  28.181  24.794  1.00  0.00     0.195 C 
ATOM     78  C   UNL A   1      33.646  29.333  23.783  1.00  0.00     0.039 C 
ATOM     79  N   UNL A   1      32.994  27.078  23.920  1.00  0.00    -0.327 N 
ATOM     80  C   UNL A   1      34.039  28.692  22.476  1.00  0.00     0.024 C 
ATOM     81  C   UNL A   1      33.442  27.308  22.550  1.00  0.00     0.120 C 
BRANCH  79  82
ATOM     82  C   UNL A   1      32.613  25.776  24.177  1.00  0.00     0.246 C 
ATOM     83  O   UNL A   1      31.440  25.588  24.559  1.00  0.00    -0.272 OA
BRANCH  82  84
ATOM     84  C   UNL A   1      33.529  24.540  24.250  1.00  0.00     0.178 C 
ATOM     85  C   UNL A   1      34.725  24.820  25.171  1.00  0.00     0.037 C 
ATOM     86  N   UNL A   1      34.111  23.838  23.127  1.00  0.00    -0.296 N 
ATOM     87  C   UNL A   1      35.699  23.678  24.903  1.00  0.00     0.024 C 
ATOM     88  C   UNL A   1      35.320  23.137  23.529  1.00  0.00     0.124 C 
BRANCH  86  89
ATOM     89  C   UNL A   1      33.415  23.422  22.022  1.00  0.00     0.410 C 
ATOM     90  O   UNL A   1      33.142  24.148  21.074  1.00  0.00    -0.224 OA
BRANCH  89  91
ATOM     91  O   UNL A   1      32.968  22.141  22.150  1.00  0.00    -0.448 OA
BRANCH  91  92
ATOM     92  C   UNL A   1      31.707  21.973  22.828  1.00  0.00     0.248 C 
BRANCH  92  93
ATOM     93  C   UNL A   1      31.704  20.938  23.985  1.00  0.00     0.088 C 
ATOM     94  C   UNL A   1      32.482  19.638  23.745  1.00  0.00    -0.029 A 
ATOM     95  C   UNL A   1      32.272  21.384  25.330  1.00  0.00    -0.029 A 
ATOM     96  C   UNL A   1      32.453  18.785  22.651  1.00  0.00     0.005 A 
ATOM     97  C   UNL A   1      33.291  19.344  24.867  1.00  0.00    -0.014 A 
ATOM     98  C   UNL A   1      33.204  20.438  25.809  1.00  0.00    -0.014 A 
ATOM     99  C   UNL A   1      31.998  22.530  26.058  1.00  0.00     0.005 A 
ATOM    100  C   UNL A   1      33.241  17.628  22.690  1.00  0.00     0.000 A 
ATOM    101  C   UNL A   1      34.051  18.184  24.916  1.00  0.00     0.009 A 
ATOM    102  C   UNL A   1      33.926  20.675  26.970  1.00  0.00     0.009 A 
ATOM    103  C   UNL A   1      32.740  22.782  27.212  1.00  0.00     0.000 A 
ATOM    104  C   UNL A   1      34.024  17.324  23.815  1.00  0.00     0.001 A 
ATOM    105  C   UNL A   1      33.706  21.869  27.659  1.00  0.00     0.001 A 
ENDBRANCH  92  93
ENDBRANCH  91  92
ENDBRANCH  89  91
ENDBRANCH  86  89
ENDBRANCH  82  84
ENDBRANCH  79  82
ENDBRANCH  75  77
ENDBRANCH  74  75
ENDBRANCH  73  74
ENDBRANCH   1  73
TORSDOF 23
ENDMDL
