MODEL 1
REMARK VINA RESULT:     -11.4      0.000      0.000
REMARK SMILES COc1ccc2c(c1)c(Cc1nc(-c3ccc(C(=O)OCCOCCOC(=O)c4ccc(-c5c6nc(c(-c7cccc(S(=O)(=O)[O-])c7F)c7ccc([nH]7)c(-c7cccc(S(=O)(=O)[O-])c7F)c7nc(c(-c8cccc(S(=O)(=O)[O-])c8F)c8ccc5[nH]8)C=C7)C=C6)cc4)cc3)cs1)c(C)n2C(=O)c1ccc(Cl)cc1
REMARK SMILES IDX 22 1 21 2 20 3 18 4 19 5 17 6 14 7 15 8 93 9 16 10 92 11
REMARK SMILES IDX 13 12 11 13 12 14 95 15 94 16 10 17 9 18 3 19 4 20 8 21 5 22
REMARK SMILES IDX 7 23 6 24 98 25 96 26 97 27 2 28 1 29 99 30 100 31 101 32
REMARK SMILES IDX 102 33 107 34 103 35 106 36 104 37 105 38 23 39 24 40 25 41
REMARK SMILES IDX 26 42 27 43 28 44 29 45 30 46 91 47 31 48 90 49 32 50 33 51
REMARK SMILES IDX 34 52 84 53 35 54 89 55 83 56 85 57 36 58 88 59 82 60 81 61
REMARK SMILES IDX 37 63 69 64 49 65 68 66 50 67 53 68 67 69 86 70 51 71 52 72
REMARK SMILES IDX 66 74 87 75 54 76 38 77 39 78 47 79 40 80 42 81 48 82 41 83
REMARK SMILES IDX 43 84 44 85 45 86 46 87 70 88 71 89 79 90 72 91 74 92 80 93
REMARK SMILES IDX 73 94 75 95 76 96 77 97 78 98 55 99 56 100 64 101 57 102
REMARK SMILES IDX 59 103 65 104 58 105 60 106 61 107 62 108 63 109
REMARK H PARENT 85 62 53 73
REMARK Flexibility Score: inf
ROOT
ATOM      1  C   UNL A   1      43.351  18.511  25.467  1.00  0.00     0.202 C 
ENDROOT
BRANCH   1   2
ATOM      2  C   UNL A   1      42.957  19.907  25.974  1.00  0.00     0.261 C 
BRANCH   2   3
ATOM      3  O   UNL A   1      41.645  20.310  25.567  1.00  0.00    -0.460 OA
BRANCH   3   4
ATOM      4  C   UNL A   1      40.741  20.309  26.577  1.00  0.00     0.338 C 
ATOM      5  O   UNL A   1      40.938  20.008  27.744  1.00  0.00    -0.246 OA
BRANCH   4   6
ATOM      6  C   UNL A   1      39.495  20.972  26.141  1.00  0.00     0.060 A 
ATOM      7  C   UNL A   1      37.219  22.411  25.376  1.00  0.00     0.001 A 
ATOM      8  C   UNL A   1      38.205  23.017  26.166  1.00  0.00     0.011 A 
ATOM      9  C   UNL A   1      37.381  21.078  24.970  1.00  0.00     0.011 A 
ATOM     10  C   UNL A   1      39.331  22.299  26.553  1.00  0.00     0.016 A 
ATOM     11  C   UNL A   1      38.531  20.360  25.335  1.00  0.00     0.016 A 
BRANCH   7  12
ATOM     12  C   UNL A   1      36.007  23.151  25.080  1.00  0.00     0.081 A 
ATOM     13  C   UNL A   1      34.184  24.256  25.654  1.00  0.00     0.098 A 
ATOM     14  N   UNL A   1      35.026  23.315  26.031  1.00  0.00    -0.241 NA
ATOM     15  S   UNL A   1      34.384  24.803  24.034  1.00  0.00    -0.126 S 
ATOM     16  C   UNL A   1      35.788  23.825  23.894  1.00  0.00     0.095 A 
BRANCH  13  17
ATOM     17  C   UNL A   1      33.128  24.846  26.543  1.00  0.00     0.105 C 
BRANCH  17  18
ATOM     18  C   UNL A   1      32.261  25.859  25.828  1.00  0.00    -0.012 A 
ATOM     19  C   UNL A   1      33.316  29.485  26.443  1.00  0.00     0.119 A 
ATOM     20  C   UNL A   1      32.238  30.065  25.801  1.00  0.00     0.048 A 
ATOM     21  C   UNL A   1      33.406  28.095  26.499  1.00  0.00     0.057 A 
ATOM     22  C   UNL A   1      31.250  29.271  25.202  1.00  0.00     0.031 A 
ATOM     23  C   UNL A   1      32.437  27.270  25.881  1.00  0.00     0.008 A 
ATOM     24  C   UNL A   1      31.380  27.864  25.189  1.00  0.00     0.057 A 
ATOM     25  N   UNL A   1      30.620  26.839  24.589  1.00  0.00    -0.280 N 
ATOM     26  C   UNL A   1      31.140  25.611  25.042  1.00  0.00     0.028 A 
ATOM     27  C   UNL A   1      30.591  24.256  24.721  1.00  0.00     0.065 C 
BRANCH  19  28
ATOM     28  O   UNL A   1      34.351  30.154  27.030  1.00  0.00    -0.497 OA
ATOM     29  C   UNL A   1      35.203  29.386  27.874  1.00  0.00     0.278 C 
ENDBRANCH  19  28
BRANCH  25  30
ATOM     30  C   UNL A   1      29.516  27.027  23.701  1.00  0.00     0.262 C 
ATOM     31  O   UNL A   1      28.723  26.105  23.517  1.00  0.00    -0.268 OA
BRANCH  30  32
ATOM     32  C   UNL A   1      29.194  28.278  22.988  1.00  0.00     0.040 A 
ATOM     33  C   UNL A   1      30.132  28.900  22.155  1.00  0.00     0.015 A 
ATOM     34  C   UNL A   1      27.936  28.852  23.200  1.00  0.00     0.015 A 
ATOM     35  C   UNL A   1      29.838  30.155  21.612  1.00  0.00     0.021 A 
ATOM     36  C   UNL A   1      27.644  30.099  22.648  1.00  0.00     0.021 A 
ATOM     37  C   UNL A   1      28.604  30.755  21.875  1.00  0.00     0.041 A 
ATOM     38  Cl  UNL A   1      28.269  32.326  21.261  1.00  0.00    -0.084 Cl
ENDBRANCH  30  32
ENDBRANCH  25  30
ENDBRANCH  17  18
ENDBRANCH  13  17
ENDBRANCH   7  12
ENDBRANCH   4   6
ENDBRANCH   3   4
ENDBRANCH   2   3
ENDBRANCH   1   2
BRANCH   1  39
ATOM     39  O   UNL A   1      44.686  18.277  25.026  1.00  0.00    -0.374 OA
BRANCH  39  40
ATOM     40  C   UNL A   1      45.745  19.019  25.637  1.00  0.00     0.202 C 
BRANCH  40  41
ATOM     41  C   UNL A   1      46.479  20.101  24.826  1.00  0.00     0.261 C 
BRANCH  41  42
ATOM     42  O   UNL A   1      46.121  21.417  25.263  1.00  0.00    -0.460 OA
BRANCH  42  43
ATOM     43  C   UNL A   1      45.288  22.101  24.433  1.00  0.00     0.338 C 
ATOM     44  O   UNL A   1      44.654  21.655  23.491  1.00  0.00    -0.246 OA
BRANCH  43  45
ATOM     45  C   UNL A   1      45.010  23.379  25.117  1.00  0.00     0.060 A 
ATOM     46  C   UNL A   1      45.715  24.533  24.762  1.00  0.00     0.016 A 
ATOM     47  C   UNL A   1      44.293  23.308  26.324  1.00  0.00     0.016 A 
ATOM     48  C   UNL A   1      45.772  25.582  25.667  1.00  0.00     0.010 A 
ATOM     49  C   UNL A   1      44.380  24.351  27.240  1.00  0.00     0.010 A 
ATOM     50  C   UNL A   1      45.151  25.471  26.925  1.00  0.00    -0.014 A 
BRANCH  50  51
ATOM     51  C   UNL A   1      45.175  26.648  27.789  1.00  0.00     0.031 A 
ATOM     52  C   UNL A   1      46.207  26.548  28.854  1.00  0.00     0.074 A 
ATOM     53  C   UNL A   1      44.442  27.773  27.663  1.00  0.00     0.049 A 
ATOM     54  N   UNL A   1      46.005  26.415  30.123  1.00  0.00    -0.248 NA
ATOM     55  C   UNL A   1      47.612  26.415  28.446  1.00  0.00     0.031 C 
ATOM     56  C   UNL A   1      43.563  28.179  26.567  1.00  0.00     0.029 A 
ATOM     57  N   UNL A   1      44.433  28.866  28.484  1.00  0.00    -0.354 N 
ATOM     58  C   UNL A   1      47.268  26.374  30.702  1.00  0.00     0.074 A 
ATOM     59  C   UNL A   1      48.210  26.226  29.622  1.00  0.00     0.031 C 
ATOM     60  C   UNL A   1      43.307  29.506  26.675  1.00  0.00     0.029 A 
ATOM     61  C   UNL A   1      43.902  30.013  27.900  1.00  0.00     0.049 A 
ATOM     62  H   UNL A   1      44.771  28.844  29.409  1.00  0.00     0.167 HD
ATOM     63  C   UNL A   1      47.463  26.655  32.018  1.00  0.00     0.034 A 
ATOM     64  C   UNL A   1      44.027  31.286  28.361  1.00  0.00     0.034 A 
ATOM     65  C   UNL A   1      46.230  26.674  32.756  1.00  0.00     0.049 A 
ATOM     66  C   UNL A   1      44.290  31.196  29.817  1.00  0.00     0.074 A 
ATOM     67  C   UNL A   1      45.236  25.754  33.020  1.00  0.00     0.029 A 
ATOM     68  N   UNL A   1      45.699  27.906  33.053  1.00  0.00    -0.354 N 
ATOM     69  N   UNL A   1      43.410  30.766  30.677  1.00  0.00    -0.248 NA
ATOM     70  C   UNL A   1      45.670  31.193  30.275  1.00  0.00     0.031 C 
ATOM     71  C   UNL A   1      44.027  26.506  32.989  1.00  0.00     0.029 A 
ATOM     72  C   UNL A   1      44.365  27.841  32.755  1.00  0.00     0.049 A 
ATOM     73  H   UNL A   1      46.184  28.684  33.410  1.00  0.00     0.167 HD
ATOM     74  C   UNL A   1      44.153  30.019  31.579  1.00  0.00     0.074 A 
ATOM     75  C   UNL A   1      45.543  30.405  31.346  1.00  0.00     0.031 C 
ATOM     76  C   UNL A   1      43.606  28.947  32.222  1.00  0.00     0.034 A 
BRANCH  63  77
ATOM     77  C   UNL A   1      48.718  27.250  32.593  1.00  0.00     0.023 A 
ATOM     78  C   UNL A   1      49.267  26.632  33.738  1.00  0.00     0.012 A 
ATOM     79  C   UNL A   1      49.200  28.531  32.251  1.00  0.00     0.148 A 
ATOM     80  C   UNL A   1      50.219  27.280  34.530  1.00  0.00     0.002 A 
ATOM     81  C   UNL A   1      50.191  29.145  33.005  1.00  0.00     0.091 A 
ATOM     82  F   UNL A   1      48.608  29.224  31.272  1.00  0.00    -0.205 F 
ATOM     83  C   UNL A   1      50.686  28.535  34.161  1.00  0.00     0.022 A 
BRANCH  81  84
ATOM     84  S   UNL A   1      50.834  30.764  32.570  1.00  0.00     0.127 S 
ATOM     85  O   UNL A   1      52.261  30.590  32.830  1.00  0.00    -0.237 OA
ATOM     86  O   UNL A   1      50.467  30.863  31.157  1.00  0.00    -0.237 OA
ATOM     87  O   UNL A   1      50.135  31.704  33.436  1.00  0.00    -0.744 OA
ENDBRANCH  81  84
ENDBRANCH  63  77
BRANCH  64  88
ATOM     88  C   UNL A   1      44.182  32.565  27.617  1.00  0.00     0.023 A 
ATOM     89  C   UNL A   1      44.629  32.550  26.277  1.00  0.00     0.012 A 
ATOM     90  C   UNL A   1      43.627  33.768  28.106  1.00  0.00     0.148 A 
ATOM     91  C   UNL A   1      44.489  33.673  25.449  1.00  0.00     0.002 A 
ATOM     92  C   UNL A   1      43.506  34.886  27.285  1.00  0.00     0.091 A 
ATOM     93  F   UNL A   1      43.122  33.794  29.346  1.00  0.00    -0.205 F 
ATOM     94  C   UNL A   1      43.921  34.839  25.951  1.00  0.00     0.022 A 
BRANCH  92  95
ATOM     95  S   UNL A   1      42.772  36.417  27.881  1.00  0.00     0.127 S 
ATOM     96  O   UNL A   1      43.700  36.810  28.943  1.00  0.00    -0.237 OA
ATOM     97  O   UNL A   1      42.814  37.257  26.687  1.00  0.00    -0.237 OA
ATOM     98  O   UNL A   1      41.443  36.055  28.357  1.00  0.00    -0.744 OA
ENDBRANCH  92  95
ENDBRANCH  64  88
BRANCH  76  99
ATOM     99  C   UNL A   1      42.121  28.725  32.115  1.00  0.00     0.023 A 
ATOM    100  C   UNL A   1      41.223  29.255  33.065  1.00  0.00     0.012 A 
ATOM    101  C   UNL A   1      41.618  28.186  30.921  1.00  0.00     0.148 A 
ATOM    102  C   UNL A   1      39.847  29.251  32.823  1.00  0.00     0.002 A 
ATOM    103  C   UNL A   1      40.253  28.222  30.665  1.00  0.00     0.091 A 
ATOM    104  F   UNL A   1      42.495  27.702  30.028  1.00  0.00    -0.205 F 
ATOM    105  C   UNL A   1      39.364  28.751  31.615  1.00  0.00     0.022 A 
BRANCH 103 106
ATOM    106  S   UNL A   1      39.573  27.711  29.086  1.00  0.00     0.127 S 
ATOM    107  O   UNL A   1      40.303  28.562  28.148  1.00  0.00    -0.237 OA
ATOM    108  O   UNL A   1      39.936  26.294  29.037  1.00  0.00    -0.237 OA
ATOM    109  O   UNL A   1      38.138  27.960  29.160  1.00  0.00    -0.744 OA
ENDBRANCH 103 106
ENDBRANCH  76  99
ENDBRANCH  50  51
ENDBRANCH  43  45
ENDBRANCH  42  43
ENDBRANCH  41  42
ENDBRANCH  40  41
ENDBRANCH  39  40
ENDBRANCH   1  39
TORSDOF 23
ENDMDL
MODEL 2
REMARK VINA RESULT:     -11.0      1.787      2.127
REMARK SMILES COc1ccc2c(c1)c(Cc1nc(-c3ccc(C(=O)OCCOCCOC(=O)c4ccc(-c5c6nc(c(-c7cccc(S(=O)(=O)[O-])c7F)c7ccc([nH]7)c(-c7cccc(S(=O)(=O)[O-])c7F)c7nc(c(-c8cccc(S(=O)(=O)[O-])c8F)c8ccc5[nH]8)C=C7)C=C6)cc4)cc3)cs1)c(C)n2C(=O)c1ccc(Cl)cc1
REMARK SMILES IDX 22 1 21 2 20 3 18 4 19 5 17 6 14 7 15 8 93 9 16 10 92 11
REMARK SMILES IDX 13 12 11 13 12 14 95 15 94 16 10 17 9 18 3 19 4 20 8 21 5 22
REMARK SMILES IDX 7 23 6 24 98 25 96 26 97 27 2 28 1 29 99 30 100 31 101 32
REMARK SMILES IDX 102 33 107 34 103 35 106 36 104 37 105 38 23 39 24 40 25 41
REMARK SMILES IDX 26 42 27 43 28 44 29 45 30 46 91 47 31 48 90 49 32 50 33 51
REMARK SMILES IDX 34 52 84 53 35 54 89 55 83 56 85 57 36 58 88 59 82 60 81 61
REMARK SMILES IDX 37 63 69 64 49 65 68 66 50 67 53 68 67 69 86 70 51 71 52 72
REMARK SMILES IDX 66 74 87 75 54 76 38 77 39 78 47 79 40 80 42 81 48 82 41 83
REMARK SMILES IDX 43 84 44 85 45 86 46 87 70 88 71 89 79 90 72 91 74 92 80 93
REMARK SMILES IDX 73 94 75 95 76 96 77 97 78 98 55 99 56 100 64 101 57 102
REMARK SMILES IDX 59 103 65 104 58 105 60 106 61 107 62 108 63 109
REMARK H PARENT 85 62 53 73
REMARK Flexibility Score: inf
ROOT
ATOM      1  C   UNL A   1      43.408  18.532  25.420  1.00  0.00     0.202 C 
ENDROOT
BRANCH   1   2
ATOM      2  C   UNL A   1      43.025  19.915  25.969  1.00  0.00     0.261 C 
BRANCH   2   3
ATOM      3  O   UNL A   1      41.720  20.344  25.568  1.00  0.00    -0.460 OA
BRANCH   3   4
ATOM      4  C   UNL A   1      40.803  20.290  26.566  1.00  0.00     0.338 C 
ATOM      5  O   UNL A   1      40.991  19.957  27.725  1.00  0.00    -0.246 OA
BRANCH   4   6
ATOM      6  C   UNL A   1      39.548  20.941  26.134  1.00  0.00     0.060 A 
ATOM      7  C   UNL A   1      37.257  22.357  25.374  1.00  0.00     0.001 A 
ATOM      8  C   UNL A   1      38.249  22.980  26.140  1.00  0.00     0.011 A 
ATOM      9  C   UNL A   1      37.419  21.018  24.989  1.00  0.00     0.011 A 
ATOM     10  C   UNL A   1      39.384  22.274  26.525  1.00  0.00     0.016 A 
ATOM     11  C   UNL A   1      38.576  20.311  25.351  1.00  0.00     0.016 A 
BRANCH   7  12
ATOM     12  C   UNL A   1      36.037  23.086  25.080  1.00  0.00     0.081 A 
ATOM     13  C   UNL A   1      34.217  24.194  25.658  1.00  0.00     0.098 A 
ATOM     14  N   UNL A   1      35.068  23.263  26.041  1.00  0.00    -0.241 NA
ATOM     15  S   UNL A   1      34.395  24.714  24.027  1.00  0.00    -0.126 S 
ATOM     16  C   UNL A   1      35.800  23.739  23.885  1.00  0.00     0.095 A 
BRANCH  13  17
ATOM     17  C   UNL A   1      33.169  24.794  26.550  1.00  0.00     0.105 C 
BRANCH  17  18
ATOM     18  C   UNL A   1      32.314  25.819  25.839  1.00  0.00    -0.012 A 
ATOM     19  C   UNL A   1      33.482  29.424  26.366  1.00  0.00     0.119 A 
ATOM     20  C   UNL A   1      32.406  30.024  25.740  1.00  0.00     0.048 A 
ATOM     21  C   UNL A   1      33.536  28.033  26.443  1.00  0.00     0.057 A 
ATOM     22  C   UNL A   1      31.382  29.247  25.179  1.00  0.00     0.031 A 
ATOM     23  C   UNL A   1      32.530  27.225  25.863  1.00  0.00     0.008 A 
ATOM     24  C   UNL A   1      31.472  27.837  25.187  1.00  0.00     0.057 A 
ATOM     25  N   UNL A   1      30.670  26.824  24.622  1.00  0.00    -0.280 N 
ATOM     26  C   UNL A   1      31.168  25.589  25.084  1.00  0.00     0.028 A 
ATOM     27  C   UNL A   1      30.574  24.245  24.799  1.00  0.00     0.065 C 
BRANCH  19  28
ATOM     28  O   UNL A   1      34.549  30.073  26.916  1.00  0.00    -0.497 OA
ATOM     29  C   UNL A   1      35.271  29.367  27.919  1.00  0.00     0.278 C 
ENDBRANCH  19  28
BRANCH  25  30
ATOM     30  C   UNL A   1      29.550  27.028  23.758  1.00  0.00     0.262 C 
ATOM     31  O   UNL A   1      28.765  26.103  23.557  1.00  0.00    -0.268 OA
BRANCH  30  32
ATOM     32  C   UNL A   1      29.204  28.297  23.091  1.00  0.00     0.040 A 
ATOM     33  C   UNL A   1      27.932  28.865  23.226  1.00  0.00     0.015 A 
ATOM     34  C   UNL A   1      30.172  28.900  22.279  1.00  0.00     0.015 A 
ATOM     35  C   UNL A   1      27.600  29.989  22.464  1.00  0.00     0.021 A 
ATOM     36  C   UNL A   1      29.839  30.028  21.529  1.00  0.00     0.021 A 
ATOM     37  C   UNL A   1      28.548  30.554  21.608  1.00  0.00     0.041 A 
ATOM     38  Cl  UNL A   1      28.119  31.897  20.623  1.00  0.00    -0.084 Cl
ENDBRANCH  30  32
ENDBRANCH  25  30
ENDBRANCH  17  18
ENDBRANCH  13  17
ENDBRANCH   7  12
ENDBRANCH   4   6
ENDBRANCH   3   4
ENDBRANCH   2   3
ENDBRANCH   1   2
BRANCH   1  39
ATOM     39  O   UNL A   1      44.740  18.302  24.968  1.00  0.00    -0.374 OA
BRANCH  39  40
ATOM     40  C   UNL A   1      45.796  19.084  25.533  1.00  0.00     0.202 C 
BRANCH  40  41
ATOM     41  C   UNL A   1      46.524  20.120  24.658  1.00  0.00     0.261 C 
BRANCH  41  42
ATOM     42  O   UNL A   1      46.284  21.455  25.116  1.00  0.00    -0.460 OA
BRANCH  42  43
ATOM     43  C   UNL A   1      45.313  22.135  24.448  1.00  0.00     0.338 C 
ATOM     44  O   UNL A   1      44.580  21.706  23.572  1.00  0.00    -0.246 OA
BRANCH  43  45
ATOM     45  C   UNL A   1      45.068  23.355  25.241  1.00  0.00     0.060 A 
ATOM     46  C   UNL A   1      45.611  24.577  24.834  1.00  0.00     0.016 A 
ATOM     47  C   UNL A   1      44.584  23.174  26.548  1.00  0.00     0.016 A 
ATOM     48  C   UNL A   1      45.751  25.589  25.773  1.00  0.00     0.010 A 
ATOM     49  C   UNL A   1      44.756  24.181  27.492  1.00  0.00     0.010 A 
ATOM     50  C   UNL A   1      45.373  25.373  27.111  1.00  0.00    -0.014 A 
BRANCH  50  51
ATOM     51  C   UNL A   1      45.464  26.511  28.024  1.00  0.00     0.031 A 
ATOM     52  C   UNL A   1      46.486  26.306  29.083  1.00  0.00     0.074 A 
ATOM     53  C   UNL A   1      44.798  27.680  27.943  1.00  0.00     0.049 A 
ATOM     54  N   UNL A   1      46.274  26.134  30.346  1.00  0.00    -0.248 NA
ATOM     55  C   UNL A   1      47.882  26.109  28.669  1.00  0.00     0.031 C 
ATOM     56  C   UNL A   1      43.947  28.181  26.865  1.00  0.00     0.029 A 
ATOM     57  N   UNL A   1      44.850  28.738  28.809  1.00  0.00    -0.354 N 
ATOM     58  C   UNL A   1      47.531  25.996  30.922  1.00  0.00     0.074 A 
ATOM     59  C   UNL A   1      48.466  25.838  29.837  1.00  0.00     0.031 C 
ATOM     60  C   UNL A   1      43.767  29.515  27.028  1.00  0.00     0.029 A 
ATOM     61  C   UNL A   1      44.389  29.936  28.273  1.00  0.00     0.049 A 
ATOM     62  H   UNL A   1      45.185  28.658  29.731  1.00  0.00     0.167 HD
ATOM     63  C   UNL A   1      47.739  26.212  32.249  1.00  0.00     0.034 A 
ATOM     64  C   UNL A   1      44.587  31.180  28.785  1.00  0.00     0.034 A 
ATOM     65  C   UNL A   1      46.508  26.272  32.987  1.00  0.00     0.049 A 
ATOM     66  C   UNL A   1      44.840  31.015  30.236  1.00  0.00     0.074 A 
ATOM     67  C   UNL A   1      45.461  25.401  33.213  1.00  0.00     0.029 A 
ATOM     68  N   UNL A   1      46.049  27.519  33.334  1.00  0.00    -0.354 N 
ATOM     69  N   UNL A   1      43.935  30.603  31.078  1.00  0.00    -0.248 NA
ATOM     70  C   UNL A   1      46.217  30.913  30.693  1.00  0.00     0.031 C 
ATOM     71  C   UNL A   1      44.298  26.223  33.213  1.00  0.00     0.029 A 
ATOM     72  C   UNL A   1      44.713  27.544  33.035  1.00  0.00     0.049 A 
ATOM     73  H   UNL A   1      46.577  28.253  33.722  1.00  0.00     0.167 HD
ATOM     74  C   UNL A   1      44.631  29.777  31.949  1.00  0.00     0.074 A 
ATOM     75  C   UNL A   1      46.042  30.091  31.731  1.00  0.00     0.031 C 
ATOM     76  C   UNL A   1      44.022  28.713  32.547  1.00  0.00     0.034 A 
BRANCH  63  77
ATOM     77  C   UNL A   1      49.025  26.708  32.847  1.00  0.00     0.023 A 
ATOM     78  C   UNL A   1      49.163  28.101  33.033  1.00  0.00     0.012 A 
ATOM     79  C   UNL A   1      50.191  25.919  32.951  1.00  0.00     0.148 A 
ATOM     80  C   UNL A   1      50.411  28.685  33.267  1.00  0.00     0.002 A 
ATOM     81  C   UNL A   1      51.419  26.497  33.245  1.00  0.00     0.091 A 
ATOM     82  F   UNL A   1      50.145  24.621  32.632  1.00  0.00    -0.205 F 
ATOM     83  C   UNL A   1      51.540  27.883  33.378  1.00  0.00     0.022 A 
BRANCH  81  84
ATOM     84  S   UNL A   1      52.908  25.506  33.406  1.00  0.00     0.127 S 
ATOM     85  O   UNL A   1      52.603  24.713  34.593  1.00  0.00    -0.237 OA
ATOM     86  O   UNL A   1      52.910  24.762  32.146  1.00  0.00    -0.237 OA
ATOM     87  O   UNL A   1      53.998  26.463  33.536  1.00  0.00    -0.744 OA
ENDBRANCH  81  84
ENDBRANCH  63  77
BRANCH  64  88
ATOM     88  C   UNL A   1      44.817  32.477  28.094  1.00  0.00     0.023 A 
ATOM     89  C   UNL A   1      43.893  33.534  28.255  1.00  0.00     0.012 A 
ATOM     90  C   UNL A   1      46.067  32.786  27.515  1.00  0.00     0.148 A 
ATOM     91  C   UNL A   1      44.219  34.849  27.894  1.00  0.00     0.002 A 
ATOM     92  C   UNL A   1      46.381  34.091  27.142  1.00  0.00     0.091 A 
ATOM     93  F   UNL A   1      46.995  31.826  27.420  1.00  0.00    -0.205 F 
ATOM     94  C   UNL A   1      45.465  35.129  27.344  1.00  0.00     0.022 A 
BRANCH  92  95
ATOM     95  S   UNL A   1      47.980  34.510  26.433  1.00  0.00     0.127 S 
ATOM     96  O   UNL A   1      48.217  35.848  26.977  1.00  0.00    -0.237 OA
ATOM     97  O   UNL A   1      48.838  33.463  26.983  1.00  0.00    -0.237 OA
ATOM     98  O   UNL A   1      47.788  34.481  24.989  1.00  0.00    -0.744 OA
ENDBRANCH  92  95
ENDBRANCH  64  88
BRANCH  76  99
ATOM     99  C   UNL A   1      42.527  28.583  32.431  1.00  0.00     0.023 A 
ATOM    100  C   UNL A   1      41.659  29.110  33.412  1.00  0.00     0.012 A 
ATOM    101  C   UNL A   1      41.994  28.141  31.210  1.00  0.00     0.148 A 
ATOM    102  C   UNL A   1      40.285  29.198  33.173  1.00  0.00     0.002 A 
ATOM    103  C   UNL A   1      40.634  28.269  30.960  1.00  0.00     0.091 A 
ATOM    104  F   UNL A   1      42.843  27.657  30.290  1.00  0.00    -0.205 F 
ATOM    105  C   UNL A   1      39.776  28.793  31.940  1.00  0.00     0.022 A 
BRANCH 103 106
ATOM    106  S   UNL A   1      39.927  27.886  29.357  1.00  0.00     0.127 S 
ATOM    107  O   UNL A   1      38.501  27.796  29.665  1.00  0.00    -0.237 OA
ATOM    108  O   UNL A   1      40.309  29.055  28.563  1.00  0.00    -0.237 OA
ATOM    109  O   UNL A   1      40.546  26.639  28.925  1.00  0.00    -0.744 OA
ENDBRANCH 103 106
ENDBRANCH  76  99
ENDBRANCH  50  51
ENDBRANCH  43  45
ENDBRANCH  42  43
ENDBRANCH  41  42
ENDBRANCH  40  41
ENDBRANCH  39  40
ENDBRANCH   1  39
TORSDOF 23
ENDMDL
MODEL 3
REMARK VINA RESULT:     -10.9      3.883      6.267
REMARK SMILES COc1ccc2c(c1)c(Cc1nc(-c3ccc(C(=O)OCCOCCOC(=O)c4ccc(-c5c6nc(c(-c7cccc(S(=O)(=O)[O-])c7F)c7ccc([nH]7)c(-c7cccc(S(=O)(=O)[O-])c7F)c7nc(c(-c8cccc(S(=O)(=O)[O-])c8F)c8ccc5[nH]8)C=C7)C=C6)cc4)cc3)cs1)c(C)n2C(=O)c1ccc(Cl)cc1
REMARK SMILES IDX 22 1 21 2 20 3 18 4 19 5 17 6 14 7 15 8 93 9 16 10 92 11
REMARK SMILES IDX 13 12 11 13 12 14 95 15 94 16 10 17 9 18 3 19 4 20 8 21 5 22
REMARK SMILES IDX 7 23 6 24 98 25 96 26 97 27 2 28 1 29 99 30 100 31 101 32
REMARK SMILES IDX 102 33 107 34 103 35 106 36 104 37 105 38 23 39 24 40 25 41
REMARK SMILES IDX 26 42 27 43 28 44 29 45 30 46 91 47 31 48 90 49 32 50 33 51
REMARK SMILES IDX 34 52 84 53 35 54 89 55 83 56 85 57 36 58 88 59 82 60 81 61
REMARK SMILES IDX 37 63 69 64 49 65 68 66 50 67 53 68 67 69 86 70 51 71 52 72
REMARK SMILES IDX 66 74 87 75 54 76 38 77 39 78 47 79 40 80 42 81 48 82 41 83
REMARK SMILES IDX 43 84 44 85 45 86 46 87 70 88 71 89 79 90 72 91 74 92 80 93
REMARK SMILES IDX 73 94 75 95 76 96 77 97 78 98 55 99 56 100 64 101 57 102
REMARK SMILES IDX 59 103 65 104 58 105 60 106 61 107 62 108 63 109
REMARK H PARENT 85 62 53 73
REMARK Flexibility Score: inf
ROOT
ATOM      1  C   UNL A   1      43.148  18.746  25.405  1.00  0.00     0.202 C 
ENDROOT
BRANCH   1   2
ATOM      2  C   UNL A   1      43.049  20.014  26.267  1.00  0.00     0.261 C 
BRANCH   2   3
ATOM      3  O   UNL A   1      42.074  20.949  25.792  1.00  0.00    -0.460 OA
BRANCH   3   4
ATOM      4  C   UNL A   1      40.977  21.035  26.584  1.00  0.00     0.338 C 
ATOM      5  O   UNL A   1      40.402  20.120  27.152  1.00  0.00    -0.246 OA
BRANCH   4   6
ATOM      6  C   UNL A   1      40.686  22.451  26.892  1.00  0.00     0.060 A 
ATOM      7  C   UNL A   1      40.341  25.161  27.502  1.00  0.00     0.001 A 
ATOM      8  C   UNL A   1      41.570  24.534  27.745  1.00  0.00     0.011 A 
ATOM      9  C   UNL A   1      39.285  24.422  26.949  1.00  0.00     0.011 A 
ATOM     10  C   UNL A   1      41.738  23.185  27.450  1.00  0.00     0.016 A 
ATOM     11  C   UNL A   1      39.460  23.068  26.624  1.00  0.00     0.016 A 
BRANCH   7  12
ATOM     12  C   UNL A   1      40.164  26.539  27.920  1.00  0.00     0.081 A 
ATOM     13  C   UNL A   1      39.578  28.097  29.370  1.00  0.00     0.098 A 
ATOM     14  N   UNL A   1      39.350  26.858  28.983  1.00  0.00    -0.241 NA
ATOM     15  S   UNL A   1      40.588  29.012  28.319  1.00  0.00    -0.126 S 
ATOM     16  C   UNL A   1      40.857  27.603  27.377  1.00  0.00     0.095 A 
BRANCH  13  17
ATOM     17  C   UNL A   1      39.032  28.698  30.633  1.00  0.00     0.105 C 
BRANCH  17  18
ATOM     18  C   UNL A   1      38.762  30.181  30.505  1.00  0.00    -0.012 A 
ATOM     19  C   UNL A   1      35.763  31.009  28.279  1.00  0.00     0.119 A 
ATOM     20  C   UNL A   1      35.949  32.378  28.279  1.00  0.00     0.048 A 
ATOM     21  C   UNL A   1      36.648  30.202  28.992  1.00  0.00     0.057 A 
ATOM     22  C   UNL A   1      37.007  32.955  28.995  1.00  0.00     0.031 A 
ATOM     23  C   UNL A   1      37.708  30.760  29.745  1.00  0.00     0.008 A 
ATOM     24  C   UNL A   1      37.858  32.147  29.783  1.00  0.00     0.057 A 
ATOM     25  N   UNL A   1      38.912  32.449  30.669  1.00  0.00    -0.280 N 
ATOM     26  C   UNL A   1      39.496  31.227  31.058  1.00  0.00     0.028 A 
ATOM     27  C   UNL A   1      40.700  31.071  31.933  1.00  0.00     0.065 C 
BRANCH  19  28
ATOM     28  O   UNL A   1      34.754  30.340  27.648  1.00  0.00    -0.497 OA
ATOM     29  C   UNL A   1      33.607  31.108  27.300  1.00  0.00     0.278 C 
ENDBRANCH  19  28
BRANCH  25  30
ATOM     30  C   UNL A   1      39.315  33.759  31.076  1.00  0.00     0.262 C 
ATOM     31  O   UNL A   1      39.619  34.590  30.222  1.00  0.00    -0.268 OA
BRANCH  30  32
ATOM     32  C   UNL A   1      39.363  34.246  32.467  1.00  0.00     0.040 A 
ATOM     33  C   UNL A   1      40.564  34.680  33.042  1.00  0.00     0.015 A 
ATOM     34  C   UNL A   1      38.181  34.223  33.214  1.00  0.00     0.015 A 
ATOM     35  C   UNL A   1      40.594  34.998  34.404  1.00  0.00     0.021 A 
ATOM     36  C   UNL A   1      38.214  34.551  34.570  1.00  0.00     0.021 A 
ATOM     37  C   UNL A   1      39.425  34.916  35.163  1.00  0.00     0.041 A 
ATOM     38  Cl  UNL A   1      39.475  35.244  36.851  1.00  0.00    -0.084 Cl
ENDBRANCH  30  32
ENDBRANCH  25  30
ENDBRANCH  17  18
ENDBRANCH  13  17
ENDBRANCH   7  12
ENDBRANCH   4   6
ENDBRANCH   3   4
ENDBRANCH   2   3
ENDBRANCH   1   2
BRANCH   1  39
ATOM     39  O   UNL A   1      44.417  18.344  24.895  1.00  0.00    -0.374 OA
BRANCH  39  40
ATOM     40  C   UNL A   1      45.596  18.855  25.522  1.00  0.00     0.202 C 
BRANCH  40  41
ATOM     41  C   UNL A   1      46.470  19.879  24.776  1.00  0.00     0.261 C 
BRANCH  41  42
ATOM     42  O   UNL A   1      46.313  21.195  25.317  1.00  0.00    -0.460 OA
BRANCH  42  43
ATOM     43  C   UNL A   1      45.542  22.040  24.582  1.00  0.00     0.338 C 
ATOM     44  O   UNL A   1      44.807  21.750  23.652  1.00  0.00    -0.246 OA
BRANCH  43  45
ATOM     45  C   UNL A   1      45.475  23.293  25.360  1.00  0.00     0.060 A 
ATOM     46  C   UNL A   1      46.136  24.437  24.906  1.00  0.00     0.016 A 
ATOM     47  C   UNL A   1      45.032  23.188  26.690  1.00  0.00     0.016 A 
ATOM     48  C   UNL A   1      46.433  25.440  25.817  1.00  0.00     0.010 A 
ATOM     49  C   UNL A   1      45.362  24.183  27.605  1.00  0.00     0.010 A 
ATOM     50  C   UNL A   1      46.094  25.289  27.175  1.00  0.00    -0.014 A 
BRANCH  50  51
ATOM     51  C   UNL A   1      46.357  26.423  28.059  1.00  0.00     0.031 A 
ATOM     52  C   UNL A   1      47.558  26.211  28.908  1.00  0.00     0.074 A 
ATOM     53  C   UNL A   1      45.690  27.594  28.110  1.00  0.00     0.049 A 
ATOM     54  N   UNL A   1      47.585  26.033  30.187  1.00  0.00    -0.248 NA
ATOM     55  C   UNL A   1      48.851  26.014  28.240  1.00  0.00     0.031 C 
ATOM     56  C   UNL A   1      44.654  28.101  27.212  1.00  0.00     0.029 A 
ATOM     57  N   UNL A   1      45.906  28.646  28.955  1.00  0.00    -0.354 N 
ATOM     58  C   UNL A   1      48.927  25.890  30.518  1.00  0.00     0.074 A 
ATOM     59  C   UNL A   1      49.642  25.737  29.277  1.00  0.00     0.031 C 
ATOM     60  C   UNL A   1      44.511  29.434  27.411  1.00  0.00     0.029 A 
ATOM     61  C   UNL A   1      45.355  29.848  28.520  1.00  0.00     0.049 A 
ATOM     62  H   UNL A   1      46.407  28.562  29.799  1.00  0.00     0.167 HD
ATOM     63  C   UNL A   1      49.380  26.099  31.783  1.00  0.00     0.034 A 
ATOM     64  C   UNL A   1      45.648  31.089  28.992  1.00  0.00     0.034 A 
ATOM     65  C   UNL A   1      48.309  26.158  32.739  1.00  0.00     0.049 A 
ATOM     66  C   UNL A   1      46.167  30.917  30.370  1.00  0.00     0.074 A 
ATOM     67  C   UNL A   1      47.320  25.287  33.153  1.00  0.00     0.029 A 
ATOM     68  N   UNL A   1      47.925  27.404  33.171  1.00  0.00    -0.354 N 
ATOM     69  N   UNL A   1      45.435  30.501  31.364  1.00  0.00    -0.248 NA
ATOM     70  C   UNL A   1      47.605  30.811  30.561  1.00  0.00     0.031 C 
ATOM     71  C   UNL A   1      46.180  26.111  33.374  1.00  0.00     0.029 A 
ATOM     72  C   UNL A   1      46.557  27.432  33.127  1.00  0.00     0.049 A 
ATOM     73  H   UNL A   1      48.519  28.134  33.457  1.00  0.00     0.167 HD
ATOM     74  C   UNL A   1      46.279  29.671  32.086  1.00  0.00     0.074 A 
ATOM     75  C   UNL A   1      47.625  29.983  31.610  1.00  0.00     0.031 C 
ATOM     76  C   UNL A   1      45.790  28.604  32.782  1.00  0.00     0.034 A 
BRANCH  63  77
ATOM     77  C   UNL A   1      50.756  26.590  32.133  1.00  0.00     0.023 A 
ATOM     78  C   UNL A   1      51.470  25.881  33.124  1.00  0.00     0.012 A 
ATOM     79  C   UNL A   1      51.248  27.860  31.761  1.00  0.00     0.148 A 
ATOM     80  C   UNL A   1      52.594  26.431  33.747  1.00  0.00     0.002 A 
ATOM     81  C   UNL A   1      52.401  28.375  32.339  1.00  0.00     0.091 A 
ATOM     82  F   UNL A   1      50.528  28.638  30.944  1.00  0.00    -0.205 F 
ATOM     83  C   UNL A   1      53.063  27.677  33.351  1.00  0.00     0.022 A 
BRANCH  81  84
ATOM     84  S   UNL A   1      53.054  29.979  31.860  1.00  0.00     0.127 S 
ATOM     85  O   UNL A   1      54.182  30.118  32.776  1.00  0.00    -0.237 OA
ATOM     86  O   UNL A   1      53.415  29.750  30.461  1.00  0.00    -0.237 OA
ATOM     87  O   UNL A   1      51.955  30.916  32.047  1.00  0.00    -0.744 OA
ENDBRANCH  81  84
ENDBRANCH  63  77
BRANCH  64  88
ATOM     88  C   UNL A   1      45.748  32.389  28.276  1.00  0.00     0.023 A 
ATOM     89  C   UNL A   1      46.612  32.516  27.165  1.00  0.00     0.012 A 
ATOM     90  C   UNL A   1      44.802  33.416  28.488  1.00  0.00     0.148 A 
ATOM     91  C   UNL A   1      46.507  33.599  26.280  1.00  0.00     0.002 A 
ATOM     92  C   UNL A   1      44.713  34.499  27.616  1.00  0.00     0.091 A 
ATOM     93  F   UNL A   1      43.917  33.289  29.484  1.00  0.00    -0.205 F 
ATOM     94  C   UNL A   1      45.553  34.587  26.501  1.00  0.00     0.022 A 
BRANCH  92  95
ATOM     95  S   UNL A   1      43.493  35.799  27.851  1.00  0.00     0.127 S 
ATOM     96  O   UNL A   1      43.316  36.305  26.489  1.00  0.00    -0.237 OA
ATOM     97  O   UNL A   1      42.354  35.054  28.381  1.00  0.00    -0.237 OA
ATOM     98  O   UNL A   1      44.108  36.754  28.764  1.00  0.00    -0.744 OA
ENDBRANCH  92  95
ENDBRANCH  64  88
BRANCH  76  99
ATOM     99  C   UNL A   1      44.299  28.477  32.947  1.00  0.00     0.023 A 
ATOM    100  C   UNL A   1      43.472  28.030  31.895  1.00  0.00     0.012 A 
ATOM    101  C   UNL A   1      43.767  28.576  34.243  1.00  0.00     0.148 A 
ATOM    102  C   UNL A   1      42.140  27.684  32.134  1.00  0.00     0.002 A 
ATOM    103  C   UNL A   1      42.455  28.192  34.484  1.00  0.00     0.091 A 
ATOM    104  F   UNL A   1      44.579  28.989  35.228  1.00  0.00    -0.205 F 
ATOM    105  C   UNL A   1      41.637  27.749  33.432  1.00  0.00     0.022 A 
BRANCH 103 106
ATOM    106  S   UNL A   1      41.778  28.130  36.144  1.00  0.00     0.127 S 
ATOM    107  O   UNL A   1      42.904  28.593  36.952  1.00  0.00    -0.237 OA
ATOM    108  O   UNL A   1      40.659  29.072  36.057  1.00  0.00    -0.237 OA
ATOM    109  O   UNL A   1      41.380  26.747  36.372  1.00  0.00    -0.744 OA
ENDBRANCH 103 106
ENDBRANCH  76  99
ENDBRANCH  50  51
ENDBRANCH  43  45
ENDBRANCH  42  43
ENDBRANCH  41  42
ENDBRANCH  40  41
ENDBRANCH  39  40
ENDBRANCH   1  39
TORSDOF 23
ENDMDL
