MODEL 1
REMARK VINA RESULT:     -10.5      0.000      0.000
REMARK SMILES CCCOC(=O)c1c(NC(=O)[C@@H]2CC=CC[C@H]2C(=O)OCCOCCOC(=O)c2ccc(-c3c4nc(c(-c5cccc(S(=O)(=O)[O-])c5F)c5ccc([nH]5)c(-c5cccc(S(=O)(=O)[O-])c5F)c5nc(c(-c6cccc(S(=O)(=O)[O-])c6F)c6ccc3[nH]6)C=C5)C=C4)cc2)sc2c1CCCC2
REMARK SMILES IDX 21 1 20 2 18 3 19 4 17 5 12 6 13 7 14 8 16 9 15 10 10 11
REMARK SMILES IDX 9 12 11 14 8 15 7 16 94 17 92 18 93 19 95 20 98 21 96 22
REMARK SMILES IDX 97 23 5 24 6 25 4 26 3 27 2 28 1 29 22 30 23 31 24 32 25 33
REMARK SMILES IDX 26 34 27 35 28 36 29 37 30 38 91 39 31 40 90 41 32 42 33 43
REMARK SMILES IDX 34 44 84 45 35 46 89 47 83 48 85 49 36 50 88 51 82 52 81 53
REMARK SMILES IDX 37 55 69 56 49 57 68 58 50 59 53 60 67 61 86 62 51 63 52 64
REMARK SMILES IDX 66 66 87 67 54 68 38 69 39 70 47 71 40 72 42 73 48 74 41 75
REMARK SMILES IDX 43 76 44 77 45 78 46 79 70 80 71 81 79 82 72 83 74 84 80 85
REMARK SMILES IDX 73 86 75 87 76 88 77 89 78 90 55 91 56 92 64 93 57 94 59 95
REMARK SMILES IDX 65 96 58 97 60 98 61 99 62 100 63 101
REMARK H PARENT 9 13 85 54 53 65
REMARK Flexibility Score: inf
ROOT
ATOM      1  C   UNL A   1      34.051  28.595  23.942  1.00  0.00     0.261 C 
ENDROOT
BRANCH   1   2
ATOM      2  O   UNL A   1      34.108  27.207  23.477  1.00  0.00    -0.463 OA
BRANCH   2   3
ATOM      3  C   UNL A   1      33.734  26.221  24.337  1.00  0.00     0.310 C 
ATOM      4  O   UNL A   1      34.553  25.545  24.955  1.00  0.00    -0.252 OA
BRANCH   3   5
ATOM      5  C   UNL A   1      32.204  25.977  24.501  1.00  0.00     0.116 C 
ATOM      6  C   UNL A   1      31.539  24.813  23.779  1.00  0.00     0.097 C 
ATOM      7  C   UNL A   1      30.053  25.157  23.558  1.00  0.00     0.041 C 
ATOM      8  C   UNL A   1      29.398  25.334  24.898  1.00  0.00    -0.030 C 
ATOM      9  C   UNL A   1      31.609  25.939  25.932  1.00  0.00     0.043 C 
ATOM     10  C   UNL A   1      30.121  25.646  25.987  1.00  0.00    -0.030 C 
BRANCH   6  11
ATOM     11  C   UNL A   1      32.189  24.466  22.499  1.00  0.00     0.229 C 
ATOM     12  N   UNL A   1      32.423  23.159  22.253  1.00  0.00    -0.317 N 
ATOM     13  H   UNL A   1      32.532  22.960  21.294  1.00  0.00     0.170 HD
ATOM     14  O   UNL A   1      32.460  25.318  21.653  1.00  0.00    -0.274 OA
BRANCH  12  15
ATOM     15  C   UNL A   1      32.543  22.041  23.053  1.00  0.00     0.110 A 
ATOM     16  C   UNL A   1      33.110  21.530  24.231  1.00  0.00     0.098 A 
ATOM     17  C   UNL A   1      33.090  20.084  24.154  1.00  0.00    -0.017 A 
ATOM     18  S   UNL A   1      31.686  20.844  22.170  1.00  0.00    -0.122 S 
ATOM     19  C   UNL A   1      32.413  19.626  23.053  1.00  0.00     0.011 A 
ATOM     20  C   UNL A   1      33.804  19.110  25.045  1.00  0.00     0.038 C 
ATOM     21  C   UNL A   1      32.419  18.240  22.552  1.00  0.00     0.047 C 
ATOM     22  C   UNL A   1      34.387  17.996  24.182  1.00  0.00     0.005 C 
ATOM     23  C   UNL A   1      33.279  17.314  23.393  1.00  0.00     0.006 C 
BRANCH  16  24
ATOM     24  C   UNL A   1      33.768  22.137  25.411  1.00  0.00     0.341 C 
ATOM     25  O   UNL A   1      33.141  22.573  26.349  1.00  0.00    -0.246 OA
BRANCH  24  26
ATOM     26  O   UNL A   1      35.141  21.949  25.443  1.00  0.00    -0.462 OA
BRANCH  26  27
ATOM     27  C   UNL A   1      35.921  22.327  24.280  1.00  0.00     0.233 C 
BRANCH  27  28
ATOM     28  C   UNL A   1      37.096  23.275  24.617  1.00  0.00     0.038 C 
ATOM     29  C   UNL A   1      37.305  23.618  26.089  1.00  0.00     0.007 C 
ENDBRANCH  27  28
ENDBRANCH  26  27
ENDBRANCH  24  26
ENDBRANCH  16  24
ENDBRANCH  12  15
ENDBRANCH   6  11
ENDBRANCH   3   5
ENDBRANCH   2   3
ENDBRANCH   1   2
BRANCH   1  30
ATOM     30  C   UNL A   1      32.671  29.251  23.765  1.00  0.00     0.202 C 
BRANCH  30  31
ATOM     31  O   UNL A   1      31.930  29.284  24.988  1.00  0.00    -0.374 OA
BRANCH  31  32
ATOM     32  C   UNL A   1      32.384  30.293  25.882  1.00  0.00     0.202 C 
BRANCH  32  33
ATOM     33  C   UNL A   1      33.543  29.840  26.778  1.00  0.00     0.261 C 
BRANCH  33  34
ATOM     34  O   UNL A   1      33.713  30.628  27.971  1.00  0.00    -0.460 OA
BRANCH  34  35
ATOM     35  C   UNL A   1      34.782  31.474  27.976  1.00  0.00     0.338 C 
ATOM     36  O   UNL A   1      34.788  32.644  27.626  1.00  0.00    -0.246 OA
BRANCH  35  37
ATOM     37  C   UNL A   1      35.994  30.782  28.489  1.00  0.00     0.060 A 
ATOM     38  C   UNL A   1      35.916  29.995  29.650  1.00  0.00     0.016 A 
ATOM     39  C   UNL A   1      37.222  30.920  27.847  1.00  0.00     0.016 A 
ATOM     40  C   UNL A   1      37.052  29.318  30.150  1.00  0.00     0.010 A 
ATOM     41  C   UNL A   1      38.338  30.214  28.326  1.00  0.00     0.010 A 
ATOM     42  C   UNL A   1      38.285  29.406  29.492  1.00  0.00    -0.014 A 
BRANCH  42  43
ATOM     43  C   UNL A   1      39.565  28.765  29.970  1.00  0.00     0.031 A 
ATOM     44  C   UNL A   1      40.426  29.548  30.931  1.00  0.00     0.074 A 
ATOM     45  C   UNL A   1      40.078  27.605  29.492  1.00  0.00     0.049 A 
ATOM     46  N   UNL A   1      41.639  29.295  31.344  1.00  0.00    -0.248 NA
ATOM     47  C   UNL A   1      39.840  30.775  31.499  1.00  0.00     0.031 C 
ATOM     48  C   UNL A   1      39.397  26.631  28.657  1.00  0.00     0.029 A 
ATOM     49  N   UNL A   1      41.356  27.085  29.578  1.00  0.00    -0.354 N 
ATOM     50  C   UNL A   1      41.952  30.322  32.220  1.00  0.00     0.074 A 
ATOM     51  C   UNL A   1      40.867  31.278  32.161  1.00  0.00     0.031 C 
ATOM     52  C   UNL A   1      40.289  25.777  28.121  1.00  0.00     0.029 A 
ATOM     53  C   UNL A   1      41.601  26.054  28.689  1.00  0.00     0.049 A 
ATOM     54  H   UNL A   1      42.031  27.419  30.213  1.00  0.00     0.167 HD
ATOM     55  C   UNL A   1      42.975  30.409  33.099  1.00  0.00     0.034 A 
ATOM     56  C   UNL A   1      42.727  25.368  28.400  1.00  0.00     0.034 A 
ATOM     57  C   UNL A   1      43.993  29.413  33.254  1.00  0.00     0.049 A 
ATOM     58  C   UNL A   1      43.906  25.516  29.327  1.00  0.00     0.074 A 
ATOM     59  C   UNL A   1      44.970  29.323  34.227  1.00  0.00     0.029 A 
ATOM     60  N   UNL A   1      44.161  28.328  32.413  1.00  0.00    -0.354 N 
ATOM     61  N   UNL A   1      44.056  26.340  30.333  1.00  0.00    -0.248 NA
ATOM     62  C   UNL A   1      44.997  24.538  29.186  1.00  0.00     0.031 C 
ATOM     63  C   UNL A   1      45.735  28.181  33.971  1.00  0.00     0.029 A 
ATOM     64  C   UNL A   1      45.230  27.562  32.840  1.00  0.00     0.049 A 
ATOM     65  H   UNL A   1      43.602  28.130  31.626  1.00  0.00     0.167 HD
ATOM     66  C   UNL A   1      45.180  25.895  31.021  1.00  0.00     0.074 A 
ATOM     67  C   UNL A   1      45.704  24.763  30.287  1.00  0.00     0.031 C 
ATOM     68  C   UNL A   1      45.698  26.372  32.178  1.00  0.00     0.034 A 
BRANCH  55  69
ATOM     69  C   UNL A   1      42.933  31.566  34.055  1.00  0.00     0.023 A 
ATOM     70  C   UNL A   1      43.580  32.768  33.693  1.00  0.00     0.012 A 
ATOM     71  C   UNL A   1      42.296  31.465  35.301  1.00  0.00     0.148 A 
ATOM     72  C   UNL A   1      43.653  33.831  34.587  1.00  0.00     0.002 A 
ATOM     73  C   UNL A   1      42.331  32.548  36.169  1.00  0.00     0.091 A 
ATOM     74  F   UNL A   1      41.704  30.308  35.628  1.00  0.00    -0.205 F 
ATOM     75  C   UNL A   1      43.024  33.722  35.823  1.00  0.00     0.022 A 
BRANCH  73  76
ATOM     76  S   UNL A   1      41.498  32.541  37.759  1.00  0.00     0.127 S 
ATOM     77  O   UNL A   1      40.145  32.138  37.381  1.00  0.00    -0.237 OA
ATOM     78  O   UNL A   1      42.254  31.527  38.493  1.00  0.00    -0.237 OA
ATOM     79  O   UNL A   1      41.625  33.893  38.284  1.00  0.00    -0.744 OA
ENDBRANCH  73  76
ENDBRANCH  55  69
BRANCH  56  80
ATOM     80  C   UNL A   1      42.752  24.304  27.349  1.00  0.00     0.023 A 
ATOM     81  C   UNL A   1      43.303  24.610  26.088  1.00  0.00     0.012 A 
ATOM     82  C   UNL A   1      42.171  23.036  27.553  1.00  0.00     0.148 A 
ATOM     83  C   UNL A   1      43.235  23.695  25.037  1.00  0.00     0.002 A 
ATOM     84  C   UNL A   1      42.129  22.117  26.504  1.00  0.00     0.091 A 
ATOM     85  F   UNL A   1      41.637  22.765  28.752  1.00  0.00    -0.205 F 
ATOM     86  C   UNL A   1      42.648  22.450  25.243  1.00  0.00     0.022 A 
BRANCH  84  87
ATOM     87  S   UNL A   1      41.442  20.461  26.670  1.00  0.00     0.127 S 
ATOM     88  O   UNL A   1      41.614  19.929  25.321  1.00  0.00    -0.237 OA
ATOM     89  O   UNL A   1      42.322  19.871  27.680  1.00  0.00    -0.237 OA
ATOM     90  O   UNL A   1      40.066  20.649  27.106  1.00  0.00    -0.744 OA
ENDBRANCH  84  87
ENDBRANCH  56  80
BRANCH  68  91
ATOM     91  C   UNL A   1      46.841  25.633  32.815  1.00  0.00     0.023 A 
ATOM     92  C   UNL A   1      48.166  26.031  32.567  1.00  0.00     0.012 A 
ATOM     93  C   UNL A   1      46.585  24.623  33.767  1.00  0.00     0.148 A 
ATOM     94  C   UNL A   1      49.224  25.429  33.248  1.00  0.00     0.002 A 
ATOM     95  C   UNL A   1      47.639  24.064  34.479  1.00  0.00     0.091 A 
ATOM     96  F   UNL A   1      45.316  24.240  33.969  1.00  0.00    -0.205 F 
ATOM     97  C   UNL A   1      48.960  24.460  34.215  1.00  0.00     0.022 A 
BRANCH  95  98
ATOM     98  S   UNL A   1      47.380  22.896  35.820  1.00  0.00     0.127 S 
ATOM     99  O   UNL A   1      46.623  21.839  35.154  1.00  0.00    -0.237 OA
ATOM    100  O   UNL A   1      48.751  22.529  36.181  1.00  0.00    -0.237 OA
ATOM    101  O   UNL A   1      46.661  23.626  36.854  1.00  0.00    -0.744 OA
ENDBRANCH  95  98
ENDBRANCH  68  91
ENDBRANCH  42  43
ENDBRANCH  35  37
ENDBRANCH  34  35
ENDBRANCH  33  34
ENDBRANCH  32  33
ENDBRANCH  31  32
ENDBRANCH  30  31
ENDBRANCH   1  30
TORSDOF 23
ENDMDL
MODEL 2
REMARK VINA RESULT:     -10.2      3.253      8.353
REMARK SMILES CCCOC(=O)c1c(NC(=O)[C@@H]2CC=CC[C@H]2C(=O)OCCOCCOC(=O)c2ccc(-c3c4nc(c(-c5cccc(S(=O)(=O)[O-])c5F)c5ccc([nH]5)c(-c5cccc(S(=O)(=O)[O-])c5F)c5nc(c(-c6cccc(S(=O)(=O)[O-])c6F)c6ccc3[nH]6)C=C5)C=C4)cc2)sc2c1CCCC2
REMARK SMILES IDX 21 1 20 2 18 3 19 4 17 5 12 6 13 7 14 8 16 9 15 10 10 11
REMARK SMILES IDX 9 12 11 14 8 15 7 16 94 17 92 18 93 19 95 20 98 21 96 22
REMARK SMILES IDX 97 23 5 24 6 25 4 26 3 27 2 28 1 29 22 30 23 31 24 32 25 33
REMARK SMILES IDX 26 34 27 35 28 36 29 37 30 38 91 39 31 40 90 41 32 42 33 43
REMARK SMILES IDX 34 44 84 45 35 46 89 47 83 48 85 49 36 50 88 51 82 52 81 53
REMARK SMILES IDX 37 55 69 56 49 57 68 58 50 59 53 60 67 61 86 62 51 63 52 64
REMARK SMILES IDX 66 66 87 67 54 68 38 69 39 70 47 71 40 72 42 73 48 74 41 75
REMARK SMILES IDX 43 76 44 77 45 78 46 79 70 80 71 81 79 82 72 83 74 84 80 85
REMARK SMILES IDX 73 86 75 87 76 88 77 89 78 90 55 91 56 92 64 93 57 94 59 95
REMARK SMILES IDX 65 96 58 97 60 98 61 99 62 100 63 101
REMARK H PARENT 9 13 85 54 53 65
REMARK Flexibility Score: inf
ROOT
ATOM      1  C   UNL A   1      33.655  29.197  26.288  1.00  0.00     0.261 C 
ENDROOT
BRANCH   1   2
ATOM      2  O   UNL A   1      33.245  27.865  26.738  1.00  0.00    -0.463 OA
BRANCH   2   3
ATOM      3  C   UNL A   1      31.986  27.442  26.444  1.00  0.00     0.310 C 
ATOM      4  O   UNL A   1      31.056  27.551  27.239  1.00  0.00    -0.252 OA
BRANCH   3   5
ATOM      5  C   UNL A   1      31.773  26.797  25.043  1.00  0.00     0.116 C 
ATOM      6  C   UNL A   1      30.804  25.633  24.881  1.00  0.00     0.097 C 
ATOM      7  C   UNL A   1      31.242  24.795  23.665  1.00  0.00     0.041 C 
ATOM      8  C   UNL A   1      31.171  25.658  22.438  1.00  0.00    -0.030 C 
ATOM      9  C   UNL A   1      31.471  27.725  23.838  1.00  0.00     0.043 C 
ATOM     10  C   UNL A   1      31.230  26.998  22.528  1.00  0.00    -0.030 C 
BRANCH   6  11
ATOM     11  C   UNL A   1      30.697  24.786  26.086  1.00  0.00     0.229 C 
ATOM     12  N   UNL A   1      31.754  24.005  26.397  1.00  0.00    -0.317 N 
ATOM     13  H   UNL A   1      31.772  23.738  27.345  1.00  0.00     0.170 HD
ATOM     14  O   UNL A   1      29.711  24.822  26.824  1.00  0.00    -0.274 OA
BRANCH  12  15
ATOM     15  C   UNL A   1      32.816  23.501  25.673  1.00  0.00     0.110 A 
ATOM     16  C   UNL A   1      33.235  22.463  24.827  1.00  0.00     0.098 A 
ATOM     17  C   UNL A   1      34.683  22.439  24.822  1.00  0.00    -0.017 A 
ATOM     18  S   UNL A   1      34.088  24.588  26.051  1.00  0.00    -0.122 S 
ATOM     19  C   UNL A   1      35.228  23.494  25.508  1.00  0.00     0.011 A 
ATOM     20  C   UNL A   1      35.579  21.366  24.276  1.00  0.00     0.038 C 
ATOM     21  C   UNL A   1      36.643  23.631  25.900  1.00  0.00     0.047 C 
ATOM     22  C   UNL A   1      36.730  21.147  25.253  1.00  0.00     0.005 C 
ATOM     23  C   UNL A   1      37.490  22.449  25.463  1.00  0.00     0.006 C 
BRANCH  16  24
ATOM     24  C   UNL A   1      32.538  21.399  24.069  1.00  0.00     0.341 C 
ATOM     25  O   UNL A   1      32.635  21.290  22.868  1.00  0.00    -0.246 OA
BRANCH  24  26
ATOM     26  O   UNL A   1      31.967  20.424  24.871  1.00  0.00    -0.462 OA
BRANCH  26  27
ATOM     27  C   UNL A   1      32.786  19.303  25.293  1.00  0.00     0.233 C 
BRANCH  27  28
ATOM     28  C   UNL A   1      33.510  18.602  24.119  1.00  0.00     0.038 C 
ATOM     29  C   UNL A   1      32.652  17.744  23.194  1.00  0.00     0.007 C 
ENDBRANCH  27  28
ENDBRANCH  26  27
ENDBRANCH  24  26
ENDBRANCH  16  24
ENDBRANCH  12  15
ENDBRANCH   6  11
ENDBRANCH   3   5
ENDBRANCH   2   3
ENDBRANCH   1   2
BRANCH   1  30
ATOM     30  C   UNL A   1      32.934  30.346  27.015  1.00  0.00     0.202 C 
BRANCH  30  31
ATOM     31  O   UNL A   1      31.802  30.821  26.280  1.00  0.00    -0.374 OA
BRANCH  31  32
ATOM     32  C   UNL A   1      31.419  32.140  26.648  1.00  0.00     0.202 C 
BRANCH  32  33
ATOM     33  C   UNL A   1      32.561  32.961  27.259  1.00  0.00     0.261 C 
BRANCH  33  34
ATOM     34  O   UNL A   1      32.173  33.773  28.383  1.00  0.00    -0.460 OA
BRANCH  34  35
ATOM     35  C   UNL A   1      33.020  34.793  28.700  1.00  0.00     0.338 C 
ATOM     36  O   UNL A   1      32.843  35.982  28.487  1.00  0.00    -0.246 OA
BRANCH  35  37
ATOM     37  C   UNL A   1      34.239  34.270  29.373  1.00  0.00     0.060 A 
ATOM     38  C   UNL A   1      35.493  34.397  28.755  1.00  0.00     0.016 A 
ATOM     39  C   UNL A   1      34.154  33.630  30.608  1.00  0.00     0.016 A 
ATOM     40  C   UNL A   1      36.667  33.918  29.381  1.00  0.00     0.010 A 
ATOM     41  C   UNL A   1      35.328  33.191  31.242  1.00  0.00     0.010 A 
ATOM     42  C   UNL A   1      36.609  33.313  30.643  1.00  0.00    -0.014 A 
BRANCH  42  43
ATOM     43  C   UNL A   1      37.793  32.726  31.372  1.00  0.00     0.031 A 
ATOM     44  C   UNL A   1      38.396  31.457  30.823  1.00  0.00     0.074 A 
ATOM     45  C   UNL A   1      38.266  33.164  32.564  1.00  0.00     0.049 A 
ATOM     46  N   UNL A   1      39.292  30.671  31.358  1.00  0.00    -0.248 NA
ATOM     47  C   UNL A   1      37.926  31.017  29.497  1.00  0.00     0.031 C 
ATOM     48  C   UNL A   1      37.928  34.411  33.229  1.00  0.00     0.029 A 
ATOM     49  N   UNL A   1      39.088  32.545  33.487  1.00  0.00    -0.354 N 
ATOM     50  C   UNL A   1      39.494  29.658  30.435  1.00  0.00     0.074 A 
ATOM     51  C   UNL A   1      38.522  29.844  29.379  1.00  0.00     0.031 C 
ATOM     52  C   UNL A   1      38.328  34.373  34.514  1.00  0.00     0.029 A 
ATOM     53  C   UNL A   1      39.084  33.147  34.732  1.00  0.00     0.049 A 
ATOM     54  H   UNL A   1      39.628  31.748  33.277  1.00  0.00     0.167 HD
ATOM     55  C   UNL A   1      40.481  28.735  30.386  1.00  0.00     0.034 A 
ATOM     56  C   UNL A   1      39.662  32.795  35.900  1.00  0.00     0.034 A 
ATOM     57  C   UNL A   1      41.522  28.615  31.363  1.00  0.00     0.049 A 
ATOM     58  C   UNL A   1      40.709  31.710  35.875  1.00  0.00     0.074 A 
ATOM     59  C   UNL A   1      42.660  27.831  31.317  1.00  0.00     0.029 A 
ATOM     60  N   UNL A   1      41.555  29.304  32.561  1.00  0.00    -0.354 N 
ATOM     61  N   UNL A   1      41.060  30.937  34.880  1.00  0.00    -0.248 NA
ATOM     62  C   UNL A   1      41.546  31.559  37.077  1.00  0.00     0.031 C 
ATOM     63  C   UNL A   1      43.382  28.044  32.496  1.00  0.00     0.029 A 
ATOM     64  C   UNL A   1      42.692  28.962  33.270  1.00  0.00     0.049 A 
ATOM     65  H   UNL A   1      40.871  29.943  32.866  1.00  0.00     0.167 HD
ATOM     66  C   UNL A   1      42.235  30.311  35.285  1.00  0.00     0.074 A 
ATOM     67  C   UNL A   1      42.505  30.753  36.636  1.00  0.00     0.031 C 
ATOM     68  C   UNL A   1      43.027  29.475  34.573  1.00  0.00     0.034 A 
BRANCH  55  69
ATOM     69  C   UNL A   1      40.540  27.892  29.146  1.00  0.00     0.023 A 
ATOM     70  C   UNL A   1      39.691  26.768  29.049  1.00  0.00     0.012 A 
ATOM     71  C   UNL A   1      41.437  28.180  28.106  1.00  0.00     0.148 A 
ATOM     72  C   UNL A   1      39.782  25.902  27.964  1.00  0.00     0.002 A 
ATOM     73  C   UNL A   1      41.488  27.338  27.003  1.00  0.00     0.091 A 
ATOM     74  F   UNL A   1      42.244  29.243  28.229  1.00  0.00    -0.205 F 
ATOM     75  C   UNL A   1      40.678  26.190  26.939  1.00  0.00     0.022 A 
BRANCH  73  76
ATOM     76  S   UNL A   1      42.556  27.650  25.595  1.00  0.00     0.127 S 
ATOM     77  O   UNL A   1      43.870  27.722  26.233  1.00  0.00    -0.237 OA
ATOM     78  O   UNL A   1      42.339  26.456  24.778  1.00  0.00    -0.237 OA
ATOM     79  O   UNL A   1      42.082  28.890  24.999  1.00  0.00    -0.744 OA
ENDBRANCH  73  76
ENDBRANCH  55  69
BRANCH  56  80
ATOM     80  C   UNL A   1      39.474  33.602  37.146  1.00  0.00     0.023 A 
ATOM     81  C   UNL A   1      40.175  34.818  37.277  1.00  0.00     0.012 A 
ATOM     82  C   UNL A   1      38.685  33.147  38.222  1.00  0.00     0.148 A 
ATOM     83  C   UNL A   1      40.133  35.544  38.468  1.00  0.00     0.002 A 
ATOM     84  C   UNL A   1      38.628  33.891  39.401  1.00  0.00     0.091 A 
ATOM     85  F   UNL A   1      38.037  31.982  38.088  1.00  0.00    -0.205 F 
ATOM     86  C   UNL A   1      39.361  35.080  39.530  1.00  0.00     0.022 A 
BRANCH  84  87
ATOM     87  S   UNL A   1      37.624  33.417  40.818  1.00  0.00     0.127 S 
ATOM     88  O   UNL A   1      36.356  33.066  40.182  1.00  0.00    -0.237 OA
ATOM     89  O   UNL A   1      38.377  32.283  41.355  1.00  0.00    -0.237 OA
ATOM     90  O   UNL A   1      37.594  34.586  41.685  1.00  0.00    -0.744 OA
ENDBRANCH  84  87
ENDBRANCH  56  80
BRANCH  68  91
ATOM     91  C   UNL A   1      44.333  29.034  35.172  1.00  0.00     0.023 A 
ATOM     92  C   UNL A   1      45.512  29.751  34.902  1.00  0.00     0.012 A 
ATOM     93  C   UNL A   1      44.360  27.982  36.111  1.00  0.00     0.148 A 
ATOM     94  C   UNL A   1      46.703  29.422  35.549  1.00  0.00     0.002 A 
ATOM     95  C   UNL A   1      45.537  27.693  36.790  1.00  0.00     0.091 A 
ATOM     96  F   UNL A   1      43.231  27.293  36.335  1.00  0.00    -0.205 F 
ATOM     97  C   UNL A   1      46.711  28.407  36.504  1.00  0.00     0.022 A 
BRANCH  95  98
ATOM     98  S   UNL A   1      45.610  26.482  38.116  1.00  0.00     0.127 S 
ATOM     99  O   UNL A   1      45.389  25.232  37.392  1.00  0.00    -0.237 OA
ATOM    100  O   UNL A   1      46.971  26.660  38.625  1.00  0.00    -0.237 OA
ATOM    101  O   UNL A   1      44.563  26.854  39.057  1.00  0.00    -0.744 OA
ENDBRANCH  95  98
ENDBRANCH  68  91
ENDBRANCH  42  43
ENDBRANCH  35  37
ENDBRANCH  34  35
ENDBRANCH  33  34
ENDBRANCH  32  33
ENDBRANCH  31  32
ENDBRANCH  30  31
ENDBRANCH   1  30
TORSDOF 23
ENDMDL
MODEL 3
REMARK VINA RESULT:      -9.9      4.821      8.534
REMARK SMILES CCCOC(=O)c1c(NC(=O)[C@@H]2CC=CC[C@H]2C(=O)OCCOCCOC(=O)c2ccc(-c3c4nc(c(-c5cccc(S(=O)(=O)[O-])c5F)c5ccc([nH]5)c(-c5cccc(S(=O)(=O)[O-])c5F)c5nc(c(-c6cccc(S(=O)(=O)[O-])c6F)c6ccc3[nH]6)C=C5)C=C4)cc2)sc2c1CCCC2
REMARK SMILES IDX 21 1 20 2 18 3 19 4 17 5 12 6 13 7 14 8 16 9 15 10 10 11
REMARK SMILES IDX 9 12 11 14 8 15 7 16 94 17 92 18 93 19 95 20 98 21 96 22
REMARK SMILES IDX 97 23 5 24 6 25 4 26 3 27 2 28 1 29 22 30 23 31 24 32 25 33
REMARK SMILES IDX 26 34 27 35 28 36 29 37 30 38 91 39 31 40 90 41 32 42 33 43
REMARK SMILES IDX 34 44 84 45 35 46 89 47 83 48 85 49 36 50 88 51 82 52 81 53
REMARK SMILES IDX 37 55 69 56 49 57 68 58 50 59 53 60 67 61 86 62 51 63 52 64
REMARK SMILES IDX 66 66 87 67 54 68 38 69 39 70 47 71 40 72 42 73 48 74 41 75
REMARK SMILES IDX 43 76 44 77 45 78 46 79 70 80 71 81 79 82 72 83 74 84 80 85
REMARK SMILES IDX 73 86 75 87 76 88 77 89 78 90 55 91 56 92 64 93 57 94 59 95
REMARK SMILES IDX 65 96 58 97 60 98 61 99 62 100 63 101
REMARK H PARENT 9 13 85 54 53 65
REMARK Flexibility Score: inf
ROOT
ATOM      1  C   UNL A   1      36.369  24.017  25.343  1.00  0.00     0.261 C 
ENDROOT
BRANCH   1   2
ATOM      2  O   UNL A   1      35.099  24.441  25.937  1.00  0.00    -0.463 OA
BRANCH   2   3
ATOM      3  C   UNL A   1      34.180  23.487  26.248  1.00  0.00     0.310 C 
ATOM      4  O   UNL A   1      34.136  22.956  27.355  1.00  0.00    -0.252 OA
BRANCH   3   5
ATOM      5  C   UNL A   1      33.179  23.085  25.124  1.00  0.00     0.116 C 
ATOM      6  C   UNL A   1      31.920  23.911  24.897  1.00  0.00     0.097 C 
ATOM      7  C   UNL A   1      30.847  23.005  24.261  1.00  0.00     0.041 C 
ATOM      8  C   UNL A   1      31.355  22.520  22.933  1.00  0.00    -0.030 C 
ATOM      9  C   UNL A   1      33.732  22.816  23.701  1.00  0.00     0.043 C 
ATOM     10  C   UNL A   1      32.672  22.480  22.668  1.00  0.00    -0.030 C 
BRANCH   6  11
ATOM     11  C   UNL A   1      31.404  24.546  26.126  1.00  0.00     0.229 C 
ATOM     12  N   UNL A   1      30.693  25.686  25.988  1.00  0.00    -0.317 N 
ATOM     13  H   UNL A   1      30.107  25.871  26.758  1.00  0.00     0.170 HD
ATOM     14  O   UNL A   1      31.556  24.038  27.237  1.00  0.00    -0.274 OA
BRANCH  12  15
ATOM     15  C   UNL A   1      30.609  26.648  25.001  1.00  0.00     0.110 A 
ATOM     16  C   UNL A   1      31.232  27.775  24.444  1.00  0.00     0.098 A 
ATOM     17  C   UNL A   1      30.255  28.484  23.645  1.00  0.00    -0.017 A 
ATOM     18  S   UNL A   1      29.111  26.290  24.244  1.00  0.00    -0.122 S 
ATOM     19  C   UNL A   1      29.069  27.804  23.538  1.00  0.00     0.011 A 
ATOM     20  C   UNL A   1      30.374  29.864  23.066  1.00  0.00     0.038 C 
ATOM     21  C   UNL A   1      27.805  28.350  23.013  1.00  0.00     0.047 C 
ATOM     22  C   UNL A   1      29.043  30.587  23.250  1.00  0.00     0.005 C 
ATOM     23  C   UNL A   1      27.926  29.800  22.579  1.00  0.00     0.006 C 
BRANCH  16  24
ATOM     24  C   UNL A   1      32.571  28.392  24.582  1.00  0.00     0.341 C 
ATOM     25  O   UNL A   1      32.901  29.011  25.567  1.00  0.00    -0.246 OA
BRANCH  24  26
ATOM     26  O   UNL A   1      33.468  28.003  23.599  1.00  0.00    -0.462 OA
BRANCH  26  27
ATOM     27  C   UNL A   1      33.605  26.589  23.302  1.00  0.00     0.233 C 
BRANCH  27  28
ATOM     28  C   UNL A   1      33.289  26.244  21.827  1.00  0.00     0.038 C 
ATOM     29  C   UNL A   1      31.835  25.929  21.489  1.00  0.00     0.007 C 
ENDBRANCH  27  28
ENDBRANCH  26  27
ENDBRANCH  24  26
ENDBRANCH  16  24
ENDBRANCH  12  15
ENDBRANCH   6  11
ENDBRANCH   3   5
ENDBRANCH   2   3
ENDBRANCH   1   2
BRANCH   1  30
ATOM     30  C   UNL A   1      36.746  22.560  25.663  1.00  0.00     0.202 C 
BRANCH  30  31
ATOM     31  O   UNL A   1      38.153  22.329  25.544  1.00  0.00    -0.374 OA
BRANCH  31  32
ATOM     32  C   UNL A   1      38.475  20.955  25.373  1.00  0.00     0.202 C 
BRANCH  32  33
ATOM     33  C   UNL A   1      39.659  20.493  26.231  1.00  0.00     0.261 C 
BRANCH  33  34
ATOM     34  O   UNL A   1      40.313  19.304  25.749  1.00  0.00    -0.460 OA
BRANCH  34  35
ATOM     35  C   UNL A   1      41.648  19.214  26.009  1.00  0.00     0.338 C 
ATOM     36  O   UNL A   1      42.341  18.212  25.934  1.00  0.00    -0.246 OA
BRANCH  35  37
ATOM     37  C   UNL A   1      42.194  20.541  26.405  1.00  0.00     0.060 A 
ATOM     38  C   UNL A   1      42.234  20.909  27.759  1.00  0.00     0.016 A 
ATOM     39  C   UNL A   1      42.648  21.442  25.445  1.00  0.00     0.016 A 
ATOM     40  C   UNL A   1      42.758  22.160  28.160  1.00  0.00     0.010 A 
ATOM     41  C   UNL A   1      43.203  22.666  25.852  1.00  0.00     0.010 A 
ATOM     42  C   UNL A   1      43.263  23.060  27.214  1.00  0.00    -0.014 A 
BRANCH  42  43
ATOM     43  C   UNL A   1      43.796  24.435  27.533  1.00  0.00     0.031 A 
ATOM     44  C   UNL A   1      42.806  25.492  27.955  1.00  0.00     0.074 A 
ATOM     45  C   UNL A   1      45.074  24.840  27.329  1.00  0.00     0.049 A 
ATOM     46  N   UNL A   1      42.986  26.777  28.110  1.00  0.00    -0.248 NA
ATOM     47  C   UNL A   1      41.432  25.040  28.239  1.00  0.00     0.031 C 
ATOM     48  C   UNL A   1      46.218  23.993  27.037  1.00  0.00     0.029 A 
ATOM     49  N   UNL A   1      45.613  26.110  27.250  1.00  0.00    -0.354 N 
ATOM     50  C   UNL A   1      41.758  27.276  28.514  1.00  0.00     0.074 A 
ATOM     51  C   UNL A   1      40.808  26.188  28.433  1.00  0.00     0.031 C 
ATOM     52  C   UNL A   1      47.244  24.741  26.588  1.00  0.00     0.029 A 
ATOM     53  C   UNL A   1      46.879  26.147  26.696  1.00  0.00     0.049 A 
ATOM     54  H   UNL A   1      45.138  26.915  27.560  1.00  0.00     0.167 HD
ATOM     55  C   UNL A   1      41.463  28.487  29.038  1.00  0.00     0.034 A 
ATOM     56  C   UNL A   1      47.683  27.179  26.363  1.00  0.00     0.034 A 
ATOM     57  C   UNL A   1      42.419  29.536  29.236  1.00  0.00     0.049 A 
ATOM     58  C   UNL A   1      47.323  28.551  26.873  1.00  0.00     0.074 A 
ATOM     59  C   UNL A   1      42.259  30.731  29.912  1.00  0.00     0.029 A 
ATOM     60  N   UNL A   1      43.718  29.512  28.761  1.00  0.00    -0.354 N 
ATOM     61  N   UNL A   1      46.239  28.932  27.500  1.00  0.00    -0.248 NA
ATOM     62  C   UNL A   1      48.357  29.595  26.776  1.00  0.00     0.031 C 
ATOM     63  C   UNL A   1      43.466  31.434  29.843  1.00  0.00     0.029 A 
ATOM     64  C   UNL A   1      44.373  30.673  29.125  1.00  0.00     0.049 A 
ATOM     65  H   UNL A   1      44.116  28.776  28.241  1.00  0.00     0.167 HD
ATOM     66  C   UNL A   1      46.513  30.205  27.989  1.00  0.00     0.074 A 
ATOM     67  C   UNL A   1      47.844  30.553  27.539  1.00  0.00     0.031 C 
ATOM     68  C   UNL A   1      45.733  30.988  28.772  1.00  0.00     0.034 A 
BRANCH  55  69
ATOM     69  C   UNL A   1      40.068  28.660  29.563  1.00  0.00     0.023 A 
ATOM     70  C   UNL A   1      39.763  28.169  30.852  1.00  0.00     0.012 A 
ATOM     71  C   UNL A   1      39.064  29.268  28.793  1.00  0.00     0.148 A 
ATOM     72  C   UNL A   1      38.462  28.217  31.339  1.00  0.00     0.002 A 
ATOM     73  C   UNL A   1      37.776  29.356  29.308  1.00  0.00     0.091 A 
ATOM     74  F   UNL A   1      39.374  29.710  27.567  1.00  0.00    -0.205 F 
ATOM     75  C   UNL A   1      37.469  28.815  30.569  1.00  0.00     0.022 A 
BRANCH  73  76
ATOM     76  S   UNL A   1      36.437  30.164  28.428  1.00  0.00     0.127 S 
ATOM     77  O   UNL A   1      35.331  30.011  29.372  1.00  0.00    -0.237 OA
ATOM     78  O   UNL A   1      36.942  31.531  28.297  1.00  0.00    -0.237 OA
ATOM     79  O   UNL A   1      36.292  29.446  27.171  1.00  0.00    -0.744 OA
ENDBRANCH  73  76
ENDBRANCH  55  69
BRANCH  56  80
ATOM     80  C   UNL A   1      49.019  26.962  25.725  1.00  0.00     0.023 A 
ATOM     81  C   UNL A   1      50.081  26.489  26.523  1.00  0.00     0.012 A 
ATOM     82  C   UNL A   1      49.269  27.292  24.378  1.00  0.00     0.148 A 
ATOM     83  C   UNL A   1      51.374  26.391  26.008  1.00  0.00     0.002 A 
ATOM     84  C   UNL A   1      50.560  27.168  23.863  1.00  0.00     0.091 A 
ATOM     85  F   UNL A   1      48.253  27.755  23.637  1.00  0.00    -0.205 F 
ATOM     86  C   UNL A   1      51.614  26.731  24.680  1.00  0.00     0.022 A 
BRANCH  84  87
ATOM     87  S   UNL A   1      50.977  27.529  22.149  1.00  0.00     0.127 S 
ATOM     88  O   UNL A   1      50.098  26.611  21.429  1.00  0.00    -0.237 OA
ATOM     89  O   UNL A   1      50.611  28.941  22.041  1.00  0.00    -0.237 OA
ATOM     90  O   UNL A   1      52.403  27.264  22.029  1.00  0.00    -0.744 OA
ENDBRANCH  84  87
ENDBRANCH  56  80
BRANCH  68  91
ATOM     91  C   UNL A   1      46.303  32.274  29.301  1.00  0.00     0.023 A 
ATOM     92  C   UNL A   1      46.113  33.475  28.596  1.00  0.00     0.012 A 
ATOM     93  C   UNL A   1      46.916  32.304  30.572  1.00  0.00     0.148 A 
ATOM     94  C   UNL A   1      46.533  34.688  29.140  1.00  0.00     0.002 A 
ATOM     95  C   UNL A   1      47.285  33.521  31.131  1.00  0.00     0.091 A 
ATOM     96  F   UNL A   1      47.112  31.144  31.217  1.00  0.00    -0.205 F 
ATOM     97  C   UNL A   1      47.102  34.713  30.413  1.00  0.00     0.022 A 
BRANCH  95  98
ATOM     98  S   UNL A   1      47.916  33.657  32.808  1.00  0.00     0.127 S 
ATOM     99  O   UNL A   1      48.976  32.650  32.810  1.00  0.00    -0.237 OA
ATOM    100  O   UNL A   1      48.390  35.041  32.850  1.00  0.00    -0.237 OA
ATOM    101  O   UNL A   1      46.787  33.380  33.685  1.00  0.00    -0.744 OA
ENDBRANCH  95  98
ENDBRANCH  68  91
ENDBRANCH  42  43
ENDBRANCH  35  37
ENDBRANCH  34  35
ENDBRANCH  33  34
ENDBRANCH  32  33
ENDBRANCH  31  32
ENDBRANCH  30  31
ENDBRANCH   1  30
TORSDOF 23
ENDMDL
