MODEL 1
REMARK VINA RESULT:      -9.5      0.000      0.000
REMARK SMILES CCN(CC(C)C)C(=O)N[C@](C)(CC)C(=O)OCCOCCOC(=O)c1ccc(-c2c3nc(c(-c4cccc(S(=O)(=O)[O-])c4F)c4ccc([nH]4)c(-c4cccc(S(=O)(=O)[O-])c4F)c4nc(c(-c5cccc(S(=O)(=O)[O-])c5F)c5ccc2[nH]5)C=C4)C=C3)cc1
REMARK SMILES IDX 19 1 18 2 17 3 15 4 16 5 11 6 12 7 10 8 8 9 9 10 3 12 2 13
REMARK SMILES IDX 1 14 4 15 5 16 6 17 7 18 13 19 14 20 20 21 21 22 22 23 23 24
REMARK SMILES IDX 24 25 25 26 26 27 27 28 88 29 28 30 87 31 29 32 30 33 31 34
REMARK SMILES IDX 81 35 32 36 86 37 80 38 82 39 33 40 85 41 79 42 78 43 34 45
REMARK SMILES IDX 66 46 46 47 65 48 47 49 50 50 64 51 83 52 48 53 49 54 63 56
REMARK SMILES IDX 84 57 51 58 35 59 36 60 44 61 37 62 39 63 45 64 38 65 40 66
REMARK SMILES IDX 41 67 42 68 43 69 67 70 68 71 76 72 69 73 71 74 77 75 70 76
REMARK SMILES IDX 72 77 73 78 74 79 75 80 52 81 53 82 61 83 54 84 56 85 62 86
REMARK SMILES IDX 55 87 57 88 58 89 59 90 60 91
REMARK H PARENT 10 11 82 44 50 55
REMARK Flexibility Score: inf
ROOT
ATOM      1  C   UNL A   1      36.634  21.798  24.274  1.00  0.00     0.202 C 
ENDROOT
BRANCH   1   2
ATOM      2  C   UNL A   1      36.291  22.898  25.299  1.00  0.00     0.261 C 
BRANCH   2   3
ATOM      3  O   UNL A   1      35.522  24.063  24.944  1.00  0.00    -0.462 OA
BRANCH   3   4
ATOM      4  C   UNL A   1      34.191  23.991  25.205  1.00  0.00     0.331 C 
ATOM      5  O   UNL A   1      33.750  24.054  26.341  1.00  0.00    -0.249 OA
BRANCH   4   6
ATOM      6  C   UNL A   1      33.277  23.726  23.981  1.00  0.00     0.136 C 
ATOM      7  C   UNL A   1      34.060  23.925  22.658  1.00  0.00     0.047 C 
BRANCH   6   8
ATOM      8  N   UNL A   1      32.049  24.611  23.990  1.00  0.00    -0.322 N 
ATOM      9  C   UNL A   1      31.594  25.873  23.958  1.00  0.00     0.318 C 
ATOM     10  O   UNL A   1      30.364  25.939  23.817  1.00  0.00    -0.249 OA
ATOM     11  H   UNL A   1      31.264  24.019  24.040  1.00  0.00     0.166 HD
BRANCH   9  12
ATOM     12  N   UNL A   1      32.326  27.016  24.094  1.00  0.00    -0.325 N 
BRANCH  12  13
ATOM     13  C   UNL A   1      32.545  27.814  22.872  1.00  0.00     0.118 C 
ATOM     14  C   UNL A   1      33.839  28.611  22.861  1.00  0.00     0.027 C 
ENDBRANCH  12  13
BRANCH  12  15
ATOM     15  C   UNL A   1      32.792  27.658  25.316  1.00  0.00     0.124 C 
BRANCH  15  16
ATOM     16  C   UNL A   1      31.690  28.440  26.073  1.00  0.00     0.002 C 
ATOM     17  C   UNL A   1      31.692  28.147  27.578  1.00  0.00     0.009 C 
ATOM     18  C   UNL A   1      31.748  29.940  25.736  1.00  0.00     0.009 C 
ENDBRANCH  15  16
ENDBRANCH  12  15
ENDBRANCH   9  12
ENDBRANCH   6   8
BRANCH   6  19
ATOM     19  C   UNL A   1      32.768  22.247  24.004  1.00  0.00     0.037 C 
ATOM     20  C   UNL A   1      32.012  21.780  22.758  1.00  0.00     0.007 C 
ENDBRANCH   6  19
ENDBRANCH   4   6
ENDBRANCH   3   4
ENDBRANCH   2   3
ENDBRANCH   1   2
BRANCH   1  21
ATOM     21  O   UNL A   1      37.383  20.654  24.604  1.00  0.00    -0.374 OA
BRANCH  21  22
ATOM     22  C   UNL A   1      38.482  20.701  25.497  1.00  0.00     0.202 C 
BRANCH  22  23
ATOM     23  C   UNL A   1      39.497  19.566  25.721  1.00  0.00     0.261 C 
BRANCH  23  24
ATOM     24  O   UNL A   1      40.455  19.742  26.764  1.00  0.00    -0.460 OA
BRANCH  24  25
ATOM     25  C   UNL A   1      41.547  20.452  26.391  1.00  0.00     0.338 C 
ATOM     26  O   UNL A   1      42.407  20.115  25.590  1.00  0.00    -0.246 OA
BRANCH  25  27
ATOM     27  C   UNL A   1      41.464  21.812  26.942  1.00  0.00     0.060 A 
ATOM     28  C   UNL A   1      40.977  22.822  26.101  1.00  0.00     0.016 A 
ATOM     29  C   UNL A   1      41.958  22.107  28.213  1.00  0.00     0.016 A 
ATOM     30  C   UNL A   1      41.051  24.148  26.500  1.00  0.00     0.010 A 
ATOM     31  C   UNL A   1      42.049  23.444  28.604  1.00  0.00     0.010 A 
ATOM     32  C   UNL A   1      41.650  24.466  27.724  1.00  0.00    -0.014 A 
BRANCH  32  33
ATOM     33  C   UNL A   1      42.051  25.867  27.970  1.00  0.00     0.031 A 
ATOM     34  C   UNL A   1      43.418  26.308  27.521  1.00  0.00     0.074 A 
ATOM     35  C   UNL A   1      41.198  26.735  28.539  1.00  0.00     0.049 A 
ATOM     36  N   UNL A   1      43.995  27.473  27.648  1.00  0.00    -0.248 NA
ATOM     37  C   UNL A   1      44.245  25.299  26.836  1.00  0.00     0.031 C 
ATOM     38  C   UNL A   1      39.841  26.418  28.977  1.00  0.00     0.029 A 
ATOM     39  N   UNL A   1      41.360  28.057  28.860  1.00  0.00    -0.354 N 
ATOM     40  C   UNL A   1      45.261  27.328  27.093  1.00  0.00     0.074 A 
ATOM     41  C   UNL A   1      45.373  25.963  26.634  1.00  0.00     0.031 C 
ATOM     42  C   UNL A   1      39.301  27.512  29.542  1.00  0.00     0.029 A 
ATOM     43  C   UNL A   1      40.287  28.590  29.532  1.00  0.00     0.049 A 
ATOM     44  H   UNL A   1      42.167  28.574  28.632  1.00  0.00     0.167 HD
ATOM     45  C   UNL A   1      46.238  28.256  26.970  1.00  0.00     0.034 A 
ATOM     46  C   UNL A   1      40.137  29.801  30.101  1.00  0.00     0.034 A 
ATOM     47  C   UNL A   1      46.108  29.616  27.417  1.00  0.00     0.049 A 
ATOM     48  C   UNL A   1      41.255  30.803  29.985  1.00  0.00     0.074 A 
ATOM     49  C   UNL A   1      47.021  30.649  27.309  1.00  0.00     0.029 A 
ATOM     50  N   UNL A   1      44.998  30.128  28.072  1.00  0.00    -0.354 N 
ATOM     51  N   UNL A   1      42.413  30.684  29.380  1.00  0.00    -0.248 NA
ATOM     52  C   UNL A   1      41.035  32.118  30.603  1.00  0.00     0.031 C 
ATOM     53  C   UNL A   1      46.480  31.775  27.936  1.00  0.00     0.029 A 
ATOM     54  C   UNL A   1      45.210  31.458  28.392  1.00  0.00     0.049 A 
ATOM     55  H   UNL A   1      44.180  29.620  28.280  1.00  0.00     0.167 HD
ATOM     56  C   UNL A   1      43.041  31.917  29.508  1.00  0.00     0.074 A 
ATOM     57  C   UNL A   1      42.127  32.775  30.236  1.00  0.00     0.031 C 
ATOM     58  C   UNL A   1      44.266  32.306  29.073  1.00  0.00     0.034 A 
BRANCH  45  59
ATOM     59  C   UNL A   1      47.535  27.832  26.329  1.00  0.00     0.023 A 
ATOM     60  C   UNL A   1      48.581  27.317  27.122  1.00  0.00     0.012 A 
ATOM     61  C   UNL A   1      47.695  27.896  24.931  1.00  0.00     0.148 A 
ATOM     62  C   UNL A   1      49.777  26.903  26.537  1.00  0.00     0.002 A 
ATOM     63  C   UNL A   1      48.870  27.435  24.351  1.00  0.00     0.091 A 
ATOM     64  F   UNL A   1      46.699  28.410  24.196  1.00  0.00    -0.205 F 
ATOM     65  C   UNL A   1      49.916  26.950  25.152  1.00  0.00     0.022 A 
BRANCH  63  66
ATOM     66  S   UNL A   1      49.117  27.381  22.572  1.00  0.00     0.127 S 
ATOM     67  O   UNL A   1      50.567  27.551  22.471  1.00  0.00    -0.237 OA
ATOM     68  O   UNL A   1      48.634  26.042  22.237  1.00  0.00    -0.237 OA
ATOM     69  O   UNL A   1      48.324  28.472  22.021  1.00  0.00    -0.744 OA
ENDBRANCH  63  66
ENDBRANCH  45  59
BRANCH  46  70
ATOM     70  C   UNL A   1      38.877  30.135  30.821  1.00  0.00     0.023 A 
ATOM     71  C   UNL A   1      38.693  29.707  32.150  1.00  0.00     0.012 A 
ATOM     72  C   UNL A   1      37.864  30.888  30.195  1.00  0.00     0.148 A 
ATOM     73  C   UNL A   1      37.510  29.995  32.831  1.00  0.00     0.002 A 
ATOM     74  C   UNL A   1      36.714  31.220  30.898  1.00  0.00     0.091 A 
ATOM     75  F   UNL A   1      38.053  31.273  28.925  1.00  0.00    -0.205 F 
ATOM     76  C   UNL A   1      36.525  30.759  32.210  1.00  0.00     0.022 A 
BRANCH  74  77
ATOM     77  S   UNL A   1      35.451  32.306  30.223  1.00  0.00     0.127 S 
ATOM     78  O   UNL A   1      36.217  33.519  29.949  1.00  0.00    -0.237 OA
ATOM     79  O   UNL A   1      35.023  31.564  29.037  1.00  0.00    -0.237 OA
ATOM     80  O   UNL A   1      34.436  32.420  31.260  1.00  0.00    -0.744 OA
ENDBRANCH  74  77
ENDBRANCH  46  70
BRANCH  58  81
ATOM     81  C   UNL A   1      44.674  33.735  29.323  1.00  0.00     0.023 A 
ATOM     82  C   UNL A   1      45.305  34.091  30.530  1.00  0.00     0.012 A 
ATOM     83  C   UNL A   1      44.496  34.709  28.320  1.00  0.00     0.148 A 
ATOM     84  C   UNL A   1      45.718  35.404  30.752  1.00  0.00     0.002 A 
ATOM     85  C   UNL A   1      44.961  36.002  28.526  1.00  0.00     0.091 A 
ATOM     86  F   UNL A   1      43.879  34.352  27.184  1.00  0.00    -0.205 F 
ATOM     87  C   UNL A   1      45.558  36.355  29.747  1.00  0.00     0.022 A 
BRANCH  85  88
ATOM     88  S   UNL A   1      44.890  37.264  27.251  1.00  0.00     0.127 S 
ATOM     89  O   UNL A   1      45.759  36.697  26.220  1.00  0.00    -0.237 OA
ATOM     90  O   UNL A   1      43.467  37.279  26.909  1.00  0.00    -0.237 OA
ATOM     91  O   UNL A   1      45.377  38.490  27.869  1.00  0.00    -0.744 OA
ENDBRANCH  85  88
ENDBRANCH  58  81
ENDBRANCH  32  33
ENDBRANCH  25  27
ENDBRANCH  24  25
ENDBRANCH  23  24
ENDBRANCH  22  23
ENDBRANCH  21  22
ENDBRANCH   1  21
TORSDOF 23
ENDMDL
MODEL 2
REMARK VINA RESULT:      -9.2      1.928      2.329
REMARK SMILES CCN(CC(C)C)C(=O)N[C@](C)(CC)C(=O)OCCOCCOC(=O)c1ccc(-c2c3nc(c(-c4cccc(S(=O)(=O)[O-])c4F)c4ccc([nH]4)c(-c4cccc(S(=O)(=O)[O-])c4F)c4nc(c(-c5cccc(S(=O)(=O)[O-])c5F)c5ccc2[nH]5)C=C4)C=C3)cc1
REMARK SMILES IDX 19 1 18 2 17 3 15 4 16 5 11 6 12 7 10 8 8 9 9 10 3 12 2 13
REMARK SMILES IDX 1 14 4 15 5 16 6 17 7 18 13 19 14 20 20 21 21 22 22 23 23 24
REMARK SMILES IDX 24 25 25 26 26 27 27 28 88 29 28 30 87 31 29 32 30 33 31 34
REMARK SMILES IDX 81 35 32 36 86 37 80 38 82 39 33 40 85 41 79 42 78 43 34 45
REMARK SMILES IDX 66 46 46 47 65 48 47 49 50 50 64 51 83 52 48 53 49 54 63 56
REMARK SMILES IDX 84 57 51 58 35 59 36 60 44 61 37 62 39 63 45 64 38 65 40 66
REMARK SMILES IDX 41 67 42 68 43 69 67 70 68 71 76 72 69 73 71 74 77 75 70 76
REMARK SMILES IDX 72 77 73 78 74 79 75 80 52 81 53 82 61 83 54 84 56 85 62 86
REMARK SMILES IDX 55 87 57 88 58 89 59 90 60 91
REMARK H PARENT 10 11 82 44 50 55
REMARK Flexibility Score: inf
ROOT
ATOM      1  C   UNL A   1      37.246  22.290  25.280  1.00  0.00     0.202 C 
ENDROOT
BRANCH   1   2
ATOM      2  C   UNL A   1      35.873  22.869  25.680  1.00  0.00     0.261 C 
BRANCH   2   3
ATOM      3  O   UNL A   1      34.648  22.429  25.062  1.00  0.00    -0.462 OA
BRANCH   3   4
ATOM      4  C   UNL A   1      34.144  23.251  24.106  1.00  0.00     0.331 C 
ATOM      5  O   UNL A   1      34.862  23.957  23.416  1.00  0.00    -0.249 OA
BRANCH   4   6
ATOM      6  C   UNL A   1      32.598  23.309  24.013  1.00  0.00     0.136 C 
ATOM      7  C   UNL A   1      32.153  24.139  22.781  1.00  0.00     0.047 C 
BRANCH   6   8
ATOM      8  N   UNL A   1      31.976  23.879  25.270  1.00  0.00    -0.322 N 
ATOM      9  C   UNL A   1      31.409  24.958  25.832  1.00  0.00     0.318 C 
ATOM     10  O   UNL A   1      30.919  24.719  26.946  1.00  0.00    -0.249 OA
ATOM     11  H   UNL A   1      31.997  23.171  25.953  1.00  0.00     0.166 HD
BRANCH   9  12
ATOM     12  N   UNL A   1      31.362  26.223  25.325  1.00  0.00    -0.325 N 
BRANCH  12  13
ATOM     13  C   UNL A   1      30.058  26.684  24.811  1.00  0.00     0.118 C 
ATOM     14  C   UNL A   1      30.128  27.432  23.490  1.00  0.00     0.027 C 
ENDBRANCH  12  13
BRANCH  12  15
ATOM     15  C   UNL A   1      32.386  27.258  25.366  1.00  0.00     0.124 C 
BRANCH  15  16
ATOM     16  C   UNL A   1      32.776  27.698  26.799  1.00  0.00     0.002 C 
ATOM     17  C   UNL A   1      34.000  28.623  26.816  1.00  0.00     0.009 C 
ATOM     18  C   UNL A   1      31.562  28.268  27.552  1.00  0.00     0.009 C 
ENDBRANCH  15  16
ENDBRANCH  12  15
ENDBRANCH   9  12
ENDBRANCH   6   8
BRANCH   6  19
ATOM     19  C   UNL A   1      32.018  21.867  23.837  1.00  0.00     0.037 C 
ATOM     20  C   UNL A   1      32.085  21.286  22.423  1.00  0.00     0.007 C 
ENDBRANCH   6  19
ENDBRANCH   4   6
ENDBRANCH   3   4
ENDBRANCH   2   3
ENDBRANCH   1   2
BRANCH   1  21
ATOM     21  O   UNL A   1      37.387  21.179  24.428  1.00  0.00    -0.374 OA
BRANCH  21  22
ATOM     22  C   UNL A   1      37.728  19.892  24.913  1.00  0.00     0.202 C 
BRANCH  22  23
ATOM     23  C   UNL A   1      39.131  19.455  25.368  1.00  0.00     0.261 C 
BRANCH  23  24
ATOM     24  O   UNL A   1      39.582  19.926  26.638  1.00  0.00    -0.460 OA
BRANCH  24  25
ATOM     25  C   UNL A   1      40.869  20.348  26.640  1.00  0.00     0.338 C 
ATOM     26  O   UNL A   1      41.831  19.785  26.135  1.00  0.00    -0.246 OA
BRANCH  25  27
ATOM     27  C   UNL A   1      40.941  21.714  27.175  1.00  0.00     0.060 A 
ATOM     28  C   UNL A   1      40.332  22.733  26.430  1.00  0.00     0.016 A 
ATOM     29  C   UNL A   1      41.683  22.003  28.321  1.00  0.00     0.016 A 
ATOM     30  C   UNL A   1      40.526  24.060  26.787  1.00  0.00     0.010 A 
ATOM     31  C   UNL A   1      41.892  23.339  28.666  1.00  0.00     0.010 A 
ATOM     32  C   UNL A   1      41.362  24.368  27.866  1.00  0.00    -0.014 A 
BRANCH  32  33
ATOM     33  C   UNL A   1      41.849  25.756  28.007  1.00  0.00     0.031 A 
ATOM     34  C   UNL A   1      43.206  26.096  27.452  1.00  0.00     0.074 A 
ATOM     35  C   UNL A   1      41.080  26.698  28.576  1.00  0.00     0.049 A 
ATOM     36  N   UNL A   1      43.849  27.233  27.478  1.00  0.00    -0.248 NA
ATOM     37  C   UNL A   1      43.936  25.008  26.777  1.00  0.00     0.031 C 
ATOM     38  C   UNL A   1      39.738  26.479  29.113  1.00  0.00     0.029 A 
ATOM     39  N   UNL A   1      41.329  28.024  28.812  1.00  0.00    -0.354 N 
ATOM     40  C   UNL A   1      45.069  26.990  26.857  1.00  0.00     0.074 A 
ATOM     41  C   UNL A   1      45.081  25.598  26.470  1.00  0.00     0.031 C 
ATOM     42  C   UNL A   1      39.292  27.629  29.646  1.00  0.00     0.029 A 
ATOM     43  C   UNL A   1      40.329  28.650  29.516  1.00  0.00     0.049 A 
ATOM     44  H   UNL A   1      42.146  28.483  28.507  1.00  0.00     0.167 HD
ATOM     45  C   UNL A   1      46.082  27.856  26.623  1.00  0.00     0.034 A 
ATOM     46  C   UNL A   1      40.278  29.896  30.024  1.00  0.00     0.034 A 
ATOM     47  C   UNL A   1      46.050  29.242  26.999  1.00  0.00     0.049 A 
ATOM     48  C   UNL A   1      41.436  30.828  29.784  1.00  0.00     0.074 A 
ATOM     49  C   UNL A   1      47.006  30.216  26.778  1.00  0.00     0.029 A 
ATOM     50  N   UNL A   1      45.012  29.848  27.690  1.00  0.00    -0.354 N 
ATOM     51  N   UNL A   1      42.546  30.613  29.118  1.00  0.00    -0.248 NA
ATOM     52  C   UNL A   1      41.324  32.184  30.339  1.00  0.00     0.031 C 
ATOM     53  C   UNL A   1      46.564  31.402  27.372  1.00  0.00     0.029 A 
ATOM     54  C   UNL A   1      45.310  31.180  27.920  1.00  0.00     0.049 A 
ATOM     55  H   UNL A   1      44.183  29.398  27.975  1.00  0.00     0.167 HD
ATOM     56  C   UNL A   1      43.243  31.816  29.138  1.00  0.00     0.074 A 
ATOM     57  C   UNL A   1      42.422  32.760  29.869  1.00  0.00     0.031 C 
ATOM     58  C   UNL A   1      44.457  32.113  28.608  1.00  0.00     0.034 A 
BRANCH  45  59
ATOM     59  C   UNL A   1      47.312  27.328  25.930  1.00  0.00     0.023 A 
ATOM     60  C   UNL A   1      47.500  27.557  24.552  1.00  0.00     0.012 A 
ATOM     61  C   UNL A   1      48.308  26.650  26.660  1.00  0.00     0.148 A 
ATOM     62  C   UNL A   1      48.644  27.091  23.905  1.00  0.00     0.002 A 
ATOM     63  C   UNL A   1      49.468  26.233  26.019  1.00  0.00     0.091 A 
ATOM     64  F   UNL A   1      48.101  26.422  27.964  1.00  0.00    -0.205 F 
ATOM     65  C   UNL A   1      49.632  26.440  24.640  1.00  0.00     0.022 A 
BRANCH  63  66
ATOM     66  S   UNL A   1      50.832  25.456  26.891  1.00  0.00     0.127 S 
ATOM     67  O   UNL A   1      51.748  25.149  25.792  1.00  0.00    -0.237 OA
ATOM     68  O   UNL A   1      51.280  26.531  27.777  1.00  0.00    -0.237 OA
ATOM     69  O   UNL A   1      50.269  24.298  27.573  1.00  0.00    -0.744 OA
ENDBRANCH  63  66
ENDBRANCH  45  59
BRANCH  46  70
ATOM     70  C   UNL A   1      39.085  30.336  30.798  1.00  0.00     0.023 A 
ATOM     71  C   UNL A   1      38.925  29.925  32.135  1.00  0.00     0.012 A 
ATOM     72  C   UNL A   1      38.113  31.174  30.215  1.00  0.00     0.148 A 
ATOM     73  C   UNL A   1      37.802  30.313  32.868  1.00  0.00     0.002 A 
ATOM     74  C   UNL A   1      37.028  31.603  30.969  1.00  0.00     0.091 A 
ATOM     75  F   UNL A   1      38.277  31.542  28.937  1.00  0.00    -0.205 F 
ATOM     76  C   UNL A   1      36.860  31.159  32.289  1.00  0.00     0.022 A 
BRANCH  74  77
ATOM     77  S   UNL A   1      35.834  32.793  30.347  1.00  0.00     0.127 S 
ATOM     78  O   UNL A   1      34.871  31.925  29.675  1.00  0.00    -0.237 OA
ATOM     79  O   UNL A   1      35.354  33.409  31.585  1.00  0.00    -0.237 OA
ATOM     80  O   UNL A   1      36.588  33.690  29.482  1.00  0.00    -0.744 OA
ENDBRANCH  74  77
ENDBRANCH  46  70
BRANCH  58  81
ATOM     81  C   UNL A   1      44.952  33.529  28.751  1.00  0.00     0.023 A 
ATOM     82  C   UNL A   1      44.629  34.494  27.778  1.00  0.00     0.012 A 
ATOM     83  C   UNL A   1      45.676  33.916  29.896  1.00  0.00     0.148 A 
ATOM     84  C   UNL A   1      45.052  35.815  27.923  1.00  0.00     0.002 A 
ATOM     85  C   UNL A   1      46.047  35.244  30.061  1.00  0.00     0.091 A 
ATOM     86  F   UNL A   1      45.987  32.978  30.803  1.00  0.00    -0.205 F 
ATOM     87  C   UNL A   1      45.750  36.192  29.069  1.00  0.00     0.022 A 
BRANCH  85  88
ATOM     88  S   UNL A   1      46.856  35.840  31.549  1.00  0.00     0.127 S 
ATOM     89  O   UNL A   1      45.892  35.466  32.583  1.00  0.00    -0.237 OA
ATOM     90  O   UNL A   1      48.096  35.062  31.560  1.00  0.00    -0.237 OA
ATOM     91  O   UNL A   1      47.042  37.273  31.362  1.00  0.00    -0.744 OA
ENDBRANCH  85  88
ENDBRANCH  58  81
ENDBRANCH  32  33
ENDBRANCH  25  27
ENDBRANCH  24  25
ENDBRANCH  23  24
ENDBRANCH  22  23
ENDBRANCH  21  22
ENDBRANCH   1  21
TORSDOF 23
ENDMDL
MODEL 3
REMARK VINA RESULT:      -9.1      1.306      7.712
REMARK SMILES CCN(CC(C)C)C(=O)N[C@](C)(CC)C(=O)OCCOCCOC(=O)c1ccc(-c2c3nc(c(-c4cccc(S(=O)(=O)[O-])c4F)c4ccc([nH]4)c(-c4cccc(S(=O)(=O)[O-])c4F)c4nc(c(-c5cccc(S(=O)(=O)[O-])c5F)c5ccc2[nH]5)C=C4)C=C3)cc1
REMARK SMILES IDX 19 1 18 2 17 3 15 4 16 5 11 6 12 7 10 8 8 9 9 10 3 12 2 13
REMARK SMILES IDX 1 14 4 15 5 16 6 17 7 18 13 19 14 20 20 21 21 22 22 23 23 24
REMARK SMILES IDX 24 25 25 26 26 27 27 28 88 29 28 30 87 31 29 32 30 33 31 34
REMARK SMILES IDX 81 35 32 36 86 37 80 38 82 39 33 40 85 41 79 42 78 43 34 45
REMARK SMILES IDX 66 46 46 47 65 48 47 49 50 50 64 51 83 52 48 53 49 54 63 56
REMARK SMILES IDX 84 57 51 58 35 59 36 60 44 61 37 62 39 63 45 64 38 65 40 66
REMARK SMILES IDX 41 67 42 68 43 69 67 70 68 71 76 72 69 73 71 74 77 75 70 76
REMARK SMILES IDX 72 77 73 78 74 79 75 80 52 81 53 82 61 83 54 84 56 85 62 86
REMARK SMILES IDX 55 87 57 88 58 89 59 90 60 91
REMARK H PARENT 10 11 82 44 50 55
REMARK Flexibility Score: inf
ROOT
ATOM      1  C   UNL A   1      36.017  20.720  24.646  1.00  0.00     0.202 C 
ENDROOT
BRANCH   1   2
ATOM      2  C   UNL A   1      34.508  20.511  24.896  1.00  0.00     0.261 C 
BRANCH   2   3
ATOM      3  O   UNL A   1      33.546  21.561  24.683  1.00  0.00    -0.462 OA
BRANCH   3   4
ATOM      4  C   UNL A   1      33.341  22.394  25.735  1.00  0.00     0.331 C 
ATOM      5  O   UNL A   1      33.037  21.976  26.841  1.00  0.00    -0.249 OA
BRANCH   4   6
ATOM      6  C   UNL A   1      33.420  23.910  25.421  1.00  0.00     0.136 C 
ATOM      7  C   UNL A   1      33.137  24.750  26.693  1.00  0.00     0.047 C 
BRANCH   6   8
ATOM      8  N   UNL A   1      32.464  24.310  24.318  1.00  0.00    -0.322 N 
ATOM      9  C   UNL A   1      31.932  25.334  23.632  1.00  0.00     0.318 C 
ATOM     10  O   UNL A   1      31.268  24.964  22.653  1.00  0.00    -0.249 OA
ATOM     11  H   UNL A   1      32.073  23.482  23.957  1.00  0.00     0.166 HD
BRANCH   9  12
ATOM     12  N   UNL A   1      32.028  26.662  23.927  1.00  0.00    -0.325 N 
BRANCH  12  13
ATOM     13  C   UNL A   1      33.288  27.335  23.559  1.00  0.00     0.118 C 
ATOM     14  C   UNL A   1      33.493  27.519  22.064  1.00  0.00     0.027 C 
ENDBRANCH  12  13
BRANCH  12  15
ATOM     15  C   UNL A   1      30.991  27.563  24.412  1.00  0.00     0.124 C 
BRANCH  15  16
ATOM     16  C   UNL A   1      29.905  27.895  23.358  1.00  0.00     0.002 C 
ATOM     17  C   UNL A   1      28.605  27.116  23.591  1.00  0.00     0.009 C 
ATOM     18  C   UNL A   1      29.701  29.414  23.236  1.00  0.00     0.009 C 
ENDBRANCH  15  16
ENDBRANCH  12  15
ENDBRANCH   9  12
ENDBRANCH   6   8
BRANCH   6  19
ATOM     19  C   UNL A   1      34.858  24.281  24.929  1.00  0.00     0.037 C 
ATOM     20  C   UNL A   1      35.991  24.037  25.928  1.00  0.00     0.007 C 
ENDBRANCH   6  19
ENDBRANCH   4   6
ENDBRANCH   3   4
ENDBRANCH   2   3
ENDBRANCH   1   2
BRANCH   1  21
ATOM     21  O   UNL A   1      36.984  19.747  24.961  1.00  0.00    -0.374 OA
BRANCH  21  22
ATOM     22  C   UNL A   1      38.293  20.090  25.380  1.00  0.00     0.202 C 
BRANCH  22  23
ATOM     23  C   UNL A   1      39.387  19.088  25.790  1.00  0.00     0.261 C 
BRANCH  23  24
ATOM     24  O   UNL A   1      40.729  19.398  25.417  1.00  0.00    -0.460 OA
BRANCH  24  25
ATOM     25  C   UNL A   1      41.556  19.606  26.470  1.00  0.00     0.338 C 
ATOM     26  O   UNL A   1      42.327  18.801  26.973  1.00  0.00    -0.246 OA
BRANCH  25  27
ATOM     27  C   UNL A   1      41.554  21.031  26.825  1.00  0.00     0.060 A 
ATOM     28  C   UNL A   1      41.539  21.960  25.775  1.00  0.00     0.016 A 
ATOM     29  C   UNL A   1      41.677  21.446  28.152  1.00  0.00     0.016 A 
ATOM     30  C   UNL A   1      41.724  23.308  26.042  1.00  0.00     0.010 A 
ATOM     31  C   UNL A   1      41.881  22.801  28.417  1.00  0.00     0.010 A 
ATOM     32  C   UNL A   1      41.963  23.723  27.357  1.00  0.00    -0.014 A 
BRANCH  32  33
ATOM     33  C   UNL A   1      42.514  25.076  27.581  1.00  0.00     0.031 A 
ATOM     34  C   UNL A   1      41.629  26.110  28.223  1.00  0.00     0.074 A 
ATOM     35  C   UNL A   1      43.787  25.360  27.262  1.00  0.00     0.049 A 
ATOM     36  N   UNL A   1      41.882  27.361  28.497  1.00  0.00    -0.248 NA
ATOM     37  C   UNL A   1      40.275  25.672  28.608  1.00  0.00     0.031 C 
ATOM     38  C   UNL A   1      44.736  24.421  26.668  1.00  0.00     0.029 A 
ATOM     39  N   UNL A   1      44.491  26.530  27.376  1.00  0.00    -0.354 N 
ATOM     40  C   UNL A   1      40.714  27.870  29.053  1.00  0.00     0.074 A 
ATOM     41  C   UNL A   1      39.747  26.795  29.072  1.00  0.00     0.031 C 
ATOM     42  C   UNL A   1      45.896  25.062  26.440  1.00  0.00     0.029 A 
ATOM     43  C   UNL A   1      45.754  26.460  26.841  1.00  0.00     0.049 A 
ATOM     44  H   UNL A   1      44.126  27.341  27.799  1.00  0.00     0.167 HD
ATOM     45  C   UNL A   1      40.474  29.119  29.514  1.00  0.00     0.034 A 
ATOM     46  C   UNL A   1      46.675  27.427  26.668  1.00  0.00     0.034 A 
ATOM     47  C   UNL A   1      41.450  30.173  29.504  1.00  0.00     0.049 A 
ATOM     48  C   UNL A   1      46.368  28.819  27.154  1.00  0.00     0.074 A 
ATOM     49  C   UNL A   1      41.325  31.466  29.979  1.00  0.00     0.029 A 
ATOM     50  N   UNL A   1      42.727  30.062  28.977  1.00  0.00    -0.354 N 
ATOM     51  N   UNL A   1      45.293  29.266  27.758  1.00  0.00    -0.248 NA
ATOM     52  C   UNL A   1      47.414  29.835  26.962  1.00  0.00     0.031 C 
ATOM     53  C   UNL A   1      42.513  32.148  29.702  1.00  0.00     0.029 A 
ATOM     54  C   UNL A   1      43.396  31.267  29.098  1.00  0.00     0.049 A 
ATOM     55  H   UNL A   1      43.103  29.245  28.575  1.00  0.00     0.167 HD
ATOM     56  C   UNL A   1      45.548  30.600  28.055  1.00  0.00     0.074 A 
ATOM     57  C   UNL A   1      46.886  30.884  27.578  1.00  0.00     0.031 C 
ATOM     58  C   UNL A   1      44.746  31.513  28.659  1.00  0.00     0.034 A 
BRANCH  45  59
ATOM     59  C   UNL A   1      39.103  29.414  30.066  1.00  0.00     0.023 A 
ATOM     60  C   UNL A   1      38.767  29.014  31.375  1.00  0.00     0.012 A 
ATOM     61  C   UNL A   1      38.165  30.137  29.302  1.00  0.00     0.148 A 
ATOM     62  C   UNL A   1      37.508  29.301  31.903  1.00  0.00     0.002 A 
ATOM     63  C   UNL A   1      36.932  30.461  29.853  1.00  0.00     0.091 A 
ATOM     64  F   UNL A   1      38.495  30.487  28.051  1.00  0.00    -0.205 F 
ATOM     65  C   UNL A   1      36.597  30.033  31.148  1.00  0.00     0.022 A 
BRANCH  63  66
ATOM     66  S   UNL A   1      35.719  31.467  28.990  1.00  0.00     0.127 S 
ATOM     67  O   UNL A   1      36.551  32.555  28.476  1.00  0.00    -0.237 OA
ATOM     68  O   UNL A   1      35.224  30.542  27.970  1.00  0.00    -0.237 OA
ATOM     69  O   UNL A   1      34.734  31.857  29.989  1.00  0.00    -0.744 OA
ENDBRANCH  63  66
ENDBRANCH  45  59
BRANCH  46  70
ATOM     70  C   UNL A   1      47.975  27.109  26.015  1.00  0.00     0.023 A 
ATOM     71  C   UNL A   1      49.007  26.510  26.762  1.00  0.00     0.012 A 
ATOM     72  C   UNL A   1      48.187  27.388  24.651  1.00  0.00     0.148 A 
ATOM     73  C   UNL A   1      50.238  26.223  26.170  1.00  0.00     0.002 A 
ATOM     74  C   UNL A   1      49.393  27.047  24.053  1.00  0.00     0.091 A 
ATOM     75  F   UNL A   1      47.197  27.972  23.961  1.00  0.00    -0.205 F 
ATOM     76  C   UNL A   1      50.428  26.482  24.815  1.00  0.00     0.022 A 
BRANCH  74  77
ATOM     77  S   UNL A   1      49.680  27.227  22.289  1.00  0.00     0.127 S 
ATOM     78  O   UNL A   1      48.690  26.308  21.732  1.00  0.00    -0.237 OA
ATOM     79  O   UNL A   1      49.392  28.646  22.082  1.00  0.00    -0.237 OA
ATOM     80  O   UNL A   1      51.073  26.858  22.078  1.00  0.00    -0.744 OA
ENDBRANCH  74  77
ENDBRANCH  46  70
BRANCH  58  81
ATOM     81  C   UNL A   1      45.309  32.892  28.890  1.00  0.00     0.023 A 
ATOM     82  C   UNL A   1      45.930  33.208  30.113  1.00  0.00     0.012 A 
ATOM     83  C   UNL A   1      45.284  33.850  27.857  1.00  0.00     0.148 A 
ATOM     84  C   UNL A   1      46.486  34.470  30.319  1.00  0.00     0.002 A 
ATOM     85  C   UNL A   1      45.889  35.085  28.049  1.00  0.00     0.091 A 
ATOM     86  F   UNL A   1      44.673  33.534  26.706  1.00  0.00    -0.205 F 
ATOM     87  C   UNL A   1      46.476  35.403  29.284  1.00  0.00     0.022 A 
BRANCH  85  88
ATOM     88  S   UNL A   1      46.015  36.310  26.741  1.00  0.00     0.127 S 
ATOM     89  O   UNL A   1      46.124  35.465  25.552  1.00  0.00    -0.237 OA
ATOM     90  O   UNL A   1      44.745  37.027  26.866  1.00  0.00    -0.237 OA
ATOM     91  O   UNL A   1      47.194  37.108  27.047  1.00  0.00    -0.744 OA
ENDBRANCH  85  88
ENDBRANCH  58  81
ENDBRANCH  32  33
ENDBRANCH  25  27
ENDBRANCH  24  25
ENDBRANCH  23  24
ENDBRANCH  22  23
ENDBRANCH  21  22
ENDBRANCH   1  21
TORSDOF 23
ENDMDL
