MODEL 1
REMARK VINA RESULT:     -11.4      0.000      0.000
REMARK SMILES O=C(C[C@@H]1C(=O)NCCN1C(=O)OCC1c2ccccc2-c2ccccc21)OCCOCCOC(=O)c1ccc(-c2c3nc(c(-c4cccc(S(=O)(=O)[O-])c4F)c4ccc([nH]4)c(-c4cccc(S(=O)(=O)[O-])c4F)c4nc(c(-c5cccc(S(=O)(=O)[O-])c5F)c5ccc2[nH]5)C=C4)C=C3)cc1
REMARK SMILES IDX 30 1 29 2 28 3 2 4 1 5 3 6 4 7 5 8 10 9 6 10 7 11 9 12 8 13
REMARK SMILES IDX 11 15 12 16 13 17 14 18 15 19 16 20 27 21 17 22 21 23 22 24
REMARK SMILES IDX 26 25 18 26 20 27 23 28 25 29 19 30 24 31 31 32 32 33 33 34
REMARK SMILES IDX 34 35 35 36 36 37 37 38 38 39 99 40 39 41 98 42 40 43 41 44
REMARK SMILES IDX 42 45 92 46 43 47 97 48 91 49 93 50 44 51 96 52 90 53 89 54
REMARK SMILES IDX 45 56 77 57 57 58 76 59 58 60 61 61 75 62 94 63 59 64 60 65
REMARK SMILES IDX 74 67 95 68 62 69 46 70 47 71 55 72 48 73 50 74 56 75 49 76
REMARK SMILES IDX 51 77 52 78 53 79 54 80 78 81 79 82 87 83 80 84 82 85 88 86
REMARK SMILES IDX 81 87 83 88 84 89 85 90 86 91 63 92 64 93 72 94 65 95 67 96
REMARK SMILES IDX 73 97 66 98 68 99 69 100 70 101 71 102
REMARK H PARENT 7 14 93 55 61 66
REMARK Flexibility Score: inf
ROOT
ATOM      1  C   UNL A   1      37.523  21.836  24.669  1.00  0.00     0.202 C 
ENDROOT
BRANCH   1   2
ATOM      2  C   UNL A   1      36.037  21.492  24.649  1.00  0.00     0.261 C 
BRANCH   2   3
ATOM      3  O   UNL A   1      35.172  22.424  23.999  1.00  0.00    -0.463 OA
BRANCH   3   4
ATOM      4  C   UNL A   1      34.477  23.430  24.552  1.00  0.00     0.308 C 
ATOM      5  O   UNL A   1      35.088  24.451  24.883  1.00  0.00    -0.252 OA
BRANCH   4   6
ATOM      6  C   UNL A   1      33.027  23.303  24.901  1.00  0.00     0.158 C 
BRANCH   6   7
ATOM      7  C   UNL A   1      32.165  24.378  25.583  1.00  0.00     0.189 C 
ATOM      8  C   UNL A   1      31.366  23.648  26.724  1.00  0.00     0.243 C 
ATOM      9  N   UNL A   1      31.353  25.367  24.832  1.00  0.00    -0.294 N 
ATOM     10  O   UNL A   1      31.882  22.816  27.469  1.00  0.00    -0.273 OA
ATOM     11  N   UNL A   1      30.054  23.975  26.934  1.00  0.00    -0.353 N 
ATOM     12  C   UNL A   1      30.308  26.025  25.632  1.00  0.00     0.145 C 
ATOM     13  C   UNL A   1      29.342  24.987  26.188  1.00  0.00     0.137 C 
ATOM     14  H   UNL A   1      29.563  23.489  27.636  1.00  0.00     0.163 HD
BRANCH   9  15
ATOM     15  C   UNL A   1      31.465  25.783  23.512  1.00  0.00     0.410 C 
ATOM     16  O   UNL A   1      30.934  25.165  22.607  1.00  0.00    -0.224 OA
BRANCH  15  17
ATOM     17  O   UNL A   1      32.235  26.875  23.320  1.00  0.00    -0.448 OA
BRANCH  17  18
ATOM     18  C   UNL A   1      31.643  28.146  22.879  1.00  0.00     0.248 C 
BRANCH  18  19
ATOM     19  C   UNL A   1      30.569  28.758  23.817  1.00  0.00     0.088 C 
ATOM     20  C   UNL A   1      31.181  29.591  24.955  1.00  0.00    -0.029 A 
ATOM     21  C   UNL A   1      29.630  29.804  23.174  1.00  0.00    -0.029 A 
ATOM     22  C   UNL A   1      32.133  29.233  25.898  1.00  0.00     0.005 A 
ATOM     23  C   UNL A   1      30.608  30.878  24.993  1.00  0.00    -0.014 A 
ATOM     24  C   UNL A   1      29.670  31.011  23.907  1.00  0.00    -0.014 A 
ATOM     25  C   UNL A   1      28.764  29.681  22.096  1.00  0.00     0.005 A 
ATOM     26  C   UNL A   1      32.487  30.144  26.893  1.00  0.00     0.000 A 
ATOM     27  C   UNL A   1      30.962  31.791  25.978  1.00  0.00     0.009 A 
ATOM     28  C   UNL A   1      28.876  32.099  23.564  1.00  0.00     0.009 A 
ATOM     29  C   UNL A   1      27.957  30.777  21.750  1.00  0.00     0.000 A 
ATOM     30  C   UNL A   1      31.901  31.411  26.938  1.00  0.00     0.001 A 
ATOM     31  C   UNL A   1      28.015  31.978  22.475  1.00  0.00     0.001 A 
ENDBRANCH  18  19
ENDBRANCH  17  18
ENDBRANCH  15  17
ENDBRANCH   9  15
ENDBRANCH   6   7
ENDBRANCH   4   6
ENDBRANCH   3   4
ENDBRANCH   2   3
ENDBRANCH   1   2
BRANCH   1  32
ATOM     32  O   UNL A   1      38.388  21.204  25.587  1.00  0.00    -0.374 OA
BRANCH  32  33
ATOM     33  C   UNL A   1      38.801  19.858  25.414  1.00  0.00     0.202 C 
BRANCH  33  34
ATOM     34  C   UNL A   1      40.097  19.275  26.006  1.00  0.00     0.261 C 
BRANCH  34  35
ATOM     35  O   UNL A   1      41.319  19.532  25.307  1.00  0.00    -0.460 OA
BRANCH  35  36
ATOM     36  C   UNL A   1      42.314  19.991  26.098  1.00  0.00     0.338 C 
ATOM     37  O   UNL A   1      43.399  19.467  26.286  1.00  0.00    -0.246 OA
BRANCH  36  38
ATOM     38  C   UNL A   1      41.988  21.326  26.625  1.00  0.00     0.060 A 
ATOM     39  C   UNL A   1      41.636  22.319  25.704  1.00  0.00     0.016 A 
ATOM     40  C   UNL A   1      42.223  21.638  27.966  1.00  0.00     0.016 A 
ATOM     41  C   UNL A   1      41.628  23.651  26.095  1.00  0.00     0.010 A 
ATOM     42  C   UNL A   1      42.225  22.980  28.354  1.00  0.00     0.010 A 
ATOM     43  C   UNL A   1      42.004  23.990  27.401  1.00  0.00    -0.014 A 
BRANCH  43  44
ATOM     44  C   UNL A   1      42.399  25.391  27.677  1.00  0.00     0.031 A 
ATOM     45  C   UNL A   1      43.744  25.867  27.190  1.00  0.00     0.074 A 
ATOM     46  C   UNL A   1      41.554  26.235  28.291  1.00  0.00     0.049 A 
ATOM     47  N   UNL A   1      44.289  27.051  27.286  1.00  0.00    -0.248 NA
ATOM     48  C   UNL A   1      44.588  24.875  26.501  1.00  0.00     0.031 C 
ATOM     49  C   UNL A   1      40.221  25.886  28.781  1.00  0.00     0.029 A 
ATOM     50  N   UNL A   1      41.700  27.558  28.613  1.00  0.00    -0.354 N 
ATOM     51  C   UNL A   1      45.551  26.935  26.714  1.00  0.00     0.074 A 
ATOM     52  C   UNL A   1      45.694  25.566  26.276  1.00  0.00     0.031 C 
ATOM     53  C   UNL A   1      39.675  26.970  29.357  1.00  0.00     0.029 A 
ATOM     54  C   UNL A   1      40.629  28.075  29.300  1.00  0.00     0.049 A 
ATOM     55  H   UNL A   1      42.495  28.088  28.375  1.00  0.00     0.167 HD
ATOM     56  C   UNL A   1      46.502  27.887  26.557  1.00  0.00     0.034 A 
ATOM     57  C   UNL A   1      40.452  29.298  29.836  1.00  0.00     0.034 A 
ATOM     58  C   UNL A   1      46.340  29.252  26.975  1.00  0.00     0.049 A 
ATOM     59  C   UNL A   1      41.529  30.336  29.657  1.00  0.00     0.074 A 
ATOM     60  C   UNL A   1      47.219  30.310  26.824  1.00  0.00     0.029 A 
ATOM     61  N   UNL A   1      45.229  29.748  27.641  1.00  0.00    -0.354 N 
ATOM     62  N   UNL A   1      42.675  30.240  29.026  1.00  0.00    -0.248 NA
ATOM     63  C   UNL A   1      41.269  31.665  30.228  1.00  0.00     0.031 C 
ATOM     64  C   UNL A   1      46.655  31.435  27.436  1.00  0.00     0.029 A 
ATOM     65  C   UNL A   1      45.403  31.091  27.919  1.00  0.00     0.049 A 
ATOM     66  H   UNL A   1      44.433  29.219  27.881  1.00  0.00     0.167 HD
ATOM     67  C   UNL A   1      43.248  31.506  29.080  1.00  0.00     0.074 A 
ATOM     68  C   UNL A   1      42.316  32.353  29.794  1.00  0.00     0.031 C 
ATOM     69  C   UNL A   1      44.439  31.931  28.585  1.00  0.00     0.034 A 
BRANCH  56  70
ATOM     70  C   UNL A   1      47.804  27.482  25.914  1.00  0.00     0.023 A 
ATOM     71  C   UNL A   1      48.832  26.907  26.689  1.00  0.00     0.012 A 
ATOM     72  C   UNL A   1      47.992  27.633  24.526  1.00  0.00     0.148 A 
ATOM     73  C   UNL A   1      50.038  26.526  26.101  1.00  0.00     0.002 A 
ATOM     74  C   UNL A   1      49.176  27.205  23.938  1.00  0.00     0.091 A 
ATOM     75  F   UNL A   1      47.014  28.203  23.807  1.00  0.00    -0.205 F 
ATOM     76  C   UNL A   1      50.205  26.665  24.725  1.00  0.00     0.022 A 
BRANCH  74  77
ATOM     77  S   UNL A   1      49.453  27.263  22.164  1.00  0.00     0.127 S 
ATOM     78  O   UNL A   1      48.493  26.270  21.683  1.00  0.00    -0.237 OA
ATOM     79  O   UNL A   1      49.107  28.649  21.846  1.00  0.00    -0.237 OA
ATOM     80  O   UNL A   1      50.855  26.924  21.963  1.00  0.00    -0.744 OA
ENDBRANCH  74  77
ENDBRANCH  56  70
BRANCH  57  81
ATOM     81  C   UNL A   1      39.186  29.622  30.551  1.00  0.00     0.023 A 
ATOM     82  C   UNL A   1      38.971  29.117  31.849  1.00  0.00     0.012 A 
ATOM     83  C   UNL A   1      38.200  30.435  29.958  1.00  0.00     0.148 A 
ATOM     84  C   UNL A   1      37.783  29.386  32.528  1.00  0.00     0.002 A 
ATOM     85  C   UNL A   1      37.045  30.747  30.663  1.00  0.00     0.091 A 
ATOM     86  F   UNL A   1      38.418  30.894  28.718  1.00  0.00    -0.205 F 
ATOM     87  C   UNL A   1      36.825  30.208  31.940  1.00  0.00     0.022 A 
BRANCH  85  88
ATOM     88  S   UNL A   1      35.813  31.895  30.039  1.00  0.00     0.127 S 
ATOM     89  O   UNL A   1      34.901  32.001  31.174  1.00  0.00    -0.237 OA
ATOM     90  O   UNL A   1      36.619  33.089  29.783  1.00  0.00    -0.237 OA
ATOM     91  O   UNL A   1      35.262  31.275  28.842  1.00  0.00    -0.744 OA
ENDBRANCH  85  88
ENDBRANCH  57  81
BRANCH  69  92
ATOM     92  C   UNL A   1      44.773  33.393  28.731  1.00  0.00     0.023 A 
ATOM     93  C   UNL A   1      44.306  34.332  27.792  1.00  0.00     0.012 A 
ATOM     94  C   UNL A   1      45.513  33.841  29.846  1.00  0.00     0.148 A 
ATOM     95  C   UNL A   1      44.610  35.686  27.931  1.00  0.00     0.002 A 
ATOM     96  C   UNL A   1      45.763  35.197  30.009  1.00  0.00     0.091 A 
ATOM     97  F   UNL A   1      45.965  32.932  30.721  1.00  0.00    -0.205 F 
ATOM     98  C   UNL A   1      45.328  36.119  29.044  1.00  0.00     0.022 A 
BRANCH  96  99
ATOM     99  S   UNL A   1      46.585  35.851  31.466  1.00  0.00     0.127 S 
ATOM    100  O   UNL A   1      45.756  35.311  32.542  1.00  0.00    -0.237 OA
ATOM    101  O   UNL A   1      47.918  35.255  31.364  1.00  0.00    -0.237 OA
ATOM    102  O   UNL A   1      46.561  37.300  31.322  1.00  0.00    -0.744 OA
ENDBRANCH  96  99
ENDBRANCH  69  92
ENDBRANCH  43  44
ENDBRANCH  36  38
ENDBRANCH  35  36
ENDBRANCH  34  35
ENDBRANCH  33  34
ENDBRANCH  32  33
ENDBRANCH   1  32
TORSDOF 22
ENDMDL
MODEL 2
REMARK VINA RESULT:     -11.1      1.269      2.270
REMARK SMILES O=C(C[C@@H]1C(=O)NCCN1C(=O)OCC1c2ccccc2-c2ccccc21)OCCOCCOC(=O)c1ccc(-c2c3nc(c(-c4cccc(S(=O)(=O)[O-])c4F)c4ccc([nH]4)c(-c4cccc(S(=O)(=O)[O-])c4F)c4nc(c(-c5cccc(S(=O)(=O)[O-])c5F)c5ccc2[nH]5)C=C4)C=C3)cc1
REMARK SMILES IDX 30 1 29 2 28 3 2 4 1 5 3 6 4 7 5 8 10 9 6 10 7 11 9 12 8 13
REMARK SMILES IDX 11 15 12 16 13 17 14 18 15 19 16 20 27 21 17 22 21 23 22 24
REMARK SMILES IDX 26 25 18 26 20 27 23 28 25 29 19 30 24 31 31 32 32 33 33 34
REMARK SMILES IDX 34 35 35 36 36 37 37 38 38 39 99 40 39 41 98 42 40 43 41 44
REMARK SMILES IDX 42 45 92 46 43 47 97 48 91 49 93 50 44 51 96 52 90 53 89 54
REMARK SMILES IDX 45 56 77 57 57 58 76 59 58 60 61 61 75 62 94 63 59 64 60 65
REMARK SMILES IDX 74 67 95 68 62 69 46 70 47 71 55 72 48 73 50 74 56 75 49 76
REMARK SMILES IDX 51 77 52 78 53 79 54 80 78 81 79 82 87 83 80 84 82 85 88 86
REMARK SMILES IDX 81 87 83 88 84 89 85 90 86 91 63 92 64 93 72 94 65 95 67 96
REMARK SMILES IDX 73 97 66 98 68 99 69 100 70 101 71 102
REMARK H PARENT 7 14 93 55 61 66
REMARK Flexibility Score: inf
ROOT
ATOM      1  C   UNL A   1      37.769  22.120  25.376  1.00  0.00     0.202 C 
ENDROOT
BRANCH   1   2
ATOM      2  C   UNL A   1      36.400  21.544  25.022  1.00  0.00     0.261 C 
BRANCH   2   3
ATOM      3  O   UNL A   1      35.510  22.402  24.309  1.00  0.00    -0.463 OA
BRANCH   3   4
ATOM      4  C   UNL A   1      34.783  23.423  24.790  1.00  0.00     0.308 C 
ATOM      5  O   UNL A   1      35.350  24.501  24.992  1.00  0.00    -0.252 OA
BRANCH   4   6
ATOM      6  C   UNL A   1      33.356  23.259  25.214  1.00  0.00     0.158 C 
BRANCH   6   7
ATOM      7  C   UNL A   1      32.425  24.381  25.702  1.00  0.00     0.189 C 
ATOM      8  C   UNL A   1      31.502  23.743  26.804  1.00  0.00     0.243 C 
ATOM      9  N   UNL A   1      31.704  25.297  24.784  1.00  0.00    -0.294 N 
ATOM     10  O   UNL A   1      31.930  22.980  27.670  1.00  0.00    -0.273 OA
ATOM     11  N   UNL A   1      30.175  24.076  26.837  1.00  0.00    -0.353 N 
ATOM     12  C   UNL A   1      30.576  26.011  25.404  1.00  0.00     0.145 C 
ATOM     13  C   UNL A   1      29.553  25.016  25.934  1.00  0.00     0.137 C 
ATOM     14  H   UNL A   1      29.608  23.647  27.518  1.00  0.00     0.163 HD
BRANCH   9  15
ATOM     15  C   UNL A   1      31.963  25.601  23.455  1.00  0.00     0.410 C 
ATOM     16  O   UNL A   1      31.205  25.256  22.566  1.00  0.00    -0.224 OA
BRANCH  15  17
ATOM     17  O   UNL A   1      33.125  26.251  23.233  1.00  0.00    -0.448 OA
BRANCH  17  18
ATOM     18  C   UNL A   1      33.172  27.433  22.360  1.00  0.00     0.248 C 
BRANCH  18  19
ATOM     19  C   UNL A   1      32.929  28.800  23.052  1.00  0.00     0.088 C 
ATOM     20  C   UNL A   1      31.476  29.285  22.915  1.00  0.00    -0.029 A 
ATOM     21  C   UNL A   1      33.087  28.812  24.590  1.00  0.00    -0.029 A 
ATOM     22  C   UNL A   1      30.711  29.466  21.773  1.00  0.00     0.005 A 
ATOM     23  C   UNL A   1      30.935  29.600  24.177  1.00  0.00    -0.014 A 
ATOM     24  C   UNL A   1      31.911  29.308  25.197  1.00  0.00    -0.014 A 
ATOM     25  C   UNL A   1      34.187  28.495  25.376  1.00  0.00     0.005 A 
ATOM     26  C   UNL A   1      29.424  29.991  21.888  1.00  0.00     0.000 A 
ATOM     27  C   UNL A   1      29.652  30.117  24.297  1.00  0.00     0.009 A 
ATOM     28  C   UNL A   1      31.812  29.467  26.574  1.00  0.00     0.009 A 
ATOM     29  C   UNL A   1      34.091  28.660  26.767  1.00  0.00     0.000 A 
ATOM     30  C   UNL A   1      28.900  30.322  23.140  1.00  0.00     0.001 A 
ATOM     31  C   UNL A   1      32.914  29.138  27.362  1.00  0.00     0.001 A 
ENDBRANCH  18  19
ENDBRANCH  17  18
ENDBRANCH  15  17
ENDBRANCH   9  15
ENDBRANCH   6   7
ENDBRANCH   4   6
ENDBRANCH   3   4
ENDBRANCH   2   3
ENDBRANCH   1   2
BRANCH   1  32
ATOM     32  O   UNL A   1      38.711  21.338  26.076  1.00  0.00    -0.374 OA
BRANCH  32  33
ATOM     33  C   UNL A   1      39.001  20.003  25.693  1.00  0.00     0.202 C 
BRANCH  33  34
ATOM     34  C   UNL A   1      40.297  19.264  26.069  1.00  0.00     0.261 C 
BRANCH  34  35
ATOM     35  O   UNL A   1      41.451  19.494  25.254  1.00  0.00    -0.460 OA
BRANCH  35  36
ATOM     36  C   UNL A   1      42.506  19.999  25.931  1.00  0.00     0.338 C 
ATOM     37  O   UNL A   1      43.626  19.521  26.001  1.00  0.00    -0.246 OA
BRANCH  36  38
ATOM     38  C   UNL A   1      42.184  21.322  26.487  1.00  0.00     0.060 A 
ATOM     39  C   UNL A   1      41.884  22.350  25.585  1.00  0.00     0.016 A 
ATOM     40  C   UNL A   1      42.374  21.589  27.845  1.00  0.00     0.016 A 
ATOM     41  C   UNL A   1      41.884  23.669  26.018  1.00  0.00     0.010 A 
ATOM     42  C   UNL A   1      42.384  22.918  28.275  1.00  0.00     0.010 A 
ATOM     43  C   UNL A   1      42.216  23.961  27.347  1.00  0.00    -0.014 A 
BRANCH  43  44
ATOM     44  C   UNL A   1      42.626  25.344  27.681  1.00  0.00     0.031 A 
ATOM     45  C   UNL A   1      43.986  25.819  27.238  1.00  0.00     0.074 A 
ATOM     46  C   UNL A   1      41.780  26.177  28.310  1.00  0.00     0.049 A 
ATOM     47  N   UNL A   1      44.545  26.990  27.387  1.00  0.00    -0.248 NA
ATOM     48  C   UNL A   1      44.829  24.840  26.528  1.00  0.00     0.031 C 
ATOM     49  C   UNL A   1      40.434  25.830  28.762  1.00  0.00     0.029 A 
ATOM     50  N   UNL A   1      41.939  27.486  28.684  1.00  0.00    -0.354 N 
ATOM     51  C   UNL A   1      45.816  26.878  26.834  1.00  0.00     0.074 A 
ATOM     52  C   UNL A   1      45.949  25.523  26.349  1.00  0.00     0.031 C 
ATOM     53  C   UNL A   1      39.892  26.900  29.368  1.00  0.00     0.029 A 
ATOM     54  C   UNL A   1      40.861  27.992  29.369  1.00  0.00     0.049 A 
ATOM     55  H   UNL A   1      42.745  28.012  28.480  1.00  0.00     0.167 HD
ATOM     56  C   UNL A   1      46.783  27.821  26.731  1.00  0.00     0.034 A 
ATOM     57  C   UNL A   1      40.691  29.198  29.946  1.00  0.00     0.034 A 
ATOM     58  C   UNL A   1      46.631  29.172  27.195  1.00  0.00     0.049 A 
ATOM     59  C   UNL A   1      41.786  30.226  29.825  1.00  0.00     0.074 A 
ATOM     60  C   UNL A   1      47.528  30.222  27.099  1.00  0.00     0.029 A 
ATOM     61  N   UNL A   1      45.514  29.659  27.858  1.00  0.00    -0.354 N 
ATOM     62  N   UNL A   1      42.942  30.137  29.213  1.00  0.00    -0.248 NA
ATOM     63  C   UNL A   1      41.533  31.536  30.440  1.00  0.00     0.031 C 
ATOM     64  C   UNL A   1      46.968  31.332  27.742  1.00  0.00     0.029 A 
ATOM     65  C   UNL A   1      45.702  30.989  28.189  1.00  0.00     0.049 A 
ATOM     66  H   UNL A   1      44.707  29.133  28.064  1.00  0.00     0.167 HD
ATOM     67  C   UNL A   1      43.531  31.391  29.324  1.00  0.00     0.074 A 
ATOM     68  C   UNL A   1      42.597  32.225  30.052  1.00  0.00     0.031 C 
ATOM     69  C   UNL A   1      44.737  31.817  28.867  1.00  0.00     0.034 A 
BRANCH  56  70
ATOM     70  C   UNL A   1      48.091  27.421  26.098  1.00  0.00     0.023 A 
ATOM     71  C   UNL A   1      49.124  26.872  26.884  1.00  0.00     0.012 A 
ATOM     72  C   UNL A   1      48.280  27.551  24.707  1.00  0.00     0.148 A 
ATOM     73  C   UNL A   1      50.336  26.496  26.305  1.00  0.00     0.002 A 
ATOM     74  C   UNL A   1      49.471  27.128  24.130  1.00  0.00     0.091 A 
ATOM     75  F   UNL A   1      47.297  28.097  23.977  1.00  0.00    -0.205 F 
ATOM     76  C   UNL A   1      50.505  26.614  24.927  1.00  0.00     0.022 A 
BRANCH  74  77
ATOM     77  S   UNL A   1      49.751  27.160  22.355  1.00  0.00     0.127 S 
ATOM     78  O   UNL A   1      48.795  26.157  21.887  1.00  0.00    -0.237 OA
ATOM     79  O   UNL A   1      49.404  28.540  22.015  1.00  0.00    -0.237 OA
ATOM     80  O   UNL A   1      51.155  26.821  22.162  1.00  0.00    -0.744 OA
ENDBRANCH  74  77
ENDBRANCH  56  70
BRANCH  57  81
ATOM     81  C   UNL A   1      39.416  29.513  30.649  1.00  0.00     0.023 A 
ATOM     82  C   UNL A   1      39.192  29.006  31.945  1.00  0.00     0.012 A 
ATOM     83  C   UNL A   1      38.431  30.320  30.047  1.00  0.00     0.148 A 
ATOM     84  C   UNL A   1      37.996  29.267  32.613  1.00  0.00     0.002 A 
ATOM     85  C   UNL A   1      37.267  30.625  30.741  1.00  0.00     0.091 A 
ATOM     86  F   UNL A   1      38.658  30.782  28.810  1.00  0.00    -0.205 F 
ATOM     87  C   UNL A   1      37.038  30.083  32.016  1.00  0.00     0.022 A 
BRANCH  85  88
ATOM     88  S   UNL A   1      36.034  31.765  30.106  1.00  0.00     0.127 S 
ATOM     89  O   UNL A   1      35.580  31.075  28.902  1.00  0.00    -0.237 OA
ATOM     90  O   UNL A   1      35.064  31.797  31.201  1.00  0.00    -0.237 OA
ATOM     91  O   UNL A   1      36.732  33.025  29.886  1.00  0.00    -0.744 OA
ENDBRANCH  85  88
ENDBRANCH  57  81
BRANCH  69  92
ATOM     92  C   UNL A   1      45.088  33.268  29.074  1.00  0.00     0.023 A 
ATOM     93  C   UNL A   1      45.735  33.687  30.252  1.00  0.00     0.012 A 
ATOM     94  C   UNL A   1      44.818  34.211  28.060  1.00  0.00     0.148 A 
ATOM     95  C   UNL A   1      46.065  35.029  30.440  1.00  0.00     0.002 A 
ATOM     96  C   UNL A   1      45.202  35.535  28.230  1.00  0.00     0.091 A 
ATOM     97  F   UNL A   1      44.187  33.799  26.952  1.00  0.00    -0.205 F 
ATOM     98  C   UNL A   1      45.809  35.950  29.426  1.00  0.00     0.022 A 
BRANCH  96  99
ATOM     99  S   UNL A   1      45.008  36.762  26.933  1.00  0.00     0.127 S 
ATOM    100  O   UNL A   1      43.582  37.069  27.025  1.00  0.00    -0.237 OA
ATOM    101  O   UNL A   1      45.894  37.836  27.385  1.00  0.00    -0.237 OA
ATOM    102  O   UNL A   1      45.431  36.112  25.700  1.00  0.00    -0.744 OA
ENDBRANCH  96  99
ENDBRANCH  69  92
ENDBRANCH  43  44
ENDBRANCH  36  38
ENDBRANCH  35  36
ENDBRANCH  34  35
ENDBRANCH  33  34
ENDBRANCH  32  33
ENDBRANCH   1  32
TORSDOF 22
ENDMDL
MODEL 3
REMARK VINA RESULT:     -11.1      2.405      3.454
REMARK SMILES O=C(C[C@@H]1C(=O)NCCN1C(=O)OCC1c2ccccc2-c2ccccc21)OCCOCCOC(=O)c1ccc(-c2c3nc(c(-c4cccc(S(=O)(=O)[O-])c4F)c4ccc([nH]4)c(-c4cccc(S(=O)(=O)[O-])c4F)c4nc(c(-c5cccc(S(=O)(=O)[O-])c5F)c5ccc2[nH]5)C=C4)C=C3)cc1
REMARK SMILES IDX 30 1 29 2 28 3 2 4 1 5 3 6 4 7 5 8 10 9 6 10 7 11 9 12 8 13
REMARK SMILES IDX 11 15 12 16 13 17 14 18 15 19 16 20 27 21 17 22 21 23 22 24
REMARK SMILES IDX 26 25 18 26 20 27 23 28 25 29 19 30 24 31 31 32 32 33 33 34
REMARK SMILES IDX 34 35 35 36 36 37 37 38 38 39 99 40 39 41 98 42 40 43 41 44
REMARK SMILES IDX 42 45 92 46 43 47 97 48 91 49 93 50 44 51 96 52 90 53 89 54
REMARK SMILES IDX 45 56 77 57 57 58 76 59 58 60 61 61 75 62 94 63 59 64 60 65
REMARK SMILES IDX 74 67 95 68 62 69 46 70 47 71 55 72 48 73 50 74 56 75 49 76
REMARK SMILES IDX 51 77 52 78 53 79 54 80 78 81 79 82 87 83 80 84 82 85 88 86
REMARK SMILES IDX 81 87 83 88 84 89 85 90 86 91 63 92 64 93 72 94 65 95 67 96
REMARK SMILES IDX 73 97 66 98 68 99 69 100 70 101 71 102
REMARK H PARENT 7 14 93 55 61 66
REMARK Flexibility Score: inf
ROOT
ATOM      1  C   UNL A   1      38.327  22.493  25.716  1.00  0.00     0.202 C 
ENDROOT
BRANCH   1   2
ATOM      2  C   UNL A   1      36.842  22.170  25.575  1.00  0.00     0.261 C 
BRANCH   2   3
ATOM      3  O   UNL A   1      35.927  23.224  25.872  1.00  0.00    -0.463 OA
BRANCH   3   4
ATOM      4  C   UNL A   1      34.786  23.532  25.235  1.00  0.00     0.308 C 
ATOM      5  O   UNL A   1      33.755  22.936  25.561  1.00  0.00    -0.252 OA
BRANCH   4   6
ATOM      6  C   UNL A   1      34.751  24.463  24.063  1.00  0.00     0.158 C 
BRANCH   6   7
ATOM      7  C   UNL A   1      33.499  24.859  23.262  1.00  0.00     0.189 C 
ATOM      8  C   UNL A   1      33.235  23.688  22.246  1.00  0.00     0.243 C 
ATOM      9  N   UNL A   1      33.301  26.207  22.675  1.00  0.00    -0.294 N 
ATOM     10  O   UNL A   1      33.322  22.502  22.562  1.00  0.00    -0.273 OA
ATOM     11  N   UNL A   1      32.848  23.988  20.969  1.00  0.00    -0.353 N 
ATOM     12  C   UNL A   1      32.269  26.266  21.628  1.00  0.00     0.145 C 
ATOM     13  C   UNL A   1      32.630  25.331  20.483  1.00  0.00     0.137 C 
ATOM     14  H   UNL A   1      32.712  23.242  20.340  1.00  0.00     0.163 HD
BRANCH   9  15
ATOM     15  C   UNL A   1      33.914  27.411  22.998  1.00  0.00     0.410 C 
ATOM     16  O   UNL A   1      34.351  28.150  22.133  1.00  0.00    -0.224 OA
BRANCH  15  17
ATOM     17  O   UNL A   1      34.028  27.659  24.320  1.00  0.00    -0.448 OA
BRANCH  17  18
ATOM     18  C   UNL A   1      33.304  28.779  24.940  1.00  0.00     0.248 C 
BRANCH  18  19
ATOM     19  C   UNL A   1      31.861  28.473  25.420  1.00  0.00     0.088 C 
ATOM     20  C   UNL A   1      30.801  28.781  24.351  1.00  0.00    -0.029 A 
ATOM     21  C   UNL A   1      31.549  26.986  25.707  1.00  0.00    -0.029 A 
ATOM     22  C   UNL A   1      30.567  29.958  23.655  1.00  0.00     0.005 A 
ATOM     23  C   UNL A   1      29.971  27.664  24.135  1.00  0.00    -0.014 A 
ATOM     24  C   UNL A   1      30.427  26.569  24.954  1.00  0.00    -0.014 A 
ATOM     25  C   UNL A   1      32.143  26.106  26.602  1.00  0.00     0.005 A 
ATOM     26  C   UNL A   1      29.488  30.028  22.773  1.00  0.00     0.000 A 
ATOM     27  C   UNL A   1      28.900  27.727  23.253  1.00  0.00     0.009 A 
ATOM     28  C   UNL A   1      29.910  25.285  25.067  1.00  0.00     0.009 A 
ATOM     29  C   UNL A   1      31.618  24.809  26.722  1.00  0.00     0.000 A 
ATOM     30  C   UNL A   1      28.656  28.923  22.579  1.00  0.00     0.001 A 
ATOM     31  C   UNL A   1      30.514  24.400  25.959  1.00  0.00     0.001 A 
ENDBRANCH  18  19
ENDBRANCH  17  18
ENDBRANCH  15  17
ENDBRANCH   9  15
ENDBRANCH   6   7
ENDBRANCH   4   6
ENDBRANCH   3   4
ENDBRANCH   2   3
ENDBRANCH   1   2
BRANCH   1  32
ATOM     32  O   UNL A   1      39.181  21.622  26.425  1.00  0.00    -0.374 OA
BRANCH  32  33
ATOM     33  C   UNL A   1      39.499  20.330  25.933  1.00  0.00     0.202 C 
BRANCH  33  34
ATOM     34  C   UNL A   1      40.832  19.611  26.209  1.00  0.00     0.261 C 
BRANCH  34  35
ATOM     35  O   UNL A   1      41.921  19.870  25.316  1.00  0.00    -0.460 OA
BRANCH  35  36
ATOM     36  C   UNL A   1      42.964  20.503  25.898  1.00  0.00     0.338 C 
ATOM     37  O   UNL A   1      44.136  20.165  25.863  1.00  0.00    -0.246 OA
BRANCH  36  38
ATOM     38  C   UNL A   1      42.536  21.781  26.489  1.00  0.00     0.060 A 
ATOM     39  C   UNL A   1      42.204  22.822  25.614  1.00  0.00     0.016 A 
ATOM     40  C   UNL A   1      42.656  22.005  27.862  1.00  0.00     0.016 A 
ATOM     41  C   UNL A   1      42.102  24.120  26.094  1.00  0.00     0.010 A 
ATOM     42  C   UNL A   1      42.563  23.314  28.340  1.00  0.00     0.010 A 
ATOM     43  C   UNL A   1      42.364  24.380  27.445  1.00  0.00    -0.014 A 
BRANCH  43  44
ATOM     44  C   UNL A   1      42.670  25.772  27.847  1.00  0.00     0.031 A 
ATOM     45  C   UNL A   1      44.076  26.281  27.665  1.00  0.00     0.074 A 
ATOM     46  C   UNL A   1      41.701  26.584  28.302  1.00  0.00     0.049 A 
ATOM     47  N   UNL A   1      44.570  27.465  27.914  1.00  0.00    -0.248 NA
ATOM     48  C   UNL A   1      45.062  25.324  27.130  1.00  0.00     0.031 C 
ATOM     49  C   UNL A   1      40.302  26.204  28.494  1.00  0.00     0.029 A 
ATOM     50  N   UNL A   1      41.754  27.896  28.694  1.00  0.00    -0.354 N 
ATOM     51  C   UNL A   1      45.924  27.385  27.610  1.00  0.00     0.074 A 
ATOM     52  C   UNL A   1      46.179  26.034  27.163  1.00  0.00     0.031 C 
ATOM     53  C   UNL A   1      39.630  27.259  28.983  1.00  0.00     0.029 A 
ATOM     54  C   UNL A   1      40.555  28.374  29.163  1.00  0.00     0.049 A 
ATOM     55  H   UNL A   1      42.572  28.442  28.645  1.00  0.00     0.167 HD
ATOM     56  C   UNL A   1      46.870  28.351  27.688  1.00  0.00     0.034 A 
ATOM     57  C   UNL A   1      40.250  29.575  29.694  1.00  0.00     0.034 A 
ATOM     58  C   UNL A   1      46.601  29.698  28.111  1.00  0.00     0.049 A 
ATOM     59  C   UNL A   1      41.323  30.629  29.778  1.00  0.00     0.074 A 
ATOM     60  C   UNL A   1      47.474  30.769  28.182  1.00  0.00     0.029 A 
ATOM     61  N   UNL A   1      45.368  30.156  28.550  1.00  0.00    -0.354 N 
ATOM     62  N   UNL A   1      42.575  30.569  29.395  1.00  0.00    -0.248 NA
ATOM     63  C   UNL A   1      40.927  31.932  30.331  1.00  0.00     0.031 C 
ATOM     64  C   UNL A   1      46.776  31.864  28.705  1.00  0.00     0.029 A 
ATOM     65  C   UNL A   1      45.457  31.490  28.906  1.00  0.00     0.049 A 
ATOM     66  H   UNL A   1      44.549  29.611  28.602  1.00  0.00     0.167 HD
ATOM     67  C   UNL A   1      43.103  31.837  29.611  1.00  0.00     0.074 A 
ATOM     68  C   UNL A   1      42.029  32.648  30.147  1.00  0.00     0.031 C 
ATOM     69  C   UNL A   1      44.362  32.293  29.388  1.00  0.00     0.034 A 
BRANCH  56  70
ATOM     70  C   UNL A   1      48.283  27.984  27.314  1.00  0.00     0.023 A 
ATOM     71  C   UNL A   1      48.723  28.114  25.980  1.00  0.00     0.012 A 
ATOM     72  C   UNL A   1      49.192  27.548  28.299  1.00  0.00     0.148 A 
ATOM     73  C   UNL A   1      50.031  27.780  25.627  1.00  0.00     0.002 A 
ATOM     74  C   UNL A   1      50.507  27.266  27.948  1.00  0.00     0.091 A 
ATOM     75  F   UNL A   1      48.752  27.407  29.557  1.00  0.00    -0.205 F 
ATOM     76  C   UNL A   1      50.925  27.367  26.612  1.00  0.00     0.022 A 
BRANCH  74  77
ATOM     77  S   UNL A   1      51.754  26.809  29.158  1.00  0.00     0.127 S 
ATOM     78  O   UNL A   1      51.824  28.016  29.981  1.00  0.00    -0.237 OA
ATOM     79  O   UNL A   1      51.135  25.657  29.816  1.00  0.00    -0.237 OA
ATOM     80  O   UNL A   1      52.958  26.501  28.399  1.00  0.00    -0.744 OA
ENDBRANCH  74  77
ENDBRANCH  56  70
BRANCH  57  81
ATOM     81  C   UNL A   1      38.858  29.858  30.143  1.00  0.00     0.023 A 
ATOM     82  C   UNL A   1      38.485  29.575  31.473  1.00  0.00     0.012 A 
ATOM     83  C   UNL A   1      37.908  30.415  29.267  1.00  0.00     0.148 A 
ATOM     84  C   UNL A   1      37.181  29.808  31.909  1.00  0.00     0.002 A 
ATOM     85  C   UNL A   1      36.627  30.700  29.724  1.00  0.00     0.091 A 
ATOM     86  F   UNL A   1      38.279  30.664  28.003  1.00  0.00    -0.205 F 
ATOM     87  C   UNL A   1      36.255  30.379  31.039  1.00  0.00     0.022 A 
BRANCH  85  88
ATOM     88  S   UNL A   1      35.407  31.545  28.715  1.00  0.00     0.127 S 
ATOM     89  O   UNL A   1      34.856  30.446  27.928  1.00  0.00    -0.237 OA
ATOM     90  O   UNL A   1      34.503  32.089  29.730  1.00  0.00    -0.237 OA
ATOM     91  O   UNL A   1      36.141  32.554  27.963  1.00  0.00    -0.744 OA
ENDBRANCH  85  88
ENDBRANCH  57  81
BRANCH  69  92
ATOM     92  C   UNL A   1      44.633  33.752  29.652  1.00  0.00     0.023 A 
ATOM     93  C   UNL A   1      45.097  34.177  30.912  1.00  0.00     0.012 A 
ATOM     94  C   UNL A   1      44.474  34.699  28.619  1.00  0.00     0.148 A 
ATOM     95  C   UNL A   1      45.353  35.527  31.154  1.00  0.00     0.002 A 
ATOM     96  C   UNL A   1      44.786  36.032  28.850  1.00  0.00     0.091 A 
ATOM     97  F   UNL A   1      44.015  34.280  27.431  1.00  0.00    -0.205 F 
ATOM     98  C   UNL A   1      45.208  36.451  30.121  1.00  0.00     0.022 A 
BRANCH  96  99
ATOM     99  S   UNL A   1      44.732  37.268  27.548  1.00  0.00     0.127 S 
ATOM    100  O   UNL A   1      45.152  38.472  28.264  1.00  0.00    -0.237 OA
ATOM    101  O   UNL A   1      45.712  36.754  26.590  1.00  0.00    -0.237 OA
ATOM    102  O   UNL A   1      43.360  37.276  27.060  1.00  0.00    -0.744 OA
ENDBRANCH  96  99
ENDBRANCH  69  92
ENDBRANCH  43  44
ENDBRANCH  36  38
ENDBRANCH  35  36
ENDBRANCH  34  35
ENDBRANCH  33  34
ENDBRANCH  32  33
ENDBRANCH   1  32
TORSDOF 22
ENDMDL
