MODEL 1
REMARK VINA RESULT:      -9.9      0.000      0.000
REMARK SMILES CCCC[C@H](NS(=O)(=O)c1cccc(Br)c1)C(=O)OCCOCCOC(=O)c1ccc(-c2c3nc(c(-c4cccc(S(=O)(=O)[O-])c4F)c4ccc([nH]4)c(-c4cccc(S(=O)(=O)[O-])c4F)c4nc(c(-c5cccc(S(=O)(=O)[O-])c5F)c5ccc2[nH]5)C=C4)C=C3)cc1
REMARK SMILES IDX 22 1 21 2 20 3 19 4 17 5 18 6 5 7 4 8 3 9 2 10 1 11 6 12
REMARK SMILES IDX 7 14 8 15 9 16 10 17 11 18 16 19 12 20 14 21 13 22 15 23
REMARK SMILES IDX 23 24 24 25 25 26 26 27 27 28 28 29 29 30 90 31 30 32 89 33
REMARK SMILES IDX 31 34 32 35 33 36 83 37 34 38 88 39 82 40 84 41 35 42 87 43
REMARK SMILES IDX 81 44 80 45 36 47 68 48 48 49 67 50 49 51 52 52 66 53 85 54
REMARK SMILES IDX 50 55 51 56 65 58 86 59 53 60 37 61 38 62 46 63 39 64 41 65
REMARK SMILES IDX 47 66 40 67 42 68 43 69 44 70 45 71 69 72 70 73 78 74 71 75
REMARK SMILES IDX 73 76 79 77 72 78 74 79 75 80 76 81 77 82 54 83 55 84 63 85
REMARK SMILES IDX 56 86 58 87 64 88 57 89 59 90 60 91 61 92 62 93
REMARK H PARENT 6 13 84 46 52 57
REMARK Flexibility Score: inf
ROOT
ATOM      1  O   UNL A   1      31.733  30.435  25.940  1.00  0.00    -0.374 OA
ENDROOT
BRANCH   1   2
ATOM      2  C   UNL A   1      32.651  29.378  26.193  1.00  0.00     0.202 C 
BRANCH   2   3
ATOM      3  C   UNL A   1      32.265  28.354  27.261  1.00  0.00     0.261 C 
BRANCH   3   4
ATOM      4  O   UNL A   1      31.083  27.594  26.951  1.00  0.00    -0.462 OA
BRANCH   4   5
ATOM      5  C   UNL A   1      31.087  26.979  25.729  1.00  0.00     0.324 C 
ATOM      6  O   UNL A   1      30.438  27.342  24.755  1.00  0.00    -0.250 OA
BRANCH   5   7
ATOM      7  C   UNL A   1      32.004  25.758  25.713  1.00  0.00     0.179 C 
BRANCH   7   8
ATOM      8  C   UNL A   1      33.205  25.874  24.765  1.00  0.00     0.032 C 
BRANCH   8   9
ATOM      9  C   UNL A   1      33.349  24.920  23.571  1.00  0.00     0.002 C 
BRANCH   9  10
ATOM     10  C   UNL A   1      33.482  25.508  22.162  1.00  0.00    -0.003 C 
ATOM     11  C   UNL A   1      32.247  26.207  21.619  1.00  0.00     0.004 C 
ENDBRANCH   9  10
ENDBRANCH   8   9
ENDBRANCH   7   8
BRANCH   7  12
ATOM     12  N   UNL A   1      31.175  24.550  25.502  1.00  0.00    -0.197 NA
ATOM     13  H   UNL A   1      31.406  24.216  24.567  1.00  0.00     0.142 HD
BRANCH  12  14
ATOM     14  S   UNL A   1      31.218  23.202  26.486  1.00  0.00     0.241 S 
ATOM     15  O   UNL A   1      31.762  23.650  27.749  1.00  0.00    -0.207 OA
ATOM     16  O   UNL A   1      29.938  22.539  26.405  1.00  0.00    -0.207 OA
BRANCH  14  17
ATOM     17  C   UNL A   1      32.419  22.095  25.790  1.00  0.00     0.083 A 
ATOM     18  C   UNL A   1      33.761  22.282  26.151  1.00  0.00     0.022 A 
ATOM     19  C   UNL A   1      32.044  21.030  24.971  1.00  0.00     0.037 A 
ATOM     20  C   UNL A   1      34.735  21.394  25.699  1.00  0.00     0.003 A 
ATOM     21  C   UNL A   1      33.026  20.135  24.545  1.00  0.00     0.019 A 
ATOM     22  C   UNL A   1      34.366  20.311  24.902  1.00  0.00     0.016 A 
ATOM     23  Br  UNL A   1      32.536  18.644  23.490  1.00  0.00    -0.051 Br
ENDBRANCH  14  17
ENDBRANCH  12  14
ENDBRANCH   7  12
ENDBRANCH   5   7
ENDBRANCH   4   5
ENDBRANCH   3   4
ENDBRANCH   2   3
ENDBRANCH   1   2
BRANCH   1  24
ATOM     24  C   UNL A   1      31.768  31.575  26.795  1.00  0.00     0.202 C 
BRANCH  24  25
ATOM     25  C   UNL A   1      33.083  31.883  27.523  1.00  0.00     0.261 C 
BRANCH  25  26
ATOM     26  O   UNL A   1      33.601  33.194  27.235  1.00  0.00    -0.460 OA
BRANCH  26  27
ATOM     27  C   UNL A   1      33.411  34.093  28.235  1.00  0.00     0.338 C 
ATOM     28  O   UNL A   1      32.469  34.860  28.357  1.00  0.00    -0.246 OA
BRANCH  27  29
ATOM     29  C   UNL A   1      34.420  33.937  29.299  1.00  0.00     0.060 A 
ATOM     30  C   UNL A   1      35.759  34.147  28.942  1.00  0.00     0.016 A 
ATOM     31  C   UNL A   1      34.092  33.434  30.559  1.00  0.00     0.016 A 
ATOM     32  C   UNL A   1      36.779  33.769  29.810  1.00  0.00     0.010 A 
ATOM     33  C   UNL A   1      35.120  33.051  31.429  1.00  0.00     0.010 A 
ATOM     34  C   UNL A   1      36.465  33.159  31.031  1.00  0.00    -0.014 A 
BRANCH  34  35
ATOM     35  C   UNL A   1      37.544  32.458  31.773  1.00  0.00     0.031 A 
ATOM     36  C   UNL A   1      38.267  31.318  31.099  1.00  0.00     0.074 A 
ATOM     37  C   UNL A   1      37.918  32.862  33.000  1.00  0.00     0.049 A 
ATOM     38  N   UNL A   1      39.279  30.611  31.528  1.00  0.00    -0.248 NA
ATOM     39  C   UNL A   1      37.784  30.924  29.764  1.00  0.00     0.031 C 
ATOM     40  C   UNL A   1      37.299  33.948  33.756  1.00  0.00     0.029 A 
ATOM     41  N   UNL A   1      38.908  32.394  33.827  1.00  0.00    -0.354 N 
ATOM     42  C   UNL A   1      39.540  29.676  30.531  1.00  0.00     0.074 A 
ATOM     43  C   UNL A   1      38.567  29.895  29.483  1.00  0.00     0.031 C 
ATOM     44  C   UNL A   1      37.912  34.051  34.949  1.00  0.00     0.029 A 
ATOM     45  C   UNL A   1      38.960  33.036  35.041  1.00  0.00     0.049 A 
ATOM     46  H   UNL A   1      39.523  31.667  33.575  1.00  0.00     0.167 HD
ATOM     47  C   UNL A   1      40.512  28.736  30.479  1.00  0.00     0.034 A 
ATOM     48  C   UNL A   1      39.762  32.826  36.105  1.00  0.00     0.034 A 
ATOM     49  C   UNL A   1      41.499  28.539  31.506  1.00  0.00     0.049 A 
ATOM     50  C   UNL A   1      40.847  31.784  36.014  1.00  0.00     0.074 A 
ATOM     51  C   UNL A   1      42.549  27.637  31.530  1.00  0.00     0.029 A 
ATOM     52  N   UNL A   1      41.557  29.251  32.693  1.00  0.00    -0.354 N 
ATOM     53  N   UNL A   1      41.157  30.997  35.012  1.00  0.00    -0.248 NA
ATOM     54  C   UNL A   1      41.725  31.636  37.185  1.00  0.00     0.031 C 
ATOM     55  C   UNL A   1      43.235  27.797  32.739  1.00  0.00     0.029 A 
ATOM     56  C   UNL A   1      42.625  28.813  33.457  1.00  0.00     0.049 A 
ATOM     57  H   UNL A   1      40.931  29.965  32.955  1.00  0.00     0.167 HD
ATOM     58  C   UNL A   1      42.289  30.294  35.413  1.00  0.00     0.074 A 
ATOM     59  C   UNL A   1      42.620  30.763  36.743  1.00  0.00     0.031 C 
ATOM     60  C   UNL A   1      42.983  29.337  34.749  1.00  0.00     0.034 A 
BRANCH  47  61
ATOM     61  C   UNL A   1      40.583  27.870  29.249  1.00  0.00     0.023 A 
ATOM     62  C   UNL A   1      39.715  26.766  29.126  1.00  0.00     0.012 A 
ATOM     63  C   UNL A   1      41.465  28.179  28.195  1.00  0.00     0.148 A 
ATOM     64  C   UNL A   1      39.742  25.966  27.985  1.00  0.00     0.002 A 
ATOM     65  C   UNL A   1      41.456  27.400  27.042  1.00  0.00     0.091 A 
ATOM     66  F   UNL A   1      42.298  29.218  28.342  1.00  0.00    -0.205 F 
ATOM     67  C   UNL A   1      40.604  26.288  26.939  1.00  0.00     0.022 A 
BRANCH  65  68
ATOM     68  S   UNL A   1      42.475  27.780  25.613  1.00  0.00     0.127 S 
ATOM     69  O   UNL A   1      43.792  27.947  26.225  1.00  0.00    -0.237 OA
ATOM     70  O   UNL A   1      42.330  26.571  24.800  1.00  0.00    -0.237 OA
ATOM     71  O   UNL A   1      41.904  28.980  25.019  1.00  0.00    -0.744 OA
ENDBRANCH  65  68
ENDBRANCH  47  61
BRANCH  48  72
ATOM     72  C   UNL A   1      39.609  33.663  37.329  1.00  0.00     0.023 A 
ATOM     73  C   UNL A   1      40.177  34.950  37.368  1.00  0.00     0.012 A 
ATOM     74  C   UNL A   1      38.895  33.193  38.447  1.00  0.00     0.148 A 
ATOM     75  C   UNL A   1      40.067  35.741  38.513  1.00  0.00     0.002 A 
ATOM     76  C   UNL A   1      38.742  34.007  39.564  1.00  0.00     0.091 A 
ATOM     77  F   UNL A   1      38.378  31.956  38.400  1.00  0.00    -0.205 F 
ATOM     78  C   UNL A   1      39.342  35.274  39.605  1.00  0.00     0.022 A 
BRANCH  76  79
ATOM     79  S   UNL A   1      37.713  33.535  40.959  1.00  0.00     0.127 S 
ATOM     80  O   UNL A   1      36.455  33.195  40.302  1.00  0.00    -0.237 OA
ATOM     81  O   UNL A   1      38.450  32.395  41.509  1.00  0.00    -0.237 OA
ATOM     82  O   UNL A   1      37.683  34.701  41.831  1.00  0.00    -0.744 OA
ENDBRANCH  76  79
ENDBRANCH  48  72
BRANCH  60  83
ATOM     83  C   UNL A   1      44.202  28.762  35.422  1.00  0.00     0.023 A 
ATOM     84  C   UNL A   1      45.481  29.265  35.108  1.00  0.00     0.012 A 
ATOM     85  C   UNL A   1      44.077  27.768  36.411  1.00  0.00     0.148 A 
ATOM     86  C   UNL A   1      46.616  28.759  35.739  1.00  0.00     0.002 A 
ATOM     87  C   UNL A   1      45.209  27.301  37.070  1.00  0.00     0.091 A 
ATOM     88  F   UNL A   1      42.856  27.285  36.685  1.00  0.00    -0.205 F 
ATOM     89  C   UNL A   1      46.481  27.787  36.727  1.00  0.00     0.022 A 
BRANCH  87  90
ATOM     90  S   UNL A   1      45.102  26.120  38.420  1.00  0.00     0.127 S 
ATOM     91  O   UNL A   1      44.670  24.909  37.725  1.00  0.00    -0.237 OA
ATOM     92  O   UNL A   1      46.479  26.079  38.915  1.00  0.00    -0.237 OA
ATOM     93  O   UNL A   1      44.146  26.687  39.361  1.00  0.00    -0.744 OA
ENDBRANCH  87  90
ENDBRANCH  60  83
ENDBRANCH  34  35
ENDBRANCH  27  29
ENDBRANCH  26  27
ENDBRANCH  25  26
ENDBRANCH  24  25
ENDBRANCH   1  24
TORSDOF 23
ENDMDL
MODEL 2
REMARK VINA RESULT:      -9.7      5.859     11.610
REMARK SMILES CCCC[C@H](NS(=O)(=O)c1cccc(Br)c1)C(=O)OCCOCCOC(=O)c1ccc(-c2c3nc(c(-c4cccc(S(=O)(=O)[O-])c4F)c4ccc([nH]4)c(-c4cccc(S(=O)(=O)[O-])c4F)c4nc(c(-c5cccc(S(=O)(=O)[O-])c5F)c5ccc2[nH]5)C=C4)C=C3)cc1
REMARK SMILES IDX 22 1 21 2 20 3 19 4 17 5 18 6 5 7 4 8 3 9 2 10 1 11 6 12
REMARK SMILES IDX 7 14 8 15 9 16 10 17 11 18 16 19 12 20 14 21 13 22 15 23
REMARK SMILES IDX 23 24 24 25 25 26 26 27 27 28 28 29 29 30 90 31 30 32 89 33
REMARK SMILES IDX 31 34 32 35 33 36 83 37 34 38 88 39 82 40 84 41 35 42 87 43
REMARK SMILES IDX 81 44 80 45 36 47 68 48 48 49 67 50 49 51 52 52 66 53 85 54
REMARK SMILES IDX 50 55 51 56 65 58 86 59 53 60 37 61 38 62 46 63 39 64 41 65
REMARK SMILES IDX 47 66 40 67 42 68 43 69 44 70 45 71 69 72 70 73 78 74 71 75
REMARK SMILES IDX 73 76 79 77 72 78 74 79 75 80 76 81 77 82 54 83 55 84 63 85
REMARK SMILES IDX 56 86 58 87 64 88 57 89 59 90 60 91 61 92 62 93
REMARK H PARENT 6 13 84 46 52 57
REMARK Flexibility Score: inf
ROOT
ATOM      1  O   UNL A   1      39.012  22.588  26.066  1.00  0.00    -0.374 OA
ENDROOT
BRANCH   1   2
ATOM      2  C   UNL A   1      38.213  23.765  26.119  1.00  0.00     0.202 C 
BRANCH   2   3
ATOM      3  C   UNL A   1      36.922  23.774  25.299  1.00  0.00     0.261 C 
BRANCH   3   4
ATOM      4  O   UNL A   1      35.919  24.684  25.786  1.00  0.00    -0.462 OA
BRANCH   4   5
ATOM      5  C   UNL A   1      34.729  24.107  26.136  1.00  0.00     0.324 C 
ATOM      6  O   UNL A   1      34.609  23.046  26.737  1.00  0.00    -0.250 OA
BRANCH   5   7
ATOM      7  C   UNL A   1      33.537  24.947  25.680  1.00  0.00     0.179 C 
BRANCH   7   8
ATOM      8  C   UNL A   1      33.842  26.439  25.493  1.00  0.00     0.032 C 
BRANCH   8   9
ATOM      9  C   UNL A   1      33.600  27.120  24.139  1.00  0.00     0.002 C 
BRANCH   9  10
ATOM     10  C   UNL A   1      33.671  28.648  24.053  1.00  0.00    -0.003 C 
ATOM     11  C   UNL A   1      32.569  29.402  24.777  1.00  0.00     0.004 C 
ENDBRANCH   9  10
ENDBRANCH   8   9
ENDBRANCH   7   8
BRANCH   7  12
ATOM     12  N   UNL A   1      32.393  24.666  26.576  1.00  0.00    -0.197 NA
ATOM     13  H   UNL A   1      32.110  25.570  26.954  1.00  0.00     0.142 HD
BRANCH  12  14
ATOM     14  S   UNL A   1      30.983  23.919  26.088  1.00  0.00     0.241 S 
ATOM     15  O   UNL A   1      30.439  23.287  27.270  1.00  0.00    -0.207 OA
ATOM     16  O   UNL A   1      30.214  24.864  25.312  1.00  0.00    -0.207 OA
BRANCH  14  17
ATOM     17  C   UNL A   1      31.449  22.606  24.990  1.00  0.00     0.083 A 
ATOM     18  C   UNL A   1      31.474  22.885  23.615  1.00  0.00     0.022 A 
ATOM     19  C   UNL A   1      31.849  21.358  25.469  1.00  0.00     0.037 A 
ATOM     20  C   UNL A   1      31.911  21.916  22.714  1.00  0.00     0.003 A 
ATOM     21  C   UNL A   1      32.305  20.405  24.558  1.00  0.00     0.019 A 
ATOM     22  C   UNL A   1      32.337  20.676  23.187  1.00  0.00     0.016 A 
ATOM     23  Br  UNL A   1      32.916  18.730  25.187  1.00  0.00    -0.051 Br
ENDBRANCH  14  17
ENDBRANCH  12  14
ENDBRANCH   7  12
ENDBRANCH   5   7
ENDBRANCH   4   5
ENDBRANCH   3   4
ENDBRANCH   2   3
ENDBRANCH   1   2
BRANCH   1  24
ATOM     24  C   UNL A   1      38.494  21.454  25.375  1.00  0.00     0.202 C 
BRANCH  24  25
ATOM     25  C   UNL A   1      39.009  20.068  25.787  1.00  0.00     0.261 C 
BRANCH  25  26
ATOM     26  O   UNL A   1      40.030  20.117  26.800  1.00  0.00    -0.460 OA
BRANCH  26  27
ATOM     27  C   UNL A   1      41.254  19.719  26.366  1.00  0.00     0.338 C 
ATOM     28  O   UNL A   1      41.530  18.655  25.833  1.00  0.00    -0.246 OA
BRANCH  27  29
ATOM     29  C   UNL A   1      42.240  20.812  26.460  1.00  0.00     0.060 A 
ATOM     30  C   UNL A   1      42.546  21.285  27.742  1.00  0.00     0.016 A 
ATOM     31  C   UNL A   1      42.719  21.471  25.326  1.00  0.00     0.016 A 
ATOM     32  C   UNL A   1      43.257  22.471  27.896  1.00  0.00     0.010 A 
ATOM     33  C   UNL A   1      43.432  22.667  25.484  1.00  0.00     0.010 A 
ATOM     34  C   UNL A   1      43.647  23.202  26.766  1.00  0.00    -0.014 A 
BRANCH  34  35
ATOM     35  C   UNL A   1      44.086  24.609  26.948  1.00  0.00     0.031 A 
ATOM     36  C   UNL A   1      43.097  25.616  27.481  1.00  0.00     0.074 A 
ATOM     37  C   UNL A   1      45.355  24.978  26.700  1.00  0.00     0.049 A 
ATOM     38  N   UNL A   1      43.277  26.875  27.781  1.00  0.00    -0.248 NA
ATOM     39  C   UNL A   1      41.722  25.137  27.708  1.00  0.00     0.031 C 
ATOM     40  C   UNL A   1      46.403  24.101  26.182  1.00  0.00     0.029 A 
ATOM     41  N   UNL A   1      45.973  26.194  26.846  1.00  0.00    -0.354 N 
ATOM     42  C   UNL A   1      42.040  27.346  28.207  1.00  0.00     0.074 A 
ATOM     43  C   UNL A   1      41.112  26.241  28.112  1.00  0.00     0.031 C 
ATOM     44  C   UNL A   1      47.533  24.815  26.033  1.00  0.00     0.029 A 
ATOM     45  C   UNL A   1      47.286  26.198  26.439  1.00  0.00     0.049 A 
ATOM     46  H   UNL A   1      45.518  26.990  27.206  1.00  0.00     0.167 HD
ATOM     47  C   UNL A   1      41.708  28.578  28.660  1.00  0.00     0.034 A 
ATOM     48  C   UNL A   1      48.184  27.203  26.399  1.00  0.00     0.034 A 
ATOM     49  C   UNL A   1      42.637  29.668  28.786  1.00  0.00     0.049 A 
ATOM     50  C   UNL A   1      47.793  28.560  26.924  1.00  0.00     0.074 A 
ATOM     51  C   UNL A   1      42.406  30.945  29.270  1.00  0.00     0.029 A 
ATOM     52  N   UNL A   1      43.973  29.614  28.423  1.00  0.00    -0.354 N 
ATOM     53  N   UNL A   1      46.653  28.950  27.442  1.00  0.00    -0.248 NA
ATOM     54  C   UNL A   1      48.829  29.604  26.905  1.00  0.00     0.031 C 
ATOM     55  C   UNL A   1      43.602  31.666  29.187  1.00  0.00     0.029 A 
ATOM     56  C   UNL A   1      44.581  30.832  28.673  1.00  0.00     0.049 A 
ATOM     57  H   UNL A   1      44.423  28.825  28.044  1.00  0.00     0.167 HD
ATOM     58  C   UNL A   1      46.848  30.267  27.849  1.00  0.00     0.074 A 
ATOM     59  C   UNL A   1      48.222  30.600  27.534  1.00  0.00     0.031 C 
ATOM     60  C   UNL A   1      45.967  31.127  28.418  1.00  0.00     0.034 A 
BRANCH  47  61
ATOM     61  C   UNL A   1      40.283  28.804  29.093  1.00  0.00     0.023 A 
ATOM     62  C   UNL A   1      39.278  28.965  28.118  1.00  0.00     0.012 A 
ATOM     63  C   UNL A   1      39.930  28.801  30.456  1.00  0.00     0.148 A 
ATOM     64  C   UNL A   1      37.948  29.148  28.492  1.00  0.00     0.002 A 
ATOM     65  C   UNL A   1      38.595  28.942  30.821  1.00  0.00     0.091 A 
ATOM     66  F   UNL A   1      40.903  28.670  31.368  1.00  0.00    -0.205 F 
ATOM     67  C   UNL A   1      37.605  29.125  29.841  1.00  0.00     0.022 A 
BRANCH  65  68
ATOM     68  S   UNL A   1      38.046  28.851  32.528  1.00  0.00     0.127 S 
ATOM     69  O   UNL A   1      38.275  27.441  32.838  1.00  0.00    -0.237 OA
ATOM     70  O   UNL A   1      38.960  29.778  33.196  1.00  0.00    -0.237 OA
ATOM     71  O   UNL A   1      36.652  29.273  32.524  1.00  0.00    -0.744 OA
ENDBRANCH  65  68
ENDBRANCH  47  61
BRANCH  48  72
ATOM     72  C   UNL A   1      49.564  26.948  25.897  1.00  0.00     0.023 A 
ATOM     73  C   UNL A   1      50.528  26.394  26.760  1.00  0.00     0.012 A 
ATOM     74  C   UNL A   1      49.921  27.243  24.568  1.00  0.00     0.148 A 
ATOM     75  C   UNL A   1      51.833  26.170  26.318  1.00  0.00     0.002 A 
ATOM     76  C   UNL A   1      51.207  26.966  24.118  1.00  0.00     0.091 A 
ATOM     77  F   UNL A   1      48.995  27.789  23.765  1.00  0.00    -0.205 F 
ATOM     78  C   UNL A   1      52.169  26.446  24.997  1.00  0.00     0.022 A 
BRANCH  76  79
ATOM     79  S   UNL A   1      51.683  27.168  22.397  1.00  0.00     0.127 S 
ATOM     80  O   UNL A   1      51.679  28.620  22.253  1.00  0.00    -0.237 OA
ATOM     81  O   UNL A   1      53.010  26.549  22.375  1.00  0.00    -0.237 OA
ATOM     82  O   UNL A   1      50.677  26.447  21.629  1.00  0.00    -0.744 OA
ENDBRANCH  76  79
ENDBRANCH  48  72
BRANCH  60  83
ATOM     83  C   UNL A   1      46.468  32.499  28.787  1.00  0.00     0.023 A 
ATOM     84  C   UNL A   1      47.074  32.712  30.042  1.00  0.00     0.012 A 
ATOM     85  C   UNL A   1      46.395  33.563  27.868  1.00  0.00     0.148 A 
ATOM     86  C   UNL A   1      47.563  33.971  30.389  1.00  0.00     0.002 A 
ATOM     87  C   UNL A   1      46.926  34.804  28.202  1.00  0.00     0.091 A 
ATOM     88  F   UNL A   1      45.797  33.350  26.686  1.00  0.00    -0.205 F 
ATOM     89  C   UNL A   1      47.500  35.013  29.467  1.00  0.00     0.022 A 
BRANCH  87  90
ATOM     90  S   UNL A   1      46.968  36.165  27.030  1.00  0.00     0.127 S 
ATOM     91  O   UNL A   1      45.643  36.756  27.211  1.00  0.00    -0.237 OA
ATOM     92  O   UNL A   1      48.073  36.983  27.534  1.00  0.00    -0.237 OA
ATOM     93  O   UNL A   1      47.220  35.556  25.731  1.00  0.00    -0.744 OA
ENDBRANCH  87  90
ENDBRANCH  60  83
ENDBRANCH  34  35
ENDBRANCH  27  29
ENDBRANCH  26  27
ENDBRANCH  25  26
ENDBRANCH  24  25
ENDBRANCH   1  24
TORSDOF 23
ENDMDL
MODEL 3
REMARK VINA RESULT:      -9.5      6.555     11.642
REMARK SMILES CCCC[C@H](NS(=O)(=O)c1cccc(Br)c1)C(=O)OCCOCCOC(=O)c1ccc(-c2c3nc(c(-c4cccc(S(=O)(=O)[O-])c4F)c4ccc([nH]4)c(-c4cccc(S(=O)(=O)[O-])c4F)c4nc(c(-c5cccc(S(=O)(=O)[O-])c5F)c5ccc2[nH]5)C=C4)C=C3)cc1
REMARK SMILES IDX 22 1 21 2 20 3 19 4 17 5 18 6 5 7 4 8 3 9 2 10 1 11 6 12
REMARK SMILES IDX 7 14 8 15 9 16 10 17 11 18 16 19 12 20 14 21 13 22 15 23
REMARK SMILES IDX 23 24 24 25 25 26 26 27 27 28 28 29 29 30 90 31 30 32 89 33
REMARK SMILES IDX 31 34 32 35 33 36 83 37 34 38 88 39 82 40 84 41 35 42 87 43
REMARK SMILES IDX 81 44 80 45 36 47 68 48 48 49 67 50 49 51 52 52 66 53 85 54
REMARK SMILES IDX 50 55 51 56 65 58 86 59 53 60 37 61 38 62 46 63 39 64 41 65
REMARK SMILES IDX 47 66 40 67 42 68 43 69 44 70 45 71 69 72 70 73 78 74 71 75
REMARK SMILES IDX 73 76 79 77 72 78 74 79 75 80 76 81 77 82 54 83 55 84 63 85
REMARK SMILES IDX 56 86 58 87 64 88 57 89 59 90 60 91 61 92 62 93
REMARK H PARENT 6 13 84 46 52 57
REMARK Flexibility Score: inf
ROOT
ATOM      1  O   UNL A   1      38.722  22.450  25.710  1.00  0.00    -0.374 OA
ENDROOT
BRANCH   1   2
ATOM      2  C   UNL A   1      37.845  23.540  25.971  1.00  0.00     0.202 C 
BRANCH   2   3
ATOM      3  C   UNL A   1      36.460  23.496  25.325  1.00  0.00     0.261 C 
BRANCH   3   4
ATOM      4  O   UNL A   1      35.473  24.309  25.985  1.00  0.00    -0.462 OA
BRANCH   4   5
ATOM      5  C   UNL A   1      34.174  24.035  25.655  1.00  0.00     0.324 C 
ATOM      6  O   UNL A   1      33.606  22.968  25.858  1.00  0.00    -0.250 OA
BRANCH   5   7
ATOM      7  C   UNL A   1      33.496  25.228  24.984  1.00  0.00     0.179 C 
BRANCH   7   8
ATOM      8  C   UNL A   1      33.659  26.558  25.731  1.00  0.00     0.032 C 
BRANCH   8   9
ATOM      9  C   UNL A   1      32.433  27.295  26.285  1.00  0.00     0.002 C 
BRANCH   9  10
ATOM     10  C   UNL A   1      32.289  28.799  26.021  1.00  0.00    -0.003 C 
ATOM     11  C   UNL A   1      32.129  29.672  27.254  1.00  0.00     0.004 C 
ENDBRANCH   9  10
ENDBRANCH   8   9
ENDBRANCH   7   8
BRANCH   7  12
ATOM     12  N   UNL A   1      32.093  24.864  24.685  1.00  0.00    -0.197 NA
ATOM     13  H   UNL A   1      31.522  25.422  25.320  1.00  0.00     0.142 HD
BRANCH  12  14
ATOM     14  S   UNL A   1      31.384  25.023  23.183  1.00  0.00     0.241 S 
ATOM     15  O   UNL A   1      32.447  24.831  22.221  1.00  0.00    -0.207 OA
ATOM     16  O   UNL A   1      30.186  24.217  23.158  1.00  0.00    -0.207 OA
BRANCH  14  17
ATOM     17  C   UNL A   1      30.872  26.715  23.031  1.00  0.00     0.083 A 
ATOM     18  C   UNL A   1      31.843  27.656  22.656  1.00  0.00     0.022 A 
ATOM     19  C   UNL A   1      29.542  27.096  23.206  1.00  0.00     0.037 A 
ATOM     20  C   UNL A   1      31.480  28.985  22.442  1.00  0.00     0.003 A 
ATOM     21  C   UNL A   1      29.189  28.425  22.967  1.00  0.00     0.019 A 
ATOM     22  C   UNL A   1      30.147  29.369  22.588  1.00  0.00     0.016 A 
ATOM     23  Br  UNL A   1      27.381  28.954  23.130  1.00  0.00    -0.051 Br
ENDBRANCH  14  17
ENDBRANCH  12  14
ENDBRANCH   7  12
ENDBRANCH   5   7
ENDBRANCH   4   5
ENDBRANCH   3   4
ENDBRANCH   2   3
ENDBRANCH   1   2
BRANCH   1  24
ATOM     24  C   UNL A   1      38.148  21.190  25.375  1.00  0.00     0.202 C 
BRANCH  24  25
ATOM     25  C   UNL A   1      38.957  19.926  25.697  1.00  0.00     0.261 C 
BRANCH  25  26
ATOM     26  O   UNL A   1      39.896  20.108  26.771  1.00  0.00    -0.460 OA
BRANCH  26  27
ATOM     27  C   UNL A   1      41.169  19.753  26.456  1.00  0.00     0.338 C 
ATOM     28  O   UNL A   1      41.543  18.667  26.042  1.00  0.00    -0.246 OA
BRANCH  27  29
ATOM     29  C   UNL A   1      42.080  20.911  26.512  1.00  0.00     0.060 A 
ATOM     30  C   UNL A   1      42.466  21.357  27.783  1.00  0.00     0.016 A 
ATOM     31  C   UNL A   1      42.410  21.645  25.371  1.00  0.00     0.016 A 
ATOM     32  C   UNL A   1      43.102  22.586  27.927  1.00  0.00     0.010 A 
ATOM     33  C   UNL A   1      43.048  22.884  25.519  1.00  0.00     0.010 A 
ATOM     34  C   UNL A   1      43.339  23.385  26.800  1.00  0.00    -0.014 A 
BRANCH  34  35
ATOM     35  C   UNL A   1      43.692  24.813  27.004  1.00  0.00     0.031 A 
ATOM     36  C   UNL A   1      42.671  25.733  27.626  1.00  0.00     0.074 A 
ATOM     37  C   UNL A   1      44.918  25.275  26.699  1.00  0.00     0.049 A 
ATOM     38  N   UNL A   1      42.785  26.992  27.958  1.00  0.00    -0.248 NA
ATOM     39  C   UNL A   1      41.347  25.155  27.913  1.00  0.00     0.031 C 
ATOM     40  C   UNL A   1      45.990  24.488  26.093  1.00  0.00     0.029 A 
ATOM     41  N   UNL A   1      45.461  26.526  26.850  1.00  0.00    -0.354 N 
ATOM     42  C   UNL A   1      41.546  27.365  28.468  1.00  0.00     0.074 A 
ATOM     43  C   UNL A   1      40.689  26.202  28.387  1.00  0.00     0.031 C 
ATOM     44  C   UNL A   1      47.060  25.282  25.906  1.00  0.00     0.029 A 
ATOM     45  C   UNL A   1      46.745  26.631  26.371  1.00  0.00     0.049 A 
ATOM     46  H   UNL A   1      44.976  27.277  27.263  1.00  0.00     0.167 HD
ATOM     47  C   UNL A   1      41.159  28.557  28.981  1.00  0.00     0.034 A 
ATOM     48  C   UNL A   1      47.570  27.696  26.315  1.00  0.00     0.034 A 
ATOM     49  C   UNL A   1      42.019  29.704  29.091  1.00  0.00     0.049 A 
ATOM     50  C   UNL A   1      47.120  29.008  26.907  1.00  0.00     0.074 A 
ATOM     51  C   UNL A   1      41.732  30.947  29.629  1.00  0.00     0.029 A 
ATOM     52  N   UNL A   1      43.333  29.752  28.652  1.00  0.00    -0.354 N 
ATOM     53  N   UNL A   1      45.989  29.303  27.501  1.00  0.00    -0.248 NA
ATOM     54  C   UNL A   1      48.082  30.120  26.865  1.00  0.00     0.031 C 
ATOM     55  C   UNL A   1      42.871  31.750  29.504  1.00  0.00     0.029 A 
ATOM     56  C   UNL A   1      43.872  31.000  28.908  1.00  0.00     0.049 A 
ATOM     57  H   UNL A   1      43.812  29.007  28.222  1.00  0.00     0.167 HD
ATOM     58  C   UNL A   1      46.119  30.617  27.940  1.00  0.00     0.074 A 
ATOM     59  C   UNL A   1      47.447  31.053  27.561  1.00  0.00     0.031 C 
ATOM     60  C   UNL A   1      45.218  31.398  28.586  1.00  0.00     0.034 A 
BRANCH  47  61
ATOM     61  C   UNL A   1      39.750  28.671  29.499  1.00  0.00     0.023 A 
ATOM     62  C   UNL A   1      39.449  28.219  30.800  1.00  0.00     0.012 A 
ATOM     63  C   UNL A   1      38.740  29.275  28.726  1.00  0.00     0.148 A 
ATOM     64  C   UNL A   1      38.159  28.340  31.314  1.00  0.00     0.002 A 
ATOM     65  C   UNL A   1      37.465  29.430  29.261  1.00  0.00     0.091 A 
ATOM     66  F   UNL A   1      39.040  29.676  27.483  1.00  0.00    -0.205 F 
ATOM     67  C   UNL A   1      37.170  28.954  30.549  1.00  0.00     0.022 A 
BRANCH  65  68
ATOM     68  S   UNL A   1      36.145  30.274  28.383  1.00  0.00     0.127 S 
ATOM     69  O   UNL A   1      36.872  31.366  27.736  1.00  0.00    -0.237 OA
ATOM     70  O   UNL A   1      35.667  29.235  27.470  1.00  0.00    -0.237 OA
ATOM     71  O   UNL A   1      35.182  30.678  29.397  1.00  0.00    -0.744 OA
ENDBRANCH  65  68
ENDBRANCH  47  61
BRANCH  48  72
ATOM     72  C   UNL A   1      48.932  27.552  25.728  1.00  0.00     0.023 A 
ATOM     73  C   UNL A   1      50.034  27.322  26.574  1.00  0.00     0.012 A 
ATOM     74  C   UNL A   1      49.138  27.631  24.338  1.00  0.00     0.148 A 
ATOM     75  C   UNL A   1      51.322  27.209  26.048  1.00  0.00     0.002 A 
ATOM     76  C   UNL A   1      50.415  27.462  23.816  1.00  0.00     0.091 A 
ATOM     77  F   UNL A   1      48.080  27.870  23.549  1.00  0.00    -0.205 F 
ATOM     78  C   UNL A   1      51.511  27.268  24.670  1.00  0.00     0.022 A 
BRANCH  76  79
ATOM     79  S   UNL A   1      50.725  27.391  22.048  1.00  0.00     0.127 S 
ATOM     80  O   UNL A   1      50.698  28.804  21.682  1.00  0.00    -0.237 OA
ATOM     81  O   UNL A   1      52.048  26.765  21.995  1.00  0.00    -0.237 OA
ATOM     82  O   UNL A   1      49.655  26.569  21.499  1.00  0.00    -0.744 OA
ENDBRANCH  76  79
ENDBRANCH  48  72
BRANCH  60  83
ATOM     83  C   UNL A   1      45.647  32.789  28.973  1.00  0.00     0.023 A 
ATOM     84  C   UNL A   1      46.286  33.009  30.210  1.00  0.00     0.012 A 
ATOM     85  C   UNL A   1      45.473  33.868  28.086  1.00  0.00     0.148 A 
ATOM     86  C   UNL A   1      46.708  34.287  30.572  1.00  0.00     0.002 A 
ATOM     87  C   UNL A   1      45.940  35.131  28.433  1.00  0.00     0.091 A 
ATOM     88  F   UNL A   1      44.845  33.647  26.921  1.00  0.00    -0.205 F 
ATOM     89  C   UNL A   1      46.547  35.346  29.680  1.00  0.00     0.022 A 
BRANCH  87  90
ATOM     90  S   UNL A   1      45.852  36.520  27.296  1.00  0.00     0.127 S 
ATOM     91  O   UNL A   1      46.507  37.577  28.064  1.00  0.00    -0.237 OA
ATOM     92  O   UNL A   1      46.621  36.038  26.147  1.00  0.00    -0.237 OA
ATOM     93  O   UNL A   1      44.434  36.716  27.026  1.00  0.00    -0.744 OA
ENDBRANCH  87  90
ENDBRANCH  60  83
ENDBRANCH  34  35
ENDBRANCH  27  29
ENDBRANCH  26  27
ENDBRANCH  25  26
ENDBRANCH  24  25
ENDBRANCH   1  24
TORSDOF 23
ENDMDL
