MODEL 1
REMARK VINA RESULT:      -8.0      0.000      0.000
REMARK SMILES Cc1cc(/C=C2\C(=O)N(Cc3ccco3)C(=O)N=C2OCCOCCOC(=O)c2ccc(-c3c4nc(c(-c5cccc(S(=O)(=O)[O-])c5F)c5ccc([nH]5)c(-c5cccc(S(=O)(=O)[O-])c5F)c5nc(c(-c6cccc(S(=O)(=O)[O-])c6F)c6ccc3[nH]6)C=C5)C=C4)cc2)c(C)n1-c1ccc(Cl)c(C(=O)[O-])c1
REMARK SMILES IDX 24 1 23 2 22 3 21 4 20 5 19 6 5 7 6 8 7 9 8 10 9 11 18 12
REMARK SMILES IDX 16 13 17 14 4 15 1 16 2 17 3 18 94 19 92 20 93 21 95 22
REMARK SMILES IDX 96 23 104 24 97 25 100 26 98 27 99 28 101 29 102 30 103 31
REMARK SMILES IDX 10 32 11 33 12 34 15 35 13 36 14 37 25 38 26 39 27 40 28 41
REMARK SMILES IDX 29 42 30 43 91 44 31 45 90 46 32 47 33 48 34 49 84 50 35 51
REMARK SMILES IDX 89 52 83 53 85 54 36 55 88 56 82 57 81 58 37 60 69 61 49 62
REMARK SMILES IDX 68 63 50 64 53 65 67 66 86 67 51 68 52 69 66 71 87 72 54 73
REMARK SMILES IDX 38 74 39 75 47 76 40 77 42 78 48 79 41 80 43 81 44 82 45 83
REMARK SMILES IDX 46 84 70 85 71 86 79 87 72 88 74 89 80 90 73 91 75 92 76 93
REMARK SMILES IDX 77 94 78 95 55 96 56 97 64 98 57 99 59 100 65 101 58 102
REMARK SMILES IDX 60 103 61 104 62 105 63 106
REMARK H PARENT 85 59 53 70
REMARK Flexibility Score: inf
ROOT
ATOM      1  C   UNL A   1      44.841  23.581  25.794  1.00  0.00     0.202 C 
ENDROOT
BRANCH   1   2
ATOM      2  O   UNL A   1      43.947  22.699  25.081  1.00  0.00    -0.374 OA
BRANCH   2   3
ATOM      3  C   UNL A   1      42.594  22.716  25.543  1.00  0.00     0.202 C 
BRANCH   3   4
ATOM      4  C   UNL A   1      42.081  24.106  25.973  1.00  0.00     0.260 C 
BRANCH   4   5
ATOM      5  O   UNL A   1      41.399  24.081  27.245  1.00  0.00    -0.475 OA
BRANCH   5   6
ATOM      6  C   UNL A   1      42.183  24.230  28.342  1.00  0.00     0.231 C 
ATOM      7  C   UNL A   1      41.216  26.483  28.683  1.00  0.00     0.029 C 
ATOM      8  C   UNL A   1      42.217  25.599  28.865  1.00  0.00     0.103 C 
ATOM      9  C   UNL A   1      43.449  25.846  29.638  1.00  0.00     0.267 C 
ATOM     10  O   UNL A   1      44.099  26.880  29.537  1.00  0.00    -0.268 OA
ATOM     11  N   UNL A   1      43.829  24.759  30.398  1.00  0.00    -0.250 N 
ATOM     12  N   UNL A   1      42.881  23.257  28.818  1.00  0.00    -0.156 NA
ATOM     13  C   UNL A   1      43.741  23.489  29.851  1.00  0.00     0.354 C 
ATOM     14  O   UNL A   1      44.483  22.575  30.227  1.00  0.00    -0.245 OA
BRANCH   7  15
ATOM     15  C   UNL A   1      41.040  27.818  29.184  1.00  0.00    -0.003 A 
ATOM     16  C   UNL A   1      41.994  31.426  29.451  1.00  0.00     0.065 C 
ATOM     17  C   UNL A   1      41.436  30.046  29.478  1.00  0.00     0.020 A 
ATOM     18  C   UNL A   1      41.938  28.888  28.912  1.00  0.00     0.031 A 
ATOM     19  N   UNL A   1      40.295  29.693  30.171  1.00  0.00    -0.318 N 
ATOM     20  C   UNL A   1      39.968  28.373  29.871  1.00  0.00     0.027 A 
ATOM     21  C   UNL A   1      38.624  27.833  30.240  1.00  0.00     0.065 C 
BRANCH  19  22
ATOM     22  C   UNL A   1      39.459  30.550  30.926  1.00  0.00     0.046 A 
ATOM     23  C   UNL A   1      39.454  30.434  32.315  1.00  0.00     0.028 A 
ATOM     24  C   UNL A   1      38.481  31.292  30.259  1.00  0.00     0.038 A 
ATOM     25  C   UNL A   1      38.448  31.062  33.045  1.00  0.00     0.023 A 
ATOM     26  C   UNL A   1      37.432  31.888  30.987  1.00  0.00     0.018 A 
ATOM     27  C   UNL A   1      37.428  31.771  32.390  1.00  0.00     0.050 A 
ATOM     28  Cl  UNL A   1      36.188  32.417  33.409  1.00  0.00    -0.084 Cl
BRANCH  26  29
ATOM     29  C   UNL A   1      36.328  32.546  30.242  1.00  0.00     0.073 C 
ATOM     30  O   UNL A   1      35.398  32.018  29.635  1.00  0.00    -0.545 OA
ATOM     31  O   UNL A   1      36.432  33.885  30.240  1.00  0.00    -0.545 OA
ENDBRANCH  26  29
ENDBRANCH  19  22
ENDBRANCH   7  15
BRANCH  11  32
ATOM     32  C   UNL A   1      44.771  25.008  31.478  1.00  0.00     0.206 C 
BRANCH  32  33
ATOM     33  C   UNL A   1      44.171  24.785  32.828  1.00  0.00     0.123 A 
ATOM     34  C   UNL A   1      43.900  23.643  33.558  1.00  0.00     0.047 A 
ATOM     35  O   UNL A   1      43.847  25.889  33.568  1.00  0.00    -0.467 OA
ATOM     36  C   UNL A   1      43.369  24.066  34.797  1.00  0.00     0.042 A 
ATOM     37  C   UNL A   1      43.367  25.439  34.760  1.00  0.00     0.195 A 
ENDBRANCH  32  33
ENDBRANCH  11  32
ENDBRANCH   5   6
ENDBRANCH   4   5
ENDBRANCH   3   4
ENDBRANCH   2   3
ENDBRANCH   1   2
BRANCH   1  38
ATOM     38  C   UNL A   1      45.214  24.896  25.054  1.00  0.00     0.261 C 
BRANCH  38  39
ATOM     39  O   UNL A   1      46.463  25.552  25.497  1.00  0.00    -0.460 OA
BRANCH  39  40
ATOM     40  C   UNL A   1      46.594  26.892  25.201  1.00  0.00     0.338 C 
ATOM     41  O   UNL A   1      46.814  27.293  24.064  1.00  0.00    -0.246 OA
BRANCH  40  42
ATOM     42  C   UNL A   1      46.337  27.874  26.351  1.00  0.00     0.060 A 
ATOM     43  C   UNL A   1      45.111  28.535  26.414  1.00  0.00     0.016 A 
ATOM     44  C   UNL A   1      47.341  28.410  27.182  1.00  0.00     0.016 A 
ATOM     45  C   UNL A   1      44.900  29.661  27.290  1.00  0.00     0.010 A 
ATOM     46  C   UNL A   1      47.136  29.591  28.031  1.00  0.00     0.010 A 
ATOM     47  C   UNL A   1      45.908  30.281  28.108  1.00  0.00    -0.014 A 
BRANCH  47  48
ATOM     48  C   UNL A   1      45.705  31.854  28.432  1.00  0.00     0.031 A 
ATOM     49  C   UNL A   1      46.471  32.021  29.704  1.00  0.00     0.074 A 
ATOM     50  C   UNL A   1      45.053  33.021  28.007  1.00  0.00     0.049 A 
ATOM     51  N   UNL A   1      46.309  31.214  30.720  1.00  0.00    -0.248 NA
ATOM     52  C   UNL A   1      47.681  32.843  29.787  1.00  0.00     0.031 C 
ATOM     53  C   UNL A   1      44.104  33.177  26.891  1.00  0.00     0.029 A 
ATOM     54  N   UNL A   1      45.083  34.387  28.475  1.00  0.00    -0.354 N 
ATOM     55  C   UNL A   1      47.062  31.758  31.717  1.00  0.00     0.074 A 
ATOM     56  C   UNL A   1      48.093  32.501  31.011  1.00  0.00     0.031 C 
ATOM     57  C   UNL A   1      43.766  34.487  26.682  1.00  0.00     0.029 A 
ATOM     58  C   UNL A   1      44.394  35.371  27.666  1.00  0.00     0.049 A 
ATOM     59  H   UNL A   1      45.551  34.638  29.304  1.00  0.00     0.167 HD
ATOM     60  C   UNL A   1      46.395  32.109  32.854  1.00  0.00     0.034 A 
ATOM     61  C   UNL A   1      44.246  36.756  27.792  1.00  0.00     0.034 A 
ATOM     62  C   UNL A   1      46.405  33.519  33.121  1.00  0.00     0.049 A 
ATOM     63  C   UNL A   1      44.478  37.089  29.209  1.00  0.00     0.074 A 
ATOM     64  C   UNL A   1      47.345  34.522  32.990  1.00  0.00     0.029 A 
ATOM     65  N   UNL A   1      45.175  34.138  33.190  1.00  0.00    -0.354 N 
ATOM     66  N   UNL A   1      43.539  36.920  30.091  1.00  0.00    -0.248 NA
ATOM     67  C   UNL A   1      45.646  37.824  29.686  1.00  0.00     0.031 C 
ATOM     68  C   UNL A   1      46.632  35.643  32.508  1.00  0.00     0.029 A 
ATOM     69  C   UNL A   1      45.272  35.393  32.624  1.00  0.00     0.049 A 
ATOM     70  H   UNL A   1      44.359  33.748  33.580  1.00  0.00     0.167 HD
ATOM     71  C   UNL A   1      44.191  37.040  31.278  1.00  0.00     0.074 A 
ATOM     72  C   UNL A   1      45.354  37.855  30.989  1.00  0.00     0.031 C 
ATOM     73  C   UNL A   1      44.056  36.000  32.133  1.00  0.00     0.034 A 
BRANCH  60  74
ATOM     74  C   UNL A   1      45.280  31.181  33.274  1.00  0.00     0.023 A 
ATOM     75  C   UNL A   1      44.091  31.217  32.530  1.00  0.00     0.012 A 
ATOM     76  C   UNL A   1      45.332  30.376  34.442  1.00  0.00     0.148 A 
ATOM     77  C   UNL A   1      42.963  30.518  32.966  1.00  0.00     0.002 A 
ATOM     78  C   UNL A   1      44.178  29.775  34.928  1.00  0.00     0.091 A 
ATOM     79  F   UNL A   1      46.513  30.199  35.056  1.00  0.00    -0.205 F 
ATOM     80  C   UNL A   1      42.995  29.831  34.180  1.00  0.00     0.022 A 
BRANCH  78  81
ATOM     81  S   UNL A   1      44.077  29.116  36.603  1.00  0.00     0.127 S 
ATOM     82  O   UNL A   1      45.075  28.042  36.577  1.00  0.00    -0.237 OA
ATOM     83  O   UNL A   1      44.442  30.257  37.432  1.00  0.00    -0.237 OA
ATOM     84  O   UNL A   1      42.711  28.630  36.770  1.00  0.00    -0.744 OA
ENDBRANCH  78  81
ENDBRANCH  60  74
BRANCH  61  85
ATOM     85  C   UNL A   1      43.696  38.069  27.115  1.00  0.00     0.023 A 
ATOM     86  C   UNL A   1      42.359  38.484  27.463  1.00  0.00     0.012 A 
ATOM     87  C   UNL A   1      44.498  39.097  26.569  1.00  0.00     0.148 A 
ATOM     88  C   UNL A   1      41.897  39.813  27.412  1.00  0.00     0.002 A 
ATOM     89  C   UNL A   1      44.008  40.433  26.466  1.00  0.00     0.091 A 
ATOM     90  F   UNL A   1      45.766  38.810  26.246  1.00  0.00    -0.205 F 
ATOM     91  C   UNL A   1      42.729  40.794  26.921  1.00  0.00     0.022 A 
BRANCH  89  92
ATOM     92  S   UNL A   1      44.969  41.819  25.814  1.00  0.00     0.127 S 
ATOM     93  O   UNL A   1      45.042  41.514  24.382  1.00  0.00    -0.237 OA
ATOM     94  O   UNL A   1      44.118  42.962  26.142  1.00  0.00    -0.237 OA
ATOM     95  O   UNL A   1      46.248  41.760  26.507  1.00  0.00    -0.744 OA
ENDBRANCH  89  92
ENDBRANCH  61  85
BRANCH  73  96
ATOM     96  C   UNL A   1      42.685  35.348  32.233  1.00  0.00     0.023 A 
ATOM     97  C   UNL A   1      42.054  34.623  31.193  1.00  0.00     0.012 A 
ATOM     98  C   UNL A   1      41.990  35.474  33.444  1.00  0.00     0.148 A 
ATOM     99  C   UNL A   1      40.770  34.089  31.342  1.00  0.00     0.002 A 
ATOM    100  C   UNL A   1      40.734  34.894  33.613  1.00  0.00     0.091 A 
ATOM    101  F   UNL A   1      42.570  36.177  34.429  1.00  0.00    -0.205 F 
ATOM    102  C   UNL A   1      40.114  34.209  32.561  1.00  0.00     0.022 A 
BRANCH 100 103
ATOM    103  S   UNL A   1      39.903  34.991  35.198  1.00  0.00     0.127 S 
ATOM    104  O   UNL A   1      40.906  34.428  36.100  1.00  0.00    -0.237 OA
ATOM    105  O   UNL A   1      39.662  36.421  35.374  1.00  0.00    -0.237 OA
ATOM    106  O   UNL A   1      38.689  34.196  35.036  1.00  0.00    -0.744 OA
ENDBRANCH 100 103
ENDBRANCH  73  96
ENDBRANCH  47  48
ENDBRANCH  40  42
ENDBRANCH  39  40
ENDBRANCH  38  39
ENDBRANCH   1  38
TORSDOF 21
ENDMDL
MODEL 2
REMARK VINA RESULT:      -8.0      3.858     11.944
REMARK SMILES Cc1cc(/C=C2\C(=O)N(Cc3ccco3)C(=O)N=C2OCCOCCOC(=O)c2ccc(-c3c4nc(c(-c5cccc(S(=O)(=O)[O-])c5F)c5ccc([nH]5)c(-c5cccc(S(=O)(=O)[O-])c5F)c5nc(c(-c6cccc(S(=O)(=O)[O-])c6F)c6ccc3[nH]6)C=C5)C=C4)cc2)c(C)n1-c1ccc(Cl)c(C(=O)[O-])c1
REMARK SMILES IDX 24 1 23 2 22 3 21 4 20 5 19 6 5 7 6 8 7 9 8 10 9 11 18 12
REMARK SMILES IDX 16 13 17 14 4 15 1 16 2 17 3 18 94 19 92 20 93 21 95 22
REMARK SMILES IDX 96 23 104 24 97 25 100 26 98 27 99 28 101 29 102 30 103 31
REMARK SMILES IDX 10 32 11 33 12 34 15 35 13 36 14 37 25 38 26 39 27 40 28 41
REMARK SMILES IDX 29 42 30 43 91 44 31 45 90 46 32 47 33 48 34 49 84 50 35 51
REMARK SMILES IDX 89 52 83 53 85 54 36 55 88 56 82 57 81 58 37 60 69 61 49 62
REMARK SMILES IDX 68 63 50 64 53 65 67 66 86 67 51 68 52 69 66 71 87 72 54 73
REMARK SMILES IDX 38 74 39 75 47 76 40 77 42 78 48 79 41 80 43 81 44 82 45 83
REMARK SMILES IDX 46 84 70 85 71 86 79 87 72 88 74 89 80 90 73 91 75 92 76 93
REMARK SMILES IDX 77 94 78 95 55 96 56 97 64 98 57 99 59 100 65 101 58 102
REMARK SMILES IDX 60 103 61 104 62 105 63 106
REMARK H PARENT 85 59 53 70
REMARK Flexibility Score: inf
ROOT
ATOM      1  C   UNL A   1      44.534  41.579  35.374  1.00  0.00     0.202 C 
ENDROOT
BRANCH   1   2
ATOM      2  O   UNL A   1      43.280  42.289  35.274  1.00  0.00    -0.374 OA
BRANCH   2   3
ATOM      3  C   UNL A   1      42.848  42.557  33.938  1.00  0.00     0.202 C 
BRANCH   3   4
ATOM      4  C   UNL A   1      43.976  42.549  32.886  1.00  0.00     0.260 C 
BRANCH   4   5
ATOM      5  O   UNL A   1      43.883  41.431  31.976  1.00  0.00    -0.475 OA
BRANCH   5   6
ATOM      6  C   UNL A   1      44.113  41.709  30.668  1.00  0.00     0.231 C 
ATOM      7  C   UNL A   1      43.735  39.322  30.132  1.00  0.00     0.029 C 
ATOM      8  C   UNL A   1      44.278  40.518  29.829  1.00  0.00     0.103 C 
ATOM      9  C   UNL A   1      45.060  40.822  28.616  1.00  0.00     0.267 C 
ATOM     10  O   UNL A   1      45.937  40.080  28.189  1.00  0.00    -0.268 OA
ATOM     11  N   UNL A   1      44.761  42.060  28.085  1.00  0.00    -0.250 N 
ATOM     12  N   UNL A   1      44.242  42.917  30.241  1.00  0.00    -0.156 NA
ATOM     13  C   UNL A   1      44.588  43.137  28.939  1.00  0.00     0.354 C 
ATOM     14  O   UNL A   1      44.814  44.294  28.569  1.00  0.00    -0.245 OA
BRANCH   7  15
ATOM     15  C   UNL A   1      43.720  38.085  29.400  1.00  0.00    -0.003 A 
ATOM     16  C   UNL A   1      42.291  35.739  26.861  1.00  0.00     0.065 C 
ATOM     17  C   UNL A   1      43.025  36.515  27.897  1.00  0.00     0.020 A 
ATOM     18  C   UNL A   1      42.696  37.727  28.478  1.00  0.00     0.031 A 
ATOM     19  N   UNL A   1      44.182  36.076  28.510  1.00  0.00    -0.318 N 
ATOM     20  C   UNL A   1      44.688  37.094  29.314  1.00  0.00     0.027 A 
ATOM     21  C   UNL A   1      46.081  37.001  29.850  1.00  0.00     0.065 C 
BRANCH  19  22
ATOM     22  C   UNL A   1      44.875  34.869  28.252  1.00  0.00     0.046 A 
ATOM     23  C   UNL A   1      44.593  33.750  29.034  1.00  0.00     0.028 A 
ATOM     24  C   UNL A   1      45.994  34.904  27.416  1.00  0.00     0.038 A 
ATOM     25  C   UNL A   1      45.450  32.653  28.983  1.00  0.00     0.023 A 
ATOM     26  C   UNL A   1      46.892  33.818  27.398  1.00  0.00     0.018 A 
ATOM     27  C   UNL A   1      46.605  32.688  28.187  1.00  0.00     0.050 A 
ATOM     28  Cl  UNL A   1      47.633  31.299  28.294  1.00  0.00    -0.084 Cl
BRANCH  26  29
ATOM     29  C   UNL A   1      48.146  33.941  26.613  1.00  0.00     0.073 C 
ATOM     30  O   UNL A   1      48.346  33.626  25.440  1.00  0.00    -0.545 OA
ATOM     31  O   UNL A   1      49.164  34.434  27.338  1.00  0.00    -0.545 OA
ENDBRANCH  26  29
ENDBRANCH  19  22
ENDBRANCH   7  15
BRANCH  11  32
ATOM     32  C   UNL A   1      45.160  42.298  26.706  1.00  0.00     0.206 C 
BRANCH  32  33
ATOM     33  C   UNL A   1      44.031  42.128  25.742  1.00  0.00     0.123 A 
ATOM     34  C   UNL A   1      42.901  41.333  25.752  1.00  0.00     0.047 A 
ATOM     35  O   UNL A   1      44.024  42.920  24.627  1.00  0.00    -0.467 OA
ATOM     36  C   UNL A   1      42.175  41.640  24.580  1.00  0.00     0.042 A 
ATOM     37  C   UNL A   1      42.892  42.618  23.935  1.00  0.00     0.195 A 
ENDBRANCH  32  33
ENDBRANCH  11  32
ENDBRANCH   5   6
ENDBRANCH   4   5
ENDBRANCH   3   4
ENDBRANCH   2   3
ENDBRANCH   1   2
BRANCH   1  38
ATOM     38  C   UNL A   1      44.440  40.132  35.931  1.00  0.00     0.261 C 
BRANCH  38  39
ATOM     39  O   UNL A   1      44.435  39.052  34.920  1.00  0.00    -0.460 OA
BRANCH  39  40
ATOM     40  C   UNL A   1      45.287  37.991  35.147  1.00  0.00     0.338 C 
ATOM     41  O   UNL A   1      46.199  38.046  35.963  1.00  0.00    -0.246 OA
BRANCH  40  42
ATOM     42  C   UNL A   1      44.967  36.688  34.403  1.00  0.00     0.060 A 
ATOM     43  C   UNL A   1      44.470  36.757  33.102  1.00  0.00     0.016 A 
ATOM     44  C   UNL A   1      44.834  35.429  35.022  1.00  0.00     0.016 A 
ATOM     45  C   UNL A   1      43.894  35.608  32.448  1.00  0.00     0.010 A 
ATOM     46  C   UNL A   1      44.195  34.277  34.370  1.00  0.00     0.010 A 
ATOM     47  C   UNL A   1      43.680  34.322  33.058  1.00  0.00    -0.014 A 
BRANCH  47  48
ATOM     48  C   UNL A   1      42.450  33.445  32.475  1.00  0.00     0.031 A 
ATOM     49  C   UNL A   1      42.567  32.174  33.252  1.00  0.00     0.074 A 
ATOM     50  C   UNL A   1      41.427  33.430  31.516  1.00  0.00     0.049 A 
ATOM     51  N   UNL A   1      43.702  31.538  33.371  1.00  0.00    -0.248 NA
ATOM     52  C   UNL A   1      41.544  31.746  34.211  1.00  0.00     0.031 C 
ATOM     53  C   UNL A   1      41.128  34.442  30.489  1.00  0.00     0.029 A 
ATOM     54  N   UNL A   1      40.373  32.487  31.221  1.00  0.00    -0.354 N 
ATOM     55  C   UNL A   1      43.384  30.382  34.020  1.00  0.00     0.074 A 
ATOM     56  C   UNL A   1      42.190  30.721  34.775  1.00  0.00     0.031 C 
ATOM     57  C   UNL A   1      39.973  34.163  29.810  1.00  0.00     0.029 A 
ATOM     58  C   UNL A   1      39.380  32.898  30.249  1.00  0.00     0.049 A 
ATOM     59  H   UNL A   1      40.330  31.607  31.660  1.00  0.00     0.167 HD
ATOM     60  C   UNL A   1      43.667  29.221  33.361  1.00  0.00     0.034 A 
ATOM     61  C   UNL A   1      38.232  32.271  29.756  1.00  0.00     0.034 A 
ATOM     62  C   UNL A   1      42.505  28.450  33.021  1.00  0.00     0.049 A 
ATOM     63  C   UNL A   1      38.395  30.825  29.984  1.00  0.00     0.074 A 
ATOM     64  C   UNL A   1      41.314  28.163  33.658  1.00  0.00     0.029 A 
ATOM     65  N   UNL A   1      42.304  28.202  31.680  1.00  0.00    -0.354 N 
ATOM     66  N   UNL A   1      39.118  30.105  29.180  1.00  0.00    -0.248 NA
ATOM     67  C   UNL A   1      37.605  30.066  30.950  1.00  0.00     0.031 C 
ATOM     68  C   UNL A   1      40.326  28.221  32.649  1.00  0.00     0.029 A 
ATOM     69  C   UNL A   1      40.952  28.257  31.411  1.00  0.00     0.049 A 
ATOM     70  H   UNL A   1      43.012  28.016  31.021  1.00  0.00     0.167 HD
ATOM     71  C   UNL A   1      39.275  28.935  29.854  1.00  0.00     0.074 A 
ATOM     72  C   UNL A   1      38.134  28.856  30.745  1.00  0.00     0.031 C 
ATOM     73  C   UNL A   1      40.553  28.533  30.050  1.00  0.00     0.034 A 
BRANCH  60  74
ATOM     74  C   UNL A   1      44.944  29.219  32.554  1.00  0.00     0.023 A 
ATOM     75  C   UNL A   1      44.828  29.211  31.156  1.00  0.00     0.012 A 
ATOM     76  C   UNL A   1      46.233  29.101  33.135  1.00  0.00     0.148 A 
ATOM     77  C   UNL A   1      45.958  29.032  30.355  1.00  0.00     0.002 A 
ATOM     78  C   UNL A   1      47.334  28.812  32.338  1.00  0.00     0.091 A 
ATOM     79  F   UNL A   1      46.369  29.284  34.458  1.00  0.00    -0.205 F 
ATOM     80  C   UNL A   1      47.200  28.795  30.944  1.00  0.00     0.022 A 
BRANCH  78  81
ATOM     81  S   UNL A   1      48.891  28.228  33.035  1.00  0.00     0.127 S 
ATOM     82  O   UNL A   1      49.051  29.091  34.210  1.00  0.00    -0.237 OA
ATOM     83  O   UNL A   1      48.613  26.832  33.347  1.00  0.00    -0.237 OA
ATOM     84  O   UNL A   1      49.907  28.452  32.012  1.00  0.00    -0.744 OA
ENDBRANCH  78  81
ENDBRANCH  60  74
BRANCH  61  85
ATOM     85  C   UNL A   1      36.958  32.433  28.841  1.00  0.00     0.023 A 
ATOM     86  C   UNL A   1      36.469  31.253  28.171  1.00  0.00     0.012 A 
ATOM     87  C   UNL A   1      36.006  33.472  28.952  1.00  0.00     0.148 A 
ATOM     88  C   UNL A   1      35.133  31.055  27.774  1.00  0.00     0.002 A 
ATOM     89  C   UNL A   1      34.666  33.290  28.498  1.00  0.00     0.091 A 
ATOM     90  F   UNL A   1      36.362  34.594  29.588  1.00  0.00    -0.205 F 
ATOM     91  C   UNL A   1      34.225  32.075  27.948  1.00  0.00     0.022 A 
BRANCH  89  92
ATOM     92  S   UNL A   1      33.371  34.546  28.627  1.00  0.00     0.127 S 
ATOM     93  O   UNL A   1      34.041  35.750  28.129  1.00  0.00    -0.237 OA
ATOM     94  O   UNL A   1      32.342  34.016  27.733  1.00  0.00    -0.237 OA
ATOM     95  O   UNL A   1      33.022  34.593  30.040  1.00  0.00    -0.744 OA
ENDBRANCH  89  92
ENDBRANCH  61  85
BRANCH  73  96
ATOM     96  C   UNL A   1      41.534  28.734  28.905  1.00  0.00     0.023 A 
ATOM     97  C   UNL A   1      42.277  29.916  28.673  1.00  0.00     0.012 A 
ATOM     98  C   UNL A   1      41.715  27.671  28.008  1.00  0.00     0.148 A 
ATOM     99  C   UNL A   1      43.129  30.046  27.570  1.00  0.00     0.002 A 
ATOM    100  C   UNL A   1      42.605  27.779  26.941  1.00  0.00     0.091 A 
ATOM    101  F   UNL A   1      40.999  26.554  28.207  1.00  0.00    -0.205 F 
ATOM    102  C   UNL A   1      43.308  28.968  26.711  1.00  0.00     0.022 A 
BRANCH 100 103
ATOM    103  S   UNL A   1      42.889  26.378  25.860  1.00  0.00     0.127 S 
ATOM    104  O   UNL A   1      43.998  26.854  25.034  1.00  0.00    -0.237 OA
ATOM    105  O   UNL A   1      43.237  25.298  26.779  1.00  0.00    -0.237 OA
ATOM    106  O   UNL A   1      41.624  26.182  25.158  1.00  0.00    -0.744 OA
ENDBRANCH 100 103
ENDBRANCH  73  96
ENDBRANCH  47  48
ENDBRANCH  40  42
ENDBRANCH  39  40
ENDBRANCH  38  39
ENDBRANCH   1  38
TORSDOF 21
ENDMDL
MODEL 3
REMARK VINA RESULT:      -7.8      6.053     14.756
REMARK SMILES Cc1cc(/C=C2\C(=O)N(Cc3ccco3)C(=O)N=C2OCCOCCOC(=O)c2ccc(-c3c4nc(c(-c5cccc(S(=O)(=O)[O-])c5F)c5ccc([nH]5)c(-c5cccc(S(=O)(=O)[O-])c5F)c5nc(c(-c6cccc(S(=O)(=O)[O-])c6F)c6ccc3[nH]6)C=C5)C=C4)cc2)c(C)n1-c1ccc(Cl)c(C(=O)[O-])c1
REMARK SMILES IDX 24 1 23 2 22 3 21 4 20 5 19 6 5 7 6 8 7 9 8 10 9 11 18 12
REMARK SMILES IDX 16 13 17 14 4 15 1 16 2 17 3 18 94 19 92 20 93 21 95 22
REMARK SMILES IDX 96 23 104 24 97 25 100 26 98 27 99 28 101 29 102 30 103 31
REMARK SMILES IDX 10 32 11 33 12 34 15 35 13 36 14 37 25 38 26 39 27 40 28 41
REMARK SMILES IDX 29 42 30 43 91 44 31 45 90 46 32 47 33 48 34 49 84 50 35 51
REMARK SMILES IDX 89 52 83 53 85 54 36 55 88 56 82 57 81 58 37 60 69 61 49 62
REMARK SMILES IDX 68 63 50 64 53 65 67 66 86 67 51 68 52 69 66 71 87 72 54 73
REMARK SMILES IDX 38 74 39 75 47 76 40 77 42 78 48 79 41 80 43 81 44 82 45 83
REMARK SMILES IDX 46 84 70 85 71 86 79 87 72 88 74 89 80 90 73 91 75 92 76 93
REMARK SMILES IDX 77 94 78 95 55 96 56 97 64 98 57 99 59 100 65 101 58 102
REMARK SMILES IDX 60 103 61 104 62 105 63 106
REMARK H PARENT 85 59 53 70
REMARK Flexibility Score: inf
ROOT
ATOM      1  C   UNL A   1      42.784  38.944  27.726  1.00  0.00     0.202 C 
ENDROOT
BRANCH   1   2
ATOM      2  O   UNL A   1      43.742  38.810  26.654  1.00  0.00    -0.374 OA
BRANCH   2   3
ATOM      3  C   UNL A   1      45.082  39.169  26.999  1.00  0.00     0.202 C 
BRANCH   3   4
ATOM      4  C   UNL A   1      45.868  39.873  25.872  1.00  0.00     0.260 C 
BRANCH   4   5
ATOM      5  O   UNL A   1      45.655  41.301  25.850  1.00  0.00    -0.475 OA
BRANCH   5   6
ATOM      6  C   UNL A   1      44.659  41.740  25.040  1.00  0.00     0.231 C 
ATOM      7  C   UNL A   1      46.350  42.896  23.650  1.00  0.00     0.029 C 
ATOM      8  C   UNL A   1      45.081  42.772  24.088  1.00  0.00     0.103 C 
ATOM      9  C   UNL A   1      43.940  43.600  23.656  1.00  0.00     0.267 C 
ATOM     10  O   UNL A   1      44.007  44.819  23.551  1.00  0.00    -0.268 OA
ATOM     11  N   UNL A   1      42.785  42.866  23.479  1.00  0.00    -0.250 N 
ATOM     12  N   UNL A   1      43.446  41.325  25.164  1.00  0.00    -0.156 NA
ATOM     13  C   UNL A   1      42.462  41.884  24.401  1.00  0.00     0.354 C 
ATOM     14  O   UNL A   1      41.289  41.554  24.605  1.00  0.00    -0.245 OA
BRANCH   7  15
ATOM     15  C   UNL A   1      46.923  43.779  22.672  1.00  0.00    -0.003 A 
ATOM     16  C   UNL A   1      49.022  46.703  21.652  1.00  0.00     0.065 C 
ATOM     17  C   UNL A   1      48.158  45.504  21.833  1.00  0.00     0.020 A 
ATOM     18  C   UNL A   1      47.699  44.926  23.002  1.00  0.00     0.031 A 
ATOM     19  N   UNL A   1      47.605  44.792  20.787  1.00  0.00    -0.318 N 
ATOM     20  C   UNL A   1      46.978  43.654  21.290  1.00  0.00     0.027 A 
ATOM     21  C   UNL A   1      46.564  42.557  20.363  1.00  0.00     0.065 C 
BRANCH  19  22
ATOM     22  C   UNL A   1      47.779  45.038  19.404  1.00  0.00     0.046 A 
ATOM     23  C   UNL A   1      48.977  44.663  18.798  1.00  0.00     0.028 A 
ATOM     24  C   UNL A   1      46.870  45.877  18.753  1.00  0.00     0.038 A 
ATOM     25  C   UNL A   1      49.273  45.143  17.524  1.00  0.00     0.023 A 
ATOM     26  C   UNL A   1      47.186  46.406  17.485  1.00  0.00     0.018 A 
ATOM     27  C   UNL A   1      48.396  46.025  16.874  1.00  0.00     0.050 A 
ATOM     28  Cl  UNL A   1      48.932  46.622  15.341  1.00  0.00    -0.084 Cl
BRANCH  26  29
ATOM     29  C   UNL A   1      46.272  47.407  16.881  1.00  0.00     0.073 C 
ATOM     30  O   UNL A   1      45.095  47.264  16.550  1.00  0.00    -0.545 OA
ATOM     31  O   UNL A   1      46.871  48.590  16.664  1.00  0.00    -0.545 OA
ENDBRANCH  26  29
ENDBRANCH  19  22
ENDBRANCH   7  15
BRANCH  11  32
ATOM     32  C   UNL A   1      41.727  43.481  22.692  1.00  0.00     0.206 C 
BRANCH  32  33
ATOM     33  C   UNL A   1      41.962  43.363  21.221  1.00  0.00     0.123 A 
ATOM     34  C   UNL A   1      42.908  42.688  20.472  1.00  0.00     0.047 A 
ATOM     35  O   UNL A   1      41.073  43.981  20.385  1.00  0.00    -0.467 OA
ATOM     36  C   UNL A   1      42.594  42.916  19.114  1.00  0.00     0.042 A 
ATOM     37  C   UNL A   1      41.464  43.698  19.112  1.00  0.00     0.195 A 
ENDBRANCH  32  33
ENDBRANCH  11  32
ENDBRANCH   5   6
ENDBRANCH   4   5
ENDBRANCH   3   4
ENDBRANCH   2   3
ENDBRANCH   1   2
BRANCH   1  38
ATOM     38  C   UNL A   1      42.565  37.671  28.590  1.00  0.00     0.261 C 
BRANCH  38  39
ATOM     39  O   UNL A   1      41.676  36.642  28.007  1.00  0.00    -0.460 OA
BRANCH  39  40
ATOM     40  C   UNL A   1      41.469  35.507  28.762  1.00  0.00     0.338 C 
ATOM     41  O   UNL A   1      40.361  35.187  29.176  1.00  0.00    -0.246 OA
BRANCH  40  42
ATOM     42  C   UNL A   1      42.685  34.593  28.967  1.00  0.00     0.060 A 
ATOM     43  C   UNL A   1      43.490  34.283  27.871  1.00  0.00     0.016 A 
ATOM     44  C   UNL A   1      42.890  33.782  30.101  1.00  0.00     0.016 A 
ATOM     45  C   UNL A   1      44.471  33.227  27.925  1.00  0.00     0.010 A 
ATOM     46  C   UNL A   1      43.853  32.672  30.131  1.00  0.00     0.010 A 
ATOM     47  C   UNL A   1      44.673  32.334  29.035  1.00  0.00    -0.014 A 
BRANCH  47  48
ATOM     48  C   UNL A   1      45.248  30.863  28.679  1.00  0.00     0.031 A 
ATOM     49  C   UNL A   1      44.048  30.179  28.110  1.00  0.00     0.074 A 
ATOM     50  C   UNL A   1      46.378  30.037  28.773  1.00  0.00     0.049 A 
ATOM     51  N   UNL A   1      42.890  30.196  28.716  1.00  0.00    -0.248 NA
ATOM     52  C   UNL A   1      43.977  29.761  26.707  1.00  0.00     0.031 C 
ATOM     53  C   UNL A   1      47.671  30.336  29.412  1.00  0.00     0.029 A 
ATOM     54  N   UNL A   1      46.658  28.700  28.303  1.00  0.00    -0.354 N 
ATOM     55  C   UNL A   1      42.099  29.369  27.974  1.00  0.00     0.074 A 
ATOM     56  C   UNL A   1      42.686  29.423  26.646  1.00  0.00     0.031 C 
ATOM     57  C   UNL A   1      48.593  29.347  29.197  1.00  0.00     0.029 A 
ATOM     58  C   UNL A   1      48.022  28.231  28.440  1.00  0.00     0.049 A 
ATOM     59  H   UNL A   1      45.956  28.135  27.907  1.00  0.00     0.167 HD
ATOM     60  C   UNL A   1      41.577  28.290  28.625  1.00  0.00     0.034 A 
ATOM     61  C   UNL A   1      48.645  27.033  28.074  1.00  0.00     0.034 A 
ATOM     62  C   UNL A   1      42.047  27.029  28.127  1.00  0.00     0.049 A 
ATOM     63  C   UNL A   1      47.588  26.014  27.953  1.00  0.00     0.074 A 
ATOM     64  C   UNL A   1      42.328  26.529  26.871  1.00  0.00     0.029 A 
ATOM     65  N   UNL A   1      42.705  26.220  29.029  1.00  0.00    -0.354 N 
ATOM     66  N   UNL A   1      47.109  25.428  29.009  1.00  0.00    -0.248 NA
ATOM     67  C   UNL A   1      47.172  25.429  26.681  1.00  0.00     0.031 C 
ATOM     68  C   UNL A   1      43.502  25.758  27.028  1.00  0.00     0.029 A 
ATOM     69  C   UNL A   1      43.742  25.578  28.383  1.00  0.00     0.049 A 
ATOM     70  H   UNL A   1      42.473  26.118  29.981  1.00  0.00     0.167 HD
ATOM     71  C   UNL A   1      45.993  24.804  28.548  1.00  0.00     0.074 A 
ATOM     72  C   UNL A   1      46.234  24.592  27.135  1.00  0.00     0.031 C 
ATOM     73  C   UNL A   1      44.840  25.103  29.192  1.00  0.00     0.034 A 
BRANCH  60  74
ATOM     74  C   UNL A   1      41.159  28.526  30.057  1.00  0.00     0.023 A 
ATOM     75  C   UNL A   1      42.026  28.083  31.067  1.00  0.00     0.012 A 
ATOM     76  C   UNL A   1      39.894  29.055  30.424  1.00  0.00     0.148 A 
ATOM     77  C   UNL A   1      41.623  28.110  32.405  1.00  0.00     0.002 A 
ATOM     78  C   UNL A   1      39.459  28.976  31.740  1.00  0.00     0.091 A 
ATOM     79  F   UNL A   1      39.137  29.640  29.482  1.00  0.00    -0.205 F 
ATOM     80  C   UNL A   1      40.332  28.519  32.737  1.00  0.00     0.022 A 
BRANCH  78  81
ATOM     81  S   UNL A   1      37.731  29.222  32.193  1.00  0.00     0.127 S 
ATOM     82  O   UNL A   1      37.696  30.649  32.531  1.00  0.00    -0.237 OA
ATOM     83  O   UNL A   1      37.015  28.875  30.971  1.00  0.00    -0.237 OA
ATOM     84  O   UNL A   1      37.479  28.351  33.336  1.00  0.00    -0.744 OA
ENDBRANCH  78  81
ENDBRANCH  60  74
BRANCH  61  85
ATOM     85  C   UNL A   1      50.016  26.261  27.981  1.00  0.00     0.023 A 
ATOM     86  C   UNL A   1      50.326  25.609  26.732  1.00  0.00     0.012 A 
ATOM     87  C   UNL A   1      51.140  26.502  28.803  1.00  0.00     0.148 A 
ATOM     88  C   UNL A   1      51.630  25.346  26.270  1.00  0.00     0.002 A 
ATOM     89  C   UNL A   1      52.457  26.184  28.356  1.00  0.00     0.091 A 
ATOM     90  F   UNL A   1      50.951  27.133  29.969  1.00  0.00    -0.205 F 
ATOM     91  C   UNL A   1      52.701  25.645  27.082  1.00  0.00     0.022 A 
BRANCH  89  92
ATOM     92  S   UNL A   1      53.957  26.485  29.321  1.00  0.00     0.127 S 
ATOM     93  O   UNL A   1      54.991  25.819  28.525  1.00  0.00    -0.237 OA
ATOM     94  O   UNL A   1      54.037  27.945  29.311  1.00  0.00    -0.237 OA
ATOM     95  O   UNL A   1      53.708  25.873  30.618  1.00  0.00    -0.744 OA
ENDBRANCH  89  92
ENDBRANCH  61  85
BRANCH  73  96
ATOM     96  C   UNL A   1      44.901  25.246  30.706  1.00  0.00     0.023 A 
ATOM     97  C   UNL A   1      44.653  24.202  31.629  1.00  0.00     0.012 A 
ATOM     98  C   UNL A   1      45.223  26.507  31.229  1.00  0.00     0.148 A 
ATOM     99  C   UNL A   1      44.682  24.419  33.011  1.00  0.00     0.002 A 
ATOM    100  C   UNL A   1      45.308  26.711  32.605  1.00  0.00     0.091 A 
ATOM    101  F   UNL A   1      45.439  27.508  30.362  1.00  0.00    -0.205 F 
ATOM    102  C   UNL A   1      45.029  25.672  33.501  1.00  0.00     0.022 A 
BRANCH 100 103
ATOM    103  S   UNL A   1      45.809  28.306  33.250  1.00  0.00     0.127 S 
ATOM    104  O   UNL A   1      45.808  28.062  34.692  1.00  0.00    -0.237 OA
ATOM    105  O   UNL A   1      47.134  28.512  32.669  1.00  0.00    -0.237 OA
ATOM    106  O   UNL A   1      44.794  29.241  32.772  1.00  0.00    -0.744 OA
ENDBRANCH 100 103
ENDBRANCH  73  96
ENDBRANCH  47  48
ENDBRANCH  40  42
ENDBRANCH  39  40
ENDBRANCH  38  39
ENDBRANCH   1  38
TORSDOF 21
ENDMDL
