MODEL 1
REMARK VINA RESULT:      -9.0      0.000      0.000
REMARK SMILES CC(C)Oc1ccc(-c2ccc(/C(=C\c3ccc(S(C)(=O)=O)cc3)C(=O)OCCOCCOC(=O)c3ccc(-c4c5nc(c(-c6cccc(S(=O)(=O)[O-])c6F)c6ccc([nH]6)c(-c6cccc(S(=O)(=O)[O-])c6F)c6nc(c(-c7cccc(S(=O)(=O)[O-])c7F)c7ccc4[nH]7)C=C6)C=C5)cc3)cc2)cc1
REMARK SMILES IDX 29 1 28 2 27 3 25 4 26 5 13 6 14 7 12 8 9 9 10 10 100 11
REMARK SMILES IDX 11 12 99 13 8 14 5 15 6 16 102 17 7 18 101 19 4 20 2 21 1 22
REMARK SMILES IDX 3 23 15 24 16 25 24 26 17 27 23 28 18 29 19 30 20 31 21 32
REMARK SMILES IDX 22 33 30 34 31 35 32 36 33 37 34 38 35 39 36 40 37 41 98 42
REMARK SMILES IDX 38 43 97 44 39 45 40 46 41 47 91 48 42 49 96 50 90 51 92 52
REMARK SMILES IDX 43 53 95 54 89 55 88 56 44 58 76 59 56 60 75 61 57 62 60 63
REMARK SMILES IDX 74 64 93 65 58 66 59 67 73 69 94 70 61 71 45 72 46 73 54 74
REMARK SMILES IDX 47 75 49 76 55 77 48 78 50 79 51 80 52 81 53 82 77 83 78 84
REMARK SMILES IDX 86 85 79 86 81 87 87 88 80 89 82 90 83 91 84 92 85 93 62 94
REMARK SMILES IDX 63 95 71 96 64 97 66 98 72 99 65 100 67 101 68 102 69 103
REMARK SMILES IDX 70 104
REMARK H PARENT 92 57 60 68
REMARK Flexibility Score: inf
ROOT
ATOM      1  C   UNL A   1      45.345  23.175  26.119  1.00  0.00     0.202 C 
ENDROOT
BRANCH   1   2
ATOM      2  C   UNL A   1      44.390  23.273  27.314  1.00  0.00     0.261 C 
BRANCH   2   3
ATOM      3  O   UNL A   1      43.034  23.036  26.916  1.00  0.00    -0.460 OA
BRANCH   3   4
ATOM      4  C   UNL A   1      42.102  23.271  27.875  1.00  0.00     0.338 C 
ATOM      5  O   UNL A   1      42.312  23.315  29.079  1.00  0.00    -0.246 OA
BRANCH   4   6
ATOM      6  C   UNL A   1      40.775  23.635  27.267  1.00  0.00     0.067 C 
ATOM      7  C   UNL A   1      40.167  22.682  26.513  1.00  0.00     0.024 C 
BRANCH   6   8
ATOM      8  C   UNL A   1      40.244  25.003  27.549  1.00  0.00    -0.011 A 
ATOM      9  C   UNL A   1      39.431  27.654  28.275  1.00  0.00    -0.018 A 
ATOM     10  C   UNL A   1      40.082  27.383  27.063  1.00  0.00     0.009 A 
ATOM     11  C   UNL A   1      39.137  26.556  29.094  1.00  0.00     0.009 A 
ATOM     12  C   UNL A   1      40.432  26.084  26.686  1.00  0.00     0.009 A 
ATOM     13  C   UNL A   1      39.546  25.259  28.741  1.00  0.00     0.009 A 
BRANCH   9  14
ATOM     14  C   UNL A   1      39.076  29.041  28.643  1.00  0.00    -0.018 A 
ATOM     15  C   UNL A   1      38.330  31.639  29.474  1.00  0.00     0.119 A 
ATOM     16  C   UNL A   1      39.381  30.983  30.100  1.00  0.00     0.047 A 
ATOM     17  C   UNL A   1      37.689  31.041  28.394  1.00  0.00     0.047 A 
ATOM     18  C   UNL A   1      39.748  29.700  29.688  1.00  0.00     0.012 A 
ATOM     19  C   UNL A   1      38.047  29.746  27.994  1.00  0.00     0.012 A 
BRANCH  15  20
ATOM     20  O   UNL A   1      38.051  32.907  29.889  1.00  0.00    -0.491 OA
BRANCH  20  21
ATOM     21  C   UNL A   1      39.082  33.605  30.610  1.00  0.00     0.167 C 
ATOM     22  C   UNL A   1      39.846  34.579  29.719  1.00  0.00     0.052 C 
ATOM     23  C   UNL A   1      38.639  34.240  31.929  1.00  0.00     0.052 C 
ENDBRANCH  20  21
ENDBRANCH  15  20
ENDBRANCH   9  14
ENDBRANCH   6   8
BRANCH   7  24
ATOM     24  C   UNL A   1      38.781  22.719  26.014  1.00  0.00    -0.025 A 
ATOM     25  C   UNL A   1      38.279  21.512  25.503  1.00  0.00     0.009 A 
ATOM     26  C   UNL A   1      37.913  23.801  26.211  1.00  0.00     0.009 A 
ATOM     27  C   UNL A   1      36.907  21.332  25.341  1.00  0.00     0.021 A 
ATOM     28  C   UNL A   1      36.532  23.624  26.055  1.00  0.00     0.021 A 
ATOM     29  C   UNL A   1      36.038  22.375  25.663  1.00  0.00     0.067 A 
BRANCH  29  30
ATOM     30  S   UNL A   1      34.298  22.024  25.761  1.00  0.00     0.175 S 
ATOM     31  C   UNL A   1      33.557  23.131  24.596  1.00  0.00     0.163 C 
ATOM     32  O   UNL A   1      34.113  20.668  25.278  1.00  0.00    -0.224 OA
ATOM     33  O   UNL A   1      33.839  22.399  27.086  1.00  0.00    -0.224 OA
ENDBRANCH  29  30
ENDBRANCH   7  24
ENDBRANCH   4   6
ENDBRANCH   3   4
ENDBRANCH   2   3
ENDBRANCH   1   2
BRANCH   1  34
ATOM     34  O   UNL A   1      45.936  24.389  25.652  1.00  0.00    -0.374 OA
BRANCH  34  35
ATOM     35  C   UNL A   1      45.070  25.505  25.442  1.00  0.00     0.202 C 
BRANCH  35  36
ATOM     36  C   UNL A   1      45.387  26.815  26.172  1.00  0.00     0.261 C 
BRANCH  36  37
ATOM     37  O   UNL A   1      44.215  27.590  26.465  1.00  0.00    -0.460 OA
BRANCH  37  38
ATOM     38  C   UNL A   1      43.741  27.451  27.725  1.00  0.00     0.338 C 
ATOM     39  O   UNL A   1      43.493  26.406  28.312  1.00  0.00    -0.246 OA
BRANCH  38  40
ATOM     40  C   UNL A   1      43.738  28.762  28.397  1.00  0.00     0.060 A 
ATOM     41  C   UNL A   1      42.874  29.747  27.901  1.00  0.00     0.016 A 
ATOM     42  C   UNL A   1      44.584  29.033  29.472  1.00  0.00     0.016 A 
ATOM     43  C   UNL A   1      42.867  31.019  28.470  1.00  0.00     0.010 A 
ATOM     44  C   UNL A   1      44.584  30.314  30.033  1.00  0.00     0.010 A 
ATOM     45  C   UNL A   1      43.739  31.317  29.524  1.00  0.00    -0.014 A 
BRANCH  45  46
ATOM     46  C   UNL A   1      43.811  32.695  30.062  1.00  0.00     0.031 A 
ATOM     47  C   UNL A   1      44.670  33.717  29.374  1.00  0.00     0.074 A 
ATOM     48  C   UNL A   1      43.130  33.020  31.176  1.00  0.00     0.049 A 
ATOM     49  N   UNL A   1      44.915  34.955  29.716  1.00  0.00    -0.248 NA
ATOM     50  C   UNL A   1      45.345  33.288  28.138  1.00  0.00     0.031 C 
ATOM     51  C   UNL A   1      42.265  32.112  31.929  1.00  0.00     0.029 A 
ATOM     52  N   UNL A   1      43.088  34.194  31.885  1.00  0.00    -0.354 N 
ATOM     53  C   UNL A   1      45.794  35.447  28.759  1.00  0.00     0.074 A 
ATOM     54  C   UNL A   1      46.044  34.371  27.824  1.00  0.00     0.031 C 
ATOM     55  C   UNL A   1      41.803  32.753  33.015  1.00  0.00     0.029 A 
ATOM     56  C   UNL A   1      42.365  34.101  33.051  1.00  0.00     0.049 A 
ATOM     57  H   UNL A   1      43.531  35.021  31.589  1.00  0.00     0.167 HD
ATOM     58  C   UNL A   1      46.333  36.686  28.663  1.00  0.00     0.034 A 
ATOM     59  C   UNL A   1      42.203  34.991  34.050  1.00  0.00     0.034 A 
ATOM     60  C   UNL A   1      46.073  37.754  29.590  1.00  0.00     0.049 A 
ATOM     61  C   UNL A   1      42.847  36.348  33.939  1.00  0.00     0.074 A 
ATOM     62  C   UNL A   1      46.526  39.061  29.546  1.00  0.00     0.029 A 
ATOM     63  N   UNL A   1      45.309  37.637  30.742  1.00  0.00    -0.354 N 
ATOM     64  N   UNL A   1      43.571  36.841  32.962  1.00  0.00    -0.248 NA
ATOM     65  C   UNL A   1      42.627  37.282  35.052  1.00  0.00     0.031 C 
ATOM     66  C   UNL A   1      46.069  39.724  30.690  1.00  0.00     0.029 A 
ATOM     67  C   UNL A   1      45.299  38.840  31.429  1.00  0.00     0.049 A 
ATOM     68  H   UNL A   1      44.842  36.820  31.029  1.00  0.00     0.167 HD
ATOM     69  C   UNL A   1      43.869  38.148  33.331  1.00  0.00     0.074 A 
ATOM     70  C   UNL A   1      43.225  38.379  34.607  1.00  0.00     0.031 C 
ATOM     71  C   UNL A   1      44.623  39.070  32.680  1.00  0.00     0.034 A 
BRANCH  58  72
ATOM     72  C   UNL A   1      47.254  36.961  27.503  1.00  0.00     0.023 A 
ATOM     73  C   UNL A   1      46.746  37.561  26.333  1.00  0.00     0.012 A 
ATOM     74  C   UNL A   1      48.632  36.686  27.596  1.00  0.00     0.148 A 
ATOM     75  C   UNL A   1      47.588  37.856  25.262  1.00  0.00     0.002 A 
ATOM     76  C   UNL A   1      49.474  37.023  26.542  1.00  0.00     0.091 A 
ATOM     77  F   UNL A   1      49.093  36.096  28.708  1.00  0.00    -0.205 F 
ATOM     78  C   UNL A   1      48.952  37.597  25.370  1.00  0.00     0.022 A 
BRANCH  76  79
ATOM     79  S   UNL A   1      51.254  36.800  26.615  1.00  0.00     0.127 S 
ATOM     80  O   UNL A   1      51.602  37.582  27.800  1.00  0.00    -0.237 OA
ATOM     81  O   UNL A   1      51.375  35.352  26.782  1.00  0.00    -0.237 OA
ATOM     82  O   UNL A   1      51.775  37.313  25.355  1.00  0.00    -0.744 OA
ENDBRANCH  76  79
ENDBRANCH  58  72
BRANCH  59  83
ATOM     83  C   UNL A   1      41.385  34.630  35.242  1.00  0.00     0.023 A 
ATOM     84  C   UNL A   1      40.014  34.950  35.269  1.00  0.00     0.012 A 
ATOM     85  C   UNL A   1      41.956  33.955  36.339  1.00  0.00     0.148 A 
ATOM     86  C   UNL A   1      39.232  34.631  36.380  1.00  0.00     0.002 A 
ATOM     87  C   UNL A   1      41.159  33.587  37.417  1.00  0.00     0.091 A 
ATOM     88  F   UNL A   1      43.266  33.674  36.300  1.00  0.00    -0.205 F 
ATOM     89  C   UNL A   1      39.802  33.941  37.449  1.00  0.00     0.022 A 
BRANCH  87  90
ATOM     90  S   UNL A   1      41.777  32.582  38.771  1.00  0.00     0.127 S 
ATOM     91  O   UNL A   1      40.580  32.416  39.592  1.00  0.00    -0.237 OA
ATOM     92  O   UNL A   1      42.219  31.375  38.072  1.00  0.00    -0.237 OA
ATOM     93  O   UNL A   1      42.856  33.352  39.375  1.00  0.00    -0.744 OA
ENDBRANCH  87  90
ENDBRANCH  59  83
BRANCH  71  94
ATOM     94  C   UNL A   1      44.778  40.426  33.323  1.00  0.00     0.023 A 
ATOM     95  C   UNL A   1      46.000  40.776  33.932  1.00  0.00     0.012 A 
ATOM     96  C   UNL A   1      43.738  41.375  33.265  1.00  0.00     0.148 A 
ATOM     97  C   UNL A   1      46.172  42.037  34.503  1.00  0.00     0.002 A 
ATOM     98  C   UNL A   1      43.935  42.646  33.792  1.00  0.00     0.091 A 
ATOM     99  F   UNL A   1      42.578  41.018  32.695  1.00  0.00    -0.205 F 
ATOM    100  C   UNL A   1      45.145  42.974  34.423  1.00  0.00     0.022 A 
BRANCH  98 101
ATOM    101  S   UNL A   1      42.707  43.950  33.653  1.00  0.00     0.127 S 
ATOM    102  O   UNL A   1      43.494  45.136  33.989  1.00  0.00    -0.237 OA
ATOM    103  O   UNL A   1      42.316  43.858  32.245  1.00  0.00    -0.237 OA
ATOM    104  O   UNL A   1      41.652  43.615  34.598  1.00  0.00    -0.744 OA
ENDBRANCH  98 101
ENDBRANCH  71  94
ENDBRANCH  45  46
ENDBRANCH  38  40
ENDBRANCH  37  38
ENDBRANCH  36  37
ENDBRANCH  35  36
ENDBRANCH  34  35
ENDBRANCH   1  34
TORSDOF 23
ENDMDL
MODEL 2
REMARK VINA RESULT:      -8.8      7.807     12.055
REMARK SMILES CC(C)Oc1ccc(-c2ccc(/C(=C\c3ccc(S(C)(=O)=O)cc3)C(=O)OCCOCCOC(=O)c3ccc(-c4c5nc(c(-c6cccc(S(=O)(=O)[O-])c6F)c6ccc([nH]6)c(-c6cccc(S(=O)(=O)[O-])c6F)c6nc(c(-c7cccc(S(=O)(=O)[O-])c7F)c7ccc4[nH]7)C=C6)C=C5)cc3)cc2)cc1
REMARK SMILES IDX 29 1 28 2 27 3 25 4 26 5 13 6 14 7 12 8 9 9 10 10 100 11
REMARK SMILES IDX 11 12 99 13 8 14 5 15 6 16 102 17 7 18 101 19 4 20 2 21 1 22
REMARK SMILES IDX 3 23 15 24 16 25 24 26 17 27 23 28 18 29 19 30 20 31 21 32
REMARK SMILES IDX 22 33 30 34 31 35 32 36 33 37 34 38 35 39 36 40 37 41 98 42
REMARK SMILES IDX 38 43 97 44 39 45 40 46 41 47 91 48 42 49 96 50 90 51 92 52
REMARK SMILES IDX 43 53 95 54 89 55 88 56 44 58 76 59 56 60 75 61 57 62 60 63
REMARK SMILES IDX 74 64 93 65 58 66 59 67 73 69 94 70 61 71 45 72 46 73 54 74
REMARK SMILES IDX 47 75 49 76 55 77 48 78 50 79 51 80 52 81 53 82 77 83 78 84
REMARK SMILES IDX 86 85 79 86 81 87 87 88 80 89 82 90 83 91 84 92 85 93 62 94
REMARK SMILES IDX 63 95 71 96 64 97 66 98 72 99 65 100 67 101 68 102 69 103
REMARK SMILES IDX 70 104
REMARK H PARENT 92 57 60 68
REMARK Flexibility Score: inf
ROOT
ATOM      1  C   UNL A   1      51.741  19.975  34.713  1.00  0.00     0.202 C 
ENDROOT
BRANCH   1   2
ATOM      2  C   UNL A   1      50.448  19.954  33.890  1.00  0.00     0.261 C 
BRANCH   2   3
ATOM      3  O   UNL A   1      49.292  19.969  34.737  1.00  0.00    -0.460 OA
BRANCH   3   4
ATOM      4  C   UNL A   1      48.102  19.871  34.092  1.00  0.00     0.338 C 
ATOM      5  O   UNL A   1      47.898  19.240  33.065  1.00  0.00    -0.246 OA
BRANCH   4   6
ATOM      6  C   UNL A   1      46.998  20.516  34.884  1.00  0.00     0.067 C 
ATOM      7  C   UNL A   1      46.453  21.646  34.364  1.00  0.00     0.024 C 
BRANCH   6   8
ATOM      8  C   UNL A   1      46.599  19.857  36.165  1.00  0.00    -0.011 A 
ATOM      9  C   UNL A   1      45.965  18.367  38.530  1.00  0.00    -0.018 A 
ATOM     10  C   UNL A   1      46.941  19.375  38.526  1.00  0.00     0.009 A 
ATOM     11  C   UNL A   1      45.265  18.162  37.334  1.00  0.00     0.009 A 
ATOM     12  C   UNL A   1      47.214  20.135  37.386  1.00  0.00     0.009 A 
ATOM     13  C   UNL A   1      45.584  18.886  36.173  1.00  0.00     0.009 A 
BRANCH   9  14
ATOM     14  C   UNL A   1      45.704  17.580  39.753  1.00  0.00    -0.018 A 
ATOM     15  C   UNL A   1      45.157  16.203  42.162  1.00  0.00     0.119 A 
ATOM     16  C   UNL A   1      44.114  16.613  41.342  1.00  0.00     0.047 A 
ATOM     17  C   UNL A   1      46.472  16.414  41.762  1.00  0.00     0.047 A 
ATOM     18  C   UNL A   1      44.386  17.292  40.153  1.00  0.00     0.012 A 
ATOM     19  C   UNL A   1      46.742  17.111  40.577  1.00  0.00     0.012 A 
BRANCH  15  20
ATOM     20  O   UNL A   1      44.828  15.503  43.285  1.00  0.00    -0.491 OA
BRANCH  20  21
ATOM     21  C   UNL A   1      44.993  16.170  44.549  1.00  0.00     0.167 C 
ATOM     22  C   UNL A   1      44.575  17.635  44.484  1.00  0.00     0.052 C 
ATOM     23  C   UNL A   1      44.394  15.441  45.752  1.00  0.00     0.052 C 
ENDBRANCH  20  21
ENDBRANCH  15  20
ENDBRANCH   9  14
ENDBRANCH   6   8
BRANCH   7  24
ATOM     24  C   UNL A   1      45.225  22.316  34.829  1.00  0.00    -0.025 A 
ATOM     25  C   UNL A   1      45.350  23.093  35.991  1.00  0.00     0.009 A 
ATOM     26  C   UNL A   1      44.042  22.377  34.080  1.00  0.00     0.009 A 
ATOM     27  C   UNL A   1      44.379  24.036  36.316  1.00  0.00     0.021 A 
ATOM     28  C   UNL A   1      43.064  23.328  34.399  1.00  0.00     0.021 A 
ATOM     29  C   UNL A   1      43.263  24.180  35.491  1.00  0.00     0.067 A 
BRANCH  29  30
ATOM     30  S   UNL A   1      42.210  25.592  35.734  1.00  0.00     0.175 S 
ATOM     31  C   UNL A   1      42.572  26.136  37.379  1.00  0.00     0.163 C 
ATOM     32  O   UNL A   1      42.656  26.616  34.808  1.00  0.00    -0.224 OA
ATOM     33  O   UNL A   1      40.833  25.133  35.710  1.00  0.00    -0.224 OA
ENDBRANCH  29  30
ENDBRANCH   7  24
ENDBRANCH   4   6
ENDBRANCH   3   4
ENDBRANCH   2   3
ENDBRANCH   1   2
BRANCH   1  34
ATOM     34  O   UNL A   1      52.921  20.453  34.065  1.00  0.00    -0.374 OA
BRANCH  34  35
ATOM     35  C   UNL A   1      52.756  21.181  32.848  1.00  0.00     0.202 C 
BRANCH  35  36
ATOM     36  C   UNL A   1      52.678  22.710  32.924  1.00  0.00     0.261 C 
BRANCH  36  37
ATOM     37  O   UNL A   1      51.335  23.207  32.822  1.00  0.00    -0.460 OA
BRANCH  37  38
ATOM     38  C   UNL A   1      50.926  23.963  33.868  1.00  0.00     0.338 C 
ATOM     39  O   UNL A   1      51.537  24.183  34.906  1.00  0.00    -0.246 OA
BRANCH  38  40
ATOM     40  C   UNL A   1      49.685  24.670  33.508  1.00  0.00     0.060 A 
ATOM     41  C   UNL A   1      49.771  25.699  32.561  1.00  0.00     0.016 A 
ATOM     42  C   UNL A   1      48.465  24.354  34.108  1.00  0.00     0.016 A 
ATOM     43  C   UNL A   1      48.635  26.430  32.222  1.00  0.00     0.010 A 
ATOM     44  C   UNL A   1      47.329  25.098  33.775  1.00  0.00     0.010 A 
ATOM     45  C   UNL A   1      47.412  26.149  32.844  1.00  0.00    -0.014 A 
BRANCH  45  46
ATOM     46  C   UNL A   1      46.226  26.992  32.566  1.00  0.00     0.031 A 
ATOM     47  C   UNL A   1      45.408  26.742  31.332  1.00  0.00     0.074 A 
ATOM     48  C   UNL A   1      45.901  27.994  33.403  1.00  0.00     0.049 A 
ATOM     49  N   UNL A   1      44.374  27.400  30.879  1.00  0.00    -0.248 NA
ATOM     50  C   UNL A   1      45.809  25.599  30.495  1.00  0.00     0.031 C 
ATOM     51  C   UNL A   1      46.620  28.332  34.631  1.00  0.00     0.029 A 
ATOM     52  N   UNL A   1      44.901  28.931  33.328  1.00  0.00    -0.354 N 
ATOM     53  C   UNL A   1      44.016  26.775  29.690  1.00  0.00     0.074 A 
ATOM     54  C   UNL A   1      44.948  25.687  29.490  1.00  0.00     0.031 C 
ATOM     55  C   UNL A   1      46.059  29.423  35.178  1.00  0.00     0.029 A 
ATOM     56  C   UNL A   1      44.965  29.878  34.323  1.00  0.00     0.049 A 
ATOM     57  H   UNL A   1      44.207  28.926  32.631  1.00  0.00     0.167 HD
ATOM     58  C   UNL A   1      42.996  27.075  28.851  1.00  0.00     0.034 A 
ATOM     59  C   UNL A   1      44.244  31.002  34.505  1.00  0.00     0.034 A 
ATOM     60  C   UNL A   1      42.067  28.153  29.061  1.00  0.00     0.049 A 
ATOM     61  C   UNL A   1      43.142  31.335  33.534  1.00  0.00     0.074 A 
ATOM     62  C   UNL A   1      40.966  28.500  28.298  1.00  0.00     0.029 A 
ATOM     63  N   UNL A   1      42.138  29.072  30.097  1.00  0.00    -0.354 N 
ATOM     64  N   UNL A   1      42.734  30.661  32.486  1.00  0.00    -0.248 NA
ATOM     65  C   UNL A   1      42.382  32.567  33.787  1.00  0.00     0.031 C 
ATOM     66  C   UNL A   1      40.395  29.651  28.849  1.00  0.00     0.029 A 
ATOM     67  C   UNL A   1      41.118  30.001  29.979  1.00  0.00     0.049 A 
ATOM     68  H   UNL A   1      42.815  29.065  30.811  1.00  0.00     0.167 HD
ATOM     69  C   UNL A   1      41.655  31.372  31.972  1.00  0.00     0.074 A 
ATOM     70  C   UNL A   1      41.456  32.513  32.840  1.00  0.00     0.031 C 
ATOM     71  C   UNL A   1      40.905  31.112  30.871  1.00  0.00     0.034 A 
BRANCH  58  72
ATOM     72  C   UNL A   1      42.820  26.215  27.627  1.00  0.00     0.023 A 
ATOM     73  C   UNL A   1      43.385  26.618  26.400  1.00  0.00     0.012 A 
ATOM     74  C   UNL A   1      42.153  24.977  27.707  1.00  0.00     0.148 A 
ATOM     75  C   UNL A   1      43.263  25.818  25.265  1.00  0.00     0.002 A 
ATOM     76  C   UNL A   1      42.073  24.164  26.582  1.00  0.00     0.091 A 
ATOM     77  F   UNL A   1      41.603  24.621  28.876  1.00  0.00    -0.205 F 
ATOM     78  C   UNL A   1      42.617  24.588  25.358  1.00  0.00     0.022 A 
BRANCH  76  79
ATOM     79  S   UNL A   1      41.330  22.530  26.618  1.00  0.00     0.127 S 
ATOM     80  O   UNL A   1      41.869  21.933  25.397  1.00  0.00    -0.237 OA
ATOM     81  O   UNL A   1      41.870  21.975  27.859  1.00  0.00    -0.237 OA
ATOM     82  O   UNL A   1      39.889  22.743  26.624  1.00  0.00    -0.744 OA
ENDBRANCH  76  79
ENDBRANCH  58  72
BRANCH  59  83
ATOM     83  C   UNL A   1      44.536  31.893  35.663  1.00  0.00     0.023 A 
ATOM     84  C   UNL A   1      45.619  32.791  35.596  1.00  0.00     0.012 A 
ATOM     85  C   UNL A   1      43.735  31.868  36.822  1.00  0.00     0.148 A 
ATOM     86  C   UNL A   1      45.917  33.625  36.674  1.00  0.00     0.002 A 
ATOM     87  C   UNL A   1      44.001  32.743  37.867  1.00  0.00     0.091 A 
ATOM     88  F   UNL A   1      42.719  30.994  36.872  1.00  0.00    -0.205 F 
ATOM     89  C   UNL A   1      45.103  33.610  37.804  1.00  0.00     0.022 A 
BRANCH  87  90
ATOM     90  S   UNL A   1      42.927  32.885  39.300  1.00  0.00     0.127 S 
ATOM     91  O   UNL A   1      43.877  33.227  40.355  1.00  0.00    -0.237 OA
ATOM     92  O   UNL A   1      42.032  33.971  38.899  1.00  0.00    -0.237 OA
ATOM     93  O   UNL A   1      42.273  31.590  39.433  1.00  0.00    -0.744 OA
ENDBRANCH  87  90
ENDBRANCH  59  83
BRANCH  71  94
ATOM     94  C   UNL A   1      39.783  32.067  30.548  1.00  0.00     0.023 A 
ATOM     95  C   UNL A   1      40.055  33.253  29.838  1.00  0.00     0.012 A 
ATOM     96  C   UNL A   1      38.452  31.756  30.889  1.00  0.00     0.148 A 
ATOM     97  C   UNL A   1      39.025  34.132  29.503  1.00  0.00     0.002 A 
ATOM     98  C   UNL A   1      37.424  32.612  30.508  1.00  0.00     0.091 A 
ATOM     99  F   UNL A   1      38.214  30.631  31.577  1.00  0.00    -0.205 F 
ATOM    100  C   UNL A   1      37.711  33.807  29.828  1.00  0.00     0.022 A 
BRANCH  98 101
ATOM    101  S   UNL A   1      35.693  32.232  30.797  1.00  0.00     0.127 S 
ATOM    102  O   UNL A   1      35.040  33.458  30.340  1.00  0.00    -0.237 OA
ATOM    103  O   UNL A   1      35.482  31.071  29.932  1.00  0.00    -0.237 OA
ATOM    104  O   UNL A   1      35.572  31.956  32.222  1.00  0.00    -0.744 OA
ENDBRANCH  98 101
ENDBRANCH  71  94
ENDBRANCH  45  46
ENDBRANCH  38  40
ENDBRANCH  37  38
ENDBRANCH  36  37
ENDBRANCH  35  36
ENDBRANCH  34  35
ENDBRANCH   1  34
TORSDOF 23
ENDMDL
MODEL 3
REMARK VINA RESULT:      -8.4      7.910     13.072
REMARK SMILES CC(C)Oc1ccc(-c2ccc(/C(=C\c3ccc(S(C)(=O)=O)cc3)C(=O)OCCOCCOC(=O)c3ccc(-c4c5nc(c(-c6cccc(S(=O)(=O)[O-])c6F)c6ccc([nH]6)c(-c6cccc(S(=O)(=O)[O-])c6F)c6nc(c(-c7cccc(S(=O)(=O)[O-])c7F)c7ccc4[nH]7)C=C6)C=C5)cc3)cc2)cc1
REMARK SMILES IDX 29 1 28 2 27 3 25 4 26 5 13 6 14 7 12 8 9 9 10 10 100 11
REMARK SMILES IDX 11 12 99 13 8 14 5 15 6 16 102 17 7 18 101 19 4 20 2 21 1 22
REMARK SMILES IDX 3 23 15 24 16 25 24 26 17 27 23 28 18 29 19 30 20 31 21 32
REMARK SMILES IDX 22 33 30 34 31 35 32 36 33 37 34 38 35 39 36 40 37 41 98 42
REMARK SMILES IDX 38 43 97 44 39 45 40 46 41 47 91 48 42 49 96 50 90 51 92 52
REMARK SMILES IDX 43 53 95 54 89 55 88 56 44 58 76 59 56 60 75 61 57 62 60 63
REMARK SMILES IDX 74 64 93 65 58 66 59 67 73 69 94 70 61 71 45 72 46 73 54 74
REMARK SMILES IDX 47 75 49 76 55 77 48 78 50 79 51 80 52 81 53 82 77 83 78 84
REMARK SMILES IDX 86 85 79 86 81 87 87 88 80 89 82 90 83 91 84 92 85 93 62 94
REMARK SMILES IDX 63 95 71 96 64 97 66 98 72 99 65 100 67 101 68 102 69 103
REMARK SMILES IDX 70 104
REMARK H PARENT 92 57 60 68
REMARK Flexibility Score: inf
ROOT
ATOM      1  C   UNL A   1      52.311  20.992  34.797  1.00  0.00     0.202 C 
ENDROOT
BRANCH   1   2
ATOM      2  C   UNL A   1      50.982  20.838  34.052  1.00  0.00     0.261 C 
BRANCH   2   3
ATOM      3  O   UNL A   1      49.891  20.659  34.965  1.00  0.00    -0.460 OA
BRANCH   3   4
ATOM      4  C   UNL A   1      48.706  20.329  34.391  1.00  0.00     0.338 C 
ATOM      5  O   UNL A   1      48.559  19.565  33.447  1.00  0.00    -0.246 OA
BRANCH   4   6
ATOM      6  C   UNL A   1      47.549  20.903  35.162  1.00  0.00     0.067 C 
ATOM      7  C   UNL A   1      46.960  22.012  34.645  1.00  0.00     0.024 C 
BRANCH   6   8
ATOM      8  C   UNL A   1      47.150  20.202  36.420  1.00  0.00    -0.011 A 
ATOM      9  C   UNL A   1      46.480  18.623  38.718  1.00  0.00    -0.018 A 
ATOM     10  C   UNL A   1      47.575  19.501  38.713  1.00  0.00     0.009 A 
ATOM     11  C   UNL A   1      45.686  18.597  37.564  1.00  0.00     0.009 A 
ATOM     12  C   UNL A   1      47.870  20.307  37.611  1.00  0.00     0.009 A 
ATOM     13  C   UNL A   1      46.021  19.364  36.435  1.00  0.00     0.009 A 
BRANCH   9  14
ATOM     14  C   UNL A   1      46.197  17.783  39.900  1.00  0.00    -0.018 A 
ATOM     15  C   UNL A   1      45.735  16.062  42.095  1.00  0.00     0.119 A 
ATOM     16  C   UNL A   1      46.983  16.646  41.919  1.00  0.00     0.047 A 
ATOM     17  C   UNL A   1      44.697  16.378  41.227  1.00  0.00     0.047 A 
ATOM     18  C   UNL A   1      47.209  17.495  40.835  1.00  0.00     0.012 A 
ATOM     19  C   UNL A   1      44.931  17.217  40.129  1.00  0.00     0.012 A 
BRANCH  15  20
ATOM     20  O   UNL A   1      45.565  15.280  43.199  1.00  0.00    -0.491 OA
BRANCH  20  21
ATOM     21  C   UNL A   1      44.565  15.690  44.149  1.00  0.00     0.167 C 
ATOM     22  C   UNL A   1      44.435  17.208  44.227  1.00  0.00     0.052 C 
ATOM     23  C   UNL A   1      43.211  14.992  44.011  1.00  0.00     0.052 C 
ENDBRANCH  20  21
ENDBRANCH  15  20
ENDBRANCH   9  14
ENDBRANCH   6   8
BRANCH   7  24
ATOM     24  C   UNL A   1      45.688  22.609  35.087  1.00  0.00    -0.025 A 
ATOM     25  C   UNL A   1      45.763  23.477  36.188  1.00  0.00     0.009 A 
ATOM     26  C   UNL A   1      44.493  22.518  34.360  1.00  0.00     0.009 A 
ATOM     27  C   UNL A   1      44.721  24.357  36.465  1.00  0.00     0.021 A 
ATOM     28  C   UNL A   1      43.443  23.404  34.631  1.00  0.00     0.021 A 
ATOM     29  C   UNL A   1      43.584  24.348  35.654  1.00  0.00     0.067 A 
BRANCH  29  30
ATOM     30  S   UNL A   1      42.420  25.681  35.818  1.00  0.00     0.175 S 
ATOM     31  C   UNL A   1      40.856  24.879  36.029  1.00  0.00     0.163 C 
ATOM     32  O   UNL A   1      42.744  26.376  37.049  1.00  0.00    -0.224 OA
ATOM     33  O   UNL A   1      42.384  26.401  34.558  1.00  0.00    -0.224 OA
ENDBRANCH  29  30
ENDBRANCH   7  24
ENDBRANCH   4   6
ENDBRANCH   3   4
ENDBRANCH   2   3
ENDBRANCH   1   2
BRANCH   1  34
ATOM     34  O   UNL A   1      53.468  21.297  34.017  1.00  0.00    -0.374 OA
BRANCH  34  35
ATOM     35  C   UNL A   1      53.258  21.802  32.698  1.00  0.00     0.202 C 
BRANCH  35  36
ATOM     36  C   UNL A   1      53.257  23.322  32.496  1.00  0.00     0.261 C 
BRANCH  36  37
ATOM     37  O   UNL A   1      51.935  23.869  32.380  1.00  0.00    -0.460 OA
BRANCH  37  38
ATOM     38  C   UNL A   1      51.463  24.460  33.503  1.00  0.00     0.338 C 
ATOM     39  O   UNL A   1      52.035  24.566  34.581  1.00  0.00    -0.246 OA
BRANCH  38  40
ATOM     40  C   UNL A   1      50.199  25.153  33.200  1.00  0.00     0.060 A 
ATOM     41  C   UNL A   1      49.009  24.566  33.651  1.00  0.00     0.016 A 
ATOM     42  C   UNL A   1      50.175  26.338  32.464  1.00  0.00     0.016 A 
ATOM     43  C   UNL A   1      47.784  25.156  33.349  1.00  0.00     0.010 A 
ATOM     44  C   UNL A   1      48.943  26.921  32.152  1.00  0.00     0.010 A 
ATOM     45  C   UNL A   1      47.742  26.324  32.578  1.00  0.00    -0.014 A 
BRANCH  45  46
ATOM     46  C   UNL A   1      46.440  26.896  32.165  1.00  0.00     0.031 A 
ATOM     47  C   UNL A   1      45.764  27.915  33.038  1.00  0.00     0.074 A 
ATOM     48  C   UNL A   1      45.854  26.483  31.026  1.00  0.00     0.049 A 
ATOM     49  N   UNL A   1      44.600  28.490  32.886  1.00  0.00    -0.248 NA
ATOM     50  C   UNL A   1      46.496  28.342  34.242  1.00  0.00     0.031 C 
ATOM     51  C   UNL A   1      46.414  25.500  30.100  1.00  0.00     0.029 A 
ATOM     52  N   UNL A   1      44.643  26.817  30.474  1.00  0.00    -0.354 N 
ATOM     53  C   UNL A   1      44.442  29.324  33.987  1.00  0.00     0.074 A 
ATOM     54  C   UNL A   1      45.629  29.175  34.802  1.00  0.00     0.031 C 
ATOM     55  C   UNL A   1      45.532  25.283  29.110  1.00  0.00     0.029 A 
ATOM     56  C   UNL A   1      44.335  26.086  29.351  1.00  0.00     0.049 A 
ATOM     57  H   UNL A   1      44.051  27.510  30.846  1.00  0.00     0.167 HD
ATOM     58  C   UNL A   1      43.407  30.146  34.284  1.00  0.00     0.034 A 
ATOM     59  C   UNL A   1      43.204  26.044  28.620  1.00  0.00     0.034 A 
ATOM     60  C   UNL A   1      42.235  30.297  33.464  1.00  0.00     0.049 A 
ATOM     61  C   UNL A   1      42.052  26.939  28.995  1.00  0.00     0.074 A 
ATOM     62  C   UNL A   1      41.160  31.148  33.651  1.00  0.00     0.029 A 
ATOM     63  N   UNL A   1      41.971  29.568  32.315  1.00  0.00    -0.354 N 
ATOM     64  N   UNL A   1      41.970  27.816  29.966  1.00  0.00    -0.248 NA
ATOM     65  C   UNL A   1      40.848  26.859  28.156  1.00  0.00     0.031 C 
ATOM     66  C   UNL A   1      40.227  30.906  32.637  1.00  0.00     0.029 A 
ATOM     67  C   UNL A   1      40.738  29.930  31.796  1.00  0.00     0.049 A 
ATOM     68  H   UNL A   1      42.570  28.892  31.925  1.00  0.00     0.167 HD
ATOM     69  C   UNL A   1      40.719  28.411  29.838  1.00  0.00     0.074 A 
ATOM     70  C   UNL A   1      40.090  27.813  28.679  1.00  0.00     0.031 C 
ATOM     71  C   UNL A   1      40.137  29.356  30.619  1.00  0.00     0.034 A 
BRANCH  58  72
ATOM     72  C   UNL A   1      43.501  30.961  35.547  1.00  0.00     0.023 A 
ATOM     73  C   UNL A   1      42.934  30.472  36.740  1.00  0.00     0.012 A 
ATOM     74  C   UNL A   1      44.206  32.181  35.566  1.00  0.00     0.148 A 
ATOM     75  C   UNL A   1      43.040  31.195  37.927  1.00  0.00     0.002 A 
ATOM     76  C   UNL A   1      44.346  32.875  36.762  1.00  0.00     0.091 A 
ATOM     77  F   UNL A   1      44.719  32.641  34.417  1.00  0.00    -0.205 F 
ATOM     78  C   UNL A   1      43.755  32.391  37.941  1.00  0.00     0.022 A 
BRANCH  76  79
ATOM     79  S   UNL A   1      45.311  34.384  36.899  1.00  0.00     0.127 S 
ATOM     80  O   UNL A   1      46.653  33.908  36.564  1.00  0.00    -0.237 OA
ATOM     81  O   UNL A   1      44.694  35.236  35.881  1.00  0.00    -0.237 OA
ATOM     82  O   UNL A   1      45.138  34.849  38.268  1.00  0.00    -0.744 OA
ENDBRANCH  76  79
ENDBRANCH  58  72
BRANCH  59  83
ATOM     83  C   UNL A   1      43.109  25.127  27.449  1.00  0.00     0.023 A 
ATOM     84  C   UNL A   1      43.687  25.502  26.221  1.00  0.00     0.012 A 
ATOM     85  C   UNL A   1      42.464  23.878  27.553  1.00  0.00     0.148 A 
ATOM     86  C   UNL A   1      43.599  24.664  25.109  1.00  0.00     0.002 A 
ATOM     87  C   UNL A   1      42.433  23.023  26.458  1.00  0.00     0.091 A 
ATOM     88  F   UNL A   1      41.906  23.547  28.725  1.00  0.00    -0.205 F 
ATOM     89  C   UNL A   1      42.982  23.421  25.230  1.00  0.00     0.022 A 
BRANCH  87  90
ATOM     90  S   UNL A   1      41.779  21.353  26.562  1.00  0.00     0.127 S 
ATOM     91  O   UNL A   1      40.340  21.588  26.483  1.00  0.00    -0.237 OA
ATOM     92  O   UNL A   1      42.368  20.725  25.378  1.00  0.00    -0.237 OA
ATOM     93  O   UNL A   1      42.264  20.817  27.827  1.00  0.00    -0.744 OA
ENDBRANCH  87  90
ENDBRANCH  59  83
BRANCH  71  94
ATOM     94  C   UNL A   1      38.754  29.822  30.238  1.00  0.00     0.023 A 
ATOM     95  C   UNL A   1      37.654  28.956  30.397  1.00  0.00     0.012 A 
ATOM     96  C   UNL A   1      38.536  31.139  29.788  1.00  0.00     0.148 A 
ATOM     97  C   UNL A   1      36.364  29.381  30.081  1.00  0.00     0.002 A 
ATOM     98  C   UNL A   1      37.242  31.572  29.522  1.00  0.00     0.091 A 
ATOM     99  F   UNL A   1      39.597  31.944  29.629  1.00  0.00    -0.205 F 
ATOM    100  C   UNL A   1      36.157  30.691  29.654  1.00  0.00     0.022 A 
BRANCH  98 101
ATOM    101  S   UNL A   1      36.866  33.267  29.059  1.00  0.00     0.127 S 
ATOM    102  O   UNL A   1      36.467  33.843  30.343  1.00  0.00    -0.237 OA
ATOM    103  O   UNL A   1      38.154  33.742  28.553  1.00  0.00    -0.237 OA
ATOM    104  O   UNL A   1      35.813  33.188  28.058  1.00  0.00    -0.744 OA
ENDBRANCH  98 101
ENDBRANCH  71  94
ENDBRANCH  45  46
ENDBRANCH  38  40
ENDBRANCH  37  38
ENDBRANCH  36  37
ENDBRANCH  35  36
ENDBRANCH  34  35
ENDBRANCH   1  34
TORSDOF 23
ENDMDL
