MODEL 1
REMARK VINA RESULT:     -11.2      0.000      0.000
REMARK SMILES CN(CC(=O)OCCOCCOC(=O)c1ccc(-c2c3nc(c(-c4cccc(S(=O)(=O)[O-])c4F)c4ccc([nH]4)c(-c4cccc(S(=O)(=O)[O-])c4F)c4nc(c(-c5cccc(S(=O)(=O)[O-])c5F)c5ccc2[nH]5)C=C4)C=C3)cc1)c1nc2cc(N)ccc2[nH]1
REMARK SMILES IDX 9 1 8 2 7 3 6 4 4 5 5 6 3 7 2 8 1 9 78 10 79 11 87 12 80 13
REMARK SMILES IDX 86 14 81 16 85 17 82 18 84 19 83 20 10 23 11 24 12 25 13 26
REMARK SMILES IDX 14 27 15 28 16 29 77 30 17 31 76 32 18 33 19 34 20 35 70 36
REMARK SMILES IDX 21 37 75 38 69 39 71 40 22 41 74 42 68 43 67 44 23 46 55 47
REMARK SMILES IDX 35 48 54 49 36 50 39 51 53 52 72 53 37 54 38 55 52 57 73 58
REMARK SMILES IDX 40 59 24 60 25 61 33 62 26 63 28 64 34 65 27 66 29 67 30 68
REMARK SMILES IDX 31 69 32 70 56 71 57 72 65 73 58 74 60 75 66 76 59 77 61 78
REMARK SMILES IDX 62 79 63 80 64 81 41 82 42 83 50 84 43 85 45 86 51 87 44 88
REMARK SMILES IDX 46 89 47 90 48 91 49 92
REMARK H PARENT 87 15 83 21 83 22 71 45 39 56
REMARK Flexibility Score: inf
ROOT
ATOM      1  O   UNL A   1      35.480  21.559  25.523  1.00  0.00    -0.374 OA
ENDROOT
BRANCH   1   2
ATOM      2  C   UNL A   1      34.541  21.443  26.585  1.00  0.00     0.202 C 
BRANCH   2   3
ATOM      3  C   UNL A   1      33.853  22.703  27.136  1.00  0.00     0.261 C 
BRANCH   3   4
ATOM      4  O   UNL A   1      32.452  22.557  27.467  1.00  0.00    -0.462 OA
BRANCH   4   5
ATOM      5  C   UNL A   1      31.606  23.348  26.743  1.00  0.00     0.325 C 
ATOM      6  O   UNL A   1      30.819  24.147  27.253  1.00  0.00    -0.250 OA
BRANCH   5   7
ATOM      7  C   UNL A   1      31.601  23.127  25.231  1.00  0.00     0.241 C 
BRANCH   7   8
ATOM      8  N   UNL A   1      32.259  24.113  24.355  1.00  0.00    -0.334 N 
ATOM      9  C   UNL A   1      33.444  23.693  23.630  1.00  0.00     0.147 C 
BRANCH   8  10
ATOM     10  C   UNL A   1      31.747  25.367  24.268  1.00  0.00     0.204 A 
ATOM     11  N   UNL A   1      32.388  26.481  23.985  1.00  0.00    -0.213 NA
ATOM     12  N   UNL A   1      30.395  25.623  24.378  1.00  0.00    -0.324 N 
ATOM     13  C   UNL A   1      31.416  27.378  23.599  1.00  0.00     0.093 A 
ATOM     14  C   UNL A   1      30.150  26.872  23.858  1.00  0.00     0.067 A 
ATOM     15  H   UNL A   1      29.723  25.016  24.762  1.00  0.00     0.170 HD
ATOM     16  C   UNL A   1      31.541  28.574  22.874  1.00  0.00     0.056 A 
ATOM     17  C   UNL A   1      28.976  27.542  23.518  1.00  0.00     0.030 A 
ATOM     18  C   UNL A   1      30.387  29.160  22.337  1.00  0.00     0.034 A 
ATOM     19  C   UNL A   1      29.128  28.700  22.740  1.00  0.00     0.028 A 
BRANCH  18  20
ATOM     20  N   UNL A   1      30.492  30.251  21.476  1.00  0.00    -0.399 N 
ATOM     21  H   UNL A   1      31.107  30.989  21.689  1.00  0.00     0.156 HD
ATOM     22  H   UNL A   1      29.950  30.284  20.654  1.00  0.00     0.156 HD
ENDBRANCH  18  20
ENDBRANCH   8  10
ENDBRANCH   7   8
ENDBRANCH   5   7
ENDBRANCH   4   5
ENDBRANCH   3   4
ENDBRANCH   2   3
ENDBRANCH   1   2
BRANCH   1  23
ATOM     23  C   UNL A   1      36.042  20.360  25.008  1.00  0.00     0.202 C 
BRANCH  23  24
ATOM     24  C   UNL A   1      37.569  20.207  24.968  1.00  0.00     0.261 C 
BRANCH  24  25
ATOM     25  O   UNL A   1      38.321  21.351  25.329  1.00  0.00    -0.460 OA
BRANCH  25  26
ATOM     26  C   UNL A   1      39.406  21.077  26.077  1.00  0.00     0.338 C 
ATOM     27  O   UNL A   1      40.005  20.022  26.204  1.00  0.00    -0.246 OA
BRANCH  26  28
ATOM     28  C   UNL A   1      39.834  22.348  26.647  1.00  0.00     0.060 A 
ATOM     29  C   UNL A   1      39.208  23.505  26.183  1.00  0.00     0.016 A 
ATOM     30  C   UNL A   1      40.831  22.381  27.626  1.00  0.00     0.016 A 
ATOM     31  C   UNL A   1      39.630  24.732  26.664  1.00  0.00     0.010 A 
ATOM     32  C   UNL A   1      41.248  23.612  28.112  1.00  0.00     0.010 A 
ATOM     33  C   UNL A   1      40.677  24.787  27.594  1.00  0.00    -0.014 A 
BRANCH  33  34
ATOM     34  C   UNL A   1      41.274  26.094  27.907  1.00  0.00     0.031 A 
ATOM     35  C   UNL A   1      42.666  26.376  27.428  1.00  0.00     0.074 A 
ATOM     36  C   UNL A   1      40.553  27.008  28.576  1.00  0.00     0.049 A 
ATOM     37  N   UNL A   1      43.377  27.462  27.560  1.00  0.00    -0.248 NA
ATOM     38  C   UNL A   1      43.353  25.288  26.709  1.00  0.00     0.031 C 
ATOM     39  C   UNL A   1      39.193  26.804  29.077  1.00  0.00     0.029 A 
ATOM     40  N   UNL A   1      40.869  28.281  28.957  1.00  0.00    -0.354 N 
ATOM     41  C   UNL A   1      44.602  27.181  26.968  1.00  0.00     0.074 A 
ATOM     42  C   UNL A   1      44.548  25.817  26.494  1.00  0.00     0.031 C 
ATOM     43  C   UNL A   1      38.793  27.917  29.713  1.00  0.00     0.029 A 
ATOM     44  C   UNL A   1      39.879  28.893  29.686  1.00  0.00     0.049 A 
ATOM     45  H   UNL A   1      41.722  28.718  28.730  1.00  0.00     0.167 HD
ATOM     46  C   UNL A   1      45.668  27.999  26.821  1.00  0.00     0.034 A 
ATOM     47  C   UNL A   1      39.870  30.100  30.279  1.00  0.00     0.034 A 
ATOM     48  C   UNL A   1      45.689  29.356  27.294  1.00  0.00     0.049 A 
ATOM     49  C   UNL A   1      41.074  30.985  30.114  1.00  0.00     0.074 A 
ATOM     50  C   UNL A   1      46.691  30.298  27.163  1.00  0.00     0.029 A 
ATOM     51  N   UNL A   1      44.660  29.958  28.004  1.00  0.00    -0.354 N 
ATOM     52  N   UNL A   1      42.185  30.752  29.456  1.00  0.00    -0.248 NA
ATOM     53  C   UNL A   1      41.013  32.310  30.742  1.00  0.00     0.031 C 
ATOM     54  C   UNL A   1      46.285  31.456  27.835  1.00  0.00     0.029 A 
ATOM     55  C   UNL A   1      45.010  31.253  28.340  1.00  0.00     0.049 A 
ATOM     56  H   UNL A   1      43.806  29.526  28.236  1.00  0.00     0.167 HD
ATOM     57  C   UNL A   1      42.943  31.911  29.561  1.00  0.00     0.074 A 
ATOM     58  C   UNL A   1      42.151  32.852  30.329  1.00  0.00     0.031 C 
ATOM     59  C   UNL A   1      44.182  32.175  29.076  1.00  0.00     0.034 A 
BRANCH  46  60
ATOM     60  C   UNL A   1      46.885  27.447  26.128  1.00  0.00     0.023 A 
ATOM     61  C   UNL A   1      47.045  27.617  24.737  1.00  0.00     0.012 A 
ATOM     62  C   UNL A   1      47.886  26.782  26.861  1.00  0.00     0.148 A 
ATOM     63  C   UNL A   1      48.164  27.102  24.082  1.00  0.00     0.002 A 
ATOM     64  C   UNL A   1      49.022  26.315  26.210  1.00  0.00     0.091 A 
ATOM     65  F   UNL A   1      47.704  26.605  28.177  1.00  0.00    -0.205 F 
ATOM     66  C   UNL A   1      49.156  26.462  24.819  1.00  0.00     0.022 A 
BRANCH  64  67
ATOM     67  S   UNL A   1      50.389  25.544  27.081  1.00  0.00     0.127 S 
ATOM     68  O   UNL A   1      51.344  25.323  25.995  1.00  0.00    -0.237 OA
ATOM     69  O   UNL A   1      50.776  26.589  28.029  1.00  0.00    -0.237 OA
ATOM     70  O   UNL A   1      49.850  24.337  27.692  1.00  0.00    -0.744 OA
ENDBRANCH  64  67
ENDBRANCH  46  60
BRANCH  47  71
ATOM     71  C   UNL A   1      38.673  30.540  31.047  1.00  0.00     0.023 A 
ATOM     72  C   UNL A   1      38.604  30.305  32.433  1.00  0.00     0.012 A 
ATOM     73  C   UNL A   1      37.621  31.228  30.412  1.00  0.00     0.148 A 
ATOM     74  C   UNL A   1      37.493  30.721  33.168  1.00  0.00     0.002 A 
ATOM     75  C   UNL A   1      36.544  31.690  31.160  1.00  0.00     0.091 A 
ATOM     76  F   UNL A   1      37.703  31.434  29.091  1.00  0.00    -0.205 F 
ATOM     77  C   UNL A   1      36.470  31.422  32.535  1.00  0.00     0.022 A 
BRANCH  75  78
ATOM     78  S   UNL A   1      35.249  32.712  30.451  1.00  0.00     0.127 S 
ATOM     79  O   UNL A   1      35.987  33.917  30.079  1.00  0.00    -0.237 OA
ATOM     80  O   UNL A   1      34.800  31.890  29.325  1.00  0.00    -0.237 OA
ATOM     81  O   UNL A   1      34.256  32.880  31.504  1.00  0.00    -0.744 OA
ENDBRANCH  75  78
ENDBRANCH  47  71
BRANCH  59  82
ATOM     82  C   UNL A   1      44.743  33.549  29.331  1.00  0.00     0.023 A 
ATOM     83  C   UNL A   1      45.458  33.811  30.516  1.00  0.00     0.012 A 
ATOM     84  C   UNL A   1      44.619  34.559  28.357  1.00  0.00     0.148 A 
ATOM     85  C   UNL A   1      46.008  35.070  30.746  1.00  0.00     0.002 A 
ATOM     86  C   UNL A   1      45.220  35.793  28.566  1.00  0.00     0.091 A 
ATOM     87  F   UNL A   1      43.922  34.292  27.244  1.00  0.00    -0.205 F 
ATOM     88  C   UNL A   1      45.900  36.056  29.766  1.00  0.00     0.022 A 
BRANCH  86  89
ATOM     89  S   UNL A   1      45.224  37.085  27.320  1.00  0.00     0.127 S 
ATOM     90  O   UNL A   1      43.815  37.125  26.928  1.00  0.00    -0.237 OA
ATOM     91  O   UNL A   1      45.678  38.247  28.083  1.00  0.00    -0.237 OA
ATOM     92  O   UNL A   1      46.146  36.642  26.284  1.00  0.00    -0.744 OA
ENDBRANCH  86  89
ENDBRANCH  59  82
ENDBRANCH  33  34
ENDBRANCH  26  28
ENDBRANCH  25  26
ENDBRANCH  24  25
ENDBRANCH  23  24
ENDBRANCH   1  23
TORSDOF 20
ENDMDL
MODEL 2
REMARK VINA RESULT:     -11.2      2.138      3.808
REMARK SMILES CN(CC(=O)OCCOCCOC(=O)c1ccc(-c2c3nc(c(-c4cccc(S(=O)(=O)[O-])c4F)c4ccc([nH]4)c(-c4cccc(S(=O)(=O)[O-])c4F)c4nc(c(-c5cccc(S(=O)(=O)[O-])c5F)c5ccc2[nH]5)C=C4)C=C3)cc1)c1nc2cc(N)ccc2[nH]1
REMARK SMILES IDX 9 1 8 2 7 3 6 4 4 5 5 6 3 7 2 8 1 9 78 10 79 11 87 12 80 13
REMARK SMILES IDX 86 14 81 16 85 17 82 18 84 19 83 20 10 23 11 24 12 25 13 26
REMARK SMILES IDX 14 27 15 28 16 29 77 30 17 31 76 32 18 33 19 34 20 35 70 36
REMARK SMILES IDX 21 37 75 38 69 39 71 40 22 41 74 42 68 43 67 44 23 46 55 47
REMARK SMILES IDX 35 48 54 49 36 50 39 51 53 52 72 53 37 54 38 55 52 57 73 58
REMARK SMILES IDX 40 59 24 60 25 61 33 62 26 63 28 64 34 65 27 66 29 67 30 68
REMARK SMILES IDX 31 69 32 70 56 71 57 72 65 73 58 74 60 75 66 76 59 77 61 78
REMARK SMILES IDX 62 79 63 80 64 81 41 82 42 83 50 84 43 85 45 86 51 87 44 88
REMARK SMILES IDX 46 89 47 90 48 91 49 92
REMARK H PARENT 87 15 83 21 83 22 71 45 39 56
REMARK Flexibility Score: inf
ROOT
ATOM      1  O   UNL A   1      35.745  23.144  24.206  1.00  0.00    -0.374 OA
ENDROOT
BRANCH   1   2
ATOM      2  C   UNL A   1      35.505  23.940  25.361  1.00  0.00     0.202 C 
BRANCH   2   3
ATOM      3  C   UNL A   1      34.060  24.209  25.814  1.00  0.00     0.261 C 
BRANCH   3   4
ATOM      4  O   UNL A   1      33.431  23.142  26.563  1.00  0.00    -0.462 OA
BRANCH   4   5
ATOM      5  C   UNL A   1      32.067  23.207  26.616  1.00  0.00     0.325 C 
ATOM      6  O   UNL A   1      31.450  23.976  27.354  1.00  0.00    -0.250 OA
BRANCH   5   7
ATOM      7  C   UNL A   1      31.309  22.184  25.770  1.00  0.00     0.241 C 
BRANCH   7   8
ATOM      8  N   UNL A   1      31.990  21.544  24.630  1.00  0.00    -0.334 N 
ATOM      9  C   UNL A   1      31.992  22.244  23.359  1.00  0.00     0.147 C 
BRANCH   8  10
ATOM     10  C   UNL A   1      32.574  20.330  24.804  1.00  0.00     0.204 A 
ATOM     11  N   UNL A   1      32.427  19.504  25.818  1.00  0.00    -0.213 NA
ATOM     12  N   UNL A   1      33.363  19.744  23.836  1.00  0.00    -0.324 N 
ATOM     13  C   UNL A   1      32.852  18.277  25.357  1.00  0.00     0.093 A 
ATOM     14  C   UNL A   1      33.468  18.403  24.120  1.00  0.00     0.067 A 
ATOM     15  H   UNL A   1      33.780  20.207  23.073  1.00  0.00     0.170 HD
ATOM     16  C   UNL A   1      32.600  16.994  25.870  1.00  0.00     0.056 A 
ATOM     17  C   UNL A   1      33.945  17.315  23.390  1.00  0.00     0.030 A 
ATOM     18  C   UNL A   1      32.878  15.880  25.066  1.00  0.00     0.034 A 
ATOM     19  C   UNL A   1      33.625  16.044  23.894  1.00  0.00     0.028 A 
BRANCH  18  20
ATOM     20  N   UNL A   1      32.488  14.607  25.477  1.00  0.00    -0.399 N 
ATOM     21  H   UNL A   1      31.600  14.468  25.876  1.00  0.00     0.156 HD
ATOM     22  H   UNL A   1      33.103  13.845  25.369  1.00  0.00     0.156 HD
ENDBRANCH  18  20
ENDBRANCH   8  10
ENDBRANCH   7   8
ENDBRANCH   5   7
ENDBRANCH   4   5
ENDBRANCH   3   4
ENDBRANCH   2   3
ENDBRANCH   1   2
BRANCH   1  23
ATOM     23  C   UNL A   1      35.919  21.747  24.395  1.00  0.00     0.202 C 
BRANCH  23  24
ATOM     24  C   UNL A   1      36.990  21.252  25.377  1.00  0.00     0.261 C 
BRANCH  24  25
ATOM     25  O   UNL A   1      38.310  21.706  25.143  1.00  0.00    -0.460 OA
BRANCH  25  26
ATOM     26  C   UNL A   1      39.183  21.371  26.111  1.00  0.00     0.338 C 
ATOM     27  O   UNL A   1      39.606  20.267  26.416  1.00  0.00    -0.246 OA
BRANCH  26  28
ATOM     28  C   UNL A   1      39.649  22.626  26.685  1.00  0.00     0.060 A 
ATOM     29  C   UNL A   1      39.031  23.800  26.256  1.00  0.00     0.016 A 
ATOM     30  C   UNL A   1      40.673  22.628  27.637  1.00  0.00     0.016 A 
ATOM     31  C   UNL A   1      39.488  25.013  26.741  1.00  0.00     0.010 A 
ATOM     32  C   UNL A   1      41.125  23.845  28.127  1.00  0.00     0.010 A 
ATOM     33  C   UNL A   1      40.561  25.036  27.641  1.00  0.00    -0.014 A 
BRANCH  33  34
ATOM     34  C   UNL A   1      41.189  26.329  27.955  1.00  0.00     0.031 A 
ATOM     35  C   UNL A   1      42.577  26.588  27.451  1.00  0.00     0.074 A 
ATOM     36  C   UNL A   1      40.500  27.249  28.647  1.00  0.00     0.049 A 
ATOM     37  N   UNL A   1      43.312  27.658  27.579  1.00  0.00    -0.248 NA
ATOM     38  C   UNL A   1      43.228  25.495  26.708  1.00  0.00     0.031 C 
ATOM     39  C   UNL A   1      39.147  27.067  29.173  1.00  0.00     0.029 A 
ATOM     40  N   UNL A   1      40.848  28.512  29.034  1.00  0.00    -0.354 N 
ATOM     41  C   UNL A   1      44.519  27.360  26.960  1.00  0.00     0.074 A 
ATOM     42  C   UNL A   1      44.429  26.002  26.474  1.00  0.00     0.031 C 
ATOM     43  C   UNL A   1      38.781  28.181  29.828  1.00  0.00     0.029 A 
ATOM     44  C   UNL A   1      39.886  29.136  29.789  1.00  0.00     0.049 A 
ATOM     45  H   UNL A   1      41.705  28.935  28.795  1.00  0.00     0.167 HD
ATOM     46  C   UNL A   1      45.598  28.159  26.800  1.00  0.00     0.034 A 
ATOM     47  C   UNL A   1      39.911  30.337  30.394  1.00  0.00     0.034 A 
ATOM     48  C   UNL A   1      45.654  29.511  27.285  1.00  0.00     0.049 A 
ATOM     49  C   UNL A   1      41.130  31.200  30.213  1.00  0.00     0.074 A 
ATOM     50  C   UNL A   1      46.673  30.434  27.144  1.00  0.00     0.029 A 
ATOM     51  N   UNL A   1      44.652  30.125  28.022  1.00  0.00    -0.354 N 
ATOM     52  N   UNL A   1      42.222  30.952  29.530  1.00  0.00    -0.248 NA
ATOM     53  C   UNL A   1      41.107  32.520  30.855  1.00  0.00     0.031 C 
ATOM     54  C   UNL A   1      46.303  31.593  27.834  1.00  0.00     0.029 A 
ATOM     55  C   UNL A   1      45.034  31.410  28.363  1.00  0.00     0.049 A 
ATOM     56  H   UNL A   1      43.795  29.707  28.266  1.00  0.00     0.167 HD
ATOM     57  C   UNL A   1      43.005  32.095  29.631  1.00  0.00     0.074 A 
ATOM     58  C   UNL A   1      42.247  33.044  30.424  1.00  0.00     0.031 C 
ATOM     59  C   UNL A   1      44.239  32.340  29.125  1.00  0.00     0.034 A 
BRANCH  46  60
ATOM     60  C   UNL A   1      46.790  27.590  26.077  1.00  0.00     0.023 A 
ATOM     61  C   UNL A   1      46.926  27.772  24.685  1.00  0.00     0.012 A 
ATOM     62  C   UNL A   1      47.792  26.897  26.783  1.00  0.00     0.148 A 
ATOM     63  C   UNL A   1      48.022  27.243  24.003  1.00  0.00     0.002 A 
ATOM     64  C   UNL A   1      48.905  26.415  26.105  1.00  0.00     0.091 A 
ATOM     65  F   UNL A   1      47.631  26.710  28.101  1.00  0.00    -0.205 F 
ATOM     66  C   UNL A   1      49.015  26.575  24.713  1.00  0.00     0.022 A 
BRANCH  64  67
ATOM     67  S   UNL A   1      50.273  25.608  26.940  1.00  0.00     0.127 S 
ATOM     68  O   UNL A   1      49.628  24.408  27.472  1.00  0.00    -0.237 OA
ATOM     69  O   UNL A   1      51.203  25.363  25.837  1.00  0.00    -0.237 OA
ATOM     70  O   UNL A   1      50.751  26.553  27.940  1.00  0.00    -0.744 OA
ENDBRANCH  64  67
ENDBRANCH  46  60
BRANCH  47  71
ATOM     71  C   UNL A   1      38.740  30.792  31.189  1.00  0.00     0.023 A 
ATOM     72  C   UNL A   1      38.749  30.660  32.590  1.00  0.00     0.012 A 
ATOM     73  C   UNL A   1      37.630  31.394  30.563  1.00  0.00     0.148 A 
ATOM     74  C   UNL A   1      37.662  31.092  33.351  1.00  0.00     0.002 A 
ATOM     75  C   UNL A   1      36.577  31.873  31.330  1.00  0.00     0.091 A 
ATOM     76  F   UNL A   1      37.638  31.503  29.227  1.00  0.00    -0.205 F 
ATOM     77  C   UNL A   1      36.582  31.708  32.723  1.00  0.00     0.022 A 
BRANCH  75  78
ATOM     78  S   UNL A   1      35.209  32.794  30.618  1.00  0.00     0.127 S 
ATOM     79  O   UNL A   1      35.846  34.066  30.284  1.00  0.00    -0.237 OA
ATOM     80  O   UNL A   1      34.852  31.961  29.468  1.00  0.00    -0.237 OA
ATOM     81  O   UNL A   1      34.188  32.853  31.656  1.00  0.00    -0.744 OA
ENDBRANCH  75  78
ENDBRANCH  47  71
BRANCH  59  82
ATOM     82  C   UNL A   1      44.831  33.701  29.381  1.00  0.00     0.023 A 
ATOM     83  C   UNL A   1      45.500  33.961  30.594  1.00  0.00     0.012 A 
ATOM     84  C   UNL A   1      44.785  34.695  28.386  1.00  0.00     0.148 A 
ATOM     85  C   UNL A   1      46.080  35.207  30.827  1.00  0.00     0.002 A 
ATOM     86  C   UNL A   1      45.414  35.913  28.601  1.00  0.00     0.091 A 
ATOM     87  F   UNL A   1      44.130  34.430  27.246  1.00  0.00    -0.205 F 
ATOM     88  C   UNL A   1      46.048  36.177  29.826  1.00  0.00     0.022 A 
BRANCH  86  89
ATOM     89  S   UNL A   1      45.516  37.182  27.335  1.00  0.00     0.127 S 
ATOM     90  O   UNL A   1      44.103  37.478  27.097  1.00  0.00    -0.237 OA
ATOM     91  O   UNL A   1      46.255  38.242  28.020  1.00  0.00    -0.237 OA
ATOM     92  O   UNL A   1      46.222  36.577  26.214  1.00  0.00    -0.744 OA
ENDBRANCH  86  89
ENDBRANCH  59  82
ENDBRANCH  33  34
ENDBRANCH  26  28
ENDBRANCH  25  26
ENDBRANCH  24  25
ENDBRANCH  23  24
ENDBRANCH   1  23
TORSDOF 20
ENDMDL
MODEL 3
REMARK VINA RESULT:     -11.1      1.443      7.758
REMARK SMILES CN(CC(=O)OCCOCCOC(=O)c1ccc(-c2c3nc(c(-c4cccc(S(=O)(=O)[O-])c4F)c4ccc([nH]4)c(-c4cccc(S(=O)(=O)[O-])c4F)c4nc(c(-c5cccc(S(=O)(=O)[O-])c5F)c5ccc2[nH]5)C=C4)C=C3)cc1)c1nc2cc(N)ccc2[nH]1
REMARK SMILES IDX 9 1 8 2 7 3 6 4 4 5 5 6 3 7 2 8 1 9 78 10 79 11 87 12 80 13
REMARK SMILES IDX 86 14 81 16 85 17 82 18 84 19 83 20 10 23 11 24 12 25 13 26
REMARK SMILES IDX 14 27 15 28 16 29 77 30 17 31 76 32 18 33 19 34 20 35 70 36
REMARK SMILES IDX 21 37 75 38 69 39 71 40 22 41 74 42 68 43 67 44 23 46 55 47
REMARK SMILES IDX 35 48 54 49 36 50 39 51 53 52 72 53 37 54 38 55 52 57 73 58
REMARK SMILES IDX 40 59 24 60 25 61 33 62 26 63 28 64 34 65 27 66 29 67 30 68
REMARK SMILES IDX 31 69 32 70 56 71 57 72 65 73 58 74 60 75 66 76 59 77 61 78
REMARK SMILES IDX 62 79 63 80 64 81 41 82 42 83 50 84 43 85 45 86 51 87 44 88
REMARK SMILES IDX 46 89 47 90 48 91 49 92
REMARK H PARENT 87 15 83 21 83 22 71 45 39 56
REMARK Flexibility Score: inf
ROOT
ATOM      1  O   UNL A   1      35.217  21.668  25.600  1.00  0.00    -0.374 OA
ENDROOT
BRANCH   1   2
ATOM      2  C   UNL A   1      34.413  21.506  26.762  1.00  0.00     0.202 C 
BRANCH   2   3
ATOM      3  C   UNL A   1      33.668  22.715  27.349  1.00  0.00     0.261 C 
BRANCH   3   4
ATOM      4  O   UNL A   1      32.263  22.509  27.633  1.00  0.00    -0.462 OA
BRANCH   4   5
ATOM      5  C   UNL A   1      31.409  23.247  26.864  1.00  0.00     0.325 C 
ATOM      6  O   UNL A   1      30.776  24.215  27.288  1.00  0.00    -0.250 OA
BRANCH   5   7
ATOM      7  C   UNL A   1      31.182  22.750  25.437  1.00  0.00     0.241 C 
BRANCH   7   8
ATOM      8  N   UNL A   1      31.671  23.558  24.305  1.00  0.00    -0.334 N 
ATOM      9  C   UNL A   1      32.497  22.902  23.309  1.00  0.00     0.147 C 
BRANCH   8  10
ATOM     10  C   UNL A   1      31.345  24.875  24.242  1.00  0.00     0.204 A 
ATOM     11  N   UNL A   1      32.145  25.892  24.002  1.00  0.00    -0.213 NA
ATOM     12  N   UNL A   1      30.041  25.319  24.332  1.00  0.00    -0.324 N 
ATOM     13  C   UNL A   1      31.319  26.928  23.622  1.00  0.00     0.093 A 
ATOM     14  C   UNL A   1      29.988  26.602  23.842  1.00  0.00     0.067 A 
ATOM     15  H   UNL A   1      29.280  24.804  24.687  1.00  0.00     0.170 HD
ATOM     16  C   UNL A   1      31.631  28.111  22.932  1.00  0.00     0.056 A 
ATOM     17  C   UNL A   1      28.930  27.441  23.497  1.00  0.00     0.030 A 
ATOM     18  C   UNL A   1      30.585  28.868  22.388  1.00  0.00     0.034 A 
ATOM     19  C   UNL A   1      29.264  28.584  22.754  1.00  0.00     0.028 A 
BRANCH  18  20
ATOM     20  N   UNL A   1      30.865  29.954  21.559  1.00  0.00    -0.399 N 
ATOM     21  H   UNL A   1      31.606  30.562  21.779  1.00  0.00     0.156 HD
ATOM     22  H   UNL A   1      30.319  30.112  20.755  1.00  0.00     0.156 HD
ENDBRANCH  18  20
ENDBRANCH   8  10
ENDBRANCH   7   8
ENDBRANCH   5   7
ENDBRANCH   4   5
ENDBRANCH   3   4
ENDBRANCH   2   3
ENDBRANCH   1   2
BRANCH   1  23
ATOM     23  C   UNL A   1      35.743  20.495  24.995  1.00  0.00     0.202 C 
BRANCH  23  24
ATOM     24  C   UNL A   1      37.262  20.277  24.983  1.00  0.00     0.261 C 
BRANCH  24  25
ATOM     25  O   UNL A   1      38.057  21.391  25.345  1.00  0.00    -0.460 OA
BRANCH  25  26
ATOM     26  C   UNL A   1      39.199  21.064  25.978  1.00  0.00     0.338 C 
ATOM     27  O   UNL A   1      39.770  19.987  26.025  1.00  0.00    -0.246 OA
BRANCH  26  28
ATOM     28  C   UNL A   1      39.725  22.307  26.528  1.00  0.00     0.060 A 
ATOM     29  C   UNL A   1      39.156  23.500  26.082  1.00  0.00     0.016 A 
ATOM     30  C   UNL A   1      40.754  22.279  27.473  1.00  0.00     0.016 A 
ATOM     31  C   UNL A   1      39.670  24.699  26.544  1.00  0.00     0.010 A 
ATOM     32  C   UNL A   1      41.264  23.482  27.939  1.00  0.00     0.010 A 
ATOM     33  C   UNL A   1      40.750  24.690  27.437  1.00  0.00    -0.014 A 
BRANCH  33  34
ATOM     34  C   UNL A   1      41.437  25.958  27.725  1.00  0.00     0.031 A 
ATOM     35  C   UNL A   1      40.699  27.010  28.497  1.00  0.00     0.074 A 
ATOM     36  C   UNL A   1      42.707  26.128  27.326  1.00  0.00     0.049 A 
ATOM     37  N   UNL A   1      41.111  28.184  28.889  1.00  0.00    -0.248 NA
ATOM     38  C   UNL A   1      39.307  26.703  28.873  1.00  0.00     0.031 C 
ATOM     39  C   UNL A   1      43.489  25.151  26.568  1.00  0.00     0.029 A 
ATOM     40  N   UNL A   1      43.555  27.186  27.493  1.00  0.00    -0.354 N 
ATOM     41  C   UNL A   1      40.027  28.766  29.532  1.00  0.00     0.074 A 
ATOM     42  C   UNL A   1      38.930  27.828  29.460  1.00  0.00     0.031 C 
ATOM     43  C   UNL A   1      44.706  25.663  26.324  1.00  0.00     0.029 A 
ATOM     44  C   UNL A   1      44.773  27.010  26.884  1.00  0.00     0.049 A 
ATOM     45  H   UNL A   1      43.317  27.996  28.001  1.00  0.00     0.167 HD
ATOM     46  C   UNL A   1      39.962  29.972  30.141  1.00  0.00     0.034 A 
ATOM     47  C   UNL A   1      45.812  27.857  26.779  1.00  0.00     0.034 A 
ATOM     48  C   UNL A   1      41.074  30.880  30.206  1.00  0.00     0.049 A 
ATOM     49  C   UNL A   1      45.710  29.198  27.452  1.00  0.00     0.074 A 
ATOM     50  C   UNL A   1      41.147  32.108  30.834  1.00  0.00     0.029 A 
ATOM     51  N   UNL A   1      42.305  30.661  29.604  1.00  0.00    -0.354 N 
ATOM     52  N   UNL A   1      44.719  29.695  28.154  1.00  0.00    -0.248 NA
ATOM     53  C   UNL A   1      46.878  30.081  27.349  1.00  0.00     0.031 C 
ATOM     54  C   UNL A   1      42.409  32.652  30.574  1.00  0.00     0.029 A 
ATOM     55  C   UNL A   1      43.140  31.741  29.826  1.00  0.00     0.049 A 
ATOM     56  H   UNL A   1      42.549  29.855  29.093  1.00  0.00     0.167 HD
ATOM     57  C   UNL A   1      45.154  30.935  28.606  1.00  0.00     0.074 A 
ATOM     58  C   UNL A   1      46.508  31.100  28.114  1.00  0.00     0.031 C 
ATOM     59  C   UNL A   1      44.496  31.857  29.350  1.00  0.00     0.034 A 
BRANCH  46  60
ATOM     60  C   UNL A   1      38.656  30.367  30.776  1.00  0.00     0.023 A 
ATOM     61  C   UNL A   1      38.385  30.016  32.115  1.00  0.00     0.012 A 
ATOM     62  C   UNL A   1      37.705  31.113  30.053  1.00  0.00     0.148 A 
ATOM     63  C   UNL A   1      37.175  30.369  32.712  1.00  0.00     0.002 A 
ATOM     64  C   UNL A   1      36.523  31.504  30.670  1.00  0.00     0.091 A 
ATOM     65  F   UNL A   1      37.968  31.414  28.773  1.00  0.00    -0.205 F 
ATOM     66  C   UNL A   1      36.250  31.122  31.994  1.00  0.00     0.022 A 
BRANCH  64  67
ATOM     67  S   UNL A   1      35.302  32.537  29.855  1.00  0.00     0.127 S 
ATOM     68  O   UNL A   1      34.789  31.633  28.827  1.00  0.00    -0.237 OA
ATOM     69  O   UNL A   1      34.365  32.818  30.943  1.00  0.00    -0.237 OA
ATOM     70  O   UNL A   1      36.023  33.701  29.358  1.00  0.00    -0.744 OA
ENDBRANCH  64  67
ENDBRANCH  46  60
BRANCH  47  71
ATOM     71  C   UNL A   1      47.034  27.443  26.038  1.00  0.00     0.023 A 
ATOM     72  C   UNL A   1      48.028  26.690  26.690  1.00  0.00     0.012 A 
ATOM     73  C   UNL A   1      47.195  27.761  24.675  1.00  0.00     0.148 A 
ATOM     74  C   UNL A   1      49.175  26.285  26.005  1.00  0.00     0.002 A 
ATOM     75  C   UNL A   1      48.311  27.306  23.984  1.00  0.00     0.091 A 
ATOM     76  F   UNL A   1      46.240  28.486  24.076  1.00  0.00    -0.205 F 
ATOM     77  C   UNL A   1      49.311  26.584  24.651  1.00  0.00     0.022 A 
BRANCH  75  78
ATOM     78  S   UNL A   1      48.505  27.532  22.213  1.00  0.00     0.127 S 
ATOM     79  O   UNL A   1      49.686  28.391  22.148  1.00  0.00    -0.237 OA
ATOM     80  O   UNL A   1      48.715  26.157  21.756  1.00  0.00    -0.237 OA
ATOM     81  O   UNL A   1      47.261  28.134  21.752  1.00  0.00    -0.744 OA
ENDBRANCH  75  78
ENDBRANCH  47  71
BRANCH  59  82
ATOM     82  C   UNL A   1      45.245  33.113  29.710  1.00  0.00     0.023 A 
ATOM     83  C   UNL A   1      46.049  33.148  30.867  1.00  0.00     0.012 A 
ATOM     84  C   UNL A   1      45.205  34.234  28.858  1.00  0.00     0.148 A 
ATOM     85  C   UNL A   1      46.771  34.294  31.190  1.00  0.00     0.002 A 
ATOM     86  C   UNL A   1      45.973  35.351  29.156  1.00  0.00     0.091 A 
ATOM     87  F   UNL A   1      44.421  34.183  27.771  1.00  0.00    -0.205 F 
ATOM     88  C   UNL A   1      46.743  35.390  30.329  1.00  0.00     0.022 A 
BRANCH  86  89
ATOM     89  S   UNL A   1      46.082  36.764  28.055  1.00  0.00     0.127 S 
ATOM     90  O   UNL A   1      47.266  37.451  28.569  1.00  0.00    -0.237 OA
ATOM     91  O   UNL A   1      46.264  36.127  26.751  1.00  0.00    -0.237 OA
ATOM     92  O   UNL A   1      44.828  37.490  28.205  1.00  0.00    -0.744 OA
ENDBRANCH  86  89
ENDBRANCH  59  82
ENDBRANCH  33  34
ENDBRANCH  26  28
ENDBRANCH  25  26
ENDBRANCH  24  25
ENDBRANCH  23  24
ENDBRANCH   1  23
TORSDOF 20
ENDMDL
