MODEL 1
REMARK VINA RESULT:     -11.0      0.000      0.000
REMARK SMILES O=C(OCCOCCOC(=O)[C@H]1C[C@H]2CCCC[C@@H]2[N@@H+]1CC[C@@H]1CCCO1)c1ccc(-c2c3nc(c(-c4cccc(S(=O)(=O)[O-])c4F)c4ccc([nH]4)c(-c4cccc(S(=O)(=O)[O-])c4F)c4nc(c(-c5cccc(S(=O)(=O)[O-])c5F)c5ccc2[nH]5)C=C4)C=C3)cc1
REMARK SMILES IDX 6 1 5 2 4 3 3 4 2 5 1 6 28 7 29 8 90 9 30 10 89 11 31 12
REMARK SMILES IDX 32 13 33 14 83 15 34 16 88 17 82 18 84 19 35 20 87 21 81 22
REMARK SMILES IDX 80 23 36 25 68 26 48 27 67 28 49 29 52 30 66 31 85 32 50 33
REMARK SMILES IDX 51 34 65 36 86 37 53 38 37 39 38 40 46 41 39 42 41 43 47 44
REMARK SMILES IDX 40 45 42 46 43 47 44 48 45 49 69 50 70 51 78 52 71 53 73 54
REMARK SMILES IDX 79 55 72 56 74 57 75 58 76 59 77 60 54 61 55 62 63 63 56 64
REMARK SMILES IDX 58 65 64 66 57 67 59 68 60 69 61 70 62 71 7 72 8 73 9 74
REMARK SMILES IDX 10 75 11 76 12 77 13 78 20 79 14 80 19 81 15 83 18 84 16 85
REMARK SMILES IDX 17 86 21 87 22 88 23 89 24 90 27 91 25 92 26 93
REMARK H PARENT 84 24 52 35 20 82
REMARK Flexibility Score: inf
ROOT
ATOM      1  O   UNL A   1      33.933  22.308  25.121  1.00  0.00    -0.374 OA
ENDROOT
BRANCH   1   2
ATOM      2  C   UNL A   1      34.967  21.778  25.949  1.00  0.00     0.202 C 
BRANCH   2   3
ATOM      3  C   UNL A   1      36.330  22.458  25.797  1.00  0.00     0.261 C 
BRANCH   3   4
ATOM      4  O   UNL A   1      37.345  21.492  25.501  1.00  0.00    -0.460 OA
BRANCH   4   5
ATOM      5  C   UNL A   1      38.616  21.499  25.969  1.00  0.00     0.338 C 
ATOM      6  O   UNL A   1      39.250  20.445  25.952  1.00  0.00    -0.246 OA
BRANCH   5   7
ATOM      7  C   UNL A   1      39.314  22.740  26.428  1.00  0.00     0.060 A 
ATOM      8  C   UNL A   1      39.020  24.044  26.014  1.00  0.00     0.016 A 
ATOM      9  C   UNL A   1      40.299  22.568  27.412  1.00  0.00     0.016 A 
ATOM     10  C   UNL A   1      39.662  25.144  26.540  1.00  0.00     0.010 A 
ATOM     11  C   UNL A   1      40.965  23.669  27.947  1.00  0.00     0.010 A 
ATOM     12  C   UNL A   1      40.644  24.953  27.497  1.00  0.00    -0.014 A 
BRANCH  12  13
ATOM     13  C   UNL A   1      41.433  26.123  27.873  1.00  0.00     0.031 A 
ATOM     14  C   UNL A   1      40.756  27.159  28.701  1.00  0.00     0.074 A 
ATOM     15  C   UNL A   1      42.733  26.171  27.551  1.00  0.00     0.049 A 
ATOM     16  N   UNL A   1      41.177  28.339  29.047  1.00  0.00    -0.248 NA
ATOM     17  C   UNL A   1      39.418  26.813  29.216  1.00  0.00     0.031 C 
ATOM     18  C   UNL A   1      43.472  25.107  26.867  1.00  0.00     0.029 A 
ATOM     19  N   UNL A   1      43.656  27.159  27.739  1.00  0.00    -0.354 N 
ATOM     20  C   UNL A   1      40.126  28.910  29.749  1.00  0.00     0.074 A 
ATOM     21  C   UNL A   1      39.064  27.935  29.820  1.00  0.00     0.031 C 
ATOM     22  C   UNL A   1      44.729  25.521  26.649  1.00  0.00     0.029 A 
ATOM     23  C   UNL A   1      44.851  26.899  27.113  1.00  0.00     0.049 A 
ATOM     24  H   UNL A   1      43.484  27.972  28.268  1.00  0.00     0.167 HD
ATOM     25  C   UNL A   1      40.061  30.160  30.256  1.00  0.00     0.034 A 
ATOM     26  C   UNL A   1      45.886  27.724  26.882  1.00  0.00     0.034 A 
ATOM     27  C   UNL A   1      41.150  31.088  30.141  1.00  0.00     0.049 A 
ATOM     28  C   UNL A   1      45.776  29.130  27.403  1.00  0.00     0.074 A 
ATOM     29  C   UNL A   1      41.224  32.395  30.574  1.00  0.00     0.029 A 
ATOM     30  N   UNL A   1      42.360  30.793  29.520  1.00  0.00    -0.354 N 
ATOM     31  N   UNL A   1      44.784  29.683  28.062  1.00  0.00    -0.248 NA
ATOM     32  C   UNL A   1      46.918  30.020  27.172  1.00  0.00     0.031 C 
ATOM     33  C   UNL A   1      42.467  32.902  30.179  1.00  0.00     0.029 A 
ATOM     34  C   UNL A   1      43.187  31.896  29.547  1.00  0.00     0.049 A 
ATOM     35  H   UNL A   1      42.591  29.924  29.120  1.00  0.00     0.167 HD
ATOM     36  C   UNL A   1      45.191  30.976  28.356  1.00  0.00     0.074 A 
ATOM     37  C   UNL A   1      46.525  31.119  27.802  1.00  0.00     0.031 C 
ATOM     38  C   UNL A   1      44.530  31.958  29.020  1.00  0.00     0.034 A 
BRANCH  25  39
ATOM     39  C   UNL A   1      38.758  30.578  30.878  1.00  0.00     0.023 A 
ATOM     40  C   UNL A   1      38.475  30.274  32.226  1.00  0.00     0.012 A 
ATOM     41  C   UNL A   1      37.776  31.215  30.095  1.00  0.00     0.148 A 
ATOM     42  C   UNL A   1      37.217  30.547  32.765  1.00  0.00     0.002 A 
ATOM     43  C   UNL A   1      36.543  31.528  30.653  1.00  0.00     0.091 A 
ATOM     44  F   UNL A   1      38.048  31.462  28.804  1.00  0.00    -0.205 F 
ATOM     45  C   UNL A   1      36.255  31.177  31.981  1.00  0.00     0.022 A 
BRANCH  43  46
ATOM     46  S   UNL A   1      35.267  32.397  29.739  1.00  0.00     0.127 S 
ATOM     47  O   UNL A   1      34.892  31.403  28.735  1.00  0.00    -0.237 OA
ATOM     48  O   UNL A   1      34.255  32.628  30.773  1.00  0.00    -0.237 OA
ATOM     49  O   UNL A   1      35.891  33.605  29.223  1.00  0.00    -0.744 OA
ENDBRANCH  43  46
ENDBRANCH  25  39
BRANCH  26  50
ATOM     50  C   UNL A   1      47.060  27.233  26.110  1.00  0.00     0.023 A 
ATOM     51  C   UNL A   1      47.121  27.438  24.720  1.00  0.00     0.012 A 
ATOM     52  C   UNL A   1      48.162  26.642  26.765  1.00  0.00     0.148 A 
ATOM     53  C   UNL A   1      48.251  27.052  23.994  1.00  0.00     0.002 A 
ATOM     54  C   UNL A   1      49.303  26.308  26.046  1.00  0.00     0.091 A 
ATOM     55  F   UNL A   1      48.082  26.448  28.090  1.00  0.00    -0.205 F 
ATOM     56  C   UNL A   1      49.344  26.500  24.657  1.00  0.00     0.022 A 
BRANCH  54  57
ATOM     57  S   UNL A   1      50.806  25.714  26.834  1.00  0.00     0.127 S 
ATOM     58  O   UNL A   1      50.372  24.422  27.365  1.00  0.00    -0.237 OA
ATOM     59  O   UNL A   1      51.726  25.632  25.698  1.00  0.00    -0.237 OA
ATOM     60  O   UNL A   1      51.158  26.715  27.828  1.00  0.00    -0.744 OA
ENDBRANCH  54  57
ENDBRANCH  26  50
BRANCH  38  61
ATOM     61  C   UNL A   1      45.261  33.250  29.245  1.00  0.00     0.023 A 
ATOM     62  C   UNL A   1      46.144  33.382  30.332  1.00  0.00     0.012 A 
ATOM     63  C   UNL A   1      45.174  34.270  28.279  1.00  0.00     0.148 A 
ATOM     64  C   UNL A   1      46.929  34.526  30.458  1.00  0.00     0.002 A 
ATOM     65  C   UNL A   1      46.001  35.378  28.380  1.00  0.00     0.091 A 
ATOM     66  F   UNL A   1      44.309  34.119  27.266  1.00  0.00    -0.205 F 
ATOM     67  C   UNL A   1      46.871  35.514  29.474  1.00  0.00     0.022 A 
BRANCH  65  68
ATOM     68  S   UNL A   1      46.082  36.633  27.099  1.00  0.00     0.127 S 
ATOM     69  O   UNL A   1      44.671  36.978  26.932  1.00  0.00    -0.237 OA
ATOM     70  O   UNL A   1      46.895  37.668  27.736  1.00  0.00    -0.237 OA
ATOM     71  O   UNL A   1      46.705  35.995  25.947  1.00  0.00    -0.744 OA
ENDBRANCH  65  68
ENDBRANCH  38  61
ENDBRANCH  12  13
ENDBRANCH   5   7
ENDBRANCH   4   5
ENDBRANCH   3   4
ENDBRANCH   2   3
ENDBRANCH   1   2
BRANCH   1  72
ATOM     72  C   UNL A   1      32.893  23.004  25.804  1.00  0.00     0.202 C 
BRANCH  72  73
ATOM     73  C   UNL A   1      32.515  24.284  25.061  1.00  0.00     0.261 C 
BRANCH  73  74
ATOM     74  O   UNL A   1      31.991  25.259  25.984  1.00  0.00    -0.459 OA
BRANCH  74  75
ATOM     75  C   UNL A   1      30.740  25.721  25.674  1.00  0.00     0.365 C 
ATOM     76  O   UNL A   1      29.824  25.851  26.477  1.00  0.00    -0.245 OA
BRANCH  75  77
ATOM     77  C   UNL A   1      30.652  26.090  24.180  1.00  0.00     0.295 C 
ATOM     78  C   UNL A   1      29.164  26.121  23.760  1.00  0.00     0.087 C 
ATOM     79  N   UNL A   1      31.143  27.468  23.964  1.00  0.00    -0.320 N 
ATOM     80  C   UNL A   1      28.941  27.535  23.246  1.00  0.00     0.054 C 
ATOM     81  C   UNL A   1      29.993  28.357  23.967  1.00  0.00     0.188 C 
ATOM     82  H   UNL A   1      31.744  27.751  24.737  1.00  0.00     0.349 HD
ATOM     83  C   UNL A   1      27.567  28.151  23.437  1.00  0.00     0.010 C 
ATOM     84  C   UNL A   1      30.088  29.769  23.408  1.00  0.00     0.065 C 
ATOM     85  C   UNL A   1      27.568  29.572  22.860  1.00  0.00     0.001 C 
ATOM     86  C   UNL A   1      28.714  30.453  23.378  1.00  0.00     0.006 C 
BRANCH  79  87
ATOM     87  C   UNL A   1      32.348  27.731  23.196  1.00  0.00     0.265 C 
BRANCH  87  88
ATOM     88  C   UNL A   1      33.730  27.911  23.849  1.00  0.00     0.093 C 
BRANCH  88  89
ATOM     89  C   UNL A   1      33.856  28.736  25.130  1.00  0.00     0.123 C 
ATOM     90  C   UNL A   1      33.776  27.970  26.442  1.00  0.00     0.034 C 
ATOM     91  O   UNL A   1      32.898  29.782  25.176  1.00  0.00    -0.378 OA
ATOM     92  C   UNL A   1      32.859  28.783  27.327  1.00  0.00     0.031 C 
ATOM     93  C   UNL A   1      32.532  30.024  26.531  1.00  0.00     0.160 C 
ENDBRANCH  88  89
ENDBRANCH  87  88
ENDBRANCH  79  87
ENDBRANCH  75  77
ENDBRANCH  74  75
ENDBRANCH  73  74
ENDBRANCH  72  73
ENDBRANCH   1  72
TORSDOF 20
ENDMDL
MODEL 2
REMARK VINA RESULT:     -10.7      5.587      8.899
REMARK SMILES O=C(OCCOCCOC(=O)[C@H]1C[C@H]2CCCC[C@@H]2[N@@H+]1CC[C@@H]1CCCO1)c1ccc(-c2c3nc(c(-c4cccc(S(=O)(=O)[O-])c4F)c4ccc([nH]4)c(-c4cccc(S(=O)(=O)[O-])c4F)c4nc(c(-c5cccc(S(=O)(=O)[O-])c5F)c5ccc2[nH]5)C=C4)C=C3)cc1
REMARK SMILES IDX 6 1 5 2 4 3 3 4 2 5 1 6 28 7 29 8 90 9 30 10 89 11 31 12
REMARK SMILES IDX 32 13 33 14 83 15 34 16 88 17 82 18 84 19 35 20 87 21 81 22
REMARK SMILES IDX 80 23 36 25 68 26 48 27 67 28 49 29 52 30 66 31 85 32 50 33
REMARK SMILES IDX 51 34 65 36 86 37 53 38 37 39 38 40 46 41 39 42 41 43 47 44
REMARK SMILES IDX 40 45 42 46 43 47 44 48 45 49 69 50 70 51 78 52 71 53 73 54
REMARK SMILES IDX 79 55 72 56 74 57 75 58 76 59 77 60 54 61 55 62 63 63 56 64
REMARK SMILES IDX 58 65 64 66 57 67 59 68 60 69 61 70 62 71 7 72 8 73 9 74
REMARK SMILES IDX 10 75 11 76 12 77 13 78 20 79 14 80 19 81 15 83 18 84 16 85
REMARK SMILES IDX 17 86 21 87 22 88 23 89 24 90 27 91 25 92 26 93
REMARK H PARENT 84 24 52 35 20 82
REMARK Flexibility Score: inf
ROOT
ATOM      1  O   UNL A   1      34.334  32.015  27.584  1.00  0.00    -0.374 OA
ENDROOT
BRANCH   1   2
ATOM      2  C   UNL A   1      33.001  32.507  27.709  1.00  0.00     0.202 C 
BRANCH   2   3
ATOM      3  C   UNL A   1      32.844  34.013  27.489  1.00  0.00     0.261 C 
BRANCH   3   4
ATOM      4  O   UNL A   1      32.499  34.669  28.714  1.00  0.00    -0.460 OA
BRANCH   4   5
ATOM      5  C   UNL A   1      33.365  35.088  29.669  1.00  0.00     0.338 C 
ATOM      6  O   UNL A   1      33.230  36.223  30.120  1.00  0.00    -0.246 OA
BRANCH   5   7
ATOM      7  C   UNL A   1      34.420  34.209  30.259  1.00  0.00     0.060 A 
ATOM      8  C   UNL A   1      34.204  33.173  31.175  1.00  0.00     0.016 A 
ATOM      9  C   UNL A   1      35.727  34.408  29.788  1.00  0.00     0.016 A 
ATOM     10  C   UNL A   1      35.225  32.360  31.618  1.00  0.00     0.010 A 
ATOM     11  C   UNL A   1      36.772  33.601  30.233  1.00  0.00     0.010 A 
ATOM     12  C   UNL A   1      36.510  32.584  31.156  1.00  0.00    -0.014 A 
BRANCH  12  13
ATOM     13  C   UNL A   1      37.583  31.834  31.803  1.00  0.00     0.031 A 
ATOM     14  C   UNL A   1      37.957  32.242  33.185  1.00  0.00     0.074 A 
ATOM     15  C   UNL A   1      38.110  30.770  31.181  1.00  0.00     0.049 A 
ATOM     16  N   UNL A   1      38.953  31.844  33.919  1.00  0.00    -0.248 NA
ATOM     17  C   UNL A   1      37.081  33.238  33.833  1.00  0.00     0.031 C 
ATOM     18  C   UNL A   1      37.668  30.247  29.886  1.00  0.00     0.029 A 
ATOM     19  N   UNL A   1      39.140  29.952  31.546  1.00  0.00    -0.354 N 
ATOM     20  C   UNL A   1      38.875  32.596  35.081  1.00  0.00     0.074 A 
ATOM     21  C   UNL A   1      37.711  33.444  34.977  1.00  0.00     0.031 C 
ATOM     22  C   UNL A   1      38.458  29.219  29.541  1.00  0.00     0.029 A 
ATOM     23  C   UNL A   1      39.495  29.070  30.554  1.00  0.00     0.049 A 
ATOM     24  H   UNL A   1      39.580  29.989  32.425  1.00  0.00     0.167 HD
ATOM     25  C   UNL A   1      39.733  32.589  36.124  1.00  0.00     0.034 A 
ATOM     26  C   UNL A   1      40.589  28.292  30.461  1.00  0.00     0.034 A 
ATOM     27  C   UNL A   1      40.882  31.729  36.160  1.00  0.00     0.049 A 
ATOM     28  C   UNL A   1      41.564  28.336  31.604  1.00  0.00     0.074 A 
ATOM     29  C   UNL A   1      41.858  31.627  37.129  1.00  0.00     0.029 A 
ATOM     30  N   UNL A   1      41.209  30.827  35.152  1.00  0.00    -0.354 N 
ATOM     31  N   UNL A   1      41.504  29.050  32.705  1.00  0.00    -0.248 NA
ATOM     32  C   UNL A   1      42.742  27.468  31.510  1.00  0.00     0.031 C 
ATOM     33  C   UNL A   1      42.798  30.690  36.686  1.00  0.00     0.029 A 
ATOM     34  C   UNL A   1      42.380  30.170  35.467  1.00  0.00     0.049 A 
ATOM     35  H   UNL A   1      40.682  30.680  34.333  1.00  0.00     0.167 HD
ATOM     36  C   UNL A   1      42.615  28.695  33.455  1.00  0.00     0.074 A 
ATOM     37  C   UNL A   1      43.330  27.698  32.677  1.00  0.00     0.031 C 
ATOM     38  C   UNL A   1      43.015  29.146  34.670  1.00  0.00     0.034 A 
BRANCH  25  39
ATOM     39  C   UNL A   1      39.487  33.588  37.219  1.00  0.00     0.023 A 
ATOM     40  C   UNL A   1      40.003  34.898  37.126  1.00  0.00     0.012 A 
ATOM     41  C   UNL A   1      38.797  33.201  38.383  1.00  0.00     0.148 A 
ATOM     42  C   UNL A   1      39.885  35.784  38.197  1.00  0.00     0.002 A 
ATOM     43  C   UNL A   1      38.640  34.105  39.426  1.00  0.00     0.091 A 
ATOM     44  F   UNL A   1      38.346  31.940  38.471  1.00  0.00    -0.205 F 
ATOM     45  C   UNL A   1      39.200  35.389  39.344  1.00  0.00     0.022 A 
BRANCH  43  46
ATOM     46  S   UNL A   1      37.718  33.707  40.914  1.00  0.00     0.127 S 
ATOM     47  O   UNL A   1      36.511  33.095  40.360  1.00  0.00    -0.237 OA
ATOM     48  O   UNL A   1      38.618  32.771  41.590  1.00  0.00    -0.237 OA
ATOM     49  O   UNL A   1      37.517  34.967  41.613  1.00  0.00    -0.744 OA
ENDBRANCH  43  46
ENDBRANCH  25  39
BRANCH  26  50
ATOM     50  C   UNL A   1      40.799  27.462  29.244  1.00  0.00     0.023 A 
ATOM     51  C   UNL A   1      40.074  26.270  29.075  1.00  0.00     0.012 A 
ATOM     52  C   UNL A   1      41.653  27.899  28.208  1.00  0.00     0.148 A 
ATOM     53  C   UNL A   1      40.203  25.520  27.902  1.00  0.00     0.002 A 
ATOM     54  C   UNL A   1      41.738  27.176  27.024  1.00  0.00     0.091 A 
ATOM     55  F   UNL A   1      42.342  29.035  28.391  1.00  0.00    -0.205 F 
ATOM     56  C   UNL A   1      41.024  25.979  26.875  1.00  0.00     0.022 A 
BRANCH  54  57
ATOM     57  S   UNL A   1      42.667  27.758  25.599  1.00  0.00     0.127 S 
ATOM     58  O   UNL A   1      43.980  28.019  26.186  1.00  0.00    -0.237 OA
ATOM     59  O   UNL A   1      42.611  26.595  24.712  1.00  0.00    -0.237 OA
ATOM     60  O   UNL A   1      41.955  28.927  25.108  1.00  0.00    -0.744 OA
ENDBRANCH  54  57
ENDBRANCH  26  50
BRANCH  38  61
ATOM     61  C   UNL A   1      44.242  28.521  35.268  1.00  0.00     0.023 A 
ATOM     62  C   UNL A   1      45.515  29.043  34.978  1.00  0.00     0.012 A 
ATOM     63  C   UNL A   1      44.099  27.510  36.238  1.00  0.00     0.148 A 
ATOM     64  C   UNL A   1      46.638  28.556  35.644  1.00  0.00     0.002 A 
ATOM     65  C   UNL A   1      45.212  27.073  36.938  1.00  0.00     0.091 A 
ATOM     66  F   UNL A   1      42.873  27.023  36.477  1.00  0.00    -0.205 F 
ATOM     67  C   UNL A   1      46.485  27.586  36.636  1.00  0.00     0.022 A 
BRANCH  65  68
ATOM     68  S   UNL A   1      45.090  25.923  38.311  1.00  0.00     0.127 S 
ATOM     69  O   UNL A   1      46.485  25.823  38.739  1.00  0.00    -0.237 OA
ATOM     70  O   UNL A   1      44.216  26.642  39.236  1.00  0.00    -0.237 OA
ATOM     71  O   UNL A   1      44.520  24.699  37.764  1.00  0.00    -0.744 OA
ENDBRANCH  65  68
ENDBRANCH  38  61
ENDBRANCH  12  13
ENDBRANCH   5   7
ENDBRANCH   4   5
ENDBRANCH   3   4
ENDBRANCH   2   3
ENDBRANCH   1   2
BRANCH   1  72
ATOM     72  C   UNL A   1      34.502  30.622  27.840  1.00  0.00     0.202 C 
BRANCH  72  73
ATOM     73  C   UNL A   1      33.614  29.788  26.918  1.00  0.00     0.261 C 
BRANCH  73  74
ATOM     74  O   UNL A   1      33.472  28.452  27.439  1.00  0.00    -0.459 OA
BRANCH  74  75
ATOM     75  C   UNL A   1      32.325  27.811  27.054  1.00  0.00     0.365 C 
ATOM     76  O   UNL A   1      31.264  27.847  27.667  1.00  0.00    -0.245 OA
BRANCH  75  77
ATOM     77  C   UNL A   1      32.539  27.067  25.721  1.00  0.00     0.295 C 
ATOM     78  C   UNL A   1      33.667  26.026  25.906  1.00  0.00     0.087 C 
ATOM     79  N   UNL A   1      31.337  26.278  25.377  1.00  0.00    -0.320 N 
ATOM     80  C   UNL A   1      33.018  24.694  25.564  1.00  0.00     0.054 C 
ATOM     81  C   UNL A   1      31.545  24.919  25.850  1.00  0.00     0.188 C 
ATOM     82  H   UNL A   1      30.524  26.647  25.867  1.00  0.00     0.349 HD
ATOM     83  C   UNL A   1      33.513  23.455  26.287  1.00  0.00     0.010 C 
ATOM     84  C   UNL A   1      30.688  23.769  25.343  1.00  0.00     0.065 C 
ATOM     85  C   UNL A   1      32.720  22.236  25.800  1.00  0.00     0.001 C 
ATOM     86  C   UNL A   1      31.197  22.418  25.865  1.00  0.00     0.006 C 
BRANCH  79  87
ATOM     87  C   UNL A   1      30.529  26.598  24.213  1.00  0.00     0.265 C 
BRANCH  87  88
ATOM     88  C   UNL A   1      31.105  27.283  22.960  1.00  0.00     0.093 C 
BRANCH  88  89
ATOM     89  C   UNL A   1      30.837  28.770  22.725  1.00  0.00     0.123 C 
ATOM     90  C   UNL A   1      30.419  29.587  23.938  1.00  0.00     0.034 C 
ATOM     91  O   UNL A   1      29.868  28.973  21.708  1.00  0.00    -0.378 OA
ATOM     92  C   UNL A   1      29.264  30.440  23.471  1.00  0.00     0.031 C 
ATOM     93  C   UNL A   1      29.128  30.157  21.994  1.00  0.00     0.160 C 
ENDBRANCH  88  89
ENDBRANCH  87  88
ENDBRANCH  79  87
ENDBRANCH  75  77
ENDBRANCH  74  75
ENDBRANCH  73  74
ENDBRANCH  72  73
ENDBRANCH   1  72
TORSDOF 20
ENDMDL
MODEL 3
REMARK VINA RESULT:     -10.1      2.080      2.683
REMARK SMILES O=C(OCCOCCOC(=O)[C@H]1C[C@H]2CCCC[C@@H]2[N@@H+]1CC[C@@H]1CCCO1)c1ccc(-c2c3nc(c(-c4cccc(S(=O)(=O)[O-])c4F)c4ccc([nH]4)c(-c4cccc(S(=O)(=O)[O-])c4F)c4nc(c(-c5cccc(S(=O)(=O)[O-])c5F)c5ccc2[nH]5)C=C4)C=C3)cc1
REMARK SMILES IDX 6 1 5 2 4 3 3 4 2 5 1 6 28 7 29 8 90 9 30 10 89 11 31 12
REMARK SMILES IDX 32 13 33 14 83 15 34 16 88 17 82 18 84 19 35 20 87 21 81 22
REMARK SMILES IDX 80 23 36 25 68 26 48 27 67 28 49 29 52 30 66 31 85 32 50 33
REMARK SMILES IDX 51 34 65 36 86 37 53 38 37 39 38 40 46 41 39 42 41 43 47 44
REMARK SMILES IDX 40 45 42 46 43 47 44 48 45 49 69 50 70 51 78 52 71 53 73 54
REMARK SMILES IDX 79 55 72 56 74 57 75 58 76 59 77 60 54 61 55 62 63 63 56 64
REMARK SMILES IDX 58 65 64 66 57 67 59 68 60 69 61 70 62 71 7 72 8 73 9 74
REMARK SMILES IDX 10 75 11 76 12 77 13 78 20 79 14 80 19 81 15 83 18 84 16 85
REMARK SMILES IDX 17 86 21 87 22 88 23 89 24 90 27 91 25 92 26 93
REMARK H PARENT 84 24 52 35 20 82
REMARK Flexibility Score: inf
ROOT
ATOM      1  O   UNL A   1      34.179  23.110  25.383  1.00  0.00    -0.374 OA
ENDROOT
BRANCH   1   2
ATOM      2  C   UNL A   1      35.273  22.222  25.158  1.00  0.00     0.202 C 
BRANCH   2   3
ATOM      3  C   UNL A   1      36.522  22.511  25.992  1.00  0.00     0.261 C 
BRANCH   3   4
ATOM      4  O   UNL A   1      37.587  21.624  25.631  1.00  0.00    -0.460 OA
BRANCH   4   5
ATOM      5  C   UNL A   1      38.858  21.668  26.098  1.00  0.00     0.338 C 
ATOM      6  O   UNL A   1      39.517  20.630  26.095  1.00  0.00    -0.246 OA
BRANCH   5   7
ATOM      7  C   UNL A   1      39.526  22.932  26.537  1.00  0.00     0.060 A 
ATOM      8  C   UNL A   1      39.293  24.207  26.009  1.00  0.00     0.016 A 
ATOM      9  C   UNL A   1      40.408  22.821  27.624  1.00  0.00     0.016 A 
ATOM     10  C   UNL A   1      39.898  25.335  26.519  1.00  0.00     0.010 A 
ATOM     11  C   UNL A   1      41.035  23.951  28.145  1.00  0.00     0.010 A 
ATOM     12  C   UNL A   1      40.779  25.203  27.579  1.00  0.00    -0.014 A 
BRANCH  12  13
ATOM     13  C   UNL A   1      41.545  26.390  27.951  1.00  0.00     0.031 A 
ATOM     14  C   UNL A   1      40.838  27.429  28.750  1.00  0.00     0.074 A 
ATOM     15  C   UNL A   1      42.849  26.451  27.651  1.00  0.00     0.049 A 
ATOM     16  N   UNL A   1      41.236  28.620  29.084  1.00  0.00    -0.248 NA
ATOM     17  C   UNL A   1      39.495  27.072  29.245  1.00  0.00     0.031 C 
ATOM     18  C   UNL A   1      43.615  25.386  26.999  1.00  0.00     0.029 A 
ATOM     19  N   UNL A   1      43.755  27.455  27.841  1.00  0.00    -0.354 N 
ATOM     20  C   UNL A   1      40.165  29.188  29.757  1.00  0.00     0.074 A 
ATOM     21  C   UNL A   1      39.115  28.199  29.825  1.00  0.00     0.031 C 
ATOM     22  C   UNL A   1      44.870  25.815  26.797  1.00  0.00     0.029 A 
ATOM     23  C   UNL A   1      44.964  27.201  27.241  1.00  0.00     0.049 A 
ATOM     24  H   UNL A   1      43.562  28.273  28.353  1.00  0.00     0.167 HD
ATOM     25  C   UNL A   1      40.073  30.445  30.243  1.00  0.00     0.034 A 
ATOM     26  C   UNL A   1      45.993  28.036  27.015  1.00  0.00     0.034 A 
ATOM     27  C   UNL A   1      41.151  31.386  30.133  1.00  0.00     0.049 A 
ATOM     28  C   UNL A   1      45.854  29.449  27.512  1.00  0.00     0.074 A 
ATOM     29  C   UNL A   1      41.200  32.701  30.546  1.00  0.00     0.029 A 
ATOM     30  N   UNL A   1      42.377  31.098  29.539  1.00  0.00    -0.354 N 
ATOM     31  N   UNL A   1      44.843  29.999  28.143  1.00  0.00    -0.248 NA
ATOM     32  C   UNL A   1      46.988  30.351  27.287  1.00  0.00     0.031 C 
ATOM     33  C   UNL A   1      42.443  33.219  30.165  1.00  0.00     0.029 A 
ATOM     34  C   UNL A   1      43.188  32.212  29.563  1.00  0.00     0.049 A 
ATOM     35  H   UNL A   1      42.627  30.225  29.157  1.00  0.00     0.167 HD
ATOM     36  C   UNL A   1      45.226  31.302  28.424  1.00  0.00     0.074 A 
ATOM     37  C   UNL A   1      46.568  31.455  27.892  1.00  0.00     0.031 C 
ATOM     38  C   UNL A   1      44.540  32.285  29.059  1.00  0.00     0.034 A 
BRANCH  25  39
ATOM     39  C   UNL A   1      38.753  30.854  30.834  1.00  0.00     0.023 A 
ATOM     40  C   UNL A   1      38.473  30.621  32.196  1.00  0.00     0.012 A 
ATOM     41  C   UNL A   1      37.756  31.410  30.010  1.00  0.00     0.148 A 
ATOM     42  C   UNL A   1      37.204  30.883  32.714  1.00  0.00     0.002 A 
ATOM     43  C   UNL A   1      36.510  31.713  30.544  1.00  0.00     0.091 A 
ATOM     44  F   UNL A   1      38.026  31.589  28.709  1.00  0.00    -0.205 F 
ATOM     45  C   UNL A   1      36.225  31.433  31.890  1.00  0.00     0.022 A 
BRANCH  43  46
ATOM     46  S   UNL A   1      35.209  32.483  29.576  1.00  0.00     0.127 S 
ATOM     47  O   UNL A   1      34.867  31.415  28.637  1.00  0.00    -0.237 OA
ATOM     48  O   UNL A   1      34.189  32.749  30.592  1.00  0.00    -0.237 OA
ATOM     49  O   UNL A   1      35.799  33.673  28.983  1.00  0.00    -0.744 OA
ENDBRANCH  43  46
ENDBRANCH  25  39
BRANCH  26  50
ATOM     50  C   UNL A   1      47.187  27.550  26.273  1.00  0.00     0.023 A 
ATOM     51  C   UNL A   1      48.125  26.724  26.917  1.00  0.00     0.012 A 
ATOM     52  C   UNL A   1      47.350  27.831  24.899  1.00  0.00     0.148 A 
ATOM     53  C   UNL A   1      49.210  26.196  26.212  1.00  0.00     0.002 A 
ATOM     54  C   UNL A   1      48.402  27.261  24.191  1.00  0.00     0.091 A 
ATOM     55  F   UNL A   1      46.449  28.627  24.304  1.00  0.00    -0.205 F 
ATOM     56  C   UNL A   1      49.341  26.454  24.849  1.00  0.00     0.022 A 
BRANCH  54  57
ATOM     57  S   UNL A   1      48.576  27.431  22.410  1.00  0.00     0.127 S 
ATOM     58  O   UNL A   1      49.809  28.210  22.305  1.00  0.00    -0.237 OA
ATOM     59  O   UNL A   1      48.694  26.035  21.986  1.00  0.00    -0.237 OA
ATOM     60  O   UNL A   1      47.369  28.102  21.953  1.00  0.00    -0.744 OA
ENDBRANCH  54  57
ENDBRANCH  26  50
BRANCH  38  61
ATOM     61  C   UNL A   1      45.249  33.590  29.277  1.00  0.00     0.023 A 
ATOM     62  C   UNL A   1      45.129  34.626  28.333  1.00  0.00     0.012 A 
ATOM     63  C   UNL A   1      45.905  33.824  30.501  1.00  0.00     0.148 A 
ATOM     64  C   UNL A   1      45.667  35.882  28.604  1.00  0.00     0.002 A 
ATOM     65  C   UNL A   1      46.384  35.092  30.787  1.00  0.00     0.091 A 
ATOM     66  F   UNL A   1      46.016  32.809  31.370  1.00  0.00    -0.205 F 
ATOM     67  C   UNL A   1      46.276  36.121  29.836  1.00  0.00     0.022 A 
BRANCH  65  68
ATOM     68  S   UNL A   1      47.069  35.518  32.391  1.00  0.00     0.127 S 
ATOM     69  O   UNL A   1      46.106  34.896  33.299  1.00  0.00    -0.237 OA
ATOM     70  O   UNL A   1      48.378  34.869  32.347  1.00  0.00    -0.237 OA
ATOM     71  O   UNL A   1      47.115  36.973  32.438  1.00  0.00    -0.744 OA
ENDBRANCH  65  68
ENDBRANCH  38  61
ENDBRANCH  12  13
ENDBRANCH   5   7
ENDBRANCH   4   5
ENDBRANCH   3   4
ENDBRANCH   2   3
ENDBRANCH   1   2
BRANCH   1  72
ATOM     72  C   UNL A   1      33.329  22.775  26.478  1.00  0.00     0.202 C 
BRANCH  72  73
ATOM     73  C   UNL A   1      31.864  23.024  26.125  1.00  0.00     0.261 C 
BRANCH  73  74
ATOM     74  O   UNL A   1      31.335  24.099  26.925  1.00  0.00    -0.459 OA
BRANCH  74  75
ATOM     75  C   UNL A   1      30.409  24.880  26.287  1.00  0.00     0.365 C 
ATOM     76  O   UNL A   1      29.339  25.231  26.770  1.00  0.00    -0.245 OA
BRANCH  75  77
ATOM     77  C   UNL A   1      30.914  25.290  24.890  1.00  0.00     0.295 C 
ATOM     78  C   UNL A   1      29.697  25.644  24.003  1.00  0.00     0.087 C 
ATOM     79  N   UNL A   1      31.705  26.536  24.976  1.00  0.00    -0.320 N 
ATOM     80  C   UNL A   1      29.941  27.083  23.576  1.00  0.00     0.054 C 
ATOM     81  C   UNL A   1      30.818  27.649  24.678  1.00  0.00     0.188 C 
ATOM     82  H   UNL A   1      32.046  26.669  25.928  1.00  0.00     0.349 HD
ATOM     83  C   UNL A   1      28.732  27.974  23.355  1.00  0.00     0.010 C 
ATOM     84  C   UNL A   1      31.369  29.019  24.314  1.00  0.00     0.065 C 
ATOM     85  C   UNL A   1      29.205  29.373  22.944  1.00  0.00     0.001 C 
ATOM     86  C   UNL A   1      30.250  29.980  23.892  1.00  0.00     0.006 C 
BRANCH  79  87
ATOM     87  C   UNL A   1      33.127  26.553  24.680  1.00  0.00     0.265 C 
BRANCH  87  88
ATOM     88  C   UNL A   1      33.686  26.325  23.263  1.00  0.00     0.093 C 
BRANCH  88  89
ATOM     89  C   UNL A   1      32.849  25.559  22.238  1.00  0.00     0.123 C 
ATOM     90  C   UNL A   1      33.034  24.050  22.201  1.00  0.00     0.034 C 
ATOM     91  O   UNL A   1      33.049  26.055  20.923  1.00  0.00    -0.378 OA
ATOM     92  C   UNL A   1      33.137  23.693  20.737  1.00  0.00     0.031 C 
ATOM     93  C   UNL A   1      32.909  24.987  19.992  1.00  0.00     0.160 C 
ENDBRANCH  88  89
ENDBRANCH  87  88
ENDBRANCH  79  87
ENDBRANCH  75  77
ENDBRANCH  74  75
ENDBRANCH  73  74
ENDBRANCH  72  73
ENDBRANCH   1  72
TORSDOF 20
ENDMDL
