MODEL 1
REMARK VINA RESULT:     -10.0      0.000      0.000
REMARK SMILES C[C@@](CC(=O)Nc1ccc(NC(=O)c2ccco2)cc1)(C(=O)OCCOCCOC(=O)c1ccc(-c2c3nc(c(-c4cccc(S(=O)(=O)[O-])c4F)c4ccc([nH]4)c(-c4cccc(S(=O)(=O)[O-])c4F)c4nc(c(-c5cccc(S(=O)(=O)[O-])c5F)c5ccc2[nH]5)C=C4)C=C3)cc1)c1ccccc1
REMARK SMILES IDX 25 1 24 2 23 3 21 4 22 5 2 6 1 7 3 8 4 9 5 10 6 11 7 13 8 14
REMARK SMILES IDX 20 15 9 16 19 17 10 18 11 19 12 20 13 22 14 23 15 24 18 25
REMARK SMILES IDX 16 26 17 27 95 28 96 29 100 30 97 31 99 32 98 33 26 34 27 35
REMARK SMILES IDX 28 36 29 37 30 38 31 39 32 40 33 41 94 42 34 43 93 44 35 45
REMARK SMILES IDX 36 46 37 47 87 48 38 49 92 50 86 51 88 52 39 53 91 54 85 55
REMARK SMILES IDX 84 56 40 58 72 59 52 60 71 61 53 62 56 63 70 64 89 65 54 66
REMARK SMILES IDX 55 67 69 69 90 70 57 71 41 72 42 73 50 74 43 75 45 76 51 77
REMARK SMILES IDX 44 78 46 79 47 80 48 81 49 82 73 83 74 84 82 85 75 86 77 87
REMARK SMILES IDX 83 88 76 89 78 90 79 91 80 92 81 93 58 94 59 95 67 96 60 97
REMARK SMILES IDX 62 98 68 99 61 100 63 101 64 102 65 103 66 104
REMARK H PARENT 6 12 11 21 88 57 56 68
REMARK Flexibility Score: inf
ROOT
ATOM      1  C   UNL A   1      34.495  30.219  27.069  1.00  0.00     0.202 C 
ENDROOT
BRANCH   1   2
ATOM      2  C   UNL A   1      32.990  29.998  27.247  1.00  0.00     0.261 C 
BRANCH   2   3
ATOM      3  O   UNL A   1      32.412  29.519  26.022  1.00  0.00    -0.463 OA
BRANCH   3   4
ATOM      4  C   UNL A   1      31.796  28.305  26.096  1.00  0.00     0.316 C 
ATOM      5  O   UNL A   1      31.254  27.869  27.105  1.00  0.00    -0.251 OA
BRANCH   4   6
ATOM      6  C   UNL A   1      31.852  27.561  24.741  1.00  0.00     0.099 C 
ATOM      7  C   UNL A   1      32.797  28.244  23.720  1.00  0.00     0.029 C 
BRANCH   6   8
ATOM      8  C   UNL A   1      32.332  26.108  25.020  1.00  0.00     0.123 C 
BRANCH   8   9
ATOM      9  C   UNL A   1      33.591  25.910  25.889  1.00  0.00     0.225 C 
ATOM     10  O   UNL A   1      34.173  26.883  26.371  1.00  0.00    -0.275 OA
ATOM     11  N   UNL A   1      33.965  24.647  26.287  1.00  0.00    -0.326 N 
ATOM     12  H   UNL A   1      34.503  24.591  27.109  1.00  0.00     0.169 HD
BRANCH  11  13
ATOM     13  C   UNL A   1      33.671  23.435  25.659  1.00  0.00     0.041 A 
ATOM     14  C   UNL A   1      32.501  22.753  25.943  1.00  0.00     0.028 A 
ATOM     15  C   UNL A   1      34.566  22.869  24.768  1.00  0.00     0.028 A 
ATOM     16  C   UNL A   1      32.122  21.675  25.128  1.00  0.00     0.028 A 
ATOM     17  C   UNL A   1      34.175  21.833  23.923  1.00  0.00     0.028 A 
ATOM     18  C   UNL A   1      32.894  21.294  24.029  1.00  0.00     0.041 A 
BRANCH  18  19
ATOM     19  N   UNL A   1      32.489  20.458  22.972  1.00  0.00    -0.319 N 
ATOM     20  C   UNL A   1      32.380  19.089  22.831  1.00  0.00     0.291 C 
ATOM     21  H   UNL A   1      32.230  20.953  22.163  1.00  0.00     0.170 HD
ATOM     22  O   UNL A   1      31.833  18.673  21.806  1.00  0.00    -0.265 OA
BRANCH  20  23
ATOM     23  C   UNL A   1      32.875  18.211  23.853  1.00  0.00     0.191 A 
ATOM     24  C   UNL A   1      34.056  17.502  23.990  1.00  0.00     0.056 A 
ATOM     25  O   UNL A   1      32.060  17.955  24.920  1.00  0.00    -0.459 OA
ATOM     26  C   UNL A   1      33.920  16.724  25.168  1.00  0.00     0.043 A 
ATOM     27  C   UNL A   1      32.696  17.049  25.703  1.00  0.00     0.196 A 
ENDBRANCH  20  23
ENDBRANCH  18  19
ENDBRANCH  11  13
ENDBRANCH   8   9
ENDBRANCH   6   8
BRANCH   6  28
ATOM     28  C   UNL A   1      30.509  27.664  23.954  1.00  0.00    -0.030 A 
ATOM     29  C   UNL A   1      29.511  26.680  24.124  1.00  0.00     0.005 A 
ATOM     30  C   UNL A   1      30.137  28.863  23.317  1.00  0.00     0.005 A 
ATOM     31  C   UNL A   1      28.192  26.900  23.720  1.00  0.00     0.000 A 
ATOM     32  C   UNL A   1      28.813  29.085  22.925  1.00  0.00     0.000 A 
ATOM     33  C   UNL A   1      27.840  28.111  23.138  1.00  0.00     0.000 A 
ENDBRANCH   6  28
ENDBRANCH   4   6
ENDBRANCH   3   4
ENDBRANCH   2   3
ENDBRANCH   1   2
BRANCH   1  34
ATOM     34  O   UNL A   1      35.071  31.347  27.739  1.00  0.00    -0.374 OA
BRANCH  34  35
ATOM     35  C   UNL A   1      36.176  31.103  28.603  1.00  0.00     0.202 C 
BRANCH  35  36
ATOM     36  C   UNL A   1      36.159  31.775  29.987  1.00  0.00     0.261 C 
BRANCH  36  37
ATOM     37  O   UNL A   1      37.451  32.204  30.446  1.00  0.00    -0.460 OA
BRANCH  37  38
ATOM     38  C   UNL A   1      37.506  33.522  30.775  1.00  0.00     0.338 C 
ATOM     39  O   UNL A   1      36.659  34.167  31.367  1.00  0.00    -0.246 OA
BRANCH  38  40
ATOM     40  C   UNL A   1      38.834  34.086  30.463  1.00  0.00     0.060 A 
ATOM     41  C   UNL A   1      39.048  34.513  29.147  1.00  0.00     0.016 A 
ATOM     42  C   UNL A   1      39.878  34.085  31.389  1.00  0.00     0.016 A 
ATOM     43  C   UNL A   1      40.322  34.899  28.738  1.00  0.00     0.010 A 
ATOM     44  C   UNL A   1      41.162  34.466  30.971  1.00  0.00     0.010 A 
ATOM     45  C   UNL A   1      41.398  34.839  29.635  1.00  0.00    -0.014 A 
BRANCH  45  46
ATOM     46  C   UNL A   1      42.775  35.055  29.122  1.00  0.00     0.031 A 
ATOM     47  C   UNL A   1      43.670  33.869  28.880  1.00  0.00     0.074 A 
ATOM     48  C   UNL A   1      43.208  36.294  28.828  1.00  0.00     0.049 A 
ATOM     49  N   UNL A   1      44.880  33.834  28.381  1.00  0.00    -0.248 NA
ATOM     50  C   UNL A   1      43.132  32.547  29.242  1.00  0.00     0.031 C 
ATOM     51  C   UNL A   1      42.441  37.524  29.017  1.00  0.00     0.029 A 
ATOM     52  N   UNL A   1      44.409  36.721  28.315  1.00  0.00    -0.354 N 
ATOM     53  C   UNL A   1      45.254  32.495  28.380  1.00  0.00     0.074 A 
ATOM     54  C   UNL A   1      44.150  31.749  28.946  1.00  0.00     0.031 C 
ATOM     55  C   UNL A   1      43.199  38.571  28.647  1.00  0.00     0.029 A 
ATOM     56  C   UNL A   1      44.505  38.088  28.204  1.00  0.00     0.049 A 
ATOM     57  H   UNL A   1      45.131  36.106  28.053  1.00  0.00     0.167 HD
ATOM     58  C   UNL A   1      46.401  31.933  27.928  1.00  0.00     0.034 A 
ATOM     59  C   UNL A   1      45.532  38.861  27.800  1.00  0.00     0.034 A 
ATOM     60  C   UNL A   1      47.491  32.669  27.346  1.00  0.00     0.049 A 
ATOM     61  C   UNL A   1      46.803  38.211  27.316  1.00  0.00     0.074 A 
ATOM     62  C   UNL A   1      48.675  32.180  26.823  1.00  0.00     0.029 A 
ATOM     63  N   UNL A   1      47.537  34.047  27.215  1.00  0.00    -0.354 N 
ATOM     64  N   UNL A   1      47.086  36.935  27.200  1.00  0.00    -0.248 NA
ATOM     65  C   UNL A   1      47.883  39.106  26.873  1.00  0.00     0.031 C 
ATOM     66  C   UNL A   1      49.446  33.266  26.393  1.00  0.00     0.029 A 
ATOM     67  C   UNL A   1      48.733  34.429  26.631  1.00  0.00     0.049 A 
ATOM     68  H   UNL A   1      46.823  34.666  27.497  1.00  0.00     0.167 HD
ATOM     69  C   UNL A   1      48.360  36.876  26.644  1.00  0.00     0.074 A 
ATOM     70  C   UNL A   1      48.782  38.244  26.421  1.00  0.00     0.031 C 
ATOM     71  C   UNL A   1      49.121  35.789  26.363  1.00  0.00     0.034 A 
BRANCH  58  72
ATOM     72  C   UNL A   1      46.522  30.435  28.002  1.00  0.00     0.023 A 
ATOM     73  C   UNL A   1      46.859  29.827  29.228  1.00  0.00     0.012 A 
ATOM     74  C   UNL A   1      46.230  29.626  26.886  1.00  0.00     0.148 A 
ATOM     75  C   UNL A   1      46.925  28.440  29.339  1.00  0.00     0.002 A 
ATOM     76  C   UNL A   1      46.261  28.241  27.014  1.00  0.00     0.091 A 
ATOM     77  F   UNL A   1      45.933  30.224  25.724  1.00  0.00    -0.205 F 
ATOM     78  C   UNL A   1      46.615  27.648  28.237  1.00  0.00     0.022 A 
BRANCH  76  79
ATOM     79  S   UNL A   1      45.813  27.133  25.673  1.00  0.00     0.127 S 
ATOM     80  O   UNL A   1      46.963  27.268  24.782  1.00  0.00    -0.237 OA
ATOM     81  O   UNL A   1      45.720  25.844  26.357  1.00  0.00    -0.237 OA
ATOM     82  O   UNL A   1      44.551  27.632  25.144  1.00  0.00    -0.744 OA
ENDBRANCH  76  79
ENDBRANCH  58  72
BRANCH  59  83
ATOM     83  C   UNL A   1      45.393  40.345  27.797  1.00  0.00     0.023 A 
ATOM     84  C   UNL A   1      45.569  41.067  28.993  1.00  0.00     0.012 A 
ATOM     85  C   UNL A   1      45.089  41.044  26.613  1.00  0.00     0.148 A 
ATOM     86  C   UNL A   1      45.414  42.454  29.016  1.00  0.00     0.002 A 
ATOM     87  C   UNL A   1      44.989  42.430  26.631  1.00  0.00     0.091 A 
ATOM     88  F   UNL A   1      44.897  40.339  25.488  1.00  0.00    -0.205 F 
ATOM     89  C   UNL A   1      45.135  43.136  27.834  1.00  0.00     0.022 A 
BRANCH  87  90
ATOM     90  S   UNL A   1      44.756  43.384  25.127  1.00  0.00     0.127 S 
ATOM     91  O   UNL A   1      43.418  42.974  24.714  1.00  0.00    -0.237 OA
ATOM     92  O   UNL A   1      44.856  44.760  25.617  1.00  0.00    -0.237 OA
ATOM     93  O   UNL A   1      45.848  42.986  24.247  1.00  0.00    -0.744 OA
ENDBRANCH  87  90
ENDBRANCH  59  83
BRANCH  71  94
ATOM     94  C   UNL A   1      50.483  36.027  25.764  1.00  0.00     0.023 A 
ATOM     95  C   UNL A   1      50.615  36.171  24.368  1.00  0.00     0.012 A 
ATOM     96  C   UNL A   1      51.621  36.172  26.583  1.00  0.00     0.148 A 
ATOM     97  C   UNL A   1      51.861  36.419  23.794  1.00  0.00     0.002 A 
ATOM     98  C   UNL A   1      52.852  36.463  26.007  1.00  0.00     0.091 A 
ATOM     99  F   UNL A   1      51.482  36.012  27.907  1.00  0.00    -0.205 F 
ATOM    100  C   UNL A   1      52.977  36.576  24.613  1.00  0.00     0.022 A 
BRANCH  98 101
ATOM    101  S   UNL A   1      54.322  36.771  26.994  1.00  0.00     0.127 S 
ATOM    102  O   UNL A   1      54.419  35.540  27.776  1.00  0.00    -0.237 OA
ATOM    103  O   UNL A   1      55.360  36.927  25.972  1.00  0.00    -0.237 OA
ATOM    104  O   UNL A   1      54.043  37.981  27.755  1.00  0.00    -0.744 OA
ENDBRANCH  98 101
ENDBRANCH  71  94
ENDBRANCH  45  46
ENDBRANCH  38  40
ENDBRANCH  37  38
ENDBRANCH  36  37
ENDBRANCH  35  36
ENDBRANCH  34  35
ENDBRANCH   1  34
TORSDOF 23
ENDMDL
MODEL 2
REMARK VINA RESULT:      -9.9      5.921     11.413
REMARK SMILES C[C@@](CC(=O)Nc1ccc(NC(=O)c2ccco2)cc1)(C(=O)OCCOCCOC(=O)c1ccc(-c2c3nc(c(-c4cccc(S(=O)(=O)[O-])c4F)c4ccc([nH]4)c(-c4cccc(S(=O)(=O)[O-])c4F)c4nc(c(-c5cccc(S(=O)(=O)[O-])c5F)c5ccc2[nH]5)C=C4)C=C3)cc1)c1ccccc1
REMARK SMILES IDX 25 1 24 2 23 3 21 4 22 5 2 6 1 7 3 8 4 9 5 10 6 11 7 13 8 14
REMARK SMILES IDX 20 15 9 16 19 17 10 18 11 19 12 20 13 22 14 23 15 24 18 25
REMARK SMILES IDX 16 26 17 27 95 28 96 29 100 30 97 31 99 32 98 33 26 34 27 35
REMARK SMILES IDX 28 36 29 37 30 38 31 39 32 40 33 41 94 42 34 43 93 44 35 45
REMARK SMILES IDX 36 46 37 47 87 48 38 49 92 50 86 51 88 52 39 53 91 54 85 55
REMARK SMILES IDX 84 56 40 58 72 59 52 60 71 61 53 62 56 63 70 64 89 65 54 66
REMARK SMILES IDX 55 67 69 69 90 70 57 71 41 72 42 73 50 74 43 75 45 76 51 77
REMARK SMILES IDX 44 78 46 79 47 80 48 81 49 82 73 83 74 84 82 85 75 86 77 87
REMARK SMILES IDX 83 88 76 89 78 90 79 91 80 92 81 93 58 94 59 95 67 96 60 97
REMARK SMILES IDX 62 98 68 99 61 100 63 101 64 102 65 103 66 104
REMARK H PARENT 6 12 11 21 88 57 56 68
REMARK Flexibility Score: inf
ROOT
ATOM      1  C   UNL A   1      40.211  26.418  27.826  1.00  0.00     0.202 C 
ENDROOT
BRANCH   1   2
ATOM      2  C   UNL A   1      40.837  27.210  28.978  1.00  0.00     0.261 C 
BRANCH   2   3
ATOM      3  O   UNL A   1      39.836  27.535  29.956  1.00  0.00    -0.463 OA
BRANCH   3   4
ATOM      4  C   UNL A   1      40.208  28.446  30.899  1.00  0.00     0.316 C 
ATOM      5  O   UNL A   1      41.300  28.454  31.454  1.00  0.00    -0.251 OA
BRANCH   4   6
ATOM      6  C   UNL A   1      39.084  29.476  31.162  1.00  0.00     0.099 C 
ATOM      7  C   UNL A   1      38.062  28.992  32.222  1.00  0.00     0.029 C 
BRANCH   6   8
ATOM      8  C   UNL A   1      39.755  30.796  31.635  1.00  0.00     0.123 C 
BRANCH   8   9
ATOM      9  C   UNL A   1      39.327  31.386  32.994  1.00  0.00     0.225 C 
ATOM     10  O   UNL A   1      39.999  31.173  34.004  1.00  0.00    -0.275 OA
ATOM     11  N   UNL A   1      38.302  32.303  33.058  1.00  0.00    -0.326 N 
ATOM     12  H   UNL A   1      38.315  32.916  33.828  1.00  0.00     0.169 HD
BRANCH  11  13
ATOM     13  C   UNL A   1      37.248  32.465  32.157  1.00  0.00     0.041 A 
ATOM     14  C   UNL A   1      36.014  31.887  32.397  1.00  0.00     0.028 A 
ATOM     15  C   UNL A   1      37.428  33.174  30.982  1.00  0.00     0.028 A 
ATOM     16  C   UNL A   1      34.916  32.264  31.607  1.00  0.00     0.028 A 
ATOM     17  C   UNL A   1      36.337  33.592  30.225  1.00  0.00     0.028 A 
ATOM     18  C   UNL A   1      35.047  33.222  30.600  1.00  0.00     0.041 A 
BRANCH  18  19
ATOM     19  N   UNL A   1      33.999  33.905  29.955  1.00  0.00    -0.319 N 
ATOM     20  C   UNL A   1      33.361  35.106  30.188  1.00  0.00     0.291 C 
ATOM     21  H   UNL A   1      33.646  33.424  29.172  1.00  0.00     0.170 HD
ATOM     22  O   UNL A   1      32.569  35.498  29.327  1.00  0.00    -0.265 OA
BRANCH  20  23
ATOM     23  C   UNL A   1      33.634  35.855  31.382  1.00  0.00     0.191 A 
ATOM     24  C   UNL A   1      33.831  35.481  32.700  1.00  0.00     0.056 A 
ATOM     25  O   UNL A   1      33.702  37.216  31.277  1.00  0.00    -0.459 OA
ATOM     26  C   UNL A   1      33.954  36.683  33.442  1.00  0.00     0.043 A 
ATOM     27  C   UNL A   1      33.885  37.707  32.527  1.00  0.00     0.196 A 
ENDBRANCH  20  23
ENDBRANCH  18  19
ENDBRANCH  11  13
ENDBRANCH   8   9
ENDBRANCH   6   8
BRANCH   6  28
ATOM     28  C   UNL A   1      38.128  29.633  29.939  1.00  0.00    -0.030 A 
ATOM     29  C   UNL A   1      36.757  29.318  30.067  1.00  0.00     0.005 A 
ATOM     30  C   UNL A   1      38.523  30.367  28.805  1.00  0.00     0.005 A 
ATOM     31  C   UNL A   1      35.818  29.756  29.131  1.00  0.00     0.000 A 
ATOM     32  C   UNL A   1      37.577  30.814  27.876  1.00  0.00     0.000 A 
ATOM     33  C   UNL A   1      36.226  30.520  28.046  1.00  0.00     0.000 A 
ENDBRANCH   6  28
ENDBRANCH   4   6
ENDBRANCH   3   4
ENDBRANCH   2   3
ENDBRANCH   1   2
BRANCH   1  34
ATOM     34  O   UNL A   1      41.108  25.702  26.965  1.00  0.00    -0.374 OA
BRANCH  34  35
ATOM     35  C   UNL A   1      40.809  24.337  26.697  1.00  0.00     0.202 C 
BRANCH  35  36
ATOM     36  C   UNL A   1      41.122  23.310  27.799  1.00  0.00     0.261 C 
BRANCH  36  37
ATOM     37  O   UNL A   1      41.951  23.821  28.856  1.00  0.00    -0.460 OA
BRANCH  37  38
ATOM     38  C   UNL A   1      43.280  23.617  28.658  1.00  0.00     0.338 C 
ATOM     39  O   UNL A   1      43.848  22.545  28.538  1.00  0.00    -0.246 OA
BRANCH  38  40
ATOM     40  C   UNL A   1      43.982  24.896  28.437  1.00  0.00     0.060 A 
ATOM     41  C   UNL A   1      44.379  25.182  27.125  1.00  0.00     0.016 A 
ATOM     42  C   UNL A   1      44.353  25.732  29.490  1.00  0.00     0.016 A 
ATOM     43  C   UNL A   1      45.190  26.285  26.867  1.00  0.00     0.010 A 
ATOM     44  C   UNL A   1      45.176  26.838  29.228  1.00  0.00     0.010 A 
ATOM     45  C   UNL A   1      45.628  27.098  27.921  1.00  0.00    -0.014 A 
BRANCH  45  46
ATOM     46  C   UNL A   1      46.653  28.137  27.648  1.00  0.00     0.031 A 
ATOM     47  C   UNL A   1      46.218  29.543  27.329  1.00  0.00     0.074 A 
ATOM     48  C   UNL A   1      47.964  27.843  27.732  1.00  0.00     0.049 A 
ATOM     49  N   UNL A   1      46.950  30.607  27.119  1.00  0.00    -0.248 NA
ATOM     50  C   UNL A   1      44.769  29.784  27.238  1.00  0.00     0.031 C 
ATOM     51  C   UNL A   1      48.515  26.523  28.031  1.00  0.00     0.029 A 
ATOM     52  N   UNL A   1      49.070  28.640  27.561  1.00  0.00    -0.354 N 
ATOM     53  C   UNL A   1      46.056  31.640  26.860  1.00  0.00     0.074 A 
ATOM     54  C   UNL A   1      44.727  31.071  26.919  1.00  0.00     0.031 C 
ATOM     55  C   UNL A   1      49.857  26.594  28.001  1.00  0.00     0.029 A 
ATOM     56  C   UNL A   1      50.260  27.960  27.672  1.00  0.00     0.049 A 
ATOM     57  H   UNL A   1      49.015  29.605  27.377  1.00  0.00     0.167 HD
ATOM     58  C   UNL A   1      46.314  32.947  26.618  1.00  0.00     0.034 A 
ATOM     59  C   UNL A   1      51.528  28.389  27.516  1.00  0.00     0.034 A 
ATOM     60  C   UNL A   1      47.633  33.521  26.579  1.00  0.00     0.049 A 
ATOM     61  C   UNL A   1      51.787  29.846  27.233  1.00  0.00     0.074 A 
ATOM     62  C   UNL A   1      47.989  34.844  26.381  1.00  0.00     0.029 A 
ATOM     63  N   UNL A   1      48.812  32.810  26.733  1.00  0.00    -0.354 N 
ATOM     64  N   UNL A   1      50.929  30.832  27.121  1.00  0.00    -0.248 NA
ATOM     65  C   UNL A   1      53.192  30.258  27.089  1.00  0.00     0.031 C 
ATOM     66  C   UNL A   1      49.386  34.929  26.398  1.00  0.00     0.029 A 
ATOM     67  C   UNL A   1      49.898  33.662  26.624  1.00  0.00     0.049 A 
ATOM     68  H   UNL A   1      48.869  31.840  26.896  1.00  0.00     0.167 HD
ATOM     69  C   UNL A   1      51.689  31.980  26.927  1.00  0.00     0.074 A 
ATOM     70  C   UNL A   1      53.079  31.572  26.962  1.00  0.00     0.031 C 
ATOM     71  C   UNL A   1      51.276  33.255  26.715  1.00  0.00     0.034 A 
BRANCH  58  72
ATOM     72  C   UNL A   1      45.140  33.868  26.419  1.00  0.00     0.023 A 
ATOM     73  C   UNL A   1      44.439  33.841  25.197  1.00  0.00     0.012 A 
ATOM     74  C   UNL A   1      44.684  34.700  27.461  1.00  0.00     0.148 A 
ATOM     75  C   UNL A   1      43.315  34.642  25.005  1.00  0.00     0.002 A 
ATOM     76  C   UNL A   1      43.540  35.468  27.275  1.00  0.00     0.091 A 
ATOM     77  F   UNL A   1      45.378  34.727  28.607  1.00  0.00    -0.205 F 
ATOM     78  C   UNL A   1      42.859  35.445  26.047  1.00  0.00     0.022 A 
BRANCH  76  79
ATOM     79  S   UNL A   1      42.833  36.485  28.577  1.00  0.00     0.127 S 
ATOM     80  O   UNL A   1      42.478  35.479  29.575  1.00  0.00    -0.237 OA
ATOM     81  O   UNL A   1      43.961  37.339  28.947  1.00  0.00    -0.237 OA
ATOM     82  O   UNL A   1      41.710  37.188  27.973  1.00  0.00    -0.744 OA
ENDBRANCH  76  79
ENDBRANCH  58  72
BRANCH  59  83
ATOM     83  C   UNL A   1      52.662  27.433  27.663  1.00  0.00     0.023 A 
ATOM     84  C   UNL A   1      53.332  27.326  28.897  1.00  0.00     0.012 A 
ATOM     85  C   UNL A   1      53.077  26.628  26.586  1.00  0.00     0.148 A 
ATOM     86  C   UNL A   1      54.415  26.458  29.046  1.00  0.00     0.002 A 
ATOM     87  C   UNL A   1      54.121  25.726  26.755  1.00  0.00     0.091 A 
ATOM     88  F   UNL A   1      52.446  26.762  25.409  1.00  0.00    -0.205 F 
ATOM     89  C   UNL A   1      54.802  25.650  27.979  1.00  0.00     0.022 A 
BRANCH  87  90
ATOM     90  S   UNL A   1      54.592  24.566  25.466  1.00  0.00     0.127 S 
ATOM     91  O   UNL A   1      54.882  25.460  24.349  1.00  0.00    -0.237 OA
ATOM     92  O   UNL A   1      55.763  23.913  26.053  1.00  0.00    -0.237 OA
ATOM     93  O   UNL A   1      53.441  23.688  25.300  1.00  0.00    -0.744 OA
ENDBRANCH  87  90
ENDBRANCH  59  83
BRANCH  71  94
ATOM     94  C   UNL A   1      52.335  34.310  26.525  1.00  0.00     0.023 A 
ATOM     95  C   UNL A   1      52.754  34.649  25.223  1.00  0.00     0.012 A 
ATOM     96  C   UNL A   1      52.868  35.010  27.626  1.00  0.00     0.148 A 
ATOM     97  C   UNL A   1      53.712  35.641  25.021  1.00  0.00     0.002 A 
ATOM     98  C   UNL A   1      53.789  36.029  27.414  1.00  0.00     0.091 A 
ATOM     99  F   UNL A   1      52.473  34.662  28.859  1.00  0.00    -0.205 F 
ATOM    100  C   UNL A   1      54.222  36.338  26.115  1.00  0.00     0.022 A 
BRANCH  98 101
ATOM    101  S   UNL A   1      54.427  37.039  28.757  1.00  0.00     0.127 S 
ATOM    102  O   UNL A   1      55.402  37.878  28.063  1.00  0.00    -0.237 OA
ATOM    103  O   UNL A   1      53.229  37.747  29.214  1.00  0.00    -0.237 OA
ATOM    104  O   UNL A   1      54.978  36.104  29.729  1.00  0.00    -0.744 OA
ENDBRANCH  98 101
ENDBRANCH  71  94
ENDBRANCH  45  46
ENDBRANCH  38  40
ENDBRANCH  37  38
ENDBRANCH  36  37
ENDBRANCH  35  36
ENDBRANCH  34  35
ENDBRANCH   1  34
TORSDOF 23
ENDMDL
MODEL 3
REMARK VINA RESULT:      -9.8      7.125     13.344
REMARK SMILES C[C@@](CC(=O)Nc1ccc(NC(=O)c2ccco2)cc1)(C(=O)OCCOCCOC(=O)c1ccc(-c2c3nc(c(-c4cccc(S(=O)(=O)[O-])c4F)c4ccc([nH]4)c(-c4cccc(S(=O)(=O)[O-])c4F)c4nc(c(-c5cccc(S(=O)(=O)[O-])c5F)c5ccc2[nH]5)C=C4)C=C3)cc1)c1ccccc1
REMARK SMILES IDX 25 1 24 2 23 3 21 4 22 5 2 6 1 7 3 8 4 9 5 10 6 11 7 13 8 14
REMARK SMILES IDX 20 15 9 16 19 17 10 18 11 19 12 20 13 22 14 23 15 24 18 25
REMARK SMILES IDX 16 26 17 27 95 28 96 29 100 30 97 31 99 32 98 33 26 34 27 35
REMARK SMILES IDX 28 36 29 37 30 38 31 39 32 40 33 41 94 42 34 43 93 44 35 45
REMARK SMILES IDX 36 46 37 47 87 48 38 49 92 50 86 51 88 52 39 53 91 54 85 55
REMARK SMILES IDX 84 56 40 58 72 59 52 60 71 61 53 62 56 63 70 64 89 65 54 66
REMARK SMILES IDX 55 67 69 69 90 70 57 71 41 72 42 73 50 74 43 75 45 76 51 77
REMARK SMILES IDX 44 78 46 79 47 80 48 81 49 82 73 83 74 84 82 85 75 86 77 87
REMARK SMILES IDX 83 88 76 89 78 90 79 91 80 92 81 93 58 94 59 95 67 96 60 97
REMARK SMILES IDX 62 98 68 99 61 100 63 101 64 102 65 103 66 104
REMARK H PARENT 6 12 11 21 88 57 56 68
REMARK Flexibility Score: inf
ROOT
ATOM      1  C   UNL A   1      38.827  29.763  28.444  1.00  0.00     0.202 C 
ENDROOT
BRANCH   1   2
ATOM      2  C   UNL A   1      38.951  28.247  28.264  1.00  0.00     0.261 C 
BRANCH   2   3
ATOM      3  O   UNL A   1      40.300  27.827  28.528  1.00  0.00    -0.463 OA
BRANCH   3   4
ATOM      4  C   UNL A   1      40.565  26.512  28.288  1.00  0.00     0.316 C 
ATOM      5  O   UNL A   1      39.794  25.596  28.549  1.00  0.00    -0.251 OA
BRANCH   4   6
ATOM      6  C   UNL A   1      41.951  26.328  27.626  1.00  0.00     0.099 C 
ATOM      7  C   UNL A   1      41.929  25.304  26.463  1.00  0.00     0.029 C 
BRANCH   6   8
ATOM      8  C   UNL A   1      42.411  27.718  27.101  1.00  0.00     0.123 C 
BRANCH   8   9
ATOM      9  C   UNL A   1      43.076  27.789  25.711  1.00  0.00     0.225 C 
ATOM     10  O   UNL A   1      42.385  27.898  24.696  1.00  0.00    -0.275 OA
ATOM     11  N   UNL A   1      44.441  27.919  25.604  1.00  0.00    -0.326 N 
ATOM     12  H   UNL A   1      44.775  28.333  24.775  1.00  0.00     0.169 HD
BRANCH  11  13
ATOM     13  C   UNL A   1      45.409  27.533  26.533  1.00  0.00     0.041 A 
ATOM     14  C   UNL A   1      45.878  28.423  27.482  1.00  0.00     0.028 A 
ATOM     15  C   UNL A   1      45.950  26.260  26.497  1.00  0.00     0.028 A 
ATOM     16  C   UNL A   1      46.661  27.943  28.544  1.00  0.00     0.028 A 
ATOM     17  C   UNL A   1      46.684  25.764  27.572  1.00  0.00     0.028 A 
ATOM     18  C   UNL A   1      46.957  26.583  28.665  1.00  0.00     0.041 A 
BRANCH  18  19
ATOM     19  N   UNL A   1      47.454  25.936  29.811  1.00  0.00    -0.319 N 
ATOM     20  C   UNL A   1      48.719  25.764  30.333  1.00  0.00     0.291 C 
ATOM     21  H   UNL A   1      46.749  25.516  30.355  1.00  0.00     0.170 HD
ATOM     22  O   UNL A   1      48.799  25.269  31.461  1.00  0.00    -0.265 OA
BRANCH  20  23
ATOM     23  C   UNL A   1      49.876  26.167  29.584  1.00  0.00     0.191 A 
ATOM     24  C   UNL A   1      50.542  25.601  28.511  1.00  0.00     0.056 A 
ATOM     25  O   UNL A   1      50.514  27.313  29.967  1.00  0.00    -0.459 OA
ATOM     26  C   UNL A   1      51.683  26.410  28.277  1.00  0.00     0.043 A 
ATOM     27  C   UNL A   1      51.609  27.446  29.178  1.00  0.00     0.196 A 
ENDBRANCH  20  23
ENDBRANCH  18  19
ENDBRANCH  11  13
ENDBRANCH   8   9
ENDBRANCH   6   8
BRANCH   6  28
ATOM     28  C   UNL A   1      42.969  25.619  28.571  1.00  0.00    -0.030 A 
ATOM     29  C   UNL A   1      43.483  26.298  29.697  1.00  0.00     0.005 A 
ATOM     30  C   UNL A   1      43.155  24.224  28.514  1.00  0.00     0.005 A 
ATOM     31  C   UNL A   1      44.112  25.614  30.739  1.00  0.00     0.000 A 
ATOM     32  C   UNL A   1      43.775  23.541  29.565  1.00  0.00     0.000 A 
ATOM     33  C   UNL A   1      44.240  24.232  30.681  1.00  0.00     0.000 A 
ENDBRANCH   6  28
ENDBRANCH   4   6
ENDBRANCH   3   4
ENDBRANCH   2   3
ENDBRANCH   1   2
BRANCH   1  34
ATOM     34  O   UNL A   1      37.615  30.251  29.035  1.00  0.00    -0.374 OA
BRANCH  34  35
ATOM     35  C   UNL A   1      36.836  29.330  29.789  1.00  0.00     0.202 C 
BRANCH  35  36
ATOM     36  C   UNL A   1      36.510  29.701  31.247  1.00  0.00     0.261 C 
BRANCH  36  37
ATOM     37  O   UNL A   1      37.655  30.092  32.021  1.00  0.00    -0.460 OA
BRANCH  37  38
ATOM     38  C   UNL A   1      38.189  29.083  32.760  1.00  0.00     0.338 C 
ATOM     39  O   UNL A   1      37.596  28.135  33.244  1.00  0.00    -0.246 OA
BRANCH  38  40
ATOM     40  C   UNL A   1      39.662  29.173  32.786  1.00  0.00     0.060 A 
ATOM     41  C   UNL A   1      40.356  28.503  31.771  1.00  0.00     0.016 A 
ATOM     42  C   UNL A   1      40.351  29.783  33.835  1.00  0.00     0.016 A 
ATOM     43  C   UNL A   1      41.744  28.402  31.825  1.00  0.00     0.010 A 
ATOM     44  C   UNL A   1      41.748  29.673  33.891  1.00  0.00     0.010 A 
ATOM     45  C   UNL A   1      42.448  28.950  32.906  1.00  0.00    -0.014 A 
BRANCH  45  46
ATOM     46  C   UNL A   1      43.896  28.651  33.047  1.00  0.00     0.031 A 
ATOM     47  C   UNL A   1      44.906  29.542  32.376  1.00  0.00     0.074 A 
ATOM     48  C   UNL A   1      44.310  27.620  33.807  1.00  0.00     0.049 A 
ATOM     49  N   UNL A   1      46.213  29.492  32.422  1.00  0.00    -0.248 NA
ATOM     50  C   UNL A   1      44.377  30.638  31.547  1.00  0.00     0.031 C 
ATOM     51  C   UNL A   1      43.434  26.683  34.507  1.00  0.00     0.029 A 
ATOM     52  N   UNL A   1      45.578  27.186  34.107  1.00  0.00    -0.354 N 
ATOM     53  C   UNL A   1      46.664  30.536  31.623  1.00  0.00     0.074 A 
ATOM     54  C   UNL A   1      45.491  31.194  31.087  1.00  0.00     0.031 C 
ATOM     55  C   UNL A   1      44.191  25.768  35.138  1.00  0.00     0.029 A 
ATOM     56  C   UNL A   1      45.601  26.049  34.880  1.00  0.00     0.049 A 
ATOM     57  H   UNL A   1      46.391  27.645  33.797  1.00  0.00     0.167 HD
ATOM     58  C   UNL A   1      47.936  30.929  31.375  1.00  0.00     0.034 A 
ATOM     59  C   UNL A   1      46.642  25.314  35.320  1.00  0.00     0.034 A 
ATOM     60  C   UNL A   1      49.104  30.292  31.923  1.00  0.00     0.049 A 
ATOM     61  C   UNL A   1      48.047  25.765  35.018  1.00  0.00     0.074 A 
ATOM     62  C   UNL A   1      50.432  30.646  31.759  1.00  0.00     0.029 A 
ATOM     63  N   UNL A   1      49.088  29.167  32.731  1.00  0.00    -0.354 N 
ATOM     64  N   UNL A   1      48.452  26.832  34.369  1.00  0.00    -0.248 NA
ATOM     65  C   UNL A   1      49.142  24.931  35.538  1.00  0.00     0.031 C 
ATOM     66  C   UNL A   1      51.221  29.723  32.456  1.00  0.00     0.029 A 
ATOM     67  C   UNL A   1      50.382  28.806  33.067  1.00  0.00     0.049 A 
ATOM     68  H   UNL A   1      48.275  28.694  33.024  1.00  0.00     0.167 HD
ATOM     69  C   UNL A   1      49.841  26.812  34.432  1.00  0.00     0.074 A 
ATOM     70  C   UNL A   1      50.209  25.644  35.204  1.00  0.00     0.031 C 
ATOM     71  C   UNL A   1      50.735  27.672  33.881  1.00  0.00     0.034 A 
BRANCH  58  72
ATOM     72  C   UNL A   1      48.138  32.140  30.504  1.00  0.00     0.023 A 
ATOM     73  C   UNL A   1      48.289  33.407  31.103  1.00  0.00     0.012 A 
ATOM     74  C   UNL A   1      48.257  32.018  29.105  1.00  0.00     0.148 A 
ATOM     75  C   UNL A   1      48.532  34.536  30.325  1.00  0.00     0.002 A 
ATOM     76  C   UNL A   1      48.537  33.143  28.338  1.00  0.00     0.091 A 
ATOM     77  F   UNL A   1      48.090  30.808  28.553  1.00  0.00    -0.205 F 
ATOM     78  C   UNL A   1      48.668  34.403  28.946  1.00  0.00     0.022 A 
BRANCH  76  79
ATOM     79  S   UNL A   1      48.799  33.067  26.563  1.00  0.00     0.127 S 
ATOM     80  O   UNL A   1      47.478  32.658  26.088  1.00  0.00    -0.237 OA
ATOM     81  O   UNL A   1      49.160  34.448  26.245  1.00  0.00    -0.237 OA
ATOM     82  O   UNL A   1      49.865  32.097  26.355  1.00  0.00    -0.744 OA
ENDBRANCH  76  79
ENDBRANCH  58  72
BRANCH  59  83
ATOM     83  C   UNL A   1      46.399  24.088  36.132  1.00  0.00     0.023 A 
ATOM     84  C   UNL A   1      46.207  24.196  37.523  1.00  0.00     0.012 A 
ATOM     85  C   UNL A   1      46.354  22.816  35.531  1.00  0.00     0.148 A 
ATOM     86  C   UNL A   1      46.007  23.057  38.304  1.00  0.00     0.002 A 
ATOM     87  C   UNL A   1      46.101  21.691  36.305  1.00  0.00     0.091 A 
ATOM     88  F   UNL A   1      46.566  22.728  34.209  1.00  0.00    -0.205 F 
ATOM     89  C   UNL A   1      45.943  21.806  37.695  1.00  0.00     0.022 A 
BRANCH  87  90
ATOM     90  S   UNL A   1      45.879  20.065  35.574  1.00  0.00     0.127 S 
ATOM     91  O   UNL A   1      45.716  19.223  36.755  1.00  0.00    -0.237 OA
ATOM     92  O   UNL A   1      44.665  20.248  34.776  1.00  0.00    -0.237 OA
ATOM     93  O   UNL A   1      47.081  19.832  34.783  1.00  0.00    -0.744 OA
ENDBRANCH  87  90
ENDBRANCH  59  83
BRANCH  71  94
ATOM     94  C   UNL A   1      52.199  27.397  34.107  1.00  0.00     0.023 A 
ATOM     95  C   UNL A   1      52.854  27.975  35.214  1.00  0.00     0.012 A 
ATOM     96  C   UNL A   1      52.911  26.519  33.266  1.00  0.00     0.148 A 
ATOM     97  C   UNL A   1      54.200  27.713  35.458  1.00  0.00     0.002 A 
ATOM     98  C   UNL A   1      54.242  26.227  33.542  1.00  0.00     0.091 A 
ATOM     99  F   UNL A   1      52.279  25.993  32.206  1.00  0.00    -0.205 F 
ATOM    100  C   UNL A   1      54.892  26.831  34.630  1.00  0.00     0.022 A 
BRANCH  98 101
ATOM    101  S   UNL A   1      55.180  25.033  32.581  1.00  0.00     0.127 S 
ATOM    102  O   UNL A   1      55.107  25.608  31.239  1.00  0.00    -0.237 OA
ATOM    103  O   UNL A   1      56.505  25.100  33.202  1.00  0.00    -0.237 OA
ATOM    104  O   UNL A   1      54.498  23.758  32.758  1.00  0.00    -0.744 OA
ENDBRANCH  98 101
ENDBRANCH  71  94
ENDBRANCH  45  46
ENDBRANCH  38  40
ENDBRANCH  37  38
ENDBRANCH  36  37
ENDBRANCH  35  36
ENDBRANCH  34  35
ENDBRANCH   1  34
TORSDOF 23
ENDMDL
