MODEL 1
REMARK VINA RESULT:     -10.2      0.000      0.000
REMARK SMILES O=C(NCCOCC(=O)OCCOCCOC(=O)c1ccc(-c2c3nc(c(-c4cccc(S(=O)(=O)[O-])c4F)c4ccc([nH]4)c(-c4cccc(S(=O)(=O)[O-])c4F)c4nc(c(-c5cccc(S(=O)(=O)[O-])c5F)c5ccc2[nH]5)C=C4)C=C3)cc1)Nc1cccc(F)c1
REMARK SMILES IDX 12 1 11 2 10 3 8 4 9 5 7 6 6 7 5 8 4 9 3 10 1 11 2 12 82 13
REMARK SMILES IDX 83 16 84 17 89 18 85 19 87 20 86 21 88 22 13 23 14 24 15 25
REMARK SMILES IDX 16 26 17 27 18 28 19 29 20 30 81 31 21 32 80 33 22 34 23 35
REMARK SMILES IDX 24 36 74 37 25 38 79 39 73 40 75 41 26 42 78 43 72 44 71 45
REMARK SMILES IDX 27 47 59 48 39 49 58 50 40 51 43 52 57 53 76 54 41 55 42 56
REMARK SMILES IDX 56 58 77 59 44 60 28 61 29 62 37 63 30 64 32 65 38 66 31 67
REMARK SMILES IDX 33 68 34 69 35 70 36 71 60 72 61 73 69 74 62 75 64 76 70 77
REMARK SMILES IDX 63 78 65 79 66 80 67 81 68 82 45 83 46 84 54 85 47 86 49 87
REMARK SMILES IDX 55 88 48 89 50 90 51 91 52 92 53 93
REMARK H PARENT 3 14 82 15 75 46 43 57
REMARK Flexibility Score: inf
ROOT
ATOM      1  C   UNL A   1      34.955  24.054  24.193  1.00  0.00     0.202 C 
ENDROOT
BRANCH   1   2
ATOM      2  C   UNL A   1      33.823  23.995  23.165  1.00  0.00     0.261 C 
BRANCH   2   3
ATOM      3  O   UNL A   1      32.945  25.140  23.245  1.00  0.00    -0.462 OA
BRANCH   3   4
ATOM      4  C   UNL A   1      31.721  24.906  23.788  1.00  0.00     0.332 C 
ATOM      5  O   UNL A   1      30.831  24.249  23.261  1.00  0.00    -0.250 OA
BRANCH   4   6
ATOM      6  C   UNL A   1      31.514  25.622  25.137  1.00  0.00     0.282 C 
BRANCH   6   7
ATOM      7  O   UNL A   1      31.389  25.049  26.420  1.00  0.00    -0.368 OA
BRANCH   7   8
ATOM      8  C   UNL A   1      32.347  24.079  26.821  1.00  0.00     0.182 C 
BRANCH   8   9
ATOM      9  C   UNL A   1      31.900  22.607  26.723  1.00  0.00     0.146 C 
BRANCH   9  10
ATOM     10  N   UNL A   1      31.903  22.065  25.373  1.00  0.00    -0.336 N 
ATOM     11  O   UNL A   1      32.181  20.716  23.647  1.00  0.00    -0.249 OA
ATOM     12  C   UNL A   1      32.211  20.845  24.867  1.00  0.00     0.319 C 
ATOM     13  N   UNL A   1      32.504  19.846  25.752  1.00  0.00    -0.308 N 
ATOM     14  H   UNL A   1      31.625  22.716  24.688  1.00  0.00     0.165 HD
ATOM     15  H   UNL A   1      32.294  19.998  26.702  1.00  0.00     0.171 HD
BRANCH  13  16
ATOM     16  C   UNL A   1      33.088  18.608  25.392  1.00  0.00     0.045 A 
ATOM     17  C   UNL A   1      34.268  18.616  24.639  1.00  0.00     0.026 A 
ATOM     18  C   UNL A   1      32.516  17.378  25.739  1.00  0.00     0.065 A 
ATOM     19  C   UNL A   1      34.890  17.414  24.276  1.00  0.00     0.005 A 
ATOM     20  C   UNL A   1      33.129  16.190  25.354  1.00  0.00     0.125 A 
ATOM     21  C   UNL A   1      34.316  16.196  24.635  1.00  0.00     0.039 A 
ATOM     22  F   UNL A   1      32.566  15.019  25.678  1.00  0.00    -0.207 F 
ENDBRANCH  13  16
ENDBRANCH   9  10
ENDBRANCH   8   9
ENDBRANCH   7   8
ENDBRANCH   6   7
ENDBRANCH   4   6
ENDBRANCH   3   4
ENDBRANCH   2   3
ENDBRANCH   1   2
BRANCH   1  23
ATOM     23  O   UNL A   1      35.098  22.928  25.059  1.00  0.00    -0.374 OA
BRANCH  23  24
ATOM     24  C   UNL A   1      35.783  21.800  24.529  1.00  0.00     0.202 C 
BRANCH  24  25
ATOM     25  C   UNL A   1      36.865  21.178  25.425  1.00  0.00     0.261 C 
BRANCH  25  26
ATOM     26  O   UNL A   1      38.197  21.518  25.005  1.00  0.00    -0.460 OA
BRANCH  26  27
ATOM     27  C   UNL A   1      39.150  21.296  25.946  1.00  0.00     0.338 C 
ATOM     28  O   UNL A   1      39.739  20.251  26.165  1.00  0.00    -0.246 OA
BRANCH  27  29
ATOM     29  C   UNL A   1      39.543  22.567  26.585  1.00  0.00     0.060 A 
ATOM     30  C   UNL A   1      38.915  23.732  26.125  1.00  0.00     0.016 A 
ATOM     31  C   UNL A   1      40.542  22.636  27.559  1.00  0.00     0.016 A 
ATOM     32  C   UNL A   1      39.319  24.977  26.599  1.00  0.00     0.010 A 
ATOM     33  C   UNL A   1      40.953  23.890  28.025  1.00  0.00     0.010 A 
ATOM     34  C   UNL A   1      40.370  25.066  27.520  1.00  0.00    -0.014 A 
BRANCH  34  35
ATOM     35  C   UNL A   1      40.950  26.396  27.832  1.00  0.00     0.031 A 
ATOM     36  C   UNL A   1      42.331  26.724  27.332  1.00  0.00     0.074 A 
ATOM     37  C   UNL A   1      40.247  27.310  28.525  1.00  0.00     0.049 A 
ATOM     38  N   UNL A   1      43.031  27.816  27.491  1.00  0.00    -0.248 NA
ATOM     39  C   UNL A   1      43.012  25.681  26.546  1.00  0.00     0.031 C 
ATOM     40  C   UNL A   1      38.894  27.118  29.042  1.00  0.00     0.029 A 
ATOM     41  N   UNL A   1      40.585  28.578  28.924  1.00  0.00    -0.354 N 
ATOM     42  C   UNL A   1      44.243  27.586  26.849  1.00  0.00     0.074 A 
ATOM     43  C   UNL A   1      44.188  26.244  26.310  1.00  0.00     0.031 C 
ATOM     44  C   UNL A   1      38.523  28.223  29.712  1.00  0.00     0.029 A 
ATOM     45  C   UNL A   1      39.622  29.187  29.692  1.00  0.00     0.049 A 
ATOM     46  H   UNL A   1      41.437  29.010  28.685  1.00  0.00     0.167 HD
ATOM     47  C   UNL A   1      45.299  28.421  26.703  1.00  0.00     0.034 A 
ATOM     48  C   UNL A   1      39.634  30.378  30.325  1.00  0.00     0.034 A 
ATOM     49  C   UNL A   1      45.345  29.760  27.225  1.00  0.00     0.049 A 
ATOM     50  C   UNL A   1      40.841  31.272  30.188  1.00  0.00     0.074 A 
ATOM     51  C   UNL A   1      46.355  30.698  27.100  1.00  0.00     0.029 A 
ATOM     52  N   UNL A   1      44.344  30.348  27.984  1.00  0.00    -0.354 N 
ATOM     53  N   UNL A   1      41.934  31.082  29.490  1.00  0.00    -0.248 NA
ATOM     54  C   UNL A   1      40.803  32.555  30.905  1.00  0.00     0.031 C 
ATOM     55  C   UNL A   1      45.976  31.843  27.810  1.00  0.00     0.029 A 
ATOM     56  C   UNL A   1      44.718  31.631  28.349  1.00  0.00     0.049 A 
ATOM     57  H   UNL A   1      43.493  29.918  28.227  1.00  0.00     0.167 HD
ATOM     58  C   UNL A   1      42.697  32.234  29.652  1.00  0.00     0.074 A 
ATOM     59  C   UNL A   1      41.932  33.123  30.502  1.00  0.00     0.031 C 
ATOM     60  C   UNL A   1      43.924  32.526  29.152  1.00  0.00     0.034 A 
BRANCH  47  61
ATOM     61  C   UNL A   1      46.487  27.914  25.929  1.00  0.00     0.023 A 
ATOM     62  C   UNL A   1      46.460  27.930  24.519  1.00  0.00     0.012 A 
ATOM     63  C   UNL A   1      47.645  27.464  26.593  1.00  0.00     0.148 A 
ATOM     64  C   UNL A   1      47.553  27.473  23.782  1.00  0.00     0.002 A 
ATOM     65  C   UNL A   1      48.747  27.052  25.851  1.00  0.00     0.091 A 
ATOM     66  F   UNL A   1      47.644  27.435  27.933  1.00  0.00    -0.205 F 
ATOM     67  C   UNL A   1      48.698  27.044  24.448  1.00  0.00     0.022 A 
BRANCH  65  68
ATOM     68  S   UNL A   1      50.293  26.552  26.615  1.00  0.00     0.127 S 
ATOM     69  O   UNL A   1      49.819  25.822  27.791  1.00  0.00    -0.237 OA
ATOM     70  O   UNL A   1      50.894  25.714  25.578  1.00  0.00    -0.237 OA
ATOM     71  O   UNL A   1      51.019  27.783  26.896  1.00  0.00    -0.744 OA
ENDBRANCH  65  68
ENDBRANCH  47  61
BRANCH  48  72
ATOM     72  C   UNL A   1      38.452  30.812  31.121  1.00  0.00     0.023 A 
ATOM     73  C   UNL A   1      38.406  30.543  32.502  1.00  0.00     0.012 A 
ATOM     74  C   UNL A   1      37.381  31.503  30.521  1.00  0.00     0.148 A 
ATOM     75  C   UNL A   1      37.304  30.930  33.266  1.00  0.00     0.002 A 
ATOM     76  C   UNL A   1      36.313  31.935  31.296  1.00  0.00     0.091 A 
ATOM     77  F   UNL A   1      37.435  31.732  29.200  1.00  0.00    -0.205 F 
ATOM     78  C   UNL A   1      36.263  31.635  32.666  1.00  0.00     0.022 A 
BRANCH  76  79
ATOM     79  S   UNL A   1      34.991  32.957  30.635  1.00  0.00     0.127 S 
ATOM     80  O   UNL A   1      35.712  34.170  30.256  1.00  0.00    -0.237 OA
ATOM     81  O   UNL A   1      34.515  32.145  29.515  1.00  0.00    -0.237 OA
ATOM     82  O   UNL A   1      34.030  33.107  31.718  1.00  0.00    -0.744 OA
ENDBRANCH  76  79
ENDBRANCH  48  72
BRANCH  60  83
ATOM     83  C   UNL A   1      44.512  33.875  29.477  1.00  0.00     0.023 A 
ATOM     84  C   UNL A   1      45.199  34.068  30.692  1.00  0.00     0.012 A 
ATOM     85  C   UNL A   1      44.456  34.927  28.540  1.00  0.00     0.148 A 
ATOM     86  C   UNL A   1      45.794  35.296  30.982  1.00  0.00     0.002 A 
ATOM     87  C   UNL A   1      45.094  36.130  28.814  1.00  0.00     0.091 A 
ATOM     88  F   UNL A   1      43.784  34.728  27.396  1.00  0.00    -0.205 F 
ATOM     89  C   UNL A   1      45.752  36.321  30.040  1.00  0.00     0.022 A 
BRANCH  87  90
ATOM     90  S   UNL A   1      45.176  37.473  27.624  1.00  0.00     0.127 S 
ATOM     91  O   UNL A   1      43.785  37.921  27.584  1.00  0.00    -0.237 OA
ATOM     92  O   UNL A   1      46.098  38.405  28.273  1.00  0.00    -0.237 OA
ATOM     93  O   UNL A   1      45.677  36.886  26.389  1.00  0.00    -0.744 OA
ENDBRANCH  87  90
ENDBRANCH  60  83
ENDBRANCH  34  35
ENDBRANCH  27  29
ENDBRANCH  26  27
ENDBRANCH  25  26
ENDBRANCH  24  25
ENDBRANCH  23  24
ENDBRANCH   1  23
TORSDOF 22
ENDMDL
MODEL 2
REMARK VINA RESULT:     -10.2      2.115      8.100
REMARK SMILES O=C(NCCOCC(=O)OCCOCCOC(=O)c1ccc(-c2c3nc(c(-c4cccc(S(=O)(=O)[O-])c4F)c4ccc([nH]4)c(-c4cccc(S(=O)(=O)[O-])c4F)c4nc(c(-c5cccc(S(=O)(=O)[O-])c5F)c5ccc2[nH]5)C=C4)C=C3)cc1)Nc1cccc(F)c1
REMARK SMILES IDX 12 1 11 2 10 3 8 4 9 5 7 6 6 7 5 8 4 9 3 10 1 11 2 12 82 13
REMARK SMILES IDX 83 16 84 17 89 18 85 19 87 20 86 21 88 22 13 23 14 24 15 25
REMARK SMILES IDX 16 26 17 27 18 28 19 29 20 30 81 31 21 32 80 33 22 34 23 35
REMARK SMILES IDX 24 36 74 37 25 38 79 39 73 40 75 41 26 42 78 43 72 44 71 45
REMARK SMILES IDX 27 47 59 48 39 49 58 50 40 51 43 52 57 53 76 54 41 55 42 56
REMARK SMILES IDX 56 58 77 59 44 60 28 61 29 62 37 63 30 64 32 65 38 66 31 67
REMARK SMILES IDX 33 68 34 69 35 70 36 71 60 72 61 73 69 74 62 75 64 76 70 77
REMARK SMILES IDX 63 78 65 79 66 80 67 81 68 82 45 83 46 84 54 85 47 86 49 87
REMARK SMILES IDX 55 88 48 89 50 90 51 91 52 92 53 93
REMARK H PARENT 3 14 82 15 75 46 43 57
REMARK Flexibility Score: inf
ROOT
ATOM      1  C   UNL A   1      35.312  22.884  23.470  1.00  0.00     0.202 C 
ENDROOT
BRANCH   1   2
ATOM      2  C   UNL A   1      34.646  24.258  23.389  1.00  0.00     0.261 C 
BRANCH   2   3
ATOM      3  O   UNL A   1      33.659  24.331  22.334  1.00  0.00    -0.462 OA
BRANCH   3   4
ATOM      4  C   UNL A   1      33.373  25.581  21.883  1.00  0.00     0.332 C 
ATOM      5  O   UNL A   1      33.137  25.872  20.716  1.00  0.00    -0.250 OA
BRANCH   4   6
ATOM      6  C   UNL A   1      33.446  26.652  22.989  1.00  0.00     0.282 C 
BRANCH   6   7
ATOM      7  O   UNL A   1      32.566  27.729  23.221  1.00  0.00    -0.368 OA
BRANCH   7   8
ATOM      8  C   UNL A   1      33.101  28.935  23.749  1.00  0.00     0.182 C 
BRANCH   8   9
ATOM      9  C   UNL A   1      33.339  28.959  25.272  1.00  0.00     0.146 C 
BRANCH   9  10
ATOM     10  N   UNL A   1      32.250  28.401  26.060  1.00  0.00    -0.336 N 
ATOM     11  O   UNL A   1      30.860  26.977  27.018  1.00  0.00    -0.249 OA
ATOM     12  C   UNL A   1      31.895  27.131  26.377  1.00  0.00     0.319 C 
ATOM     13  N   UNL A   1      32.731  26.122  25.987  1.00  0.00    -0.308 N 
ATOM     14  H   UNL A   1      31.649  29.083  26.438  1.00  0.00     0.165 HD
ATOM     15  H   UNL A   1      33.630  26.366  25.669  1.00  0.00     0.171 HD
BRANCH  13  16
ATOM     16  C   UNL A   1      32.386  24.749  26.010  1.00  0.00     0.045 A 
ATOM     17  C   UNL A   1      31.329  24.308  25.204  1.00  0.00     0.026 A 
ATOM     18  C   UNL A   1      33.047  23.823  26.826  1.00  0.00     0.065 A 
ATOM     19  C   UNL A   1      30.967  22.954  25.182  1.00  0.00     0.005 A 
ATOM     20  C   UNL A   1      32.664  22.485  26.814  1.00  0.00     0.125 A 
ATOM     21  C   UNL A   1      31.637  22.041  25.992  1.00  0.00     0.039 A 
ATOM     22  F   UNL A   1      33.292  21.609  27.609  1.00  0.00    -0.207 F 
ENDBRANCH  13  16
ENDBRANCH   9  10
ENDBRANCH   8   9
ENDBRANCH   7   8
ENDBRANCH   6   7
ENDBRANCH   4   6
ENDBRANCH   3   4
ENDBRANCH   2   3
ENDBRANCH   1   2
BRANCH   1  23
ATOM     23  O   UNL A   1      34.580  21.849  24.128  1.00  0.00    -0.374 OA
BRANCH  23  24
ATOM     24  C   UNL A   1      35.346  20.829  24.756  1.00  0.00     0.202 C 
BRANCH  24  25
ATOM     25  C   UNL A   1      36.480  21.300  25.680  1.00  0.00     0.261 C 
BRANCH  25  26
ATOM     26  O   UNL A   1      37.754  21.348  25.016  1.00  0.00    -0.460 OA
BRANCH  26  27
ATOM     27  C   UNL A   1      38.806  21.015  25.807  1.00  0.00     0.338 C 
ATOM     28  O   UNL A   1      39.343  19.924  25.898  1.00  0.00    -0.246 OA
BRANCH  27  29
ATOM     29  C   UNL A   1      39.370  22.222  26.440  1.00  0.00     0.060 A 
ATOM     30  C   UNL A   1      38.844  23.457  26.039  1.00  0.00     0.016 A 
ATOM     31  C   UNL A   1      40.428  22.163  27.351  1.00  0.00     0.016 A 
ATOM     32  C   UNL A   1      39.407  24.642  26.506  1.00  0.00     0.010 A 
ATOM     33  C   UNL A   1      40.998  23.356  27.811  1.00  0.00     0.010 A 
ATOM     34  C   UNL A   1      40.515  24.598  27.361  1.00  0.00    -0.014 A 
BRANCH  34  35
ATOM     35  C   UNL A   1      41.252  25.852  27.659  1.00  0.00     0.031 A 
ATOM     36  C   UNL A   1      40.556  26.941  28.429  1.00  0.00     0.074 A 
ATOM     37  C   UNL A   1      42.532  26.006  27.277  1.00  0.00     0.049 A 
ATOM     38  N   UNL A   1      41.003  28.114  28.793  1.00  0.00    -0.248 NA
ATOM     39  C   UNL A   1      39.169  26.671  28.844  1.00  0.00     0.031 C 
ATOM     40  C   UNL A   1      43.320  25.015  26.547  1.00  0.00     0.029 A 
ATOM     41  N   UNL A   1      43.388  27.066  27.439  1.00  0.00    -0.354 N 
ATOM     42  C   UNL A   1      39.950  28.732  29.457  1.00  0.00     0.074 A 
ATOM     43  C   UNL A   1      38.835  27.810  29.433  1.00  0.00     0.031 C 
ATOM     44  C   UNL A   1      44.541  25.523  26.304  1.00  0.00     0.029 A 
ATOM     45  C   UNL A   1      44.610  26.882  26.837  1.00  0.00     0.049 A 
ATOM     46  H   UNL A   1      43.150  27.881  27.937  1.00  0.00     0.167 HD
ATOM     47  C   UNL A   1      39.918  29.949  30.051  1.00  0.00     0.034 A 
ATOM     48  C   UNL A   1      45.657  27.723  26.712  1.00  0.00     0.034 A 
ATOM     49  C   UNL A   1      41.033  30.857  30.088  1.00  0.00     0.049 A 
ATOM     50  C   UNL A   1      45.580  29.092  27.340  1.00  0.00     0.074 A 
ATOM     51  C   UNL A   1      41.111  32.097  30.695  1.00  0.00     0.029 A 
ATOM     52  N   UNL A   1      42.259  30.630  29.481  1.00  0.00    -0.354 N 
ATOM     53  N   UNL A   1      44.617  29.619  28.055  1.00  0.00    -0.248 NA
ATOM     54  C   UNL A   1      46.747  29.970  27.166  1.00  0.00     0.031 C 
ATOM     55  C   UNL A   1      42.376  32.633  30.429  1.00  0.00     0.029 A 
ATOM     56  C   UNL A   1      43.097  31.713  29.685  1.00  0.00     0.049 A 
ATOM     57  H   UNL A   1      42.499  29.817  28.980  1.00  0.00     0.167 HD
ATOM     58  C   UNL A   1      45.074  30.873  28.448  1.00  0.00     0.074 A 
ATOM     59  C   UNL A   1      46.408  31.019  27.904  1.00  0.00     0.031 C 
ATOM     60  C   UNL A   1      44.442  31.823  29.182  1.00  0.00     0.034 A 
BRANCH  47  61
ATOM     61  C   UNL A   1      38.638  30.360  30.728  1.00  0.00     0.023 A 
ATOM     62  C   UNL A   1      38.421  30.019  32.079  1.00  0.00     0.012 A 
ATOM     63  C   UNL A   1      37.669  31.121  30.044  1.00  0.00     0.148 A 
ATOM     64  C   UNL A   1      37.246  30.398  32.728  1.00  0.00     0.002 A 
ATOM     65  C   UNL A   1      36.520  31.532  30.711  1.00  0.00     0.091 A 
ATOM     66  F   UNL A   1      37.882  31.416  28.754  1.00  0.00    -0.205 F 
ATOM     67  C   UNL A   1      36.301  31.162  32.047  1.00  0.00     0.022 A 
BRANCH  65  68
ATOM     68  S   UNL A   1      35.280  32.580  29.942  1.00  0.00     0.127 S 
ATOM     69  O   UNL A   1      34.777  31.711  28.879  1.00  0.00    -0.237 OA
ATOM     70  O   UNL A   1      34.342  32.805  31.041  1.00  0.00    -0.237 OA
ATOM     71  O   UNL A   1      35.985  33.773  29.493  1.00  0.00    -0.744 OA
ENDBRANCH  65  68
ENDBRANCH  47  61
BRANCH  48  72
ATOM     72  C   UNL A   1      46.883  27.285  25.988  1.00  0.00     0.023 A 
ATOM     73  C   UNL A   1      47.810  26.445  26.634  1.00  0.00     0.012 A 
ATOM     74  C   UNL A   1      47.127  27.681  24.658  1.00  0.00     0.148 A 
ATOM     75  C   UNL A   1      48.972  26.030  25.980  1.00  0.00     0.002 A 
ATOM     76  C   UNL A   1      48.256  27.219  23.993  1.00  0.00     0.091 A 
ATOM     77  F   UNL A   1      46.242  28.496  24.066  1.00  0.00    -0.205 F 
ATOM     78  C   UNL A   1      49.189  26.408  24.657  1.00  0.00     0.022 A 
BRANCH  76  79
ATOM     79  S   UNL A   1      48.554  27.550  22.252  1.00  0.00     0.127 S 
ATOM     80  O   UNL A   1      49.857  28.208  22.291  1.00  0.00    -0.237 OA
ATOM     81  O   UNL A   1      48.558  26.201  21.687  1.00  0.00    -0.237 OA
ATOM     82  O   UNL A   1      47.440  28.380  21.814  1.00  0.00    -0.744 OA
ENDBRANCH  76  79
ENDBRANCH  48  72
BRANCH  60  83
ATOM     83  C   UNL A   1      45.192  33.097  29.478  1.00  0.00     0.023 A 
ATOM     84  C   UNL A   1      45.988  33.190  30.637  1.00  0.00     0.012 A 
ATOM     85  C   UNL A   1      45.173  34.170  28.563  1.00  0.00     0.148 A 
ATOM     86  C   UNL A   1      46.729  34.343  30.896  1.00  0.00     0.002 A 
ATOM     87  C   UNL A   1      45.954  35.295  28.804  1.00  0.00     0.091 A 
ATOM     88  F   UNL A   1      44.398  34.067  27.474  1.00  0.00    -0.205 F 
ATOM     89  C   UNL A   1      46.721  35.388  29.975  1.00  0.00     0.022 A 
BRANCH  87  90
ATOM     90  S   UNL A   1      46.084  36.648  27.630  1.00  0.00     0.127 S 
ATOM     91  O   UNL A   1      47.046  37.526  28.294  1.00  0.00    -0.237 OA
ATOM     92  O   UNL A   1      46.597  35.974  26.437  1.00  0.00    -0.237 OA
ATOM     93  O   UNL A   1      44.740  37.190  27.489  1.00  0.00    -0.744 OA
ENDBRANCH  87  90
ENDBRANCH  60  83
ENDBRANCH  34  35
ENDBRANCH  27  29
ENDBRANCH  26  27
ENDBRANCH  25  26
ENDBRANCH  24  25
ENDBRANCH  23  24
ENDBRANCH   1  23
TORSDOF 22
ENDMDL
MODEL 3
REMARK VINA RESULT:     -10.0      1.878      2.347
REMARK SMILES O=C(NCCOCC(=O)OCCOCCOC(=O)c1ccc(-c2c3nc(c(-c4cccc(S(=O)(=O)[O-])c4F)c4ccc([nH]4)c(-c4cccc(S(=O)(=O)[O-])c4F)c4nc(c(-c5cccc(S(=O)(=O)[O-])c5F)c5ccc2[nH]5)C=C4)C=C3)cc1)Nc1cccc(F)c1
REMARK SMILES IDX 12 1 11 2 10 3 8 4 9 5 7 6 6 7 5 8 4 9 3 10 1 11 2 12 82 13
REMARK SMILES IDX 83 16 84 17 89 18 85 19 87 20 86 21 88 22 13 23 14 24 15 25
REMARK SMILES IDX 16 26 17 27 18 28 19 29 20 30 81 31 21 32 80 33 22 34 23 35
REMARK SMILES IDX 24 36 74 37 25 38 79 39 73 40 75 41 26 42 78 43 72 44 71 45
REMARK SMILES IDX 27 47 59 48 39 49 58 50 40 51 43 52 57 53 76 54 41 55 42 56
REMARK SMILES IDX 56 58 77 59 44 60 28 61 29 62 37 63 30 64 32 65 38 66 31 67
REMARK SMILES IDX 33 68 34 69 35 70 36 71 60 72 61 73 69 74 62 75 64 76 70 77
REMARK SMILES IDX 63 78 65 79 66 80 67 81 68 82 45 83 46 84 54 85 47 86 49 87
REMARK SMILES IDX 55 88 48 89 50 90 51 91 52 92 53 93
REMARK H PARENT 3 14 82 15 75 46 43 57
REMARK Flexibility Score: inf
ROOT
ATOM      1  C   UNL A   1      36.170  21.421  25.024  1.00  0.00     0.202 C 
ENDROOT
BRANCH   1   2
ATOM      2  C   UNL A   1      35.488  22.675  24.473  1.00  0.00     0.261 C 
BRANCH   2   3
ATOM      3  O   UNL A   1      34.250  22.375  23.789  1.00  0.00    -0.462 OA
BRANCH   3   4
ATOM      4  C   UNL A   1      33.743  23.378  23.024  1.00  0.00     0.332 C 
ATOM      5  O   UNL A   1      33.755  23.404  21.799  1.00  0.00    -0.250 OA
BRANCH   4   6
ATOM      6  C   UNL A   1      33.199  24.554  23.859  1.00  0.00     0.282 C 
BRANCH   6   7
ATOM      7  O   UNL A   1      32.576  24.512  25.124  1.00  0.00    -0.368 OA
BRANCH   7   8
ATOM      8  C   UNL A   1      31.208  24.133  25.189  1.00  0.00     0.182 C 
BRANCH   8   9
ATOM      9  C   UNL A   1      30.917  22.761  25.827  1.00  0.00     0.146 C 
BRANCH   9  10
ATOM     10  N   UNL A   1      32.069  22.131  26.453  1.00  0.00    -0.336 N 
ATOM     11  O   UNL A   1      33.651  20.679  26.973  1.00  0.00    -0.249 OA
ATOM     12  C   UNL A   1      32.737  20.976  26.209  1.00  0.00     0.319 C 
ATOM     13  N   UNL A   1      32.365  20.246  25.115  1.00  0.00    -0.308 N 
ATOM     14  H   UNL A   1      32.439  22.646  27.206  1.00  0.00     0.165 HD
ATOM     15  H   UNL A   1      31.772  20.674  24.456  1.00  0.00     0.171 HD
BRANCH  13  16
ATOM     16  C   UNL A   1      32.776  18.913  24.868  1.00  0.00     0.045 A 
ATOM     17  C   UNL A   1      32.544  17.946  25.853  1.00  0.00     0.026 A 
ATOM     18  C   UNL A   1      33.427  18.535  23.689  1.00  0.00     0.065 A 
ATOM     19  C   UNL A   1      32.917  16.612  25.644  1.00  0.00     0.005 A 
ATOM     20  C   UNL A   1      33.815  17.212  23.500  1.00  0.00     0.125 A 
ATOM     21  C   UNL A   1      33.557  16.245  24.462  1.00  0.00     0.039 A 
ATOM     22  F   UNL A   1      34.451  16.862  22.374  1.00  0.00    -0.207 F 
ENDBRANCH  13  16
ENDBRANCH   9  10
ENDBRANCH   8   9
ENDBRANCH   7   8
ENDBRANCH   6   7
ENDBRANCH   4   6
ENDBRANCH   3   4
ENDBRANCH   2   3
ENDBRANCH   1   2
BRANCH   1  23
ATOM     23  O   UNL A   1      37.246  20.881  24.255  1.00  0.00    -0.374 OA
BRANCH  23  24
ATOM     24  C   UNL A   1      37.696  19.582  24.617  1.00  0.00     0.202 C 
BRANCH  24  25
ATOM     25  C   UNL A   1      38.966  19.518  25.480  1.00  0.00     0.261 C 
BRANCH  25  26
ATOM     26  O   UNL A   1      39.224  20.747  26.180  1.00  0.00    -0.460 OA
BRANCH  26  27
ATOM     27  C   UNL A   1      40.432  20.790  26.799  1.00  0.00     0.338 C 
ATOM     28  O   UNL A   1      41.284  19.918  26.811  1.00  0.00    -0.246 OA
BRANCH  27  29
ATOM     29  C   UNL A   1      40.686  22.143  27.330  1.00  0.00     0.060 A 
ATOM     30  C   UNL A   1      39.986  23.202  26.737  1.00  0.00     0.016 A 
ATOM     31  C   UNL A   1      41.627  22.387  28.333  1.00  0.00     0.016 A 
ATOM     32  C   UNL A   1      40.261  24.515  27.106  1.00  0.00     0.010 A 
ATOM     33  C   UNL A   1      41.908  23.710  28.695  1.00  0.00     0.010 A 
ATOM     34  C   UNL A   1      41.255  24.780  28.056  1.00  0.00    -0.014 A 
BRANCH  34  35
ATOM     35  C   UNL A   1      41.706  26.178  28.265  1.00  0.00     0.031 A 
ATOM     36  C   UNL A   1      43.073  26.582  27.783  1.00  0.00     0.074 A 
ATOM     37  C   UNL A   1      40.900  27.083  28.847  1.00  0.00     0.049 A 
ATOM     38  N   UNL A   1      43.671  27.741  27.864  1.00  0.00    -0.248 NA
ATOM     39  C   UNL A   1      43.872  25.538  27.119  1.00  0.00     0.031 C 
ATOM     40  C   UNL A   1      39.548  26.819  29.334  1.00  0.00     0.029 A 
ATOM     41  N   UNL A   1      41.112  28.408  29.139  1.00  0.00    -0.354 N 
ATOM     42  C   UNL A   1      44.923  27.564  27.286  1.00  0.00     0.074 A 
ATOM     43  C   UNL A   1      45.005  26.179  26.871  1.00  0.00     0.031 C 
ATOM     44  C   UNL A   1      39.057  27.942  29.887  1.00  0.00     0.029 A 
ATOM     45  C   UNL A   1      40.070  28.994  29.816  1.00  0.00     0.049 A 
ATOM     46  H   UNL A   1      41.933  28.890  28.890  1.00  0.00     0.167 HD
ATOM     47  C   UNL A   1      45.909  28.473  27.099  1.00  0.00     0.034 A 
ATOM     48  C   UNL A   1      39.954  30.233  30.337  1.00  0.00     0.034 A 
ATOM     49  C   UNL A   1      45.819  29.852  27.498  1.00  0.00     0.049 A 
ATOM     50  C   UNL A   1      41.085  31.214  30.159  1.00  0.00     0.074 A 
ATOM     51  C   UNL A   1      46.749  30.860  27.321  1.00  0.00     0.029 A 
ATOM     52  N   UNL A   1      44.742  30.414  28.166  1.00  0.00    -0.354 N 
ATOM     53  N   UNL A   1      42.218  31.061  29.517  1.00  0.00    -0.248 NA
ATOM     54  C   UNL A   1      40.909  32.547  30.754  1.00  0.00     0.031 C 
ATOM     55  C   UNL A   1      46.246  32.026  27.910  1.00  0.00     0.029 A 
ATOM     56  C   UNL A   1      44.989  31.751  28.424  1.00  0.00     0.049 A 
ATOM     57  H   UNL A   1      43.921  29.932  28.419  1.00  0.00     0.167 HD
ATOM     58  C   UNL A   1      42.873  32.286  29.598  1.00  0.00     0.074 A 
ATOM     59  C   UNL A   1      42.000  33.176  30.337  1.00  0.00     0.031 C 
ATOM     60  C   UNL A   1      44.090  32.640  29.115  1.00  0.00     0.034 A 
BRANCH  47  61
ATOM     61  C   UNL A   1      47.166  28.007  26.415  1.00  0.00     0.023 A 
ATOM     62  C   UNL A   1      48.223  27.474  27.181  1.00  0.00     0.012 A 
ATOM     63  C   UNL A   1      47.286  28.053  25.012  1.00  0.00     0.148 A 
ATOM     64  C   UNL A   1      49.392  27.027  26.566  1.00  0.00     0.002 A 
ATOM     65  C   UNL A   1      48.437  27.566  24.403  1.00  0.00     0.091 A 
ATOM     66  F   UNL A   1      46.281  28.584  24.301  1.00  0.00    -0.205 F 
ATOM     67  C   UNL A   1      49.495  27.064  25.178  1.00  0.00     0.022 A 
BRANCH  65  68
ATOM     68  S   UNL A   1      48.634  27.503  22.619  1.00  0.00     0.127 S 
ATOM     69  O   UNL A   1      49.934  28.147  22.442  1.00  0.00    -0.237 OA
ATOM     70  O   UNL A   1      48.626  26.063  22.358  1.00  0.00    -0.237 OA
ATOM     71  O   UNL A   1      47.498  28.225  22.064  1.00  0.00    -0.744 OA
ENDBRANCH  65  68
ENDBRANCH  47  61
BRANCH  48  72
ATOM     72  C   UNL A   1      38.707  30.629  31.050  1.00  0.00     0.023 A 
ATOM     73  C   UNL A   1      38.584  30.377  32.430  1.00  0.00     0.012 A 
ATOM     74  C   UNL A   1      37.650  31.267  30.373  1.00  0.00     0.148 A 
ATOM     75  C   UNL A   1      37.422  30.729  33.117  1.00  0.00     0.002 A 
ATOM     76  C   UNL A   1      36.518  31.666  31.073  1.00  0.00     0.091 A 
ATOM     77  F   UNL A   1      37.778  31.481  29.055  1.00  0.00    -0.205 F 
ATOM     78  C   UNL A   1      36.394  31.383  32.441  1.00  0.00     0.022 A 
BRANCH  76  79
ATOM     79  S   UNL A   1      35.202  32.625  30.313  1.00  0.00     0.127 S 
ATOM     80  O   UNL A   1      35.922  33.809  29.853  1.00  0.00    -0.237 OA
ATOM     81  O   UNL A   1      34.749  31.725  29.252  1.00  0.00    -0.237 OA
ATOM     82  O   UNL A   1      34.222  32.851  31.367  1.00  0.00    -0.744 OA
ENDBRANCH  76  79
ENDBRANCH  48  72
BRANCH  60  83
ATOM     83  C   UNL A   1      44.547  34.059  29.334  1.00  0.00     0.023 A 
ATOM     84  C   UNL A   1      44.120  35.077  28.458  1.00  0.00     0.012 A 
ATOM     85  C   UNL A   1      45.332  34.396  30.455  1.00  0.00     0.148 A 
ATOM     86  C   UNL A   1      44.493  36.403  28.678  1.00  0.00     0.002 A 
ATOM     87  C   UNL A   1      45.657  35.726  30.696  1.00  0.00     0.091 A 
ATOM     88  F   UNL A   1      45.741  33.411  31.268  1.00  0.00    -0.205 F 
ATOM     89  C   UNL A   1      45.249  36.728  29.801  1.00  0.00     0.022 A 
BRANCH  87  90
ATOM     90  S   UNL A   1      46.543  36.253  32.166  1.00  0.00     0.127 S 
ATOM     91  O   UNL A   1      46.964  37.602  31.792  1.00  0.00    -0.237 OA
ATOM     92  O   UNL A   1      45.501  36.202  33.191  1.00  0.00    -0.237 OA
ATOM     93  O   UNL A   1      47.622  35.293  32.352  1.00  0.00    -0.744 OA
ENDBRANCH  87  90
ENDBRANCH  60  83
ENDBRANCH  34  35
ENDBRANCH  27  29
ENDBRANCH  26  27
ENDBRANCH  25  26
ENDBRANCH  24  25
ENDBRANCH  23  24
ENDBRANCH   1  23
TORSDOF 22
ENDMDL
