MODEL 1
REMARK VINA RESULT:     -10.9      0.000      0.000
REMARK SMILES CSc1ncccc1C(=O)N1CSC[C@H]1C(=O)OCCOCCOC(=O)c1ccc(-c2c3nc(c(-c4cccc(S(=O)(=O)[O-])c4F)c4ccc([nH]4)c(-c4cccc(S(=O)(=O)[O-])c4F)c4nc(c(-c5cccc(S(=O)(=O)[O-])c5F)c5ccc2[nH]5)C=C4)C=C3)cc1
REMARK SMILES IDX 21 1 20 2 19 3 18 4 16 5 17 6 15 7 11 8 12 9 13 10 14 11
REMARK SMILES IDX 9 12 10 13 8 14 3 15 4 16 5 17 7 18 6 19 2 20 1 21 22 22
REMARK SMILES IDX 23 23 24 24 25 25 26 26 27 27 28 28 89 29 29 30 88 31 30 32
REMARK SMILES IDX 31 33 32 34 82 35 33 36 87 37 81 38 83 39 34 40 86 41 80 42
REMARK SMILES IDX 79 43 35 45 67 46 47 47 66 48 48 49 51 50 65 51 84 52 49 53
REMARK SMILES IDX 50 54 64 56 85 57 52 58 36 59 37 60 45 61 38 62 40 63 46 64
REMARK SMILES IDX 39 65 41 66 42 67 43 68 44 69 68 70 69 71 77 72 70 73 72 74
REMARK SMILES IDX 78 75 71 76 73 77 74 78 75 79 76 80 53 81 54 82 62 83 55 84
REMARK SMILES IDX 57 85 63 86 56 87 58 88 59 89 60 90 61 91
REMARK H PARENT 83 44 51 55
REMARK Flexibility Score: inf
ROOT
ATOM      1  O   UNL A   1      35.732  22.072  26.490  1.00  0.00    -0.374 OA
ENDROOT
BRANCH   1   2
ATOM      2  C   UNL A   1      34.560  22.791  26.865  1.00  0.00     0.202 C 
BRANCH   2   3
ATOM      3  C   UNL A   1      33.277  21.983  27.092  1.00  0.00     0.261 C 
BRANCH   3   4
ATOM      4  O   UNL A   1      32.278  22.140  26.061  1.00  0.00    -0.462 OA
BRANCH   4   5
ATOM      5  C   UNL A   1      31.481  23.237  26.172  1.00  0.00     0.329 C 
ATOM      6  O   UNL A   1      31.111  23.725  27.237  1.00  0.00    -0.250 OA
BRANCH   5   7
ATOM      7  C   UNL A   1      30.990  23.805  24.826  1.00  0.00     0.206 C 
ATOM      8  N   UNL A   1      31.286  25.204  24.507  1.00  0.00    -0.315 N 
ATOM      9  C   UNL A   1      32.596  25.418  23.953  1.00  0.00     0.191 C 
ATOM     10  S   UNL A   1      32.857  23.978  22.887  1.00  0.00    -0.138 SA
ATOM     11  C   UNL A   1      31.642  22.933  23.748  1.00  0.00     0.108 C 
BRANCH   8  12
ATOM     12  C   UNL A   1      30.509  26.301  24.828  1.00  0.00     0.258 C 
ATOM     13  O   UNL A   1      29.287  26.231  24.841  1.00  0.00    -0.269 OA
BRANCH  12  14
ATOM     14  C   UNL A   1      31.202  27.476  25.443  1.00  0.00     0.072 A 
ATOM     15  C   UNL A   1      31.430  28.683  24.770  1.00  0.00     0.108 A 
ATOM     16  N   UNL A   1      31.907  29.795  25.401  1.00  0.00    -0.249 NA
ATOM     17  C   UNL A   1      32.109  29.739  26.732  1.00  0.00     0.112 A 
ATOM     18  C   UNL A   1      31.469  27.451  26.824  1.00  0.00     0.018 A 
ATOM     19  C   UNL A   1      31.918  28.595  27.479  1.00  0.00     0.021 A 
BRANCH  15  20
ATOM     20  S   UNL A   1      31.175  28.956  23.031  1.00  0.00    -0.109 SA
ATOM     21  C   UNL A   1      29.474  29.552  23.108  1.00  0.00     0.092 C 
ENDBRANCH  15  20
ENDBRANCH  12  14
ENDBRANCH   8  12
ENDBRANCH   5   7
ENDBRANCH   4   5
ENDBRANCH   3   4
ENDBRANCH   2   3
ENDBRANCH   1   2
BRANCH   1  22
ATOM     22  C   UNL A   1      35.602  21.074  25.482  1.00  0.00     0.202 C 
BRANCH  22  23
ATOM     23  C   UNL A   1      36.863  20.318  25.056  1.00  0.00     0.261 C 
BRANCH  23  24
ATOM     24  O   UNL A   1      38.028  21.143  24.954  1.00  0.00    -0.460 OA
BRANCH  24  25
ATOM     25  C   UNL A   1      38.996  20.858  25.850  1.00  0.00     0.338 C 
ATOM     26  O   UNL A   1      39.523  19.766  26.053  1.00  0.00    -0.246 OA
BRANCH  25  27
ATOM     27  C   UNL A   1      39.503  22.089  26.471  1.00  0.00     0.060 A 
ATOM     28  C   UNL A   1      38.908  23.295  26.084  1.00  0.00     0.016 A 
ATOM     29  C   UNL A   1      40.611  22.079  27.320  1.00  0.00     0.016 A 
ATOM     30  C   UNL A   1      39.458  24.505  26.499  1.00  0.00     0.010 A 
ATOM     31  C   UNL A   1      41.167  23.297  27.729  1.00  0.00     0.010 A 
ATOM     32  C   UNL A   1      40.616  24.515  27.289  1.00  0.00    -0.014 A 
BRANCH  32  33
ATOM     33  C   UNL A   1      41.307  25.804  27.538  1.00  0.00     0.031 A 
ATOM     34  C   UNL A   1      40.589  26.898  28.279  1.00  0.00     0.074 A 
ATOM     35  C   UNL A   1      42.577  25.984  27.135  1.00  0.00     0.049 A 
ATOM     36  N   UNL A   1      41.028  28.073  28.646  1.00  0.00    -0.248 NA
ATOM     37  C   UNL A   1      39.192  26.632  28.661  1.00  0.00     0.031 C 
ATOM     38  C   UNL A   1      43.377  25.004  26.402  1.00  0.00     0.029 A 
ATOM     39  N   UNL A   1      43.412  27.066  27.273  1.00  0.00    -0.354 N 
ATOM     40  C   UNL A   1      39.963  28.694  29.288  1.00  0.00     0.074 A 
ATOM     41  C   UNL A   1      38.849  27.772  29.245  1.00  0.00     0.031 C 
ATOM     42  C   UNL A   1      44.580  25.538  26.134  1.00  0.00     0.029 A 
ATOM     43  C   UNL A   1      44.633  26.899  26.665  1.00  0.00     0.049 A 
ATOM     44  H   UNL A   1      43.159  27.882  27.762  1.00  0.00     0.167 HD
ATOM     45  C   UNL A   1      39.922  29.911  29.881  1.00  0.00     0.034 A 
ATOM     46  C   UNL A   1      45.670  27.751  26.543  1.00  0.00     0.034 A 
ATOM     47  C   UNL A   1      41.033  30.822  29.939  1.00  0.00     0.049 A 
ATOM     48  C   UNL A   1      45.595  29.105  27.199  1.00  0.00     0.074 A 
ATOM     49  C   UNL A   1      41.102  32.058  30.557  1.00  0.00     0.029 A 
ATOM     50  N   UNL A   1      42.268  30.601  29.350  1.00  0.00    -0.354 N 
ATOM     51  N   UNL A   1      44.630  29.619  27.923  1.00  0.00    -0.248 NA
ATOM     52  C   UNL A   1      46.767  29.983  27.054  1.00  0.00     0.031 C 
ATOM     53  C   UNL A   1      42.373  32.594  30.326  1.00  0.00     0.029 A 
ATOM     54  C   UNL A   1      43.103  31.683  29.578  1.00  0.00     0.049 A 
ATOM     55  H   UNL A   1      42.516  29.794  28.842  1.00  0.00     0.167 HD
ATOM     56  C   UNL A   1      45.089  30.862  28.345  1.00  0.00     0.074 A 
ATOM     57  C   UNL A   1      46.427  31.016  27.814  1.00  0.00     0.031 C 
ATOM     58  C   UNL A   1      44.452  31.800  29.091  1.00  0.00     0.034 A 
BRANCH  45  59
ATOM     59  C   UNL A   1      38.638  30.313  30.557  1.00  0.00     0.023 A 
ATOM     60  C   UNL A   1      38.448  30.005  31.919  1.00  0.00     0.012 A 
ATOM     61  C   UNL A   1      37.649  31.041  29.867  1.00  0.00     0.148 A 
ATOM     62  C   UNL A   1      37.282  30.390  32.579  1.00  0.00     0.002 A 
ATOM     63  C   UNL A   1      36.504  31.453  30.542  1.00  0.00     0.091 A 
ATOM     64  F   UNL A   1      37.836  31.303  28.567  1.00  0.00    -0.205 F 
ATOM     65  C   UNL A   1      36.316  31.122  31.894  1.00  0.00     0.022 A 
BRANCH  63  66
ATOM     66  S   UNL A   1      35.237  32.461  29.764  1.00  0.00     0.127 S 
ATOM     67  O   UNL A   1      34.719  31.550  28.745  1.00  0.00    -0.237 OA
ATOM     68  O   UNL A   1      34.318  32.718  30.874  1.00  0.00    -0.237 OA
ATOM     69  O   UNL A   1      35.921  33.645  29.260  1.00  0.00    -0.744 OA
ENDBRANCH  63  66
ENDBRANCH  45  59
BRANCH  46  70
ATOM     70  C   UNL A   1      46.893  27.325  25.807  1.00  0.00     0.023 A 
ATOM     71  C   UNL A   1      47.002  27.583  24.427  1.00  0.00     0.012 A 
ATOM     72  C   UNL A   1      47.961  26.693  26.475  1.00  0.00     0.148 A 
ATOM     73  C   UNL A   1      48.142  27.196  23.720  1.00  0.00     0.002 A 
ATOM     74  C   UNL A   1      49.115  26.361  25.775  1.00  0.00     0.091 A 
ATOM     75  F   UNL A   1      47.830  26.436  27.784  1.00  0.00    -0.205 F 
ATOM     76  C   UNL A   1      49.202  26.597  24.395  1.00  0.00     0.022 A 
BRANCH  74  77
ATOM     77  S   UNL A   1      50.577  25.710  26.593  1.00  0.00     0.127 S 
ATOM     78  O   UNL A   1      51.495  25.535  25.472  1.00  0.00    -0.237 OA
ATOM     79  O   UNL A   1      50.923  26.798  27.509  1.00  0.00    -0.237 OA
ATOM     80  O   UNL A   1      50.140  24.489  27.256  1.00  0.00    -0.744 OA
ENDBRANCH  74  77
ENDBRANCH  46  70
BRANCH  58  81
ATOM     81  C   UNL A   1      45.196  33.074  29.400  1.00  0.00     0.023 A 
ATOM     82  C   UNL A   1      46.020  33.138  30.540  1.00  0.00     0.012 A 
ATOM     83  C   UNL A   1      45.145  34.174  28.521  1.00  0.00     0.148 A 
ATOM     84  C   UNL A   1      46.762  34.288  30.816  1.00  0.00     0.002 A 
ATOM     85  C   UNL A   1      45.920  35.299  28.779  1.00  0.00     0.091 A 
ATOM     86  F   UNL A   1      44.340  34.102  27.451  1.00  0.00    -0.205 F 
ATOM     87  C   UNL A   1      46.721  35.362  29.931  1.00  0.00     0.022 A 
BRANCH  85  88
ATOM     88  S   UNL A   1      45.996  36.693  27.646  1.00  0.00     0.127 S 
ATOM     89  O   UNL A   1      46.596  36.082  26.462  1.00  0.00    -0.237 OA
ATOM     90  O   UNL A   1      44.585  37.053  27.498  1.00  0.00    -0.237 OA
ATOM     91  O   UNL A   1      46.806  37.703  28.313  1.00  0.00    -0.744 OA
ENDBRANCH  85  88
ENDBRANCH  58  81
ENDBRANCH  32  33
ENDBRANCH  25  27
ENDBRANCH  24  25
ENDBRANCH  23  24
ENDBRANCH  22  23
ENDBRANCH   1  22
TORSDOF 20
ENDMDL
MODEL 2
REMARK VINA RESULT:     -10.7      1.407      7.690
REMARK SMILES CSc1ncccc1C(=O)N1CSC[C@H]1C(=O)OCCOCCOC(=O)c1ccc(-c2c3nc(c(-c4cccc(S(=O)(=O)[O-])c4F)c4ccc([nH]4)c(-c4cccc(S(=O)(=O)[O-])c4F)c4nc(c(-c5cccc(S(=O)(=O)[O-])c5F)c5ccc2[nH]5)C=C4)C=C3)cc1
REMARK SMILES IDX 21 1 20 2 19 3 18 4 16 5 17 6 15 7 11 8 12 9 13 10 14 11
REMARK SMILES IDX 9 12 10 13 8 14 3 15 4 16 5 17 7 18 6 19 2 20 1 21 22 22
REMARK SMILES IDX 23 23 24 24 25 25 26 26 27 27 28 28 89 29 29 30 88 31 30 32
REMARK SMILES IDX 31 33 32 34 82 35 33 36 87 37 81 38 83 39 34 40 86 41 80 42
REMARK SMILES IDX 79 43 35 45 67 46 47 47 66 48 48 49 51 50 65 51 84 52 49 53
REMARK SMILES IDX 50 54 64 56 85 57 52 58 36 59 37 60 45 61 38 62 40 63 46 64
REMARK SMILES IDX 39 65 41 66 42 67 43 68 44 69 68 70 69 71 77 72 70 73 72 74
REMARK SMILES IDX 78 75 71 76 73 77 74 78 75 79 76 80 53 81 54 82 62 83 55 84
REMARK SMILES IDX 57 85 63 86 56 87 58 88 59 89 60 90 61 91
REMARK H PARENT 83 44 51 55
REMARK Flexibility Score: inf
ROOT
ATOM      1  O   UNL A   1      35.553  21.317  26.028  1.00  0.00    -0.374 OA
ENDROOT
BRANCH   1   2
ATOM      2  C   UNL A   1      34.162  21.622  26.098  1.00  0.00     0.202 C 
BRANCH   2   3
ATOM      3  C   UNL A   1      33.199  20.710  25.328  1.00  0.00     0.261 C 
BRANCH   3   4
ATOM      4  O   UNL A   1      32.288  21.404  24.449  1.00  0.00    -0.462 OA
BRANCH   4   5
ATOM      5  C   UNL A   1      31.529  22.373  25.030  1.00  0.00     0.329 C 
ATOM      6  O   UNL A   1      30.821  22.203  26.020  1.00  0.00    -0.250 OA
BRANCH   5   7
ATOM      7  C   UNL A   1      31.553  23.728  24.296  1.00  0.00     0.206 C 
ATOM      8  N   UNL A   1      31.946  24.923  25.045  1.00  0.00    -0.315 N 
ATOM      9  C   UNL A   1      33.368  25.117  25.144  1.00  0.00     0.191 C 
ATOM     10  S   UNL A   1      33.991  24.589  23.528  1.00  0.00    -0.138 SA
ATOM     11  C   UNL A   1      32.547  23.552  23.142  1.00  0.00     0.108 C 
BRANCH   8  12
ATOM     12  C   UNL A   1      31.108  25.752  25.766  1.00  0.00     0.258 C 
ATOM     13  O   UNL A   1      30.251  25.295  26.512  1.00  0.00    -0.269 OA
BRANCH  12  14
ATOM     14  C   UNL A   1      31.473  27.202  25.838  1.00  0.00     0.072 A 
ATOM     15  C   UNL A   1      31.310  28.097  24.773  1.00  0.00     0.108 A 
ATOM     16  N   UNL A   1      31.486  29.443  24.915  1.00  0.00    -0.249 NA
ATOM     17  C   UNL A   1      31.771  29.926  26.140  1.00  0.00     0.112 A 
ATOM     18  C   UNL A   1      31.813  27.747  27.090  1.00  0.00     0.018 A 
ATOM     19  C   UNL A   1      31.956  29.123  27.246  1.00  0.00     0.021 A 
BRANCH  15  20
ATOM     20  S   UNL A   1      30.889  27.648  23.105  1.00  0.00    -0.109 SA
ATOM     21  C   UNL A   1      29.305  28.504  22.996  1.00  0.00     0.092 C 
ENDBRANCH  15  20
ENDBRANCH  12  14
ENDBRANCH   8  12
ENDBRANCH   5   7
ENDBRANCH   4   5
ENDBRANCH   3   4
ENDBRANCH   2   3
ENDBRANCH   1   2
BRANCH   1  22
ATOM     22  C   UNL A   1      35.975  20.375  25.047  1.00  0.00     0.202 C 
BRANCH  22  23
ATOM     23  C   UNL A   1      37.479  20.138  24.881  1.00  0.00     0.261 C 
BRANCH  23  24
ATOM     24  O   UNL A   1      38.282  21.287  25.172  1.00  0.00    -0.460 OA
BRANCH  24  25
ATOM     25  C   UNL A   1      39.303  21.054  26.023  1.00  0.00     0.338 C 
ATOM     26  O   UNL A   1      39.953  20.018  26.141  1.00  0.00    -0.246 OA
BRANCH  25  27
ATOM     27  C   UNL A   1      39.691  22.292  26.712  1.00  0.00     0.060 A 
ATOM     28  C   UNL A   1      39.046  23.472  26.326  1.00  0.00     0.016 A 
ATOM     29  C   UNL A   1      40.744  22.321  27.629  1.00  0.00     0.016 A 
ATOM     30  C   UNL A   1      39.490  24.699  26.812  1.00  0.00     0.010 A 
ATOM     31  C   UNL A   1      41.195  23.556  28.110  1.00  0.00     0.010 A 
ATOM     32  C   UNL A   1      40.595  24.753  27.673  1.00  0.00    -0.014 A 
BRANCH  32  33
ATOM     33  C   UNL A   1      41.186  26.072  28.004  1.00  0.00     0.031 A 
ATOM     34  C   UNL A   1      42.605  26.370  27.600  1.00  0.00     0.074 A 
ATOM     35  C   UNL A   1      40.453  27.010  28.630  1.00  0.00     0.049 A 
ATOM     36  N   UNL A   1      43.290  27.474  27.745  1.00  0.00    -0.248 NA
ATOM     37  C   UNL A   1      43.348  25.282  26.945  1.00  0.00     0.031 C 
ATOM     38  C   UNL A   1      39.072  26.840  29.077  1.00  0.00     0.029 A 
ATOM     39  N   UNL A   1      40.777  28.289  29.010  1.00  0.00    -0.354 N 
ATOM     40  C   UNL A   1      44.548  27.212  27.213  1.00  0.00     0.074 A 
ATOM     41  C   UNL A   1      44.537  25.839  26.759  1.00  0.00     0.031 C 
ATOM     42  C   UNL A   1      38.674  27.966  29.694  1.00  0.00     0.029 A 
ATOM     43  C   UNL A   1      39.773  28.930  29.695  1.00  0.00     0.049 A 
ATOM     44  H   UNL A   1      41.646  28.707  28.811  1.00  0.00     0.167 HD
ATOM     45  C   UNL A   1      45.608  28.047  27.091  1.00  0.00     0.034 A 
ATOM     46  C   UNL A   1      39.747  30.151  30.264  1.00  0.00     0.034 A 
ATOM     47  C   UNL A   1      45.614  29.417  27.527  1.00  0.00     0.049 A 
ATOM     48  C   UNL A   1      40.944  31.056  30.129  1.00  0.00     0.074 A 
ATOM     49  C   UNL A   1      46.625  30.354  27.405  1.00  0.00     0.029 A 
ATOM     50  N   UNL A   1      44.564  30.045  28.177  1.00  0.00    -0.354 N 
ATOM     51  N   UNL A   1      42.074  30.840  29.498  1.00  0.00    -0.248 NA
ATOM     52  C   UNL A   1      40.849  32.386  30.749  1.00  0.00     0.031 C 
ATOM     53  C   UNL A   1      46.193  31.544  27.999  1.00  0.00     0.029 A 
ATOM     54  C   UNL A   1      44.905  31.354  28.475  1.00  0.00     0.049 A 
ATOM     55  H   UNL A   1      43.702  29.623  28.396  1.00  0.00     0.167 HD
ATOM     56  C   UNL A   1      42.809  32.014  29.619  1.00  0.00     0.074 A 
ATOM     57  C   UNL A   1      41.989  32.947  30.364  1.00  0.00     0.031 C 
ATOM     58  C   UNL A   1      44.059  32.290  29.168  1.00  0.00     0.034 A 
BRANCH  45  59
ATOM     59  C   UNL A   1      46.843  27.509  26.419  1.00  0.00     0.023 A 
ATOM     60  C   UNL A   1      47.707  26.658  27.138  1.00  0.00     0.012 A 
ATOM     61  C   UNL A   1      47.119  27.792  25.067  1.00  0.00     0.148 A 
ATOM     62  C   UNL A   1      48.842  26.121  26.533  1.00  0.00     0.002 A 
ATOM     63  C   UNL A   1      48.233  27.224  24.460  1.00  0.00     0.091 A 
ATOM     64  F   UNL A   1      46.299  28.621  24.407  1.00  0.00    -0.205 F 
ATOM     65  C   UNL A   1      49.099  26.395  25.193  1.00  0.00     0.022 A 
BRANCH  63  66
ATOM     66  S   UNL A   1      48.608  27.460  22.719  1.00  0.00     0.127 S 
ATOM     67  O   UNL A   1      49.906  28.131  22.784  1.00  0.00    -0.237 OA
ATOM     68  O   UNL A   1      48.660  26.084  22.222  1.00  0.00    -0.237 OA
ATOM     69  O   UNL A   1      47.514  28.256  22.179  1.00  0.00    -0.744 OA
ENDBRANCH  63  66
ENDBRANCH  45  59
BRANCH  46  70
ATOM     70  C   UNL A   1      38.520  30.608  30.976  1.00  0.00     0.023 A 
ATOM     71  C   UNL A   1      38.376  30.352  32.352  1.00  0.00     0.012 A 
ATOM     72  C   UNL A   1      37.511  31.323  30.300  1.00  0.00     0.148 A 
ATOM     73  C   UNL A   1      37.236  30.776  33.038  1.00  0.00     0.002 A 
ATOM     74  C   UNL A   1      36.406  31.791  31.001  1.00  0.00     0.091 A 
ATOM     75  F   UNL A   1      37.657  31.540  28.985  1.00  0.00    -0.205 F 
ATOM     76  C   UNL A   1      36.259  31.506  32.366  1.00  0.00     0.022 A 
BRANCH  74  77
ATOM     77  S   UNL A   1      35.169  32.851  30.242  1.00  0.00     0.127 S 
ATOM     78  O   UNL A   1      34.404  31.897  29.446  1.00  0.00    -0.237 OA
ATOM     79  O   UNL A   1      34.466  33.384  31.411  1.00  0.00    -0.237 OA
ATOM     80  O   UNL A   1      35.920  33.850  29.493  1.00  0.00    -0.744 OA
ENDBRANCH  74  77
ENDBRANCH  46  70
BRANCH  58  81
ATOM     81  C   UNL A   1      44.617  33.662  29.445  1.00  0.00     0.023 A 
ATOM     82  C   UNL A   1      45.530  33.840  30.503  1.00  0.00     0.012 A 
ATOM     83  C   UNL A   1      44.304  34.754  28.612  1.00  0.00     0.148 A 
ATOM     84  C   UNL A   1      46.102  35.089  30.744  1.00  0.00     0.002 A 
ATOM     85  C   UNL A   1      44.910  35.986  28.832  1.00  0.00     0.091 A 
ATOM     86  F   UNL A   1      43.417  34.571  27.623  1.00  0.00    -0.205 F 
ATOM     87  C   UNL A   1      45.802  36.157  29.902  1.00  0.00     0.022 A 
BRANCH  85  88
ATOM     88  S   UNL A   1      44.649  37.392  27.743  1.00  0.00     0.127 S 
ATOM     89  O   UNL A   1      43.191  37.487  27.723  1.00  0.00    -0.237 OA
ATOM     90  O   UNL A   1      45.322  38.474  28.463  1.00  0.00    -0.237 OA
ATOM     91  O   UNL A   1      45.274  37.035  26.476  1.00  0.00    -0.744 OA
ENDBRANCH  85  88
ENDBRANCH  58  81
ENDBRANCH  32  33
ENDBRANCH  25  27
ENDBRANCH  24  25
ENDBRANCH  23  24
ENDBRANCH  22  23
ENDBRANCH   1  22
TORSDOF 20
ENDMDL
MODEL 3
REMARK VINA RESULT:     -10.6      4.803     10.054
REMARK SMILES CSc1ncccc1C(=O)N1CSC[C@H]1C(=O)OCCOCCOC(=O)c1ccc(-c2c3nc(c(-c4cccc(S(=O)(=O)[O-])c4F)c4ccc([nH]4)c(-c4cccc(S(=O)(=O)[O-])c4F)c4nc(c(-c5cccc(S(=O)(=O)[O-])c5F)c5ccc2[nH]5)C=C4)C=C3)cc1
REMARK SMILES IDX 21 1 20 2 19 3 18 4 16 5 17 6 15 7 11 8 12 9 13 10 14 11
REMARK SMILES IDX 9 12 10 13 8 14 3 15 4 16 5 17 7 18 6 19 2 20 1 21 22 22
REMARK SMILES IDX 23 23 24 24 25 25 26 26 27 27 28 28 89 29 29 30 88 31 30 32
REMARK SMILES IDX 31 33 32 34 82 35 33 36 87 37 81 38 83 39 34 40 86 41 80 42
REMARK SMILES IDX 79 43 35 45 67 46 47 47 66 48 48 49 51 50 65 51 84 52 49 53
REMARK SMILES IDX 50 54 64 56 85 57 52 58 36 59 37 60 45 61 38 62 40 63 46 64
REMARK SMILES IDX 39 65 41 66 42 67 43 68 44 69 68 70 69 71 77 72 70 73 72 74
REMARK SMILES IDX 78 75 71 76 73 77 74 78 75 79 76 80 53 81 54 82 62 83 55 84
REMARK SMILES IDX 57 85 63 86 56 87 58 88 59 89 60 90 61 91
REMARK H PARENT 83 44 51 55
REMARK Flexibility Score: inf
ROOT
ATOM      1  O   UNL A   1      31.354  29.294  23.821  1.00  0.00    -0.374 OA
ENDROOT
BRANCH   1   2
ATOM      2  C   UNL A   1      31.922  28.456  22.817  1.00  0.00     0.202 C 
BRANCH   2   3
ATOM      3  C   UNL A   1      31.019  27.380  22.203  1.00  0.00     0.261 C 
BRANCH   3   4
ATOM      4  O   UNL A   1      31.482  26.026  22.396  1.00  0.00    -0.462 OA
BRANCH   4   5
ATOM      5  C   UNL A   1      30.904  25.344  23.422  1.00  0.00     0.329 C 
ATOM      6  O   UNL A   1      29.695  25.301  23.637  1.00  0.00    -0.250 OA
BRANCH   5   7
ATOM      7  C   UNL A   1      31.904  24.666  24.379  1.00  0.00     0.206 C 
ATOM      8  N   UNL A   1      33.311  24.585  23.980  1.00  0.00    -0.315 N 
ATOM      9  C   UNL A   1      34.072  25.772  24.261  1.00  0.00     0.191 C 
ATOM     10  S   UNL A   1      33.421  26.340  25.852  1.00  0.00    -0.138 SA
ATOM     11  C   UNL A   1      31.833  25.468  25.683  1.00  0.00     0.108 C 
BRANCH   8  12
ATOM     12  C   UNL A   1      33.899  23.572  23.247  1.00  0.00     0.258 C 
ATOM     13  O   UNL A   1      33.845  23.561  22.023  1.00  0.00    -0.269 OA
BRANCH  12  14
ATOM     14  C   UNL A   1      34.848  22.666  23.967  1.00  0.00     0.072 A 
ATOM     15  C   UNL A   1      34.445  21.534  24.686  1.00  0.00     0.108 A 
ATOM     16  N   UNL A   1      35.336  20.630  25.187  1.00  0.00    -0.249 NA
ATOM     17  C   UNL A   1      36.646  20.810  24.929  1.00  0.00     0.112 A 
ATOM     18  C   UNL A   1      36.228  22.837  23.758  1.00  0.00     0.018 A 
ATOM     19  C   UNL A   1      37.138  21.896  24.236  1.00  0.00     0.021 A 
BRANCH  15  20
ATOM     20  S   UNL A   1      32.764  21.108  25.081  1.00  0.00    -0.109 SA
ATOM     21  C   UNL A   1      32.560  19.744  23.918  1.00  0.00     0.092 C 
ENDBRANCH  15  20
ENDBRANCH  12  14
ENDBRANCH   8  12
ENDBRANCH   5   7
ENDBRANCH   4   5
ENDBRANCH   3   4
ENDBRANCH   2   3
ENDBRANCH   1   2
BRANCH   1  22
ATOM     22  C   UNL A   1      32.194  29.697  24.898  1.00  0.00     0.202 C 
BRANCH  22  23
ATOM     23  C   UNL A   1      31.658  30.754  25.868  1.00  0.00     0.261 C 
BRANCH  23  24
ATOM     24  O   UNL A   1      32.336  30.783  27.128  1.00  0.00    -0.460 OA
BRANCH  24  25
ATOM     25  C   UNL A   1      33.115  31.868  27.321  1.00  0.00     0.338 C 
ATOM     26  O   UNL A   1      32.770  33.047  27.289  1.00  0.00    -0.246 OA
BRANCH  25  27
ATOM     27  C   UNL A   1      34.456  31.466  27.765  1.00  0.00     0.060 A 
ATOM     28  C   UNL A   1      34.647  30.121  28.099  1.00  0.00     0.016 A 
ATOM     29  C   UNL A   1      35.472  32.403  27.966  1.00  0.00     0.016 A 
ATOM     30  C   UNL A   1      35.839  29.714  28.693  1.00  0.00     0.010 A 
ATOM     31  C   UNL A   1      36.666  31.993  28.571  1.00  0.00     0.010 A 
ATOM     32  C   UNL A   1      36.839  30.655  28.972  1.00  0.00    -0.014 A 
BRANCH  32  33
ATOM     33  C   UNL A   1      38.003  30.246  29.797  1.00  0.00     0.031 A 
ATOM     34  C   UNL A   1      38.997  29.265  29.238  1.00  0.00     0.074 A 
ATOM     35  C   UNL A   1      38.188  30.771  31.021  1.00  0.00     0.049 A 
ATOM     36  N   UNL A   1      40.105  28.820  29.770  1.00  0.00    -0.248 NA
ATOM     37  C   UNL A   1      38.708  28.716  27.904  1.00  0.00     0.031 C 
ATOM     38  C   UNL A   1      37.292  31.723  31.674  1.00  0.00     0.029 A 
ATOM     39  N   UNL A   1      39.187  30.562  31.939  1.00  0.00    -0.354 N 
ATOM     40  C   UNL A   1      40.640  27.930  28.845  1.00  0.00     0.074 A 
ATOM     41  C   UNL A   1      39.724  27.884  27.727  1.00  0.00     0.031 C 
ATOM     42  C   UNL A   1      37.770  31.999  32.900  1.00  0.00     0.029 A 
ATOM     43  C   UNL A   1      38.998  31.236  33.121  1.00  0.00     0.049 A 
ATOM     44  H   UNL A   1      39.966  29.984  31.766  1.00  0.00     0.167 HD
ATOM     45  C   UNL A   1      41.799  27.232  28.911  1.00  0.00     0.034 A 
ATOM     46  C   UNL A   1      39.726  31.230  34.255  1.00  0.00     0.034 A 
ATOM     47  C   UNL A   1      42.718  27.289  30.015  1.00  0.00     0.049 A 
ATOM     48  C   UNL A   1      41.004  30.434  34.309  1.00  0.00     0.074 A 
ATOM     49  C   UNL A   1      43.939  26.654  30.152  1.00  0.00     0.029 A 
ATOM     50  N   UNL A   1      42.514  28.017  31.177  1.00  0.00    -0.354 N 
ATOM     51  N   UNL A   1      41.564  29.709  33.371  1.00  0.00    -0.248 NA
ATOM     52  C   UNL A   1      41.770  30.486  35.564  1.00  0.00     0.031 C 
ATOM     53  C   UNL A   1      44.466  26.982  31.406  1.00  0.00     0.029 A 
ATOM     54  C   UNL A   1      43.580  27.837  32.043  1.00  0.00     0.049 A 
ATOM     55  H   UNL A   1      41.726  28.578  31.361  1.00  0.00     0.167 HD
ATOM     56  C   UNL A   1      42.760  29.245  33.909  1.00  0.00     0.074 A 
ATOM     57  C   UNL A   1      42.854  29.789  35.248  1.00  0.00     0.031 C 
ATOM     58  C   UNL A   1      43.689  28.428  33.351  1.00  0.00     0.034 A 
BRANCH  45  59
ATOM     59  C   UNL A   1      42.161  26.373  27.729  1.00  0.00     0.023 A 
ATOM     60  C   UNL A   1      42.971  26.910  26.707  1.00  0.00     0.012 A 
ATOM     61  C   UNL A   1      41.755  25.027  27.654  1.00  0.00     0.148 A 
ATOM     62  C   UNL A   1      43.347  26.130  25.614  1.00  0.00     0.002 A 
ATOM     63  C   UNL A   1      42.164  24.244  26.579  1.00  0.00     0.091 A 
ATOM     64  F   UNL A   1      40.966  24.541  28.622  1.00  0.00    -0.205 F 
ATOM     65  C   UNL A   1      42.952  24.796  25.556  1.00  0.00     0.022 A 
BRANCH  63  66
ATOM     66  S   UNL A   1      41.767  22.497  26.453  1.00  0.00     0.127 S 
ATOM     67  O   UNL A   1      40.307  22.530  26.380  1.00  0.00    -0.237 OA
ATOM     68  O   UNL A   1      42.429  22.117  25.204  1.00  0.00    -0.237 OA
ATOM     69  O   UNL A   1      42.323  21.873  27.645  1.00  0.00    -0.744 OA
ENDBRANCH  63  66
ENDBRANCH  45  59
BRANCH  46  70
ATOM     70  C   UNL A   1      39.285  32.049  35.420  1.00  0.00     0.023 A 
ATOM     71  C   UNL A   1      38.421  31.488  36.379  1.00  0.00     0.012 A 
ATOM     72  C   UNL A   1      39.745  33.369  35.596  1.00  0.00     0.148 A 
ATOM     73  C   UNL A   1      38.001  32.236  37.480  1.00  0.00     0.002 A 
ATOM     74  C   UNL A   1      39.366  34.089  36.724  1.00  0.00     0.091 A 
ATOM     75  F   UNL A   1      40.550  33.893  34.662  1.00  0.00    -0.205 F 
ATOM     76  C   UNL A   1      38.483  33.530  37.659  1.00  0.00     0.022 A 
BRANCH  74  77
ATOM     77  S   UNL A   1      40.046  35.710  37.098  1.00  0.00     0.127 S 
ATOM     78  O   UNL A   1      39.674  36.472  35.909  1.00  0.00    -0.237 OA
ATOM     79  O   UNL A   1      39.318  36.072  38.315  1.00  0.00    -0.237 OA
ATOM     80  O   UNL A   1      41.473  35.496  37.298  1.00  0.00    -0.744 OA
ENDBRANCH  74  77
ENDBRANCH  46  70
BRANCH  58  81
ATOM     81  C   UNL A   1      44.903  28.083  34.173  1.00  0.00     0.023 A 
ATOM     82  C   UNL A   1      45.984  28.984  34.230  1.00  0.00     0.012 A 
ATOM     83  C   UNL A   1      44.940  26.909  34.953  1.00  0.00     0.148 A 
ATOM     84  C   UNL A   1      47.095  28.710  35.028  1.00  0.00     0.002 A 
ATOM     85  C   UNL A   1      46.031  26.665  35.779  1.00  0.00     0.091 A 
ATOM     86  F   UNL A   1      43.910  26.054  34.871  1.00  0.00    -0.205 F 
ATOM     87  C   UNL A   1      47.113  27.558  35.810  1.00  0.00     0.022 A 
BRANCH  85  88
ATOM     88  S   UNL A   1      46.098  25.251  36.887  1.00  0.00     0.127 S 
ATOM     89  O   UNL A   1      44.792  25.322  37.541  1.00  0.00    -0.237 OA
ATOM     90  O   UNL A   1      46.254  24.131  35.957  1.00  0.00    -0.237 OA
ATOM     91  O   UNL A   1      47.247  25.478  37.752  1.00  0.00    -0.744 OA
ENDBRANCH  85  88
ENDBRANCH  58  81
ENDBRANCH  32  33
ENDBRANCH  25  27
ENDBRANCH  24  25
ENDBRANCH  23  24
ENDBRANCH  22  23
ENDBRANCH   1  22
TORSDOF 20
ENDMDL
