MODEL 1
REMARK VINA RESULT:      -9.8      0.000      0.000
REMARK SMILES CC/C(=C/C(=O)[C@H](Cc1ccc(Cl)cc1Cl)C(=O)OCCOCCOC(=O)c1ccc(-c2c3nc(c(-c4cccc(S(=O)(=O)[O-])c4F)c4ccc([nH]4)c(-c4cccc(S(=O)(=O)[O-])c4F)c4nc(c(-c5cccc(S(=O)(=O)[O-])c5F)c5ccc2[nH]5)C=C4)C=C3)cc1)N(C)C
REMARK SMILES IDX 22 1 21 2 20 3 19 4 17 5 18 6 7 7 5 8 6 9 4 10 3 11 2 12
REMARK SMILES IDX 1 13 91 14 92 15 93 16 8 17 9 18 10 19 15 20 11 21 14 22
REMARK SMILES IDX 16 23 12 24 13 25 23 26 24 27 25 28 26 29 27 30 28 31 29 32
REMARK SMILES IDX 90 33 30 34 89 35 31 36 32 37 33 38 83 39 34 40 88 41 82 42
REMARK SMILES IDX 84 43 35 44 87 45 81 46 80 47 36 49 68 50 48 51 67 52 49 53
REMARK SMILES IDX 52 54 66 55 85 56 50 57 51 58 65 60 86 61 53 62 37 63 38 64
REMARK SMILES IDX 46 65 39 66 41 67 47 68 40 69 42 70 43 71 44 72 45 73 69 74
REMARK SMILES IDX 70 75 78 76 71 77 73 78 79 79 72 80 74 81 75 82 76 83 77 84
REMARK SMILES IDX 54 85 55 86 63 87 56 88 58 89 64 90 57 91 59 92 60 93 61 94
REMARK SMILES IDX 62 95
REMARK H PARENT 84 48 52 59
REMARK Flexibility Score: inf
ROOT
ATOM      1  O   UNL A   1      34.832  21.557  26.589  1.00  0.00    -0.374 OA
ENDROOT
BRANCH   1   2
ATOM      2  C   UNL A   1      33.489  21.452  26.110  1.00  0.00     0.202 C 
BRANCH   2   3
ATOM      3  C   UNL A   1      33.086  22.516  25.074  1.00  0.00     0.261 C 
BRANCH   3   4
ATOM      4  O   UNL A   1      31.688  22.881  25.148  1.00  0.00    -0.463 OA
BRANCH   4   5
ATOM      5  C   UNL A   1      31.178  23.820  24.329  1.00  0.00     0.317 C 
ATOM      6  O   UNL A   1      31.119  23.696  23.108  1.00  0.00    -0.251 OA
BRANCH   5   7
ATOM      7  C   UNL A   1      30.679  25.059  25.046  1.00  0.00     0.175 C 
BRANCH   7   8
ATOM      8  C   UNL A   1      29.894  26.068  24.238  1.00  0.00     0.171 C 
ATOM      9  O   UNL A   1      28.687  25.821  24.058  1.00  0.00    -0.294 OA
BRANCH   8  10
ATOM     10  C   UNL A   1      30.381  27.332  23.587  1.00  0.00     0.069 C 
ATOM     11  C   UNL A   1      31.414  27.917  22.932  1.00  0.00     0.016 C 
BRANCH  11  12
ATOM     12  C   UNL A   1      31.154  29.379  22.517  1.00  0.00     0.050 C 
ATOM     13  C   UNL A   1      29.709  29.802  22.754  1.00  0.00     0.010 C 
ENDBRANCH  11  12
BRANCH  11  14
ATOM     14  N   UNL A   1      32.681  27.413  22.597  1.00  0.00    -0.381 N 
ATOM     15  C   UNL A   1      32.911  26.215  21.788  1.00  0.00     0.143 C 
ATOM     16  C   UNL A   1      33.867  28.241  22.640  1.00  0.00     0.143 C 
ENDBRANCH  11  14
ENDBRANCH   8  10
ENDBRANCH   7   8
BRANCH   7  17
ATOM     17  C   UNL A   1      31.405  25.535  26.348  1.00  0.00     0.060 C 
BRANCH  17  18
ATOM     18  C   UNL A   1      32.178  26.845  26.469  1.00  0.00    -0.028 A 
ATOM     19  C   UNL A   1      31.517  27.977  26.994  1.00  0.00     0.007 A 
ATOM     20  C   UNL A   1      33.534  27.001  26.106  1.00  0.00     0.045 A 
ATOM     21  C   UNL A   1      32.209  29.168  27.249  1.00  0.00     0.021 A 
ATOM     22  C   UNL A   1      34.241  28.169  26.425  1.00  0.00     0.041 A 
ATOM     23  Cl  UNL A   1      34.398  25.797  25.229  1.00  0.00    -0.084 Cl
ATOM     24  C   UNL A   1      33.576  29.244  27.002  1.00  0.00     0.042 A 
ATOM     25  Cl  UNL A   1      34.438  30.676  27.398  1.00  0.00    -0.084 Cl
ENDBRANCH  17  18
ENDBRANCH   7  17
ENDBRANCH   5   7
ENDBRANCH   4   5
ENDBRANCH   3   4
ENDBRANCH   2   3
ENDBRANCH   1   2
BRANCH   1  26
ATOM     26  C   UNL A   1      35.836  21.691  25.590  1.00  0.00     0.202 C 
BRANCH  26  27
ATOM     27  C   UNL A   1      36.870  22.790  25.850  1.00  0.00     0.261 C 
BRANCH  27  28
ATOM     28  O   UNL A   1      38.213  22.405  25.492  1.00  0.00    -0.460 OA
BRANCH  28  29
ATOM     29  C   UNL A   1      39.139  22.480  26.482  1.00  0.00     0.338 C 
ATOM     30  O   UNL A   1      39.765  21.556  26.967  1.00  0.00    -0.246 OA
BRANCH  29  31
ATOM     31  C   UNL A   1      39.345  23.894  26.879  1.00  0.00     0.060 A 
ATOM     32  C   UNL A   1      39.904  24.783  25.953  1.00  0.00     0.016 A 
ATOM     33  C   UNL A   1      39.064  24.333  28.174  1.00  0.00     0.016 A 
ATOM     34  C   UNL A   1      40.177  26.111  26.318  1.00  0.00     0.010 A 
ATOM     35  C   UNL A   1      39.340  25.660  28.535  1.00  0.00     0.010 A 
ATOM     36  C   UNL A   1      39.914  26.561  27.619  1.00  0.00    -0.014 A 
BRANCH  36  37
ATOM     37  C   UNL A   1      40.350  27.915  28.079  1.00  0.00     0.031 A 
ATOM     38  C   UNL A   1      41.821  28.243  28.102  1.00  0.00     0.074 A 
ATOM     39  C   UNL A   1      39.474  28.840  28.522  1.00  0.00     0.049 A 
ATOM     40  N   UNL A   1      42.427  29.314  28.548  1.00  0.00    -0.248 NA
ATOM     41  C   UNL A   1      42.732  27.217  27.569  1.00  0.00     0.031 C 
ATOM     42  C   UNL A   1      38.026  28.667  28.587  1.00  0.00     0.029 A 
ATOM     43  N   UNL A   1      39.679  30.102  29.033  1.00  0.00    -0.354 N 
ATOM     44  C   UNL A   1      43.787  29.072  28.399  1.00  0.00     0.074 A 
ATOM     45  C   UNL A   1      43.918  27.743  27.838  1.00  0.00     0.031 C 
ATOM     46  C   UNL A   1      37.471  29.772  29.118  1.00  0.00     0.029 A 
ATOM     47  C   UNL A   1      38.526  30.724  29.461  1.00  0.00     0.049 A 
ATOM     48  H   UNL A   1      40.567  30.522  29.087  1.00  0.00     0.167 HD
ATOM     49  C   UNL A   1      44.837  29.880  28.675  1.00  0.00     0.034 A 
ATOM     50  C   UNL A   1      38.340  31.912  30.076  1.00  0.00     0.034 A 
ATOM     51  C   UNL A   1      44.723  31.220  29.184  1.00  0.00     0.049 A 
ATOM     52  C   UNL A   1      39.526  32.800  30.371  1.00  0.00     0.074 A 
ATOM     53  C   UNL A   1      45.734  32.136  29.423  1.00  0.00     0.029 A 
ATOM     54  N   UNL A   1      43.535  31.836  29.538  1.00  0.00    -0.354 N 
ATOM     55  N   UNL A   1      40.793  32.604  30.099  1.00  0.00    -0.248 NA
ATOM     56  C   UNL A   1      39.254  34.089  31.031  1.00  0.00     0.031 C 
ATOM     57  C   UNL A   1      45.159  33.296  29.945  1.00  0.00     0.029 A 
ATOM     58  C   UNL A   1      43.787  33.117  29.997  1.00  0.00     0.049 A 
ATOM     59  H   UNL A   1      42.642  31.423  29.474  1.00  0.00     0.167 HD
ATOM     60  C   UNL A   1      41.456  33.759  30.505  1.00  0.00     0.074 A 
ATOM     61  C   UNL A   1      40.454  34.655  31.037  1.00  0.00     0.031 C 
ATOM     62  C   UNL A   1      42.780  34.042  30.450  1.00  0.00     0.034 A 
BRANCH  49  63
ATOM     63  C   UNL A   1      46.218  29.348  28.394  1.00  0.00     0.023 A 
ATOM     64  C   UNL A   1      46.800  29.556  27.127  1.00  0.00     0.012 A 
ATOM     65  C   UNL A   1      46.956  28.687  29.396  1.00  0.00     0.148 A 
ATOM     66  C   UNL A   1      48.075  29.071  26.845  1.00  0.00     0.002 A 
ATOM     67  C   UNL A   1      48.246  28.251  29.122  1.00  0.00     0.091 A 
ATOM     68  F   UNL A   1      46.379  28.488  30.590  1.00  0.00    -0.205 F 
ATOM     69  C   UNL A   1      48.801  28.428  27.843  1.00  0.00     0.022 A 
BRANCH  67  70
ATOM     70  S   UNL A   1      49.295  27.489  30.365  1.00  0.00     0.127 S 
ATOM     71  O   UNL A   1      49.154  28.424  31.481  1.00  0.00    -0.237 OA
ATOM     72  O   UNL A   1      48.642  26.196  30.567  1.00  0.00    -0.237 OA
ATOM     73  O   UNL A   1      50.625  27.414  29.778  1.00  0.00    -0.744 OA
ENDBRANCH  67  70
ENDBRANCH  49  63
BRANCH  50  74
ATOM     74  C   UNL A   1      36.964  32.376  30.428  1.00  0.00     0.023 A 
ATOM     75  C   UNL A   1      36.420  32.032  31.682  1.00  0.00     0.012 A 
ATOM     76  C   UNL A   1      36.185  33.127  29.526  1.00  0.00     0.148 A 
ATOM     77  C   UNL A   1      35.111  32.388  32.014  1.00  0.00     0.002 A 
ATOM     78  C   UNL A   1      34.903  33.526  29.885  1.00  0.00     0.091 A 
ATOM     79  F   UNL A   1      36.715  33.434  28.334  1.00  0.00    -0.205 F 
ATOM     80  C   UNL A   1      34.356  33.141  31.119  1.00  0.00     0.022 A 
BRANCH  78  81
ATOM     81  S   UNL A   1      33.895  34.593  28.851  1.00  0.00     0.127 S 
ATOM     82  O   UNL A   1      33.203  33.623  28.005  1.00  0.00    -0.237 OA
ATOM     83  O   UNL A   1      33.051  35.259  29.844  1.00  0.00    -0.237 OA
ATOM     84  O   UNL A   1      34.830  35.475  28.165  1.00  0.00    -0.744 OA
ENDBRANCH  78  81
ENDBRANCH  50  74
BRANCH  62  85
ATOM     85  C   UNL A   1      43.250  35.402  30.899  1.00  0.00     0.023 A 
ATOM     86  C   UNL A   1      43.581  35.629  32.249  1.00  0.00     0.012 A 
ATOM     87  C   UNL A   1      43.491  36.418  29.949  1.00  0.00     0.148 A 
ATOM     88  C   UNL A   1      44.131  36.848  32.649  1.00  0.00     0.002 A 
ATOM     89  C   UNL A   1      44.086  37.610  30.346  1.00  0.00     0.091 A 
ATOM     90  F   UNL A   1      43.154  36.188  28.671  1.00  0.00    -0.205 F 
ATOM     91  C   UNL A   1      44.398  37.830  31.697  1.00  0.00     0.022 A 
BRANCH  89  92
ATOM     92  S   UNL A   1      44.562  38.890  29.178  1.00  0.00     0.127 S 
ATOM     93  O   UNL A   1      43.281  39.219  28.556  1.00  0.00    -0.237 OA
ATOM     94  O   UNL A   1      45.097  39.928  30.061  1.00  0.00    -0.237 OA
ATOM     95  O   UNL A   1      45.545  38.283  28.290  1.00  0.00    -0.744 OA
ENDBRANCH  89  92
ENDBRANCH  62  85
ENDBRANCH  36  37
ENDBRANCH  29  31
ENDBRANCH  28  29
ENDBRANCH  27  28
ENDBRANCH  26  27
ENDBRANCH   1  26
TORSDOF 23
ENDMDL
MODEL 2
REMARK VINA RESULT:      -9.2      3.310      8.486
REMARK SMILES CC/C(=C/C(=O)[C@H](Cc1ccc(Cl)cc1Cl)C(=O)OCCOCCOC(=O)c1ccc(-c2c3nc(c(-c4cccc(S(=O)(=O)[O-])c4F)c4ccc([nH]4)c(-c4cccc(S(=O)(=O)[O-])c4F)c4nc(c(-c5cccc(S(=O)(=O)[O-])c5F)c5ccc2[nH]5)C=C4)C=C3)cc1)N(C)C
REMARK SMILES IDX 22 1 21 2 20 3 19 4 17 5 18 6 7 7 5 8 6 9 4 10 3 11 2 12
REMARK SMILES IDX 1 13 91 14 92 15 93 16 8 17 9 18 10 19 15 20 11 21 14 22
REMARK SMILES IDX 16 23 12 24 13 25 23 26 24 27 25 28 26 29 27 30 28 31 29 32
REMARK SMILES IDX 90 33 30 34 89 35 31 36 32 37 33 38 83 39 34 40 88 41 82 42
REMARK SMILES IDX 84 43 35 44 87 45 81 46 80 47 36 49 68 50 48 51 67 52 49 53
REMARK SMILES IDX 52 54 66 55 85 56 50 57 51 58 65 60 86 61 53 62 37 63 38 64
REMARK SMILES IDX 46 65 39 66 41 67 47 68 40 69 42 70 43 71 44 72 45 73 69 74
REMARK SMILES IDX 70 75 78 76 71 77 73 78 79 79 72 80 74 81 75 82 76 83 77 84
REMARK SMILES IDX 54 85 55 86 63 87 56 88 58 89 64 90 57 91 59 92 60 93 61 94
REMARK SMILES IDX 62 95
REMARK H PARENT 84 48 52 59
REMARK Flexibility Score: inf
ROOT
ATOM      1  O   UNL A   1      37.321  21.108  25.736  1.00  0.00    -0.374 OA
ENDROOT
BRANCH   1   2
ATOM      2  C   UNL A   1      36.440  21.604  24.726  1.00  0.00     0.202 C 
BRANCH   2   3
ATOM      3  C   UNL A   1      36.452  23.134  24.551  1.00  0.00     0.261 C 
BRANCH   3   4
ATOM      4  O   UNL A   1      36.106  23.847  25.761  1.00  0.00    -0.463 OA
BRANCH   4   5
ATOM      5  C   UNL A   1      35.015  23.507  26.473  1.00  0.00     0.317 C 
ATOM      6  O   UNL A   1      35.061  22.875  27.526  1.00  0.00    -0.251 OA
BRANCH   5   7
ATOM      7  C   UNL A   1      33.710  23.968  25.857  1.00  0.00     0.175 C 
BRANCH   7   8
ATOM      8  C   UNL A   1      32.574  22.971  25.793  1.00  0.00     0.171 C 
ATOM      9  O   UNL A   1      31.536  23.266  26.415  1.00  0.00    -0.294 OA
BRANCH   8  10
ATOM     10  C   UNL A   1      32.532  21.640  25.096  1.00  0.00     0.069 C 
ATOM     11  C   UNL A   1      32.423  21.018  23.896  1.00  0.00     0.016 C 
BRANCH  11  12
ATOM     12  C   UNL A   1      32.486  19.479  23.972  1.00  0.00     0.050 C 
ATOM     13  C   UNL A   1      32.874  18.982  25.360  1.00  0.00     0.010 C 
ENDBRANCH  11  12
BRANCH  11  14
ATOM     14  N   UNL A   1      32.239  21.549  22.609  1.00  0.00    -0.381 N 
ATOM     15  C   UNL A   1      32.858  22.784  22.124  1.00  0.00     0.143 C 
ATOM     16  C   UNL A   1      31.786  20.732  21.505  1.00  0.00     0.143 C 
ENDBRANCH  11  14
ENDBRANCH   8  10
ENDBRANCH   7   8
BRANCH   7  17
ATOM     17  C   UNL A   1      33.717  25.169  24.852  1.00  0.00     0.060 C 
BRANCH  17  18
ATOM     18  C   UNL A   1      32.962  26.475  25.072  1.00  0.00    -0.028 A 
ATOM     19  C   UNL A   1      33.596  27.513  25.789  1.00  0.00     0.007 A 
ATOM     20  C   UNL A   1      31.661  26.731  24.585  1.00  0.00     0.045 A 
ATOM     21  C   UNL A   1      33.005  28.778  25.910  1.00  0.00     0.021 A 
ATOM     22  C   UNL A   1      31.101  28.014  24.647  1.00  0.00     0.041 A 
ATOM     23  Cl  UNL A   1      30.668  25.493  23.915  1.00  0.00    -0.084 Cl
ATOM     24  C   UNL A   1      31.780  29.034  25.303  1.00  0.00     0.042 A 
ATOM     25  Cl  UNL A   1      31.100  30.609  25.380  1.00  0.00    -0.084 Cl
ENDBRANCH  17  18
ENDBRANCH   7  17
ENDBRANCH   5   7
ENDBRANCH   4   5
ENDBRANCH   3   4
ENDBRANCH   2   3
ENDBRANCH   1   2
BRANCH   1  26
ATOM     26  C   UNL A   1      38.650  20.827  25.314  1.00  0.00     0.202 C 
BRANCH  26  27
ATOM     27  C   UNL A   1      39.360  19.718  26.095  1.00  0.00     0.261 C 
BRANCH  27  28
ATOM     28  O   UNL A   1      40.544  19.225  25.436  1.00  0.00    -0.460 OA
BRANCH  28  29
ATOM     29  C   UNL A   1      41.703  19.327  26.135  1.00  0.00     0.338 C 
ATOM     30  O   UNL A   1      42.463  18.423  26.425  1.00  0.00    -0.246 OA
BRANCH  29  31
ATOM     31  C   UNL A   1      41.971  20.748  26.468  1.00  0.00     0.060 A 
ATOM     32  C   UNL A   1      42.136  21.668  25.427  1.00  0.00     0.016 A 
ATOM     33  C   UNL A   1      42.133  21.165  27.790  1.00  0.00     0.016 A 
ATOM     34  C   UNL A   1      42.459  23.006  25.705  1.00  0.00     0.010 A 
ATOM     35  C   UNL A   1      42.458  22.502  28.065  1.00  0.00     0.010 A 
ATOM     36  C   UNL A   1      42.640  23.435  27.027  1.00  0.00    -0.014 A 
BRANCH  36  37
ATOM     37  C   UNL A   1      43.148  24.807  27.339  1.00  0.00     0.031 A 
ATOM     38  C   UNL A   1      42.231  25.791  28.021  1.00  0.00     0.074 A 
ATOM     39  C   UNL A   1      44.385  25.212  26.987  1.00  0.00     0.049 A 
ATOM     40  N   UNL A   1      42.427  27.054  28.300  1.00  0.00    -0.248 NA
ATOM     41  C   UNL A   1      40.908  25.287  28.422  1.00  0.00     0.031 C 
ATOM     42  C   UNL A   1      45.379  24.391  26.301  1.00  0.00     0.029 A 
ATOM     43  N   UNL A   1      45.007  26.432  27.130  1.00  0.00    -0.354 N 
ATOM     44  C   UNL A   1      41.240  27.509  28.861  1.00  0.00     0.074 A 
ATOM     45  C   UNL A   1      40.322  26.390  28.863  1.00  0.00     0.031 C 
ATOM     46  C   UNL A   1      46.480  25.129  26.070  1.00  0.00     0.029 A 
ATOM     47  C   UNL A   1      46.263  26.487  26.565  1.00  0.00     0.049 A 
ATOM     48  H   UNL A   1      44.594  27.195  27.594  1.00  0.00     0.167 HD
ATOM     49  C   UNL A   1      40.939  28.734  29.353  1.00  0.00     0.034 A 
ATOM     50  C   UNL A   1      47.131  27.515  26.440  1.00  0.00     0.034 A 
ATOM     51  C   UNL A   1      41.856  29.841  29.403  1.00  0.00     0.049 A 
ATOM     52  C   UNL A   1      46.776  28.872  27.001  1.00  0.00     0.074 A 
ATOM     53  C   UNL A   1      41.655  31.095  29.953  1.00  0.00     0.029 A 
ATOM     54  N   UNL A   1      43.139  29.833  28.884  1.00  0.00    -0.354 N 
ATOM     55  N   UNL A   1      45.696  29.243  27.645  1.00  0.00    -0.248 NA
ATOM     56  C   UNL A   1      47.771  29.946  26.844  1.00  0.00     0.031 C 
ATOM     57  C   UNL A   1      42.808  31.854  29.744  1.00  0.00     0.029 A 
ATOM     58  C   UNL A   1      43.740  31.061  29.097  1.00  0.00     0.049 A 
ATOM     59  H   UNL A   1      43.561  29.067  28.429  1.00  0.00     0.167 HD
ATOM     60  C   UNL A   1      45.905  30.569  28.013  1.00  0.00     0.074 A 
ATOM     61  C   UNL A   1      47.216  30.939  27.527  1.00  0.00     0.031 C 
ATOM     62  C   UNL A   1      45.077  31.404  28.685  1.00  0.00     0.034 A 
BRANCH  49  63
ATOM     63  C   UNL A   1      39.558  28.935  29.918  1.00  0.00     0.023 A 
ATOM     64  C   UNL A   1      39.267  28.487  31.223  1.00  0.00     0.012 A 
ATOM     65  C   UNL A   1      38.565  29.609  29.180  1.00  0.00     0.148 A 
ATOM     66  C   UNL A   1      37.996  28.662  31.766  1.00  0.00     0.002 A 
ATOM     67  C   UNL A   1      37.316  29.824  29.748  1.00  0.00     0.091 A 
ATOM     68  F   UNL A   1      38.858  30.016  27.937  1.00  0.00    -0.205 F 
ATOM     69  C   UNL A   1      37.025  29.338  31.033  1.00  0.00     0.022 A 
BRANCH  67  70
ATOM     70  S   UNL A   1      36.024  30.759  28.921  1.00  0.00     0.127 S 
ATOM     71  O   UNL A   1      35.377  29.720  28.121  1.00  0.00    -0.237 OA
ATOM     72  O   UNL A   1      35.228  31.245  30.048  1.00  0.00    -0.237 OA
ATOM     73  O   UNL A   1      36.703  31.799  28.163  1.00  0.00    -0.744 OA
ENDBRANCH  67  70
ENDBRANCH  49  63
BRANCH  50  74
ATOM     74  C   UNL A   1      48.461  27.309  25.791  1.00  0.00     0.023 A 
ATOM     75  C   UNL A   1      49.576  26.985  26.591  1.00  0.00     0.012 A 
ATOM     76  C   UNL A   1      48.635  27.455  24.401  1.00  0.00     0.148 A 
ATOM     77  C   UNL A   1      50.846  26.856  26.026  1.00  0.00     0.002 A 
ATOM     78  C   UNL A   1      49.892  27.271  23.838  1.00  0.00     0.091 A 
ATOM     79  F   UNL A   1      47.566  27.775  23.659  1.00  0.00    -0.205 F 
ATOM     80  C   UNL A   1      51.003  26.991  24.649  1.00  0.00     0.022 A 
BRANCH  78  81
ATOM     81  S   UNL A   1      50.174  27.311  22.065  1.00  0.00     0.127 S 
ATOM     82  O   UNL A   1      49.937  28.718  21.755  1.00  0.00    -0.237 OA
ATOM     83  O   UNL A   1      51.572  26.886  21.976  1.00  0.00    -0.237 OA
ATOM     84  O   UNL A   1      49.221  26.369  21.493  1.00  0.00    -0.744 OA
ENDBRANCH  78  81
ENDBRANCH  50  74
BRANCH  62  85
ATOM     85  C   UNL A   1      45.563  32.792  29.022  1.00  0.00     0.023 A 
ATOM     86  C   UNL A   1      46.263  33.027  30.221  1.00  0.00     0.012 A 
ATOM     87  C   UNL A   1      45.439  33.834  28.078  1.00  0.00     0.148 A 
ATOM     88  C   UNL A   1      46.820  34.280  30.482  1.00  0.00     0.002 A 
ATOM     89  C   UNL A   1      46.041  35.063  28.322  1.00  0.00     0.091 A 
ATOM     90  F   UNL A   1      44.756  33.594  26.949  1.00  0.00    -0.205 F 
ATOM     91  C   UNL A   1      46.723  35.290  29.527  1.00  0.00     0.022 A 
BRANCH  89  92
ATOM     92  S   UNL A   1      46.059  36.389  27.109  1.00  0.00     0.127 S 
ATOM     93  O   UNL A   1      44.698  36.913  27.219  1.00  0.00    -0.237 OA
ATOM     94  O   UNL A   1      47.098  37.274  27.637  1.00  0.00    -0.237 OA
ATOM     95  O   UNL A   1      46.383  35.767  25.832  1.00  0.00    -0.744 OA
ENDBRANCH  89  92
ENDBRANCH  62  85
ENDBRANCH  36  37
ENDBRANCH  29  31
ENDBRANCH  28  29
ENDBRANCH  27  28
ENDBRANCH  26  27
ENDBRANCH   1  26
TORSDOF 23
ENDMDL
MODEL 3
REMARK VINA RESULT:      -9.1      4.019      6.149
REMARK SMILES CC/C(=C/C(=O)[C@H](Cc1ccc(Cl)cc1Cl)C(=O)OCCOCCOC(=O)c1ccc(-c2c3nc(c(-c4cccc(S(=O)(=O)[O-])c4F)c4ccc([nH]4)c(-c4cccc(S(=O)(=O)[O-])c4F)c4nc(c(-c5cccc(S(=O)(=O)[O-])c5F)c5ccc2[nH]5)C=C4)C=C3)cc1)N(C)C
REMARK SMILES IDX 22 1 21 2 20 3 19 4 17 5 18 6 7 7 5 8 6 9 4 10 3 11 2 12
REMARK SMILES IDX 1 13 91 14 92 15 93 16 8 17 9 18 10 19 15 20 11 21 14 22
REMARK SMILES IDX 16 23 12 24 13 25 23 26 24 27 25 28 26 29 27 30 28 31 29 32
REMARK SMILES IDX 90 33 30 34 89 35 31 36 32 37 33 38 83 39 34 40 88 41 82 42
REMARK SMILES IDX 84 43 35 44 87 45 81 46 80 47 36 49 68 50 48 51 67 52 49 53
REMARK SMILES IDX 52 54 66 55 85 56 50 57 51 58 65 60 86 61 53 62 37 63 38 64
REMARK SMILES IDX 46 65 39 66 41 67 47 68 40 69 42 70 43 71 44 72 45 73 69 74
REMARK SMILES IDX 70 75 78 76 71 77 73 78 79 79 72 80 74 81 75 82 76 83 77 84
REMARK SMILES IDX 54 85 55 86 63 87 56 88 58 89 64 90 57 91 59 92 60 93 61 94
REMARK SMILES IDX 62 95
REMARK H PARENT 84 48 52 59
REMARK Flexibility Score: inf
ROOT
ATOM      1  O   UNL A   1      38.155  20.979  25.007  1.00  0.00    -0.374 OA
ENDROOT
BRANCH   1   2
ATOM      2  C   UNL A   1      37.399  22.189  24.925  1.00  0.00     0.202 C 
BRANCH   2   3
ATOM      3  C   UNL A   1      36.149  22.233  25.822  1.00  0.00     0.261 C 
BRANCH   3   4
ATOM      4  O   UNL A   1      35.346  21.032  25.737  1.00  0.00    -0.463 OA
BRANCH   4   5
ATOM      5  C   UNL A   1      34.023  21.071  25.979  1.00  0.00     0.317 C 
ATOM      6  O   UNL A   1      33.538  21.097  27.108  1.00  0.00    -0.251 OA
BRANCH   5   7
ATOM      7  C   UNL A   1      33.167  21.074  24.727  1.00  0.00     0.175 C 
BRANCH   7   8
ATOM      8  C   UNL A   1      32.662  19.741  24.220  1.00  0.00     0.171 C 
ATOM      9  O   UNL A   1      32.199  19.722  23.065  1.00  0.00    -0.294 OA
BRANCH   8  10
ATOM     10  C   UNL A   1      32.614  18.421  24.938  1.00  0.00     0.069 C 
ATOM     11  C   UNL A   1      33.249  17.238  25.130  1.00  0.00     0.016 C 
BRANCH  11  12
ATOM     12  C   UNL A   1      32.539  16.293  26.122  1.00  0.00     0.050 C 
ATOM     13  C   UNL A   1      32.165  14.959  25.486  1.00  0.00     0.010 C 
ENDBRANCH  11  12
BRANCH  11  14
ATOM     14  N   UNL A   1      34.426  16.733  24.556  1.00  0.00    -0.381 N 
ATOM     15  C   UNL A   1      35.436  15.959  25.279  1.00  0.00     0.143 C 
ATOM     16  C   UNL A   1      34.559  16.547  23.127  1.00  0.00     0.143 C 
ENDBRANCH  11  14
ENDBRANCH   8  10
ENDBRANCH   7   8
BRANCH   7  17
ATOM     17  C   UNL A   1      33.282  22.269  23.722  1.00  0.00     0.060 C 
BRANCH  17  18
ATOM     18  C   UNL A   1      32.299  23.434  23.660  1.00  0.00    -0.028 A 
ATOM     19  C   UNL A   1      31.422  23.640  24.747  1.00  0.00     0.007 A 
ATOM     20  C   UNL A   1      32.218  24.346  22.584  1.00  0.00     0.045 A 
ATOM     21  C   UNL A   1      30.590  24.766  24.804  1.00  0.00     0.021 A 
ATOM     22  C   UNL A   1      31.437  25.506  22.673  1.00  0.00     0.041 A 
ATOM     23  Cl  UNL A   1      33.037  24.085  21.092  1.00  0.00    -0.084 Cl
ATOM     24  C   UNL A   1      30.633  25.714  23.787  1.00  0.00     0.042 A 
ATOM     25  Cl  UNL A   1      29.676  27.136  23.903  1.00  0.00    -0.084 Cl
ENDBRANCH  17  18
ENDBRANCH   7  17
ENDBRANCH   5   7
ENDBRANCH   4   5
ENDBRANCH   3   4
ENDBRANCH   2   3
ENDBRANCH   1   2
BRANCH   1  26
ATOM     26  C   UNL A   1      39.366  21.054  25.751  1.00  0.00     0.202 C 
BRANCH  26  27
ATOM     27  C   UNL A   1      39.935  19.708  26.205  1.00  0.00     0.261 C 
BRANCH  27  28
ATOM     28  O   UNL A   1      41.004  19.228  25.364  1.00  0.00    -0.460 OA
BRANCH  28  29
ATOM     29  C   UNL A   1      42.224  19.127  25.950  1.00  0.00     0.338 C 
ATOM     30  O   UNL A   1      42.842  18.103  26.177  1.00  0.00    -0.246 OA
BRANCH  29  31
ATOM     31  C   UNL A   1      42.761  20.478  26.242  1.00  0.00     0.060 A 
ATOM     32  C   UNL A   1      42.692  20.966  27.552  1.00  0.00     0.016 A 
ATOM     33  C   UNL A   1      43.262  21.296  25.227  1.00  0.00     0.016 A 
ATOM     34  C   UNL A   1      43.127  22.267  27.851  1.00  0.00     0.010 A 
ATOM     35  C   UNL A   1      43.694  22.596  25.529  1.00  0.00     0.010 A 
ATOM     36  C   UNL A   1      43.618  23.104  26.839  1.00  0.00    -0.014 A 
BRANCH  36  37
ATOM     37  C   UNL A   1      43.928  24.544  27.099  1.00  0.00     0.031 A 
ATOM     38  C   UNL A   1      45.342  25.033  26.919  1.00  0.00     0.074 A 
ATOM     39  C   UNL A   1      42.993  25.411  27.539  1.00  0.00     0.049 A 
ATOM     40  N   UNL A   1      45.853  26.210  27.177  1.00  0.00    -0.248 NA
ATOM     41  C   UNL A   1      46.314  24.059  26.398  1.00  0.00     0.031 C 
ATOM     42  C   UNL A   1      41.591  25.087  27.786  1.00  0.00     0.029 A 
ATOM     43  N   UNL A   1      43.091  26.740  27.886  1.00  0.00    -0.354 N 
ATOM     44  C   UNL A   1      47.210  26.105  26.900  1.00  0.00     0.074 A 
ATOM     45  C   UNL A   1      47.447  24.742  26.473  1.00  0.00     0.031 C 
ATOM     46  C   UNL A   1      40.961  26.178  28.257  1.00  0.00     0.029 A 
ATOM     47  C   UNL A   1      41.919  27.276  28.374  1.00  0.00     0.049 A 
ATOM     48  H   UNL A   1      43.921  27.259  27.793  1.00  0.00     0.167 HD
ATOM     49  C   UNL A   1      48.175  27.053  26.968  1.00  0.00     0.034 A 
ATOM     50  C   UNL A   1      41.651  28.501  28.876  1.00  0.00     0.034 A 
ATOM     51  C   UNL A   1      47.948  28.423  27.341  1.00  0.00     0.049 A 
ATOM     52  C   UNL A   1      42.741  29.544  28.938  1.00  0.00     0.074 A 
ATOM     53  C   UNL A   1      48.856  29.467  27.364  1.00  0.00     0.029 A 
ATOM     54  N   UNL A   1      46.734  28.940  27.761  1.00  0.00    -0.354 N 
ATOM     55  N   UNL A   1      43.989  29.460  28.546  1.00  0.00    -0.248 NA
ATOM     56  C   UNL A   1      42.380  30.864  29.484  1.00  0.00     0.031 C 
ATOM     57  C   UNL A   1      48.198  30.610  27.822  1.00  0.00     0.029 A 
ATOM     58  C   UNL A   1      46.871  30.287  28.049  1.00  0.00     0.049 A 
ATOM     59  H   UNL A   1      45.898  28.426  27.843  1.00  0.00     0.167 HD
ATOM     60  C   UNL A   1      44.542  30.721  28.749  1.00  0.00     0.074 A 
ATOM     61  C   UNL A   1      43.495  31.557  29.293  1.00  0.00     0.031 C 
ATOM     62  C   UNL A   1      45.808  31.141  28.512  1.00  0.00     0.034 A 
BRANCH  49  63
ATOM     63  C   UNL A   1      49.575  26.648  26.589  1.00  0.00     0.023 A 
ATOM     64  C   UNL A   1      50.299  25.775  27.427  1.00  0.00     0.012 A 
ATOM     65  C   UNL A   1      50.155  27.091  25.384  1.00  0.00     0.148 A 
ATOM     66  C   UNL A   1      51.595  25.388  27.097  1.00  0.00     0.002 A 
ATOM     67  C   UNL A   1      51.430  26.660  25.038  1.00  0.00     0.091 A 
ATOM     68  F   UNL A   1      49.456  27.931  24.608  1.00  0.00    -0.205 F 
ATOM     69  C   UNL A   1      52.157  25.822  25.900  1.00  0.00     0.022 A 
BRANCH  67  70
ATOM     70  S   UNL A   1      52.208  27.092  23.477  1.00  0.00     0.127 S 
ATOM     71  O   UNL A   1      53.478  26.375  23.574  1.00  0.00    -0.237 OA
ATOM     72  O   UNL A   1      51.267  26.539  22.503  1.00  0.00    -0.237 OA
ATOM     73  O   UNL A   1      52.309  28.544  23.468  1.00  0.00    -0.744 OA
ENDBRANCH  67  70
ENDBRANCH  49  63
BRANCH  50  74
ATOM     74  C   UNL A   1      40.270  28.847  29.331  1.00  0.00     0.023 A 
ATOM     75  C   UNL A   1      39.335  29.329  28.392  1.00  0.00     0.012 A 
ATOM     76  C   UNL A   1      39.886  28.729  30.680  1.00  0.00     0.148 A 
ATOM     77  C   UNL A   1      38.060  29.729  28.795  1.00  0.00     0.002 A 
ATOM     78  C   UNL A   1      38.596  29.077  31.066  1.00  0.00     0.091 A 
ATOM     79  F   UNL A   1      40.791  28.281  31.560  1.00  0.00    -0.205 F 
ATOM     80  C   UNL A   1      37.688  29.597  30.130  1.00  0.00     0.022 A 
BRANCH  78  81
ATOM     81  S   UNL A   1      37.986  28.835  32.737  1.00  0.00     0.127 S 
ATOM     82  O   UNL A   1      36.619  29.338  32.633  1.00  0.00    -0.237 OA
ATOM     83  O   UNL A   1      38.099  27.383  32.887  1.00  0.00    -0.237 OA
ATOM     84  O   UNL A   1      38.877  29.601  33.597  1.00  0.00    -0.744 OA
ENDBRANCH  78  81
ENDBRANCH  50  74
BRANCH  62  85
ATOM     85  C   UNL A   1      46.150  32.589  28.758  1.00  0.00     0.023 A 
ATOM     86  C   UNL A   1      46.590  33.009  30.028  1.00  0.00     0.012 A 
ATOM     87  C   UNL A   1      46.160  33.506  27.686  1.00  0.00     0.148 A 
ATOM     88  C   UNL A   1      47.022  34.321  30.230  1.00  0.00     0.002 A 
ATOM     89  C   UNL A   1      46.640  34.796  27.882  1.00  0.00     0.091 A 
ATOM     90  F   UNL A   1      45.722  33.091  26.488  1.00  0.00    -0.205 F 
ATOM     91  C   UNL A   1      47.063  35.207  29.156  1.00  0.00     0.022 A 
BRANCH  89  92
ATOM     92  S   UNL A   1      46.827  35.974  26.539  1.00  0.00     0.127 S 
ATOM     93  O   UNL A   1      46.590  37.245  27.221  1.00  0.00    -0.237 OA
ATOM     94  O   UNL A   1      48.213  35.752  26.126  1.00  0.00    -0.237 OA
ATOM     95  O   UNL A   1      45.831  35.612  25.540  1.00  0.00    -0.744 OA
ENDBRANCH  89  92
ENDBRANCH  62  85
ENDBRANCH  36  37
ENDBRANCH  29  31
ENDBRANCH  28  29
ENDBRANCH  27  28
ENDBRANCH  26  27
ENDBRANCH   1  26
TORSDOF 23
ENDMDL
