MODEL 1
REMARK VINA RESULT:     -11.3      0.000      0.000
REMARK SMILES C[C@H]1CC[C@@](Nc2ccc(C(N)=O)nn2)(C(=O)OCCOCCOC(=O)c2ccc(-c3c4nc(c(-c5cccc(S(=O)(=O)[O-])c5F)c5ccc([nH]5)c(-c5cccc(S(=O)(=O)[O-])c5F)c5nc(c(-c6cccc(S(=O)(=O)[O-])c6F)c6ccc3[nH]6)C=C5)C=C4)cc2)CC1
REMARK SMILES IDX 21 1 20 2 19 3 18 4 16 5 17 6 5 7 1 8 2 9 91 10 3 11 90 12
REMARK SMILES IDX 4 13 6 14 7 16 8 17 15 18 9 19 14 20 10 21 11 22 12 23 13 24
REMARK SMILES IDX 22 27 23 28 24 29 25 30 26 31 27 32 28 33 89 34 29 35 88 36
REMARK SMILES IDX 30 37 31 38 32 39 82 40 33 41 87 42 81 43 83 44 34 45 86 46
REMARK SMILES IDX 80 47 79 48 35 50 67 51 47 52 66 53 48 54 51 55 65 56 84 57
REMARK SMILES IDX 49 58 50 59 64 61 85 62 52 63 36 64 37 65 45 66 38 67 40 68
REMARK SMILES IDX 46 69 39 70 41 71 42 72 43 73 44 74 68 75 69 76 77 77 70 78
REMARK SMILES IDX 72 79 78 80 71 81 73 82 74 83 75 84 76 85 53 86 54 87 62 88
REMARK SMILES IDX 55 89 57 90 63 91 56 92 58 93 59 94 60 95 61 96
REMARK H PARENT 6 15 12 25 12 26 83 49 51 60
REMARK Flexibility Score: inf
ROOT
ATOM      1  O   UNL A   1      31.018  30.201  24.927  1.00  0.00    -0.374 OA
ENDROOT
BRANCH   1   2
ATOM      2  C   UNL A   1      30.282  29.651  23.834  1.00  0.00     0.202 C 
BRANCH   2   3
ATOM      3  C   UNL A   1      31.077  28.971  22.718  1.00  0.00     0.261 C 
BRANCH   3   4
ATOM      4  O   UNL A   1      31.161  27.538  22.833  1.00  0.00    -0.461 OA
BRANCH   4   5
ATOM      5  C   UNL A   1      32.426  27.045  22.974  1.00  0.00     0.331 C 
ATOM      6  O   UNL A   1      33.394  27.469  22.345  1.00  0.00    -0.249 OA
BRANCH   5   7
ATOM      7  C   UNL A   1      32.501  25.811  23.927  1.00  0.00     0.137 C 
ATOM      8  C   UNL A   1      31.710  28.174  27.566  1.00  0.00     0.007 C 
ATOM      9  C   UNL A   1      32.051  26.964  26.693  1.00  0.00    -0.014 C 
ATOM     10  C   UNL A   1      33.327  27.228  25.891  1.00  0.00     0.006 C 
ATOM     11  C   UNL A   1      30.869  26.614  25.783  1.00  0.00     0.006 C 
ATOM     12  C   UNL A   1      33.643  26.070  24.940  1.00  0.00     0.041 C 
ATOM     13  C   UNL A   1      31.195  25.561  24.723  1.00  0.00     0.041 C 
BRANCH   7  14
ATOM     14  N   UNL A   1      32.832  24.545  23.198  1.00  0.00    -0.353 N 
ATOM     15  H   UNL A   1      32.364  24.329  22.360  1.00  0.00     0.163 HD
BRANCH  14  16
ATOM     16  C   UNL A   1      33.794  23.675  23.692  1.00  0.00     0.149 A 
ATOM     17  C   UNL A   1      35.145  23.817  23.408  1.00  0.00     0.051 A 
ATOM     18  N   UNL A   1      33.365  22.638  24.436  1.00  0.00    -0.132 NA
ATOM     19  C   UNL A   1      36.041  22.833  23.820  1.00  0.00     0.040 A 
ATOM     20  N   UNL A   1      34.240  21.659  24.853  1.00  0.00    -0.143 NA
ATOM     21  C   UNL A   1      35.547  21.756  24.531  1.00  0.00     0.150 A 
BRANCH  21  22
ATOM     22  C   UNL A   1      36.444  20.640  24.941  1.00  0.00     0.269 C 
ATOM     23  N   UNL A   1      35.858  19.419  25.129  1.00  0.00    -0.364 N 
ATOM     24  O   UNL A   1      37.648  20.817  25.096  1.00  0.00    -0.268 OA
ATOM     25  H   UNL A   1      34.889  19.312  24.995  1.00  0.00     0.160 HD
ATOM     26  H   UNL A   1      36.406  18.646  25.397  1.00  0.00     0.160 HD
ENDBRANCH  21  22
ENDBRANCH  14  16
ENDBRANCH   7  14
ENDBRANCH   5   7
ENDBRANCH   4   5
ENDBRANCH   3   4
ENDBRANCH   2   3
ENDBRANCH   1   2
BRANCH   1  27
ATOM     27  C   UNL A   1      30.710  31.532  25.330  1.00  0.00     0.202 C 
BRANCH  27  28
ATOM     28  C   UNL A   1      31.252  31.987  26.690  1.00  0.00     0.261 C 
BRANCH  28  29
ATOM     29  O   UNL A   1      32.617  31.588  26.898  1.00  0.00    -0.460 OA
BRANCH  29  30
ATOM     30  C   UNL A   1      33.389  32.543  27.476  1.00  0.00     0.338 C 
ATOM     31  O   UNL A   1      33.053  33.673  27.787  1.00  0.00    -0.246 OA
BRANCH  30  32
ATOM     32  C   UNL A   1      34.695  31.983  27.859  1.00  0.00     0.060 A 
ATOM     33  C   UNL A   1      34.747  30.619  28.168  1.00  0.00     0.016 A 
ATOM     34  C   UNL A   1      35.816  32.797  28.033  1.00  0.00     0.016 A 
ATOM     35  C   UNL A   1      35.910  30.069  28.701  1.00  0.00     0.010 A 
ATOM     36  C   UNL A   1      36.980  32.245  28.579  1.00  0.00     0.010 A 
ATOM     37  C   UNL A   1      37.019  30.890  28.950  1.00  0.00    -0.014 A 
BRANCH  37  38
ATOM     38  C   UNL A   1      38.170  30.341  29.706  1.00  0.00     0.031 A 
ATOM     39  C   UNL A   1      38.388  30.766  31.132  1.00  0.00     0.074 A 
ATOM     40  C   UNL A   1      39.001  29.455  29.129  1.00  0.00     0.049 A 
ATOM     41  N   UNL A   1      39.309  30.381  31.976  1.00  0.00    -0.248 NA
ATOM     42  C   UNL A   1      37.441  31.751  31.680  1.00  0.00     0.031 C 
ATOM     43  C   UNL A   1      38.893  28.971  27.755  1.00  0.00     0.029 A 
ATOM     44  N   UNL A   1      40.113  28.822  29.625  1.00  0.00    -0.354 N 
ATOM     45  C   UNL A   1      39.066  31.086  33.149  1.00  0.00     0.074 A 
ATOM     46  C   UNL A   1      37.918  31.932  32.904  1.00  0.00     0.031 C 
ATOM     47  C   UNL A   1      39.915  28.134  27.507  1.00  0.00     0.029 A 
ATOM     48  C   UNL A   1      40.758  28.038  28.698  1.00  0.00     0.049 A 
ATOM     49  H   UNL A   1      40.419  28.918  30.556  1.00  0.00     0.167 HD
ATOM     50  C   UNL A   1      39.728  31.020  34.328  1.00  0.00     0.034 A 
ATOM     51  C   UNL A   1      41.905  27.337  28.795  1.00  0.00     0.034 A 
ATOM     52  C   UNL A   1      40.857  30.165  34.577  1.00  0.00     0.049 A 
ATOM     53  C   UNL A   1      42.638  27.304  30.110  1.00  0.00     0.074 A 
ATOM     54  C   UNL A   1      41.554  29.980  35.757  1.00  0.00     0.029 A 
ATOM     55  N   UNL A   1      41.466  29.364  33.623  1.00  0.00    -0.354 N 
ATOM     56  N   UNL A   1      42.310  27.860  31.253  1.00  0.00    -0.248 NA
ATOM     57  C   UNL A   1      43.882  26.522  30.161  1.00  0.00     0.031 C 
ATOM     58  C   UNL A   1      42.601  29.086  35.510  1.00  0.00     0.029 A 
ATOM     59  C   UNL A   1      42.545  28.700  34.181  1.00  0.00     0.049 A 
ATOM     60  H   UNL A   1      41.175  29.280  32.687  1.00  0.00     0.167 HD
ATOM     61  C   UNL A   1      43.290  27.473  32.160  1.00  0.00     0.074 A 
ATOM     62  C   UNL A   1      44.210  26.615  31.443  1.00  0.00     0.031 C 
ATOM     63  C   UNL A   1      43.426  27.813  33.467  1.00  0.00     0.034 A 
BRANCH  50  64
ATOM     64  C   UNL A   1      39.224  31.873  35.462  1.00  0.00     0.023 A 
ATOM     65  C   UNL A   1      38.295  31.334  36.374  1.00  0.00     0.012 A 
ATOM     66  C   UNL A   1      39.712  33.178  35.660  1.00  0.00     0.148 A 
ATOM     67  C   UNL A   1      37.843  32.089  37.456  1.00  0.00     0.002 A 
ATOM     68  C   UNL A   1      39.284  33.912  36.761  1.00  0.00     0.091 A 
ATOM     69  F   UNL A   1      40.576  33.681  34.766  1.00  0.00    -0.205 F 
ATOM     70  C   UNL A   1      38.345  33.372  37.654  1.00  0.00     0.022 A 
BRANCH  68  71
ATOM     71  S   UNL A   1      39.923  35.549  37.138  1.00  0.00     0.127 S 
ATOM     72  O   UNL A   1      41.357  35.288  37.249  1.00  0.00    -0.237 OA
ATOM     73  O   UNL A   1      39.532  36.314  35.953  1.00  0.00    -0.237 OA
ATOM     74  O   UNL A   1      39.262  35.961  38.368  1.00  0.00    -0.744 OA
ENDBRANCH  68  71
ENDBRANCH  50  64
BRANCH  51  75
ATOM     75  C   UNL A   1      42.412  26.585  27.614  1.00  0.00     0.023 A 
ATOM     76  C   UNL A   1      43.259  27.225  26.689  1.00  0.00     0.012 A 
ATOM     77  C   UNL A   1      42.089  25.226  27.425  1.00  0.00     0.148 A 
ATOM     78  C   UNL A   1      43.755  26.532  25.583  1.00  0.00     0.002 A 
ATOM     79  C   UNL A   1      42.640  24.527  26.359  1.00  0.00     0.091 A 
ATOM     80  F   UNL A   1      41.267  24.641  28.306  1.00  0.00    -0.205 F 
ATOM     81  C   UNL A   1      43.456  25.181  25.425  1.00  0.00     0.022 A 
BRANCH  79  82
ATOM     82  S   UNL A   1      42.451  22.750  26.172  1.00  0.00     0.127 S 
ATOM     83  O   UNL A   1      43.135  22.248  27.359  1.00  0.00    -0.237 OA
ATOM     84  O   UNL A   1      40.994  22.607  26.185  1.00  0.00    -0.237 OA
ATOM     85  O   UNL A   1      43.071  22.419  24.896  1.00  0.00    -0.744 OA
ENDBRANCH  79  82
ENDBRANCH  51  75
BRANCH  63  86
ATOM     86  C   UNL A   1      44.608  27.253  34.214  1.00  0.00     0.023 A 
ATOM     87  C   UNL A   1      45.787  28.018  34.321  1.00  0.00     0.012 A 
ATOM     88  C   UNL A   1      44.529  26.009  34.872  1.00  0.00     0.148 A 
ATOM     89  C   UNL A   1      46.878  27.543  35.048  1.00  0.00     0.002 A 
ATOM     90  C   UNL A   1      45.605  25.562  35.631  1.00  0.00     0.091 A 
ATOM     91  F   UNL A   1      43.407  25.286  34.743  1.00  0.00    -0.205 F 
ATOM     92  C   UNL A   1      46.783  26.323  35.712  1.00  0.00     0.022 A 
BRANCH  90  93
ATOM     93  S   UNL A   1      45.537  24.045  36.592  1.00  0.00     0.127 S 
ATOM     94  O   UNL A   1      44.613  23.234  35.804  1.00  0.00    -0.237 OA
ATOM     95  O   UNL A   1      46.929  23.591  36.560  1.00  0.00    -0.237 OA
ATOM     96  O   UNL A   1      45.062  24.432  37.915  1.00  0.00    -0.744 OA
ENDBRANCH  90  93
ENDBRANCH  63  86
ENDBRANCH  37  38
ENDBRANCH  30  32
ENDBRANCH  29  30
ENDBRANCH  28  29
ENDBRANCH  27  28
ENDBRANCH   1  27
TORSDOF 20
ENDMDL
MODEL 2
REMARK VINA RESULT:     -11.3      1.904      8.084
REMARK SMILES C[C@H]1CC[C@@](Nc2ccc(C(N)=O)nn2)(C(=O)OCCOCCOC(=O)c2ccc(-c3c4nc(c(-c5cccc(S(=O)(=O)[O-])c5F)c5ccc([nH]5)c(-c5cccc(S(=O)(=O)[O-])c5F)c5nc(c(-c6cccc(S(=O)(=O)[O-])c6F)c6ccc3[nH]6)C=C5)C=C4)cc2)CC1
REMARK SMILES IDX 21 1 20 2 19 3 18 4 16 5 17 6 5 7 1 8 2 9 91 10 3 11 90 12
REMARK SMILES IDX 4 13 6 14 7 16 8 17 15 18 9 19 14 20 10 21 11 22 12 23 13 24
REMARK SMILES IDX 22 27 23 28 24 29 25 30 26 31 27 32 28 33 89 34 29 35 88 36
REMARK SMILES IDX 30 37 31 38 32 39 82 40 33 41 87 42 81 43 83 44 34 45 86 46
REMARK SMILES IDX 80 47 79 48 35 50 67 51 47 52 66 53 48 54 51 55 65 56 84 57
REMARK SMILES IDX 49 58 50 59 64 61 85 62 52 63 36 64 37 65 45 66 38 67 40 68
REMARK SMILES IDX 46 69 39 70 41 71 42 72 43 73 44 74 68 75 69 76 77 77 70 78
REMARK SMILES IDX 72 79 78 80 71 81 73 82 74 83 75 84 76 85 53 86 54 87 62 88
REMARK SMILES IDX 55 89 57 90 63 91 56 92 58 93 59 94 60 95 61 96
REMARK H PARENT 6 15 12 25 12 26 83 49 51 60
REMARK Flexibility Score: inf
ROOT
ATOM      1  O   UNL A   1      31.364  27.439  25.591  1.00  0.00    -0.374 OA
ENDROOT
BRANCH   1   2
ATOM      2  C   UNL A   1      32.348  26.974  24.668  1.00  0.00     0.202 C 
BRANCH   2   3
ATOM      3  C   UNL A   1      33.158  25.738  25.062  1.00  0.00     0.261 C 
BRANCH   3   4
ATOM      4  O   UNL A   1      32.400  24.513  25.096  1.00  0.00    -0.461 OA
BRANCH   4   5
ATOM      5  C   UNL A   1      32.715  23.615  24.118  1.00  0.00     0.331 C 
ATOM      6  O   UNL A   1      32.579  23.842  22.917  1.00  0.00    -0.249 OA
BRANCH   5   7
ATOM      7  C   UNL A   1      33.154  22.227  24.680  1.00  0.00     0.137 C 
ATOM      8  C   UNL A   1      37.095  23.669  26.037  1.00  0.00     0.007 C 
ATOM      9  C   UNL A   1      35.958  22.691  25.734  1.00  0.00    -0.014 C 
ATOM     10  C   UNL A   1      35.631  22.699  24.240  1.00  0.00     0.006 C 
ATOM     11  C   UNL A   1      34.729  23.024  26.587  1.00  0.00     0.006 C 
ATOM     12  C   UNL A   1      34.434  21.798  23.921  1.00  0.00     0.041 C 
ATOM     13  C   UNL A   1      33.473  22.242  26.196  1.00  0.00     0.041 C 
BRANCH   7  14
ATOM     14  N   UNL A   1      32.124  21.164  24.449  1.00  0.00    -0.353 N 
ATOM     15  H   UNL A   1      31.207  21.420  24.200  1.00  0.00     0.163 HD
BRANCH  14  16
ATOM     16  C   UNL A   1      32.450  19.822  24.580  1.00  0.00     0.149 A 
ATOM     17  C   UNL A   1      32.686  19.001  23.485  1.00  0.00     0.051 A 
ATOM     18  N   UNL A   1      32.487  19.313  25.826  1.00  0.00    -0.132 NA
ATOM     19  C   UNL A   1      32.873  17.634  23.678  1.00  0.00     0.040 A 
ATOM     20  N   UNL A   1      32.673  17.964  26.033  1.00  0.00    -0.143 NA
ATOM     21  C   UNL A   1      32.845  17.147  24.972  1.00  0.00     0.150 A 
BRANCH  21  22
ATOM     22  C   UNL A   1      32.971  15.688  25.237  1.00  0.00     0.269 C 
ATOM     23  N   UNL A   1      31.814  15.010  25.507  1.00  0.00    -0.364 N 
ATOM     24  O   UNL A   1      34.063  15.129  25.210  1.00  0.00    -0.268 OA
ATOM     25  H   UNL A   1      30.955  15.490  25.521  1.00  0.00     0.160 HD
ATOM     26  H   UNL A   1      31.841  14.043  25.686  1.00  0.00     0.160 HD
ENDBRANCH  21  22
ENDBRANCH  14  16
ENDBRANCH   7  14
ENDBRANCH   5   7
ENDBRANCH   4   5
ENDBRANCH   3   4
ENDBRANCH   2   3
ENDBRANCH   1   2
BRANCH   1  27
ATOM     27  C   UNL A   1      31.795  28.294  26.646  1.00  0.00     0.202 C 
BRANCH  27  28
ATOM     28  C   UNL A   1      31.692  29.803  26.401  1.00  0.00     0.261 C 
BRANCH  28  29
ATOM     29  O   UNL A   1      32.967  30.400  26.111  1.00  0.00    -0.460 OA
BRANCH  29  30
ATOM     30  C   UNL A   1      33.357  31.333  27.015  1.00  0.00     0.338 C 
ATOM     31  O   UNL A   1      32.680  32.231  27.486  1.00  0.00    -0.246 OA
BRANCH  30  32
ATOM     32  C   UNL A   1      34.707  31.027  27.516  1.00  0.00     0.060 A 
ATOM     33  C   UNL A   1      35.023  29.682  27.737  1.00  0.00     0.016 A 
ATOM     34  C   UNL A   1      35.597  32.040  27.881  1.00  0.00     0.016 A 
ATOM     35  C   UNL A   1      36.216  29.342  28.371  1.00  0.00     0.010 A 
ATOM     36  C   UNL A   1      36.790  31.696  28.528  1.00  0.00     0.010 A 
ATOM     37  C   UNL A   1      37.086  30.351  28.808  1.00  0.00    -0.014 A 
BRANCH  37  38
ATOM     38  C   UNL A   1      38.243  29.989  29.661  1.00  0.00     0.031 A 
ATOM     39  C   UNL A   1      39.268  29.018  29.144  1.00  0.00     0.074 A 
ATOM     40  C   UNL A   1      38.387  30.538  30.880  1.00  0.00     0.049 A 
ATOM     41  N   UNL A   1      40.366  28.595  29.713  1.00  0.00    -0.248 NA
ATOM     42  C   UNL A   1      39.025  28.451  27.807  1.00  0.00     0.031 C 
ATOM     43  C   UNL A   1      37.459  31.488  31.489  1.00  0.00     0.029 A 
ATOM     44  N   UNL A   1      39.361  30.359  31.830  1.00  0.00    -0.354 N 
ATOM     45  C   UNL A   1      40.939  27.702  28.815  1.00  0.00     0.074 A 
ATOM     46  C   UNL A   1      40.060  27.634  27.668  1.00  0.00     0.031 C 
ATOM     47  C   UNL A   1      37.894  31.789  32.725  1.00  0.00     0.029 A 
ATOM     48  C   UNL A   1      39.119  31.041  32.999  1.00  0.00     0.049 A 
ATOM     49  H   UNL A   1      40.156  29.796  31.688  1.00  0.00     0.167 HD
ATOM     50  C   UNL A   1      42.101  27.016  28.929  1.00  0.00     0.034 A 
ATOM     51  C   UNL A   1      39.801  31.047  34.162  1.00  0.00     0.034 A 
ATOM     52  C   UNL A   1      42.983  27.100  30.061  1.00  0.00     0.049 A 
ATOM     53  C   UNL A   1      41.076  30.252  34.272  1.00  0.00     0.074 A 
ATOM     54  C   UNL A   1      44.214  26.493  30.241  1.00  0.00     0.029 A 
ATOM     55  N   UNL A   1      42.721  27.821  31.215  1.00  0.00    -0.354 N 
ATOM     56  N   UNL A   1      41.680  29.530  33.358  1.00  0.00    -0.248 NA
ATOM     57  C   UNL A   1      41.780  30.297  35.562  1.00  0.00     0.031 C 
ATOM     58  C   UNL A   1      44.684  26.829  31.515  1.00  0.00     0.029 A 
ATOM     59  C   UNL A   1      43.755  27.659  32.121  1.00  0.00     0.049 A 
ATOM     60  H   UNL A   1      41.918  28.370  31.368  1.00  0.00     0.167 HD
ATOM     61  C   UNL A   1      42.845  29.059  33.953  1.00  0.00     0.074 A 
ATOM     62  C   UNL A   1      42.876  29.597  35.297  1.00  0.00     0.031 C 
ATOM     63  C   UNL A   1      43.795  28.238  33.439  1.00  0.00     0.034 A 
BRANCH  50  64
ATOM     64  C   UNL A   1      42.510  26.138  27.777  1.00  0.00     0.023 A 
ATOM     65  C   UNL A   1      43.423  26.627  26.822  1.00  0.00     0.012 A 
ATOM     66  C   UNL A   1      42.041  24.814  27.673  1.00  0.00     0.148 A 
ATOM     67  C   UNL A   1      43.849  25.819  25.769  1.00  0.00     0.002 A 
ATOM     68  C   UNL A   1      42.498  24.003  26.640  1.00  0.00     0.091 A 
ATOM     69  F   UNL A   1      41.153  24.376  28.577  1.00  0.00    -0.205 F 
ATOM     70  C   UNL A   1      43.396  24.506  25.684  1.00  0.00     0.022 A 
BRANCH  68  71
ATOM     71  S   UNL A   1      42.021  22.277  26.483  1.00  0.00     0.127 S 
ATOM     72  O   UNL A   1      42.737  21.883  25.271  1.00  0.00    -0.237 OA
ATOM     73  O   UNL A   1      42.549  21.698  27.719  1.00  0.00    -0.237 OA
ATOM     74  O   UNL A   1      40.569  22.273  26.385  1.00  0.00    -0.744 OA
ENDBRANCH  68  71
ENDBRANCH  50  64
BRANCH  51  75
ATOM     75  C   UNL A   1      39.303  31.861  35.304  1.00  0.00     0.023 A 
ATOM     76  C   UNL A   1      38.440  31.279  36.253  1.00  0.00     0.012 A 
ATOM     77  C   UNL A   1      39.711  33.199  35.477  1.00  0.00     0.148 A 
ATOM     78  C   UNL A   1      37.973  32.022  37.339  1.00  0.00     0.002 A 
ATOM     79  C   UNL A   1      39.295  33.910  36.594  1.00  0.00     0.091 A 
ATOM     80  F   UNL A   1      40.517  33.740  34.553  1.00  0.00    -0.205 F 
ATOM     81  C   UNL A   1      38.409  33.332  37.516  1.00  0.00     0.022 A 
BRANCH  79  82
ATOM     82  S   UNL A   1      39.939  35.539  36.995  1.00  0.00     0.127 S 
ATOM     83  O   UNL A   1      39.218  35.853  38.225  1.00  0.00    -0.237 OA
ATOM     84  O   UNL A   1      41.365  35.256  37.164  1.00  0.00    -0.237 OA
ATOM     85  O   UNL A   1      39.629  36.380  35.847  1.00  0.00    -0.744 OA
ENDBRANCH  79  82
ENDBRANCH  51  75
BRANCH  63  86
ATOM     86  C   UNL A   1      44.957  27.874  34.326  1.00  0.00     0.023 A 
ATOM     87  C   UNL A   1      46.096  28.704  34.354  1.00  0.00     0.012 A 
ATOM     88  C   UNL A   1      44.893  26.758  35.184  1.00  0.00     0.148 A 
ATOM     89  C   UNL A   1      47.164  28.414  35.202  1.00  0.00     0.002 A 
ATOM     90  C   UNL A   1      45.944  26.500  36.058  1.00  0.00     0.091 A 
ATOM     91  F   UNL A   1      43.811  25.968  35.129  1.00  0.00    -0.205 F 
ATOM     92  C   UNL A   1      47.083  27.321  36.061  1.00  0.00     0.022 A 
BRANCH  90  93
ATOM     93  S   UNL A   1      45.886  25.168  37.262  1.00  0.00     0.127 S 
ATOM     94  O   UNL A   1      44.727  25.545  38.068  1.00  0.00    -0.237 OA
ATOM     95  O   UNL A   1      45.685  23.990  36.416  1.00  0.00    -0.237 OA
ATOM     96  O   UNL A   1      47.168  25.199  37.953  1.00  0.00    -0.744 OA
ENDBRANCH  90  93
ENDBRANCH  63  86
ENDBRANCH  37  38
ENDBRANCH  30  32
ENDBRANCH  29  30
ENDBRANCH  28  29
ENDBRANCH  27  28
ENDBRANCH   1  27
TORSDOF 20
ENDMDL
MODEL 3
REMARK VINA RESULT:     -11.2      4.865      8.275
REMARK SMILES C[C@H]1CC[C@@](Nc2ccc(C(N)=O)nn2)(C(=O)OCCOCCOC(=O)c2ccc(-c3c4nc(c(-c5cccc(S(=O)(=O)[O-])c5F)c5ccc([nH]5)c(-c5cccc(S(=O)(=O)[O-])c5F)c5nc(c(-c6cccc(S(=O)(=O)[O-])c6F)c6ccc3[nH]6)C=C5)C=C4)cc2)CC1
REMARK SMILES IDX 21 1 20 2 19 3 18 4 16 5 17 6 5 7 1 8 2 9 91 10 3 11 90 12
REMARK SMILES IDX 4 13 6 14 7 16 8 17 15 18 9 19 14 20 10 21 11 22 12 23 13 24
REMARK SMILES IDX 22 27 23 28 24 29 25 30 26 31 27 32 28 33 89 34 29 35 88 36
REMARK SMILES IDX 30 37 31 38 32 39 82 40 33 41 87 42 81 43 83 44 34 45 86 46
REMARK SMILES IDX 80 47 79 48 35 50 67 51 47 52 66 53 48 54 51 55 65 56 84 57
REMARK SMILES IDX 49 58 50 59 64 61 85 62 52 63 36 64 37 65 45 66 38 67 40 68
REMARK SMILES IDX 46 69 39 70 41 71 42 72 43 73 44 74 68 75 69 76 77 77 70 78
REMARK SMILES IDX 72 79 78 80 71 81 73 82 74 83 75 84 76 85 53 86 54 87 62 88
REMARK SMILES IDX 55 89 57 90 63 91 56 92 58 93 59 94 60 95 61 96
REMARK H PARENT 6 15 12 25 12 26 83 49 51 60
REMARK Flexibility Score: inf
ROOT
ATOM      1  O   UNL A   1      34.695  22.397  24.710  1.00  0.00    -0.374 OA
ENDROOT
BRANCH   1   2
ATOM      2  C   UNL A   1      33.365  22.831  24.992  1.00  0.00     0.202 C 
BRANCH   2   3
ATOM      3  C   UNL A   1      33.190  24.220  25.608  1.00  0.00     0.261 C 
BRANCH   3   4
ATOM      4  O   UNL A   1      32.248  25.064  24.919  1.00  0.00    -0.461 OA
BRANCH   4   5
ATOM      5  C   UNL A   1      32.806  26.080  24.197  1.00  0.00     0.331 C 
ATOM      6  O   UNL A   1      33.842  25.961  23.547  1.00  0.00    -0.249 OA
BRANCH   5   7
ATOM      7  C   UNL A   1      32.060  27.439  24.375  1.00  0.00     0.137 C 
ATOM      8  C   UNL A   1      34.985  29.026  27.272  1.00  0.00     0.007 C 
ATOM      9  C   UNL A   1      33.722  28.952  26.410  1.00  0.00    -0.014 C 
ATOM     10  C   UNL A   1      32.896  27.718  26.779  1.00  0.00     0.006 C 
ATOM     11  C   UNL A   1      34.091  28.965  24.923  1.00  0.00     0.006 C 
ATOM     12  C   UNL A   1      31.673  27.568  25.869  1.00  0.00     0.041 C 
ATOM     13  C   UNL A   1      32.915  28.673  23.990  1.00  0.00     0.041 C 
BRANCH   7  14
ATOM     14  N   UNL A   1      30.792  27.505  23.581  1.00  0.00    -0.353 N 
ATOM     15  H   UNL A   1      30.305  26.676  23.372  1.00  0.00     0.163 HD
BRANCH  14  16
ATOM     16  C   UNL A   1      30.298  28.723  23.136  1.00  0.00     0.149 A 
ATOM     17  C   UNL A   1      29.991  29.763  24.001  1.00  0.00     0.051 A 
ATOM     18  N   UNL A   1      30.075  28.853  21.814  1.00  0.00    -0.132 NA
ATOM     19  C   UNL A   1      29.370  30.908  23.506  1.00  0.00     0.040 A 
ATOM     20  N   UNL A   1      29.464  29.980  21.310  1.00  0.00    -0.143 NA
ATOM     21  C   UNL A   1      29.107  30.974  22.150  1.00  0.00     0.150 A 
BRANCH  21  22
ATOM     22  C   UNL A   1      28.386  32.142  21.573  1.00  0.00     0.269 C 
ATOM     23  N   UNL A   1      28.114  32.094  20.233  1.00  0.00    -0.364 N 
ATOM     24  O   UNL A   1      28.054  33.094  22.272  1.00  0.00    -0.268 OA
ATOM     25  H   UNL A   1      28.395  31.315  19.702  1.00  0.00     0.160 HD
ATOM     26  H   UNL A   1      27.636  32.838  19.801  1.00  0.00     0.160 HD
ENDBRANCH  21  22
ENDBRANCH  14  16
ENDBRANCH   7  14
ENDBRANCH   5   7
ENDBRANCH   4   5
ENDBRANCH   3   4
ENDBRANCH   2   3
ENDBRANCH   1   2
BRANCH   1  27
ATOM     27  C   UNL A   1      34.999  21.020  24.910  1.00  0.00     0.202 C 
BRANCH  27  28
ATOM     28  C   UNL A   1      36.483  20.642  24.984  1.00  0.00     0.261 C 
BRANCH  28  29
ATOM     29  O   UNL A   1      37.325  21.775  25.252  1.00  0.00    -0.460 OA
BRANCH  29  30
ATOM     30  C   UNL A   1      38.499  21.459  25.855  1.00  0.00     0.338 C 
ATOM     31  O   UNL A   1      39.106  20.405  25.779  1.00  0.00    -0.246 OA
BRANCH  30  32
ATOM     32  C   UNL A   1      39.074  22.646  26.510  1.00  0.00     0.060 A 
ATOM     33  C   UNL A   1      38.513  23.890  26.199  1.00  0.00     0.016 A 
ATOM     34  C   UNL A   1      40.214  22.557  27.310  1.00  0.00     0.016 A 
ATOM     35  C   UNL A   1      39.119  25.059  26.649  1.00  0.00     0.010 A 
ATOM     36  C   UNL A   1      40.829  23.735  27.752  1.00  0.00     0.010 A 
ATOM     37  C   UNL A   1      40.306  24.989  27.392  1.00  0.00    -0.014 A 
BRANCH  37  38
ATOM     38  C   UNL A   1      41.051  26.236  27.686  1.00  0.00     0.031 A 
ATOM     39  C   UNL A   1      40.364  27.353  28.422  1.00  0.00     0.074 A 
ATOM     40  C   UNL A   1      42.338  26.362  27.314  1.00  0.00     0.049 A 
ATOM     41  N   UNL A   1      40.844  28.507  28.805  1.00  0.00    -0.248 NA
ATOM     42  C   UNL A   1      38.951  27.139  28.777  1.00  0.00     0.031 C 
ATOM     43  C   UNL A   1      43.108  25.350  26.594  1.00  0.00     0.029 A 
ATOM     44  N   UNL A   1      43.215  27.405  27.476  1.00  0.00    -0.354 N 
ATOM     45  C   UNL A   1      39.792  29.165  29.432  1.00  0.00     0.074 A 
ATOM     46  C   UNL A   1      38.644  28.287  29.366  1.00  0.00     0.031 C 
ATOM     47  C   UNL A   1      44.339  25.833  26.352  1.00  0.00     0.029 A 
ATOM     48  C   UNL A   1      44.437  27.191  26.883  1.00  0.00     0.049 A 
ATOM     49  H   UNL A   1      42.991  28.226  27.970  1.00  0.00     0.167 HD
ATOM     50  C   UNL A   1      39.789  30.383  30.024  1.00  0.00     0.034 A 
ATOM     51  C   UNL A   1      45.504  28.006  26.768  1.00  0.00     0.034 A 
ATOM     52  C   UNL A   1      40.935  31.247  30.105  1.00  0.00     0.049 A 
ATOM     53  C   UNL A   1      45.464  29.367  27.412  1.00  0.00     0.074 A 
ATOM     54  C   UNL A   1      41.047  32.471  30.740  1.00  0.00     0.029 A 
ATOM     55  N   UNL A   1      42.163  30.987  29.518  1.00  0.00    -0.354 N 
ATOM     56  N   UNL A   1      44.511  29.914  28.128  1.00  0.00    -0.248 NA
ATOM     57  C   UNL A   1      46.657  30.213  27.257  1.00  0.00     0.031 C 
ATOM     58  C   UNL A   1      42.338  32.962  30.516  1.00  0.00     0.029 A 
ATOM     59  C   UNL A   1      43.034  32.037  29.756  1.00  0.00     0.049 A 
ATOM     60  H   UNL A   1      42.384  30.175  29.006  1.00  0.00     0.167 HD
ATOM     61  C   UNL A   1      44.999  31.152  28.532  1.00  0.00     0.074 A 
ATOM     62  C   UNL A   1      46.342  31.265  28.002  1.00  0.00     0.031 C 
ATOM     63  C   UNL A   1      44.384  32.116  29.261  1.00  0.00     0.034 A 
BRANCH  50  64
ATOM     64  C   UNL A   1      38.508  30.843  30.669  1.00  0.00     0.023 A 
ATOM     65  C   UNL A   1      38.322  30.651  32.052  1.00  0.00     0.012 A 
ATOM     66  C   UNL A   1      37.523  31.517  29.923  1.00  0.00     0.148 A 
ATOM     67  C   UNL A   1      37.163  31.104  32.681  1.00  0.00     0.002 A 
ATOM     68  C   UNL A   1      36.386  31.998  30.564  1.00  0.00     0.091 A 
ATOM     69  F   UNL A   1      37.708  31.667  28.604  1.00  0.00    -0.205 F 
ATOM     70  C   UNL A   1      36.202  31.786  31.941  1.00  0.00     0.022 A 
BRANCH  68  71
ATOM     71  S   UNL A   1      35.122  32.945  29.708  1.00  0.00     0.127 S 
ATOM     72  O   UNL A   1      34.569  31.944  28.797  1.00  0.00    -0.237 OA
ATOM     73  O   UNL A   1      34.231  33.332  30.802  1.00  0.00    -0.237 OA
ATOM     74  O   UNL A   1      35.818  34.056  29.073  1.00  0.00    -0.744 OA
ENDBRANCH  68  71
ENDBRANCH  50  64
BRANCH  51  75
ATOM     75  C   UNL A   1      46.714  27.537  26.038  1.00  0.00     0.023 A 
ATOM     76  C   UNL A   1      46.862  27.833  24.669  1.00  0.00     0.012 A 
ATOM     77  C   UNL A   1      47.738  26.833  26.703  1.00  0.00     0.148 A 
ATOM     78  C   UNL A   1      47.996  27.413  23.970  1.00  0.00     0.002 A 
ATOM     79  C   UNL A   1      48.891  26.478  26.017  1.00  0.00     0.091 A 
ATOM     80  F   UNL A   1      47.570  26.545  28.001  1.00  0.00    -0.205 F 
ATOM     81  C   UNL A   1      49.015  26.747  24.646  1.00  0.00     0.022 A 
BRANCH  79  82
ATOM     82  S   UNL A   1      50.324  25.773  26.840  1.00  0.00     0.127 S 
ATOM     83  O   UNL A   1      49.831  24.455  27.228  1.00  0.00    -0.237 OA
ATOM     84  O   UNL A   1      51.313  25.775  25.760  1.00  0.00    -0.237 OA
ATOM     85  O   UNL A   1      50.636  26.680  27.936  1.00  0.00    -0.744 OA
ENDBRANCH  79  82
ENDBRANCH  51  75
BRANCH  63  86
ATOM     86  C   UNL A   1      45.155  33.381  29.538  1.00  0.00     0.023 A 
ATOM     87  C   UNL A   1      45.919  33.482  30.718  1.00  0.00     0.012 A 
ATOM     88  C   UNL A   1      45.185  34.433  28.601  1.00  0.00     0.148 A 
ATOM     89  C   UNL A   1      46.680  34.623  30.974  1.00  0.00     0.002 A 
ATOM     90  C   UNL A   1      45.980  35.548  28.844  1.00  0.00     0.091 A 
ATOM     91  F   UNL A   1      44.437  34.326  27.493  1.00  0.00    -0.205 F 
ATOM     92  C   UNL A   1      46.719  35.648  30.033  1.00  0.00     0.022 A 
BRANCH  90  93
ATOM     93  S   UNL A   1      46.162  36.875  27.646  1.00  0.00     0.127 S 
ATOM     94  O   UNL A   1      47.049  37.796  28.354  1.00  0.00    -0.237 OA
ATOM     95  O   UNL A   1      46.778  36.189  26.509  1.00  0.00    -0.237 OA
ATOM     96  O   UNL A   1      44.816  37.371  27.392  1.00  0.00    -0.744 OA
ENDBRANCH  90  93
ENDBRANCH  63  86
ENDBRANCH  37  38
ENDBRANCH  30  32
ENDBRANCH  29  30
ENDBRANCH  28  29
ENDBRANCH  27  28
ENDBRANCH   1  27
TORSDOF 20
ENDMDL
