MODEL 1
REMARK VINA RESULT:     -10.2      0.000      0.000
REMARK SMILES CCCC[NH2+][C@H]1CS(=O)(=O)C[C@@H]1[NH2+]CC(=O)OCCOCCOC(=O)c1ccc(-c2c3nc(c(-c4cccc(S(=O)(=O)[O-])c4F)c4ccc([nH]4)c(-c4cccc(S(=O)(=O)[O-])c4F)c4nc(c(-c5cccc(S(=O)(=O)[O-])c5F)c5ccc2[nH]5)C=C4)C=C3)cc1
REMARK SMILES IDX 18 1 17 2 15 3 16 4 14 5 13 6 12 9 6 10 7 11 8 12 11 13 9 14
REMARK SMILES IDX 10 15 5 16 4 19 3 20 2 21 1 22 19 23 20 24 21 25 22 26 23 27
REMARK SMILES IDX 24 28 25 29 26 30 27 31 88 32 28 33 87 34 29 35 30 36 31 37
REMARK SMILES IDX 81 38 32 39 86 40 80 41 82 42 33 43 85 44 79 45 78 46 34 48
REMARK SMILES IDX 66 49 46 50 65 51 47 52 50 53 64 54 83 55 48 56 49 57 63 59
REMARK SMILES IDX 84 60 51 61 35 62 36 63 44 64 37 65 39 66 45 67 38 68 40 69
REMARK SMILES IDX 41 70 42 71 43 72 67 73 68 74 76 75 69 76 71 77 77 78 70 79
REMARK SMILES IDX 72 80 73 81 74 82 75 83 52 84 53 85 61 86 54 87 56 88 62 89
REMARK SMILES IDX 55 90 57 91 58 92 59 93 60 94
REMARK H PARENT 13 7 13 8 5 17 5 18 82 47 50 58
REMARK Flexibility Score: inf
ROOT
ATOM      1  C   UNL A   1      33.642  23.055  24.217  1.00  0.00     0.261 C 
ENDROOT
BRANCH   1   2
ATOM      2  O   UNL A   1      32.632  23.892  23.625  1.00  0.00    -0.459 OA
BRANCH   2   3
ATOM      3  C   UNL A   1      33.077  24.668  22.605  1.00  0.00     0.361 C 
ATOM      4  O   UNL A   1      34.263  24.822  22.312  1.00  0.00    -0.245 OA
BRANCH   3   5
ATOM      5  C   UNL A   1      31.995  25.358  21.787  1.00  0.00     0.385 C 
BRANCH   5   6
ATOM      6  N   UNL A   1      31.937  26.843  21.817  1.00  0.00    -0.329 N 
ATOM      7  H   UNL A   1      32.773  27.211  21.360  1.00  0.00     0.347 HD
ATOM      8  H   UNL A   1      31.086  27.126  21.332  1.00  0.00     0.347 HD
BRANCH   6   9
ATOM      9  C   UNL A   1      31.869  27.391  23.199  1.00  0.00     0.258 C 
ATOM     10  C   UNL A   1      30.598  26.901  24.004  1.00  0.00     0.257 C 
ATOM     11  C   UNL A   1      29.402  27.704  23.456  1.00  0.00     0.208 C 
ATOM     12  S   UNL A   1      30.068  29.275  22.931  1.00  0.00     0.162 S 
ATOM     13  C   UNL A   1      31.770  28.918  23.302  1.00  0.00     0.208 C 
ATOM     14  O   UNL A   1      29.918  29.366  21.493  1.00  0.00    -0.228 OA
ATOM     15  O   UNL A   1      29.606  30.330  23.813  1.00  0.00    -0.228 OA
BRANCH  10  16
ATOM     16  N   UNL A   1      30.800  26.934  25.468  1.00  0.00    -0.338 N 
ATOM     17  H   UNL A   1      30.552  27.873  25.778  1.00  0.00     0.346 HD
ATOM     18  H   UNL A   1      30.222  26.163  25.802  1.00  0.00     0.346 HD
BRANCH  16  19
ATOM     19  C   UNL A   1      32.111  26.637  26.032  1.00  0.00     0.260 C 
BRANCH  19  20
ATOM     20  C   UNL A   1      32.681  27.775  26.892  1.00  0.00     0.061 C 
BRANCH  20  21
ATOM     21  C   UNL A   1      31.692  28.883  27.274  1.00  0.00     0.002 C 
ATOM     22  C   UNL A   1      32.120  30.277  26.840  1.00  0.00     0.004 C 
ENDBRANCH  20  21
ENDBRANCH  19  20
ENDBRANCH  16  19
ENDBRANCH  10  16
ENDBRANCH   6   9
ENDBRANCH   5   6
ENDBRANCH   3   5
ENDBRANCH   2   3
ENDBRANCH   1   2
BRANCH   1  23
ATOM     23  C   UNL A   1      33.288  21.565  24.185  1.00  0.00     0.202 C 
BRANCH  23  24
ATOM     24  O   UNL A   1      34.062  20.668  24.975  1.00  0.00    -0.374 OA
BRANCH  24  25
ATOM     25  C   UNL A   1      35.274  21.155  25.546  1.00  0.00     0.202 C 
BRANCH  25  26
ATOM     26  C   UNL A   1      36.605  20.577  25.036  1.00  0.00     0.261 C 
BRANCH  26  27
ATOM     27  O   UNL A   1      37.683  21.531  25.011  1.00  0.00    -0.460 OA
BRANCH  27  28
ATOM     28  C   UNL A   1      38.738  21.211  25.807  1.00  0.00     0.338 C 
ATOM     29  O   UNL A   1      39.300  20.129  25.882  1.00  0.00    -0.246 OA
BRANCH  28  30
ATOM     30  C   UNL A   1      39.280  22.419  26.458  1.00  0.00     0.060 A 
ATOM     31  C   UNL A   1      38.738  23.658  26.089  1.00  0.00     0.016 A 
ATOM     32  C   UNL A   1      40.369  22.352  27.327  1.00  0.00     0.016 A 
ATOM     33  C   UNL A   1      39.310  24.840  26.553  1.00  0.00     0.010 A 
ATOM     34  C   UNL A   1      40.948  23.541  27.784  1.00  0.00     0.010 A 
ATOM     35  C   UNL A   1      40.446  24.789  27.370  1.00  0.00    -0.014 A 
BRANCH  35  36
ATOM     36  C   UNL A   1      41.187  26.037  27.672  1.00  0.00     0.031 A 
ATOM     37  C   UNL A   1      40.511  27.115  28.475  1.00  0.00     0.074 A 
ATOM     38  C   UNL A   1      42.452  26.207  27.247  1.00  0.00     0.049 A 
ATOM     39  N   UNL A   1      40.963  28.289  28.836  1.00  0.00    -0.248 NA
ATOM     40  C   UNL A   1      39.140  26.834  28.928  1.00  0.00     0.031 C 
ATOM     41  C   UNL A   1      43.223  25.228  26.483  1.00  0.00     0.029 A 
ATOM     42  N   UNL A   1      43.302  27.274  27.386  1.00  0.00    -0.354 N 
ATOM     43  C   UNL A   1      39.922  28.900  29.527  1.00  0.00     0.074 A 
ATOM     44  C   UNL A   1      38.811  27.973  29.520  1.00  0.00     0.031 C 
ATOM     45  C   UNL A   1      44.433  25.746  26.210  1.00  0.00     0.029 A 
ATOM     46  C   UNL A   1      44.508  27.101  26.750  1.00  0.00     0.049 A 
ATOM     47  H   UNL A   1      43.072  28.086  27.893  1.00  0.00     0.167 HD
ATOM     48  C   UNL A   1      39.895  30.115  30.124  1.00  0.00     0.034 A 
ATOM     49  C   UNL A   1      45.547  27.948  26.605  1.00  0.00     0.034 A 
ATOM     50  C   UNL A   1      41.006  31.030  30.136  1.00  0.00     0.049 A 
ATOM     51  C   UNL A   1      45.475  29.316  27.231  1.00  0.00     0.074 A 
ATOM     52  C   UNL A   1      41.098  32.266  30.753  1.00  0.00     0.029 A 
ATOM     53  N   UNL A   1      42.212  30.819  29.485  1.00  0.00    -0.354 N 
ATOM     54  N   UNL A   1      44.526  29.840  27.971  1.00  0.00    -0.248 NA
ATOM     55  C   UNL A   1      46.630  30.201  27.027  1.00  0.00     0.031 C 
ATOM     56  C   UNL A   1      42.342  32.821  30.436  1.00  0.00     0.029 A 
ATOM     57  C   UNL A   1      43.046  31.911  29.662  1.00  0.00     0.049 A 
ATOM     58  H   UNL A   1      42.442  30.013  28.971  1.00  0.00     0.167 HD
ATOM     59  C   UNL A   1      44.989  31.094  28.356  1.00  0.00     0.074 A 
ATOM     60  C   UNL A   1      46.307  31.246  27.777  1.00  0.00     0.031 C 
ATOM     61  C   UNL A   1      44.375  32.035  29.117  1.00  0.00     0.034 A 
BRANCH  48  62
ATOM     62  C   UNL A   1      38.616  30.522  30.812  1.00  0.00     0.023 A 
ATOM     63  C   UNL A   1      38.422  30.222  32.176  1.00  0.00     0.012 A 
ATOM     64  C   UNL A   1      37.610  31.217  30.111  1.00  0.00     0.148 A 
ATOM     65  C   UNL A   1      37.229  30.557  32.817  1.00  0.00     0.002 A 
ATOM     66  C   UNL A   1      36.445  31.593  30.770  1.00  0.00     0.091 A 
ATOM     67  F   UNL A   1      37.800  31.478  28.810  1.00  0.00    -0.205 F 
ATOM     68  C   UNL A   1      36.245  31.248  32.116  1.00  0.00     0.022 A 
BRANCH  66  69
ATOM     69  S   UNL A   1      35.155  32.557  29.973  1.00  0.00     0.127 S 
ATOM     70  O   UNL A   1      34.199  32.730  31.065  1.00  0.00    -0.237 OA
ATOM     71  O   UNL A   1      35.873  33.775  29.592  1.00  0.00    -0.237 OA
ATOM     72  O   UNL A   1      34.690  31.753  28.852  1.00  0.00    -0.744 OA
ENDBRANCH  66  69
ENDBRANCH  48  62
BRANCH  49  73
ATOM     73  C   UNL A   1      46.770  27.508  25.876  1.00  0.00     0.023 A 
ATOM     74  C   UNL A   1      46.896  27.799  24.504  1.00  0.00     0.012 A 
ATOM     75  C   UNL A   1      47.813  26.829  26.534  1.00  0.00     0.148 A 
ATOM     76  C   UNL A   1      48.027  27.398  23.793  1.00  0.00     0.002 A 
ATOM     77  C   UNL A   1      48.960  26.479  25.832  1.00  0.00     0.091 A 
ATOM     78  F   UNL A   1      47.667  26.553  27.838  1.00  0.00    -0.205 F 
ATOM     79  C   UNL A   1      49.063  26.747  24.458  1.00  0.00     0.022 A 
BRANCH  77  80
ATOM     80  S   UNL A   1      50.396  25.746  26.625  1.00  0.00     0.127 S 
ATOM     81  O   UNL A   1      51.302  25.563  25.493  1.00  0.00    -0.237 OA
ATOM     82  O   UNL A   1      50.787  26.797  27.565  1.00  0.00    -0.237 OA
ATOM     83  O   UNL A   1      49.921  24.520  27.252  1.00  0.00    -0.744 OA
ENDBRANCH  77  80
ENDBRANCH  49  73
BRANCH  61  84
ATOM     84  C   UNL A   1      45.138  33.303  29.415  1.00  0.00     0.023 A 
ATOM     85  C   UNL A   1      45.886  33.418  30.603  1.00  0.00     0.012 A 
ATOM     86  C   UNL A   1      45.166  34.355  28.477  1.00  0.00     0.148 A 
ATOM     87  C   UNL A   1      46.619  34.575  30.871  1.00  0.00     0.002 A 
ATOM     88  C   UNL A   1      45.941  35.482  28.725  1.00  0.00     0.091 A 
ATOM     89  F   UNL A   1      44.434  34.236  27.360  1.00  0.00    -0.205 F 
ATOM     90  C   UNL A   1      46.656  35.600  29.928  1.00  0.00     0.022 A 
BRANCH  88  91
ATOM     91  S   UNL A   1      46.130  36.807  27.527  1.00  0.00     0.127 S 
ATOM     92  O   UNL A   1      44.771  37.342  27.457  1.00  0.00    -0.237 OA
ATOM     93  O   UNL A   1      47.098  37.684  28.188  1.00  0.00    -0.237 OA
ATOM     94  O   UNL A   1      46.617  36.180  26.305  1.00  0.00    -0.744 OA
ENDBRANCH  88  91
ENDBRANCH  61  84
ENDBRANCH  35  36
ENDBRANCH  28  30
ENDBRANCH  27  28
ENDBRANCH  26  27
ENDBRANCH  25  26
ENDBRANCH  24  25
ENDBRANCH  23  24
ENDBRANCH   1  23
TORSDOF 23
ENDMDL
MODEL 2
REMARK VINA RESULT:      -9.2      2.085      2.395
REMARK SMILES CCCC[NH2+][C@H]1CS(=O)(=O)C[C@@H]1[NH2+]CC(=O)OCCOCCOC(=O)c1ccc(-c2c3nc(c(-c4cccc(S(=O)(=O)[O-])c4F)c4ccc([nH]4)c(-c4cccc(S(=O)(=O)[O-])c4F)c4nc(c(-c5cccc(S(=O)(=O)[O-])c5F)c5ccc2[nH]5)C=C4)C=C3)cc1
REMARK SMILES IDX 18 1 17 2 15 3 16 4 14 5 13 6 12 9 6 10 7 11 8 12 11 13 9 14
REMARK SMILES IDX 10 15 5 16 4 19 3 20 2 21 1 22 19 23 20 24 21 25 22 26 23 27
REMARK SMILES IDX 24 28 25 29 26 30 27 31 88 32 28 33 87 34 29 35 30 36 31 37
REMARK SMILES IDX 81 38 32 39 86 40 80 41 82 42 33 43 85 44 79 45 78 46 34 48
REMARK SMILES IDX 66 49 46 50 65 51 47 52 50 53 64 54 83 55 48 56 49 57 63 59
REMARK SMILES IDX 84 60 51 61 35 62 36 63 44 64 37 65 39 66 45 67 38 68 40 69
REMARK SMILES IDX 41 70 42 71 43 72 67 73 68 74 76 75 69 76 71 77 77 78 70 79
REMARK SMILES IDX 72 80 73 81 74 82 75 83 52 84 53 85 61 86 54 87 56 88 62 89
REMARK SMILES IDX 55 90 57 91 58 92 59 93 60 94
REMARK H PARENT 13 7 13 8 5 17 5 18 82 47 50 58
REMARK Flexibility Score: inf
ROOT
ATOM      1  C   UNL A   1      33.443  23.142  23.681  1.00  0.00     0.261 C 
ENDROOT
BRANCH   1   2
ATOM      2  O   UNL A   1      32.754  23.515  22.474  1.00  0.00    -0.459 OA
BRANCH   2   3
ATOM      3  C   UNL A   1      32.884  24.823  22.139  1.00  0.00     0.361 C 
ATOM      4  O   UNL A   1      33.960  25.403  21.994  1.00  0.00    -0.245 OA
BRANCH   3   5
ATOM      5  C   UNL A   1      31.578  25.576  21.919  1.00  0.00     0.385 C 
BRANCH   5   6
ATOM      6  N   UNL A   1      31.649  27.043  21.690  1.00  0.00    -0.329 N 
ATOM      7  H   UNL A   1      32.430  27.238  21.064  1.00  0.00     0.347 HD
ATOM      8  H   UNL A   1      30.758  27.333  21.286  1.00  0.00     0.347 HD
BRANCH   6   9
ATOM      9  C   UNL A   1      31.843  27.815  22.948  1.00  0.00     0.258 C 
ATOM     10  C   UNL A   1      30.864  27.373  24.110  1.00  0.00     0.257 C 
ATOM     11  C   UNL A   1      29.486  27.972  23.768  1.00  0.00     0.208 C 
ATOM     12  S   UNL A   1      29.818  29.476  22.864  1.00  0.00     0.162 S 
ATOM     13  C   UNL A   1      31.590  29.324  22.844  1.00  0.00     0.208 C 
ATOM     14  O   UNL A   1      29.324  29.304  21.513  1.00  0.00    -0.228 OA
ATOM     15  O   UNL A   1      29.453  30.628  23.667  1.00  0.00    -0.228 OA
BRANCH  10  16
ATOM     16  N   UNL A   1      31.399  27.676  25.455  1.00  0.00    -0.338 N 
ATOM     17  H   UNL A   1      31.622  28.671  25.466  1.00  0.00     0.346 HD
ATOM     18  H   UNL A   1      30.660  27.354  26.079  1.00  0.00     0.346 HD
BRANCH  16  19
ATOM     19  C   UNL A   1      32.579  26.975  25.947  1.00  0.00     0.260 C 
BRANCH  19  20
ATOM     20  C   UNL A   1      33.827  27.867  26.039  1.00  0.00     0.061 C 
BRANCH  20  21
ATOM     21  C   UNL A   1      33.911  28.774  27.272  1.00  0.00     0.002 C 
ATOM     22  C   UNL A   1      33.174  30.096  27.124  1.00  0.00     0.004 C 
ENDBRANCH  20  21
ENDBRANCH  19  20
ENDBRANCH  16  19
ENDBRANCH  10  16
ENDBRANCH   6   9
ENDBRANCH   5   6
ENDBRANCH   3   5
ENDBRANCH   2   3
ENDBRANCH   1   2
BRANCH   1  23
ATOM     23  C   UNL A   1      33.513  21.627  23.894  1.00  0.00     0.202 C 
BRANCH  23  24
ATOM     24  O   UNL A   1      34.226  21.134  25.024  1.00  0.00    -0.374 OA
BRANCH  24  25
ATOM     25  C   UNL A   1      35.415  21.817  25.415  1.00  0.00     0.202 C 
BRANCH  25  26
ATOM     26  C   UNL A   1      36.768  21.132  25.157  1.00  0.00     0.261 C 
BRANCH  26  27
ATOM     27  O   UNL A   1      37.891  22.032  25.181  1.00  0.00    -0.460 OA
BRANCH  27  28
ATOM     28  C   UNL A   1      38.873  21.686  26.054  1.00  0.00     0.338 C 
ATOM     29  O   UNL A   1      39.316  20.566  26.254  1.00  0.00    -0.246 OA
BRANCH  28  30
ATOM     30  C   UNL A   1      39.511  22.890  26.620  1.00  0.00     0.060 A 
ATOM     31  C   UNL A   1      39.084  24.138  26.146  1.00  0.00     0.016 A 
ATOM     32  C   UNL A   1      40.579  22.797  27.512  1.00  0.00     0.016 A 
ATOM     33  C   UNL A   1      39.752  25.299  26.528  1.00  0.00     0.010 A 
ATOM     34  C   UNL A   1      41.255  23.964  27.887  1.00  0.00     0.010 A 
ATOM     35  C   UNL A   1      40.870  25.214  27.368  1.00  0.00    -0.014 A 
BRANCH  35  36
ATOM     36  C   UNL A   1      41.713  26.414  27.587  1.00  0.00     0.031 A 
ATOM     37  C   UNL A   1      41.166  27.557  28.398  1.00  0.00     0.074 A 
ATOM     38  C   UNL A   1      42.957  26.482  27.080  1.00  0.00     0.049 A 
ATOM     39  N   UNL A   1      41.721  28.704  28.696  1.00  0.00    -0.248 NA
ATOM     40  C   UNL A   1      39.811  27.385  28.944  1.00  0.00     0.031 C 
ATOM     41  C   UNL A   1      43.608  25.432  26.299  1.00  0.00     0.029 A 
ATOM     42  N   UNL A   1      43.887  27.489  27.135  1.00  0.00    -0.354 N 
ATOM     43  C   UNL A   1      40.772  29.405  29.432  1.00  0.00     0.074 A 
ATOM     44  C   UNL A   1      39.601  28.559  29.521  1.00  0.00     0.031 C 
ATOM     45  C   UNL A   1      44.831  25.855  25.937  1.00  0.00     0.029 A 
ATOM     46  C   UNL A   1      45.035  27.215  26.430  1.00  0.00     0.049 A 
ATOM     47  H   UNL A   1      43.747  28.327  27.631  1.00  0.00     0.167 HD
ATOM     48  C   UNL A   1      40.868  30.633  29.994  1.00  0.00     0.034 A 
ATOM     49  C   UNL A   1      46.118  27.981  26.197  1.00  0.00     0.034 A 
ATOM     50  C   UNL A   1      42.038  31.467  29.910  1.00  0.00     0.049 A 
ATOM     51  C   UNL A   1      46.182  29.367  26.786  1.00  0.00     0.074 A 
ATOM     52  C   UNL A   1      42.255  32.707  30.483  1.00  0.00     0.029 A 
ATOM     53  N   UNL A   1      43.182  31.154  29.192  1.00  0.00    -0.354 N 
ATOM     54  N   UNL A   1      45.321  29.975  27.567  1.00  0.00    -0.248 NA
ATOM     55  C   UNL A   1      47.381  30.161  26.484  1.00  0.00     0.031 C 
ATOM     56  C   UNL A   1      43.512  33.165  30.074  1.00  0.00     0.029 A 
ATOM     57  C   UNL A   1      44.100  32.188  29.285  1.00  0.00     0.049 A 
ATOM     58  H   UNL A   1      43.323  30.321  28.689  1.00  0.00     0.167 HD
ATOM     59  C   UNL A   1      45.894  31.202  27.886  1.00  0.00     0.074 A 
ATOM     60  C   UNL A   1      47.180  31.245  27.222  1.00  0.00     0.031 C 
ATOM     61  C   UNL A   1      45.397  32.203  28.656  1.00  0.00     0.034 A 
BRANCH  48  62
ATOM     62  C   UNL A   1      39.666  31.148  30.747  1.00  0.00     0.023 A 
ATOM     63  C   UNL A   1      38.576  31.701  30.044  1.00  0.00     0.012 A 
ATOM     64  C   UNL A   1      39.610  31.070  32.153  1.00  0.00     0.148 A 
ATOM     65  C   UNL A   1      37.475  32.216  30.728  1.00  0.00     0.002 A 
ATOM     66  C   UNL A   1      38.486  31.539  32.824  1.00  0.00     0.091 A 
ATOM     67  F   UNL A   1      40.662  30.560  32.809  1.00  0.00    -0.205 F 
ATOM     68  C   UNL A   1      37.427  32.128  32.116  1.00  0.00     0.022 A 
BRANCH  66  69
ATOM     69  S   UNL A   1      38.298  31.395  34.605  1.00  0.00     0.127 S 
ATOM     70  O   UNL A   1      38.344  29.946  34.791  1.00  0.00    -0.237 OA
ATOM     71  O   UNL A   1      39.475  32.112  35.098  1.00  0.00    -0.237 OA
ATOM     72  O   UNL A   1      37.026  32.029  34.925  1.00  0.00    -0.744 OA
ENDBRANCH  66  69
ENDBRANCH  48  62
BRANCH  49  73
ATOM     73  C   UNL A   1      47.259  27.437  25.407  1.00  0.00     0.023 A 
ATOM     74  C   UNL A   1      48.129  26.506  26.005  1.00  0.00     0.012 A 
ATOM     75  C   UNL A   1      47.471  27.816  24.067  1.00  0.00     0.148 A 
ATOM     76  C   UNL A   1      49.208  25.981  25.293  1.00  0.00     0.002 A 
ATOM     77  C   UNL A   1      48.516  27.249  23.346  1.00  0.00     0.091 A 
ATOM     78  F   UNL A   1      46.637  28.712  23.521  1.00  0.00    -0.205 F 
ATOM     79  C   UNL A   1      49.395  26.344  23.962  1.00  0.00     0.022 A 
BRANCH  77  80
ATOM     80  S   UNL A   1      48.767  27.562  21.596  1.00  0.00     0.127 S 
ATOM     81  O   UNL A   1      49.531  28.808  21.621  1.00  0.00    -0.237 OA
ATOM     82  O   UNL A   1      49.528  26.381  21.187  1.00  0.00    -0.237 OA
ATOM     83  O   UNL A   1      47.436  27.655  21.014  1.00  0.00    -0.744 OA
ENDBRANCH  77  80
ENDBRANCH  49  73
BRANCH  61  84
ATOM     84  C   UNL A   1      46.263  33.420  28.868  1.00  0.00     0.023 A 
ATOM     85  C   UNL A   1      47.062  33.530  30.024  1.00  0.00     0.012 A 
ATOM     86  C   UNL A   1      46.336  34.426  27.882  1.00  0.00     0.148 A 
ATOM     87  C   UNL A   1      47.890  34.637  30.213  1.00  0.00     0.002 A 
ATOM     88  C   UNL A   1      47.202  35.499  28.051  1.00  0.00     0.091 A 
ATOM     89  F   UNL A   1      45.556  34.314  26.797  1.00  0.00    -0.205 F 
ATOM     90  C   UNL A   1      47.969  35.614  29.222  1.00  0.00     0.022 A 
BRANCH  88  91
ATOM     91  S   UNL A   1      47.446  36.751  26.787  1.00  0.00     0.127 S 
ATOM     92  O   UNL A   1      48.247  37.744  27.502  1.00  0.00    -0.237 OA
ATOM     93  O   UNL A   1      48.173  36.010  25.754  1.00  0.00    -0.237 OA
ATOM     94  O   UNL A   1      46.115  37.192  26.392  1.00  0.00    -0.744 OA
ENDBRANCH  88  91
ENDBRANCH  61  84
ENDBRANCH  35  36
ENDBRANCH  28  30
ENDBRANCH  27  28
ENDBRANCH  26  27
ENDBRANCH  25  26
ENDBRANCH  24  25
ENDBRANCH  23  24
ENDBRANCH   1  23
TORSDOF 23
ENDMDL
MODEL 3
REMARK VINA RESULT:      -9.0      2.105      2.606
REMARK SMILES CCCC[NH2+][C@H]1CS(=O)(=O)C[C@@H]1[NH2+]CC(=O)OCCOCCOC(=O)c1ccc(-c2c3nc(c(-c4cccc(S(=O)(=O)[O-])c4F)c4ccc([nH]4)c(-c4cccc(S(=O)(=O)[O-])c4F)c4nc(c(-c5cccc(S(=O)(=O)[O-])c5F)c5ccc2[nH]5)C=C4)C=C3)cc1
REMARK SMILES IDX 18 1 17 2 15 3 16 4 14 5 13 6 12 9 6 10 7 11 8 12 11 13 9 14
REMARK SMILES IDX 10 15 5 16 4 19 3 20 2 21 1 22 19 23 20 24 21 25 22 26 23 27
REMARK SMILES IDX 24 28 25 29 26 30 27 31 88 32 28 33 87 34 29 35 30 36 31 37
REMARK SMILES IDX 81 38 32 39 86 40 80 41 82 42 33 43 85 44 79 45 78 46 34 48
REMARK SMILES IDX 66 49 46 50 65 51 47 52 50 53 64 54 83 55 48 56 49 57 63 59
REMARK SMILES IDX 84 60 51 61 35 62 36 63 44 64 37 65 39 66 45 67 38 68 40 69
REMARK SMILES IDX 41 70 42 71 43 72 67 73 68 74 76 75 69 76 71 77 77 78 70 79
REMARK SMILES IDX 72 80 73 81 74 82 75 83 52 84 53 85 61 86 54 87 56 88 62 89
REMARK SMILES IDX 55 90 57 91 58 92 59 93 60 94
REMARK H PARENT 13 7 13 8 5 17 5 18 82 47 50 58
REMARK Flexibility Score: inf
ROOT
ATOM      1  C   UNL A   1      33.560  22.940  24.216  1.00  0.00     0.261 C 
ENDROOT
BRANCH   1   2
ATOM      2  O   UNL A   1      32.538  23.293  23.265  1.00  0.00    -0.459 OA
BRANCH   2   3
ATOM      3  C   UNL A   1      33.006  23.887  22.139  1.00  0.00     0.361 C 
ATOM      4  O   UNL A   1      33.526  23.288  21.199  1.00  0.00    -0.245 OA
BRANCH   3   5
ATOM      5  C   UNL A   1      32.833  25.399  22.076  1.00  0.00     0.385 C 
BRANCH   5   6
ATOM      6  N   UNL A   1      33.739  26.240  22.900  1.00  0.00    -0.329 N 
ATOM      7  H   UNL A   1      34.641  25.767  22.978  1.00  0.00     0.347 HD
ATOM      8  H   UNL A   1      33.825  27.144  22.436  1.00  0.00     0.347 HD
BRANCH   6   9
ATOM      9  C   UNL A   1      33.212  26.488  24.270  1.00  0.00     0.258 C 
ATOM     10  C   UNL A   1      31.665  26.816  24.294  1.00  0.00     0.257 C 
ATOM     11  C   UNL A   1      31.523  28.270  23.804  1.00  0.00     0.208 C 
ATOM     12  S   UNL A   1      33.025  29.101  24.297  1.00  0.00     0.162 S 
ATOM     13  C   UNL A   1      33.826  27.682  25.010  1.00  0.00     0.208 C 
ATOM     14  O   UNL A   1      33.740  29.481  23.097  1.00  0.00    -0.228 OA
ATOM     15  O   UNL A   1      32.740  30.058  25.349  1.00  0.00    -0.228 OA
BRANCH  10  16
ATOM     16  N   UNL A   1      31.031  26.492  25.590  1.00  0.00    -0.338 N 
ATOM     17  H   UNL A   1      31.786  26.306  26.249  1.00  0.00     0.346 HD
ATOM     18  H   UNL A   1      30.439  27.303  25.771  1.00  0.00     0.346 HD
BRANCH  16  19
ATOM     19  C   UNL A   1      30.101  25.373  25.689  1.00  0.00     0.260 C 
BRANCH  19  20
ATOM     20  C   UNL A   1      30.409  24.423  26.855  1.00  0.00     0.061 C 
BRANCH  20  21
ATOM     21  C   UNL A   1      30.309  22.925  26.542  1.00  0.00     0.002 C 
ATOM     22  C   UNL A   1      29.128  22.229  27.202  1.00  0.00     0.004 C 
ENDBRANCH  20  21
ENDBRANCH  19  20
ENDBRANCH  16  19
ENDBRANCH  10  16
ENDBRANCH   6   9
ENDBRANCH   5   6
ENDBRANCH   3   5
ENDBRANCH   2   3
ENDBRANCH   1   2
BRANCH   1  23
ATOM     23  C   UNL A   1      33.419  21.513  24.755  1.00  0.00     0.202 C 
BRANCH  23  24
ATOM     24  O   UNL A   1      34.340  21.069  25.745  1.00  0.00    -0.374 OA
BRANCH  24  25
ATOM     25  C   UNL A   1      35.663  21.600  25.714  1.00  0.00     0.202 C 
BRANCH  25  26
ATOM     26  C   UNL A   1      36.799  20.699  25.202  1.00  0.00     0.261 C 
BRANCH  26  27
ATOM     27  O   UNL A   1      38.040  21.395  24.982  1.00  0.00    -0.460 OA
BRANCH  27  28
ATOM     28  C   UNL A   1      39.016  21.107  25.883  1.00  0.00     0.338 C 
ATOM     29  O   UNL A   1      39.553  20.025  26.064  1.00  0.00    -0.246 OA
BRANCH  28  30
ATOM     30  C   UNL A   1      39.517  22.342  26.516  1.00  0.00     0.060 A 
ATOM     31  C   UNL A   1      39.013  23.564  26.050  1.00  0.00     0.016 A 
ATOM     32  C   UNL A   1      40.539  22.312  27.465  1.00  0.00     0.016 A 
ATOM     33  C   UNL A   1      39.557  24.764  26.500  1.00  0.00     0.010 A 
ATOM     34  C   UNL A   1      41.091  23.519  27.908  1.00  0.00     0.010 A 
ATOM     35  C   UNL A   1      40.630  24.748  27.401  1.00  0.00    -0.014 A 
BRANCH  35  36
ATOM     36  C   UNL A   1      41.355  26.007  27.698  1.00  0.00     0.031 A 
ATOM     37  C   UNL A   1      40.657  27.089  28.476  1.00  0.00     0.074 A 
ATOM     38  C   UNL A   1      42.625  26.181  27.291  1.00  0.00     0.049 A 
ATOM     39  N   UNL A   1      41.093  28.270  28.829  1.00  0.00    -0.248 NA
ATOM     40  C   UNL A   1      39.281  26.801  28.911  1.00  0.00     0.031 C 
ATOM     41  C   UNL A   1      43.417  25.200  26.553  1.00  0.00     0.029 A 
ATOM     42  N   UNL A   1      43.464  27.258  27.430  1.00  0.00    -0.354 N 
ATOM     43  C   UNL A   1      40.036  28.881  29.496  1.00  0.00     0.074 A 
ATOM     44  C   UNL A   1      38.933  27.945  29.483  1.00  0.00     0.031 C 
ATOM     45  C   UNL A   1      44.627  25.724  26.293  1.00  0.00     0.029 A 
ATOM     46  C   UNL A   1      44.681  27.087  26.816  1.00  0.00     0.049 A 
ATOM     47  H   UNL A   1      43.219  28.074  27.923  1.00  0.00     0.167 HD
ATOM     48  C   UNL A   1      39.990  30.104  30.077  1.00  0.00     0.034 A 
ATOM     49  C   UNL A   1      45.715  27.941  26.677  1.00  0.00     0.034 A 
ATOM     50  C   UNL A   1      41.092  31.028  30.095  1.00  0.00     0.049 A 
ATOM     51  C   UNL A   1      45.622  29.316  27.284  1.00  0.00     0.074 A 
ATOM     52  C   UNL A   1      41.164  32.272  30.697  1.00  0.00     0.029 A 
ATOM     53  N   UNL A   1      42.311  30.820  29.466  1.00  0.00    -0.354 N 
ATOM     54  N   UNL A   1      44.657  29.841  28.001  1.00  0.00    -0.248 NA
ATOM     55  C   UNL A   1      46.773  30.208  27.087  1.00  0.00     0.031 C 
ATOM     56  C   UNL A   1      42.409  32.835  30.393  1.00  0.00     0.029 A 
ATOM     57  C   UNL A   1      43.132  31.921  29.642  1.00  0.00     0.049 A 
ATOM     58  H   UNL A   1      42.556  30.009  28.966  1.00  0.00     0.167 HD
ATOM     59  C   UNL A   1      45.103  31.104  28.378  1.00  0.00     0.074 A 
ATOM     60  C   UNL A   1      46.429  31.260  27.818  1.00  0.00     0.031 C 
ATOM     61  C   UNL A   1      44.469  32.049  29.117  1.00  0.00     0.034 A 
BRANCH  48  62
ATOM     62  C   UNL A   1      38.696  30.509  30.739  1.00  0.00     0.023 A 
ATOM     63  C   UNL A   1      38.465  30.186  32.092  1.00  0.00     0.012 A 
ATOM     64  C   UNL A   1      37.714  31.223  30.024  1.00  0.00     0.148 A 
ATOM     65  C   UNL A   1      37.258  30.520  32.707  1.00  0.00     0.002 A 
ATOM     66  C   UNL A   1      36.535  31.596  30.660  1.00  0.00     0.091 A 
ATOM     67  F   UNL A   1      37.939  31.505  28.733  1.00  0.00    -0.205 F 
ATOM     68  C   UNL A   1      36.298  31.230  31.994  1.00  0.00     0.022 A 
BRANCH  66  69
ATOM     69  S   UNL A   1      35.273  32.584  29.848  1.00  0.00     0.127 S 
ATOM     70  O   UNL A   1      34.915  31.732  28.715  1.00  0.00    -0.237 OA
ATOM     71  O   UNL A   1      34.245  32.683  30.885  1.00  0.00    -0.237 OA
ATOM     72  O   UNL A   1      35.912  33.847  29.507  1.00  0.00    -0.744 OA
ENDBRANCH  66  69
ENDBRANCH  48  62
BRANCH  49  73
ATOM     73  C   UNL A   1      46.954  27.502  25.973  1.00  0.00     0.023 A 
ATOM     74  C   UNL A   1      47.925  26.769  26.681  1.00  0.00     0.012 A 
ATOM     75  C   UNL A   1      47.163  27.784  24.609  1.00  0.00     0.148 A 
ATOM     76  C   UNL A   1      49.096  26.347  26.052  1.00  0.00     0.002 A 
ATOM     77  C   UNL A   1      48.307  27.315  23.975  1.00  0.00     0.091 A 
ATOM     78  F   UNL A   1      46.230  28.493  23.958  1.00  0.00    -0.205 F 
ATOM     79  C   UNL A   1      49.283  26.611  24.697  1.00  0.00     0.022 A 
BRANCH  77  80
ATOM     80  S   UNL A   1      48.581  27.501  22.209  1.00  0.00     0.127 S 
ATOM     81  O   UNL A   1      49.852  28.221  22.178  1.00  0.00    -0.237 OA
ATOM     82  O   UNL A   1      48.650  26.107  21.770  1.00  0.00    -0.237 OA
ATOM     83  O   UNL A   1      47.430  28.238  21.705  1.00  0.00    -0.744 OA
ENDBRANCH  77  80
ENDBRANCH  49  73
BRANCH  61  84
ATOM     84  C   UNL A   1      45.216  33.327  29.410  1.00  0.00     0.023 A 
ATOM     85  C   UNL A   1      45.166  34.402  28.500  1.00  0.00     0.012 A 
ATOM     86  C   UNL A   1      45.913  33.484  30.625  1.00  0.00     0.148 A 
ATOM     87  C   UNL A   1      45.827  35.599  28.778  1.00  0.00     0.002 A 
ATOM     88  C   UNL A   1      46.524  34.697  30.920  1.00  0.00     0.091 A 
ATOM     89  F   UNL A   1      45.965  32.446  31.471  1.00  0.00    -0.205 F 
ATOM     90  C   UNL A   1      46.496  35.751  29.991  1.00  0.00     0.022 A 
BRANCH  88  91
ATOM     91  S   UNL A   1      47.321  35.019  32.497  1.00  0.00     0.127 S 
ATOM     92  O   UNL A   1      46.207  35.528  33.296  1.00  0.00    -0.237 OA
ATOM     93  O   UNL A   1      47.789  33.687  32.884  1.00  0.00    -0.237 OA
ATOM     94  O   UNL A   1      48.383  35.978  32.225  1.00  0.00    -0.744 OA
ENDBRANCH  88  91
ENDBRANCH  61  84
ENDBRANCH  35  36
ENDBRANCH  28  30
ENDBRANCH  27  28
ENDBRANCH  26  27
ENDBRANCH  25  26
ENDBRANCH  24  25
ENDBRANCH  23  24
ENDBRANCH   1  23
TORSDOF 23
ENDMDL
