MODEL 1
REMARK VINA RESULT:     -12.9      0.000      0.000
REMARK SMILES Cc1ccc(-c2cc3cccnc3n2CCC(=O)OCCOCCOC(=O)c2ccc(-c3c4nc(c(-c5cccc(S(=O)(=O)[O-])c5F)c5ccc([nH]5)c(-c5cccc(S(=O)(=O)[O-])c5F)c5nc(c(-c6cccc(S(=O)(=O)[O-])c6F)c6ccc3[nH]6)C=C5)C=C4)cc2)cn1
REMARK SMILES IDX 22 1 21 2 20 3 19 4 17 5 18 6 16 7 15 8 14 9 6 10 7 11 8 12
REMARK SMILES IDX 13 13 9 14 12 15 10 16 11 17 5 18 1 19 2 20 3 21 92 22 4 23
REMARK SMILES IDX 91 24 23 25 24 26 25 27 26 28 27 29 28 30 29 31 90 32 30 33
REMARK SMILES IDX 89 34 31 35 32 36 33 37 83 38 34 39 88 40 82 41 84 42 35 43
REMARK SMILES IDX 87 44 81 45 80 46 36 48 68 49 48 50 67 51 49 52 52 53 66 54
REMARK SMILES IDX 85 55 50 56 51 57 65 59 86 60 53 61 37 62 38 63 46 64 39 65
REMARK SMILES IDX 41 66 47 67 40 68 42 69 43 70 44 71 45 72 69 73 70 74 78 75
REMARK SMILES IDX 71 76 73 77 79 78 72 79 74 80 75 81 76 82 77 83 54 84 55 85
REMARK SMILES IDX 63 86 56 87 58 88 64 89 57 90 59 91 60 92 61 93 62 94
REMARK H PARENT 84 47 52 58
REMARK Flexibility Score: inf
ROOT
ATOM      1  O   UNL A   1      36.273  23.567  24.133  1.00  0.00    -0.374 OA
ENDROOT
BRANCH   1   2
ATOM      2  C   UNL A   1      34.877  24.280  24.589  1.00  0.00     0.202 C 
BRANCH   2   3
ATOM      3  C   UNL A   1      33.856  26.000  23.721  1.00  0.00     0.261 C 
BRANCH   3   4
ATOM      4  O   UNL A   1      33.674  27.523  24.492  1.00  0.00    -0.463 OA
BRANCH   4   5
ATOM      5  C   UNL A   1      33.188  27.716  25.750  1.00  0.00     0.307 C 
ATOM      6  O   UNL A   1      33.921  27.768  26.734  1.00  0.00    -0.252 OA
BRANCH   5   7
ATOM      7  C   UNL A   1      31.649  27.944  25.872  1.00  0.00     0.144 C 
BRANCH   7   8
ATOM      8  C   UNL A   1      30.616  26.874  26.301  1.00  0.00     0.136 C 
BRANCH   8   9
ATOM      9  N   UNL A   1      30.598  25.686  25.486  1.00  0.00    -0.325 N 
ATOM     10  C   UNL A   1      30.059  25.625  24.228  1.00  0.00     0.052 A 
ATOM     11  C   UNL A   1      30.471  24.409  23.693  1.00  0.00     0.039 A 
ATOM     12  C   UNL A   1      31.148  23.679  24.691  1.00  0.00     0.020 A 
ATOM     13  C   UNL A   1      31.150  24.474  25.830  1.00  0.00     0.140 A 
ATOM     14  C   UNL A   1      31.772  22.425  24.747  1.00  0.00     0.013 A 
ATOM     15  N   UNL A   1      31.649  24.140  27.038  1.00  0.00    -0.238 NA
ATOM     16  C   UNL A   1      32.278  22.023  25.978  1.00  0.00     0.021 A 
ATOM     17  C   UNL A   1      32.164  22.884  27.062  1.00  0.00     0.113 A 
BRANCH  10  18
ATOM     18  C   UNL A   1      29.430  26.742  23.516  1.00  0.00     0.017 A 
ATOM     19  C   UNL A   1      28.079  30.800  20.969  1.00  0.00     0.066 C 
ATOM     20  C   UNL A   1      28.500  29.892  22.094  1.00  0.00     0.037 A 
ATOM     21  C   UNL A   1      27.268  29.015  23.032  1.00  0.00     0.024 A 
ATOM     22  N   UNL A   1      30.115  29.271  21.913  1.00  0.00    -0.261 NA
ATOM     23  C   UNL A   1      27.730  27.401  23.724  1.00  0.00     0.014 A 
ATOM     24  C   UNL A   1      30.564  27.735  22.583  1.00  0.00     0.121 A 
ENDBRANCH  10  18
ENDBRANCH   8   9
ENDBRANCH   7   8
ENDBRANCH   5   7
ENDBRANCH   4   5
ENDBRANCH   3   4
ENDBRANCH   2   3
ENDBRANCH   1   2
BRANCH   1  25
ATOM     25  C   UNL A   1      37.377  23.456  25.062  1.00  0.00     0.202 C 
BRANCH  25  26
ATOM     26  C   UNL A   1      37.706  22.080  25.619  1.00  0.00     0.261 C 
BRANCH  26  27
ATOM     27  O   UNL A   1      39.021  22.085  26.116  1.00  0.00    -0.460 OA
BRANCH  27  28
ATOM     28  C   UNL A   1      39.707  20.937  25.911  1.00  0.00     0.338 C 
ATOM     29  O   UNL A   1      39.280  19.877  25.492  1.00  0.00    -0.246 OA
BRANCH  28  30
ATOM     30  C   UNL A   1      41.093  21.208  26.345  1.00  0.00     0.060 A 
ATOM     31  C   UNL A   1      41.330  20.884  27.671  1.00  0.00     0.016 A 
ATOM     32  C   UNL A   1      41.783  22.233  25.674  1.00  0.00     0.016 A 
ATOM     33  C   UNL A   1      41.809  21.907  28.437  1.00  0.00     0.010 A 
ATOM     34  C   UNL A   1      42.239  23.262  26.433  1.00  0.00     0.010 A 
ATOM     35  C   UNL A   1      42.086  23.125  27.799  1.00  0.00    -0.014 A 
BRANCH  35  36
ATOM     36  C   UNL A   1      42.239  24.292  28.613  1.00  0.00     0.031 A 
ATOM     37  C   UNL A   1      41.165  25.244  28.314  1.00  0.00     0.074 A 
ATOM     38  C   UNL A   1      43.248  24.419  29.493  1.00  0.00     0.049 A 
ATOM     39  N   UNL A   1      41.241  26.217  27.471  1.00  0.00    -0.248 NA
ATOM     40  C   UNL A   1      39.796  24.902  28.729  1.00  0.00     0.031 C 
ATOM     41  C   UNL A   1      44.181  23.412  30.010  1.00  0.00     0.029 A 
ATOM     42  N   UNL A   1      43.597  25.524  30.190  1.00  0.00    -0.354 N 
ATOM     43  C   UNL A   1      39.987  26.797  27.504  1.00  0.00     0.074 A 
ATOM     44  C   UNL A   1      39.092  25.811  28.051  1.00  0.00     0.031 C 
ATOM     45  C   UNL A   1      44.802  23.906  31.110  1.00  0.00     0.029 A 
ATOM     46  C   UNL A   1      44.421  25.297  31.285  1.00  0.00     0.049 A 
ATOM     47  H   UNL A   1      43.290  26.425  29.940  1.00  0.00     0.167 HD
ATOM     48  C   UNL A   1      39.864  28.146  27.421  1.00  0.00     0.034 A 
ATOM     49  C   UNL A   1      44.669  26.197  32.274  1.00  0.00     0.034 A 
ATOM     50  C   UNL A   1      41.070  28.758  26.923  1.00  0.00     0.049 A 
ATOM     51  C   UNL A   1      44.361  27.535  31.696  1.00  0.00     0.074 A 
ATOM     52  C   UNL A   1      41.807  28.635  25.762  1.00  0.00     0.029 A 
ATOM     53  N   UNL A   1      41.920  29.288  27.866  1.00  0.00    -0.354 N 
ATOM     54  N   UNL A   1      45.035  28.061  30.710  1.00  0.00    -0.248 NA
ATOM     55  C   UNL A   1      43.014  28.056  31.886  1.00  0.00     0.031 C 
ATOM     56  C   UNL A   1      43.169  28.672  26.182  1.00  0.00     0.029 A 
ATOM     57  C   UNL A   1      43.197  28.893  27.561  1.00  0.00     0.049 A 
ATOM     58  H   UNL A   1      41.657  29.852  28.628  1.00  0.00     0.167 HD
ATOM     59  C   UNL A   1      44.063  28.625  29.892  1.00  0.00     0.074 A 
ATOM     60  C   UNL A   1      42.849  28.664  30.708  1.00  0.00     0.031 C 
ATOM     61  C   UNL A   1      44.245  28.713  28.543  1.00  0.00     0.034 A 
BRANCH  48  62
ATOM     62  C   UNL A   1      38.827  28.911  28.187  1.00  0.00     0.023 A 
ATOM     63  C   UNL A   1      38.020  29.810  27.470  1.00  0.00     0.012 A 
ATOM     64  C   UNL A   1      38.781  28.976  29.600  1.00  0.00     0.148 A 
ATOM     65  C   UNL A   1      37.202  30.731  28.132  1.00  0.00     0.002 A 
ATOM     66  C   UNL A   1      37.906  29.830  30.252  1.00  0.00     0.091 A 
ATOM     67  F   UNL A   1      39.685  28.316  30.332  1.00  0.00    -0.205 F 
ATOM     68  C   UNL A   1      37.130  30.728  29.521  1.00  0.00     0.022 A 
BRANCH  66  69
ATOM     69  S   UNL A   1      37.764  29.838  32.043  1.00  0.00     0.127 S 
ATOM     70  O   UNL A   1      36.638  30.745  32.242  1.00  0.00    -0.237 OA
ATOM     71  O   UNL A   1      37.486  28.429  32.324  1.00  0.00    -0.237 OA
ATOM     72  O   UNL A   1      39.055  30.299  32.536  1.00  0.00    -0.744 OA
ENDBRANCH  66  69
ENDBRANCH  48  62
BRANCH  49  73
ATOM     73  C   UNL A   1      44.764  26.001  33.748  1.00  0.00     0.023 A 
ATOM     74  C   UNL A   1      46.019  26.178  34.378  1.00  0.00     0.012 A 
ATOM     75  C   UNL A   1      43.618  25.967  34.573  1.00  0.00     0.148 A 
ATOM     76  C   UNL A   1      46.119  26.395  35.760  1.00  0.00     0.002 A 
ATOM     77  C   UNL A   1      43.724  26.174  35.947  1.00  0.00     0.091 A 
ATOM     78  F   UNL A   1      42.415  25.826  34.006  1.00  0.00    -0.205 F 
ATOM     79  C   UNL A   1      44.969  26.408  36.542  1.00  0.00     0.022 A 
BRANCH  77  80
ATOM     80  S   UNL A   1      42.281  26.216  37.022  1.00  0.00     0.127 S 
ATOM     81  O   UNL A   1      41.735  24.868  36.854  1.00  0.00    -0.237 OA
ATOM     82  O   UNL A   1      42.880  26.476  38.327  1.00  0.00    -0.237 OA
ATOM     83  O   UNL A   1      41.426  27.274  36.496  1.00  0.00    -0.744 OA
ENDBRANCH  77  80
ENDBRANCH  49  73
BRANCH  61  84
ATOM     84  C   UNL A   1      45.613  28.401  27.990  1.00  0.00     0.023 A 
ATOM     85  C   UNL A   1      46.693  29.308  28.064  1.00  0.00     0.012 A 
ATOM     86  C   UNL A   1      45.856  27.080  27.586  1.00  0.00     0.148 A 
ATOM     87  C   UNL A   1      47.992  28.895  27.747  1.00  0.00     0.002 A 
ATOM     88  C   UNL A   1      47.151  26.665  27.307  1.00  0.00     0.091 A 
ATOM     89  F   UNL A   1      44.813  26.239  27.536  1.00  0.00    -0.205 F 
ATOM     90  C   UNL A   1      48.223  27.568  27.384  1.00  0.00     0.022 A 
BRANCH  88  91
ATOM     91  S   UNL A   1      47.526  24.951  26.938  1.00  0.00     0.127 S 
ATOM     92  O   UNL A   1      46.649  24.241  27.867  1.00  0.00    -0.237 OA
ATOM     93  O   UNL A   1      47.141  24.846  25.530  1.00  0.00    -0.237 OA
ATOM     94  O   UNL A   1      48.953  24.783  27.184  1.00  0.00    -0.744 OA
ENDBRANCH  88  91
ENDBRANCH  61  84
ENDBRANCH  35  36
ENDBRANCH  28  30
ENDBRANCH  27  28
ENDBRANCH  26  27
ENDBRANCH  25  26
ENDBRANCH   1  25
TORSDOF 20
ENDMDL
MODEL 2
REMARK VINA RESULT:     -12.5      0.734      3.100
REMARK SMILES Cc1ccc(-c2cc3cccnc3n2CCC(=O)OCCOCCOC(=O)c2ccc(-c3c4nc(c(-c5cccc(S(=O)(=O)[O-])c5F)c5ccc([nH]5)c(-c5cccc(S(=O)(=O)[O-])c5F)c5nc(c(-c6cccc(S(=O)(=O)[O-])c6F)c6ccc3[nH]6)C=C5)C=C4)cc2)cn1
REMARK SMILES IDX 22 1 21 2 20 3 19 4 17 5 18 6 16 7 15 8 14 9 6 10 7 11 8 12
REMARK SMILES IDX 13 13 9 14 12 15 10 16 11 17 5 18 1 19 2 20 3 21 92 22 4 23
REMARK SMILES IDX 91 24 23 25 24 26 25 27 26 28 27 29 28 30 29 31 90 32 30 33
REMARK SMILES IDX 89 34 31 35 32 36 33 37 83 38 34 39 88 40 82 41 84 42 35 43
REMARK SMILES IDX 87 44 81 45 80 46 36 48 68 49 48 50 67 51 49 52 52 53 66 54
REMARK SMILES IDX 85 55 50 56 51 57 65 59 86 60 53 61 37 62 38 63 46 64 39 65
REMARK SMILES IDX 41 66 47 67 40 68 42 69 43 70 44 71 45 72 69 73 70 74 78 75
REMARK SMILES IDX 71 76 73 77 79 78 72 79 74 80 75 81 76 82 77 83 54 84 55 85
REMARK SMILES IDX 63 86 56 87 58 88 64 89 57 90 59 91 60 92 61 93 62 94
REMARK H PARENT 84 47 52 58
REMARK Flexibility Score: inf
ROOT
ATOM      1  O   UNL A   1      36.283  23.332  24.731  1.00  0.00    -0.374 OA
ENDROOT
BRANCH   1   2
ATOM      2  C   UNL A   1      35.388  24.444  25.525  1.00  0.00     0.202 C 
BRANCH   2   3
ATOM      3  C   UNL A   1      34.019  25.941  24.729  1.00  0.00     0.261 C 
BRANCH   3   4
ATOM      4  O   UNL A   1      34.029  27.605  25.156  1.00  0.00    -0.463 OA
BRANCH   4   5
ATOM      5  C   UNL A   1      32.993  28.470  24.977  1.00  0.00     0.307 C 
ATOM      6  O   UNL A   1      32.447  29.043  25.917  1.00  0.00    -0.252 OA
BRANCH   5   7
ATOM      7  C   UNL A   1      32.576  28.758  23.501  1.00  0.00     0.144 C 
BRANCH   7   8
ATOM      8  C   UNL A   1      31.722  27.822  22.612  1.00  0.00     0.136 C 
BRANCH   8   9
ATOM      9  N   UNL A   1      30.299  27.931  22.807  1.00  0.00    -0.325 N 
ATOM     10  C   UNL A   1      29.546  27.017  23.499  1.00  0.00     0.052 A 
ATOM     11  C   UNL A   1      28.300  27.608  23.682  1.00  0.00     0.039 A 
ATOM     12  C   UNL A   1      28.267  28.828  22.975  1.00  0.00     0.020 A 
ATOM     13  C   UNL A   1      29.511  28.972  22.374  1.00  0.00     0.140 A 
ATOM     14  C   UNL A   1      27.312  29.836  22.788  1.00  0.00     0.013 A 
ATOM     15  N   UNL A   1      29.894  29.974  21.559  1.00  0.00    -0.238 NA
ATOM     16  C   UNL A   1      27.649  30.879  21.933  1.00  0.00     0.021 A 
ATOM     17  C   UNL A   1      28.905  30.879  21.341  1.00  0.00     0.113 A 
BRANCH  10  18
ATOM     18  C   UNL A   1      30.060  25.806  24.146  1.00  0.00     0.017 A 
ATOM     19  C   UNL A   1      31.988  22.202  26.986  1.00  0.00     0.066 C 
ATOM     20  C   UNL A   1      31.868  23.351  26.022  1.00  0.00     0.037 A 
ATOM     21  C   UNL A   1      31.594  23.032  24.292  1.00  0.00     0.024 A 
ATOM     22  N   UNL A   1      31.322  24.825  26.769  1.00  0.00    -0.261 NA
ATOM     23  C   UNL A   1      30.648  24.261  23.349  1.00  0.00     0.014 A 
ATOM     24  C   UNL A   1      30.427  26.008  25.868  1.00  0.00     0.121 A 
ENDBRANCH  10  18
ENDBRANCH   8   9
ENDBRANCH   7   8
ENDBRANCH   5   7
ENDBRANCH   4   5
ENDBRANCH   3   4
ENDBRANCH   2   3
ENDBRANCH   1   2
BRANCH   1  25
ATOM     25  C   UNL A   1      37.681  23.149  25.057  1.00  0.00     0.202 C 
BRANCH  25  26
ATOM     26  C   UNL A   1      38.082  21.882  25.795  1.00  0.00     0.261 C 
BRANCH  26  27
ATOM     27  O   UNL A   1      39.380  22.039  26.311  1.00  0.00    -0.460 OA
BRANCH  27  28
ATOM     28  C   UNL A   1      40.184  20.961  26.156  1.00  0.00     0.338 C 
ATOM     29  O   UNL A   1      39.865  19.832  25.832  1.00  0.00    -0.246 OA
BRANCH  28  30
ATOM     30  C   UNL A   1      41.545  21.414  26.508  1.00  0.00     0.060 A 
ATOM     31  C   UNL A   1      41.897  21.142  27.820  1.00  0.00     0.016 A 
ATOM     32  C   UNL A   1      42.057  22.512  25.792  1.00  0.00     0.016 A 
ATOM     33  C   UNL A   1      42.281  22.228  28.551  1.00  0.00     0.010 A 
ATOM     34  C   UNL A   1      42.418  23.601  26.518  1.00  0.00     0.010 A 
ATOM     35  C   UNL A   1      42.360  23.463  27.892  1.00  0.00    -0.014 A 
BRANCH  35  36
ATOM     36  C   UNL A   1      42.407  24.650  28.689  1.00  0.00     0.031 A 
ATOM     37  C   UNL A   1      41.250  25.496  28.379  1.00  0.00     0.074 A 
ATOM     38  C   UNL A   1      43.401  24.882  29.565  1.00  0.00     0.049 A 
ATOM     39  N   UNL A   1      41.235  26.460  27.523  1.00  0.00    -0.248 NA
ATOM     40  C   UNL A   1      39.918  25.035  28.801  1.00  0.00     0.031 C 
ATOM     41  C   UNL A   1      44.423  23.973  30.094  1.00  0.00     0.029 A 
ATOM     42  N   UNL A   1      43.647  26.024  30.246  1.00  0.00    -0.354 N 
ATOM     43  C   UNL A   1      39.933  26.922  27.550  1.00  0.00     0.074 A 
ATOM     44  C   UNL A   1      39.133  25.865  28.113  1.00  0.00     0.031 C 
ATOM     45  C   UNL A   1      44.997  24.536  31.186  1.00  0.00     0.029 A 
ATOM     46  C   UNL A   1      44.489  25.890  31.342  1.00  0.00     0.049 A 
ATOM     47  H   UNL A   1      43.258  26.889  29.984  1.00  0.00     0.167 HD
ATOM     48  C   UNL A   1      39.686  28.252  27.448  1.00  0.00     0.034 A 
ATOM     49  C   UNL A   1      44.654  26.822  32.318  1.00  0.00     0.034 A 
ATOM     50  C   UNL A   1      40.831  28.966  26.939  1.00  0.00     0.049 A 
ATOM     51  C   UNL A   1      44.224  28.118  31.722  1.00  0.00     0.074 A 
ATOM     52  C   UNL A   1      41.575  28.895  25.778  1.00  0.00     0.029 A 
ATOM     53  N   UNL A   1      41.629  29.585  27.873  1.00  0.00    -0.354 N 
ATOM     54  N   UNL A   1      44.846  28.689  30.727  1.00  0.00    -0.248 NA
ATOM     55  C   UNL A   1      42.835  28.515  31.908  1.00  0.00     0.031 C 
ATOM     56  C   UNL A   1      42.928  29.063  26.195  1.00  0.00     0.029 A 
ATOM     57  C   UNL A   1      42.937  29.305  27.571  1.00  0.00     0.049 A 
ATOM     58  H   UNL A   1      41.316  30.133  28.628  1.00  0.00     0.167 HD
ATOM     59  C   UNL A   1      43.826  29.150  29.904  1.00  0.00     0.074 A 
ATOM     60  C   UNL A   1      42.614  29.089  30.722  1.00  0.00     0.031 C 
ATOM     61  C   UNL A   1      43.998  29.236  28.553  1.00  0.00     0.034 A 
BRANCH  48  62
ATOM     62  C   UNL A   1      38.585  28.930  28.206  1.00  0.00     0.023 A 
ATOM     63  C   UNL A   1      37.660  29.691  27.470  1.00  0.00     0.012 A 
ATOM     64  C   UNL A   1      38.563  29.061  29.615  1.00  0.00     0.148 A 
ATOM     65  C   UNL A   1      36.754  30.543  28.109  1.00  0.00     0.002 A 
ATOM     66  C   UNL A   1      37.609  29.840  30.249  1.00  0.00     0.091 A 
ATOM     67  F   UNL A   1      39.555  28.550  30.352  1.00  0.00    -0.205 F 
ATOM     68  C   UNL A   1      36.715  30.603  29.499  1.00  0.00     0.022 A 
BRANCH  66  69
ATOM     69  S   UNL A   1      37.507  29.923  32.041  1.00  0.00     0.127 S 
ATOM     70  O   UNL A   1      36.342  30.782  32.227  1.00  0.00    -0.237 OA
ATOM     71  O   UNL A   1      37.307  28.517  32.392  1.00  0.00    -0.237 OA
ATOM     72  O   UNL A   1      38.784  30.470  32.481  1.00  0.00    -0.744 OA
ENDBRANCH  66  69
ENDBRANCH  48  62
BRANCH  49  73
ATOM     73  C   UNL A   1      44.768  26.656  33.795  1.00  0.00     0.023 A 
ATOM     74  C   UNL A   1      45.941  27.113  34.442  1.00  0.00     0.012 A 
ATOM     75  C   UNL A   1      43.647  26.368  34.603  1.00  0.00     0.148 A 
ATOM     76  C   UNL A   1      45.968  27.350  35.823  1.00  0.00     0.002 A 
ATOM     77  C   UNL A   1      43.682  26.596  35.977  1.00  0.00     0.091 A 
ATOM     78  F   UNL A   1      42.514  25.959  34.019  1.00  0.00    -0.205 F 
ATOM     79  C   UNL A   1      44.833  27.107  36.588  1.00  0.00     0.022 A 
BRANCH  77  80
ATOM     80  S   UNL A   1      42.249  26.316  37.031  1.00  0.00     0.127 S 
ATOM     81  O   UNL A   1      42.844  26.342  38.368  1.00  0.00    -0.237 OA
ATOM     82  O   UNL A   1      41.407  27.464  36.712  1.00  0.00    -0.237 OA
ATOM     83  O   UNL A   1      41.720  25.015  36.641  1.00  0.00    -0.744 OA
ENDBRANCH  77  80
ENDBRANCH  49  73
BRANCH  61  84
ATOM     84  C   UNL A   1      45.388  29.043  28.002  1.00  0.00     0.023 A 
ATOM     85  C   UNL A   1      46.376  30.052  28.048  1.00  0.00     0.012 A 
ATOM     86  C   UNL A   1      45.756  27.742  27.630  1.00  0.00     0.148 A 
ATOM     87  C   UNL A   1      47.708  29.757  27.735  1.00  0.00     0.002 A 
ATOM     88  C   UNL A   1      47.085  27.447  27.355  1.00  0.00     0.091 A 
ATOM     89  F   UNL A   1      44.800  26.803  27.606  1.00  0.00    -0.205 F 
ATOM     90  C   UNL A   1      48.065  28.450  27.405  1.00  0.00     0.022 A 
BRANCH  88  91
ATOM     91  S   UNL A   1      47.623  25.768  27.028  1.00  0.00     0.127 S 
ATOM     92  O   UNL A   1      46.942  25.470  25.768  1.00  0.00    -0.237 OA
ATOM     93  O   UNL A   1      49.073  25.924  26.918  1.00  0.00    -0.237 OA
ATOM     94  O   UNL A   1      47.188  24.970  28.168  1.00  0.00    -0.744 OA
ENDBRANCH  88  91
ENDBRANCH  61  84
ENDBRANCH  35  36
ENDBRANCH  28  30
ENDBRANCH  27  28
ENDBRANCH  26  27
ENDBRANCH  25  26
ENDBRANCH   1  25
TORSDOF 20
ENDMDL
MODEL 3
REMARK VINA RESULT:     -12.4      3.202      8.630
REMARK SMILES Cc1ccc(-c2cc3cccnc3n2CCC(=O)OCCOCCOC(=O)c2ccc(-c3c4nc(c(-c5cccc(S(=O)(=O)[O-])c5F)c5ccc([nH]5)c(-c5cccc(S(=O)(=O)[O-])c5F)c5nc(c(-c6cccc(S(=O)(=O)[O-])c6F)c6ccc3[nH]6)C=C5)C=C4)cc2)cn1
REMARK SMILES IDX 22 1 21 2 20 3 19 4 17 5 18 6 16 7 15 8 14 9 6 10 7 11 8 12
REMARK SMILES IDX 13 13 9 14 12 15 10 16 11 17 5 18 1 19 2 20 3 21 92 22 4 23
REMARK SMILES IDX 91 24 23 25 24 26 25 27 26 28 27 29 28 30 29 31 90 32 30 33
REMARK SMILES IDX 89 34 31 35 32 36 33 37 83 38 34 39 88 40 82 41 84 42 35 43
REMARK SMILES IDX 87 44 81 45 80 46 36 48 68 49 48 50 67 51 49 52 52 53 66 54
REMARK SMILES IDX 85 55 50 56 51 57 65 59 86 60 53 61 37 62 38 63 46 64 39 65
REMARK SMILES IDX 41 66 47 67 40 68 42 69 43 70 44 71 45 72 69 73 70 74 78 75
REMARK SMILES IDX 71 76 73 77 79 78 72 79 74 80 75 81 76 82 77 83 54 84 55 85
REMARK SMILES IDX 63 86 56 87 58 88 64 89 57 90 59 91 60 92 61 93 62 94
REMARK H PARENT 84 47 52 58
REMARK Flexibility Score: inf
ROOT
ATOM      1  O   UNL A   1      34.622  28.654  26.833  1.00  0.00    -0.374 OA
ENDROOT
BRANCH   1   2
ATOM      2  C   UNL A   1      33.017  28.881  26.642  1.00  0.00     0.202 C 
BRANCH   2   3
ATOM      3  C   UNL A   1      31.385  27.450  26.842  1.00  0.00     0.261 C 
BRANCH   3   4
ATOM      4  O   UNL A   1      31.569  25.743  26.818  1.00  0.00    -0.463 OA
BRANCH   4   5
ATOM      5  C   UNL A   1      30.621  24.854  26.412  1.00  0.00     0.307 C 
ATOM      6  O   UNL A   1      29.482  24.855  26.872  1.00  0.00    -0.252 OA
BRANCH   5   7
ATOM      7  C   UNL A   1      31.033  23.872  25.271  1.00  0.00     0.144 C 
BRANCH   7   8
ATOM      8  C   UNL A   1      31.286  24.268  23.796  1.00  0.00     0.136 C 
BRANCH   8   9
ATOM      9  N   UNL A   1      31.915  25.551  23.610  1.00  0.00    -0.325 N 
ATOM     10  C   UNL A   1      33.268  25.759  23.678  1.00  0.00     0.052 A 
ATOM     11  C   UNL A   1      33.482  27.044  23.191  1.00  0.00     0.039 A 
ATOM     12  C   UNL A   1      32.233  27.657  22.958  1.00  0.00     0.020 A 
ATOM     13  C   UNL A   1      31.264  26.722  23.299  1.00  0.00     0.140 A 
ATOM     14  C   UNL A   1      31.819  28.908  22.481  1.00  0.00     0.013 A 
ATOM     15  N   UNL A   1      29.929  26.909  23.278  1.00  0.00    -0.238 NA
ATOM     16  C   UNL A   1      30.452  29.161  22.466  1.00  0.00     0.021 A 
ATOM     17  C   UNL A   1      29.583  28.164  22.892  1.00  0.00     0.113 A 
BRANCH  10  18
ATOM     18  C   UNL A   1      34.277  24.728  23.940  1.00  0.00     0.017 A 
ATOM     19  C   UNL A   1      37.882  21.677  25.511  1.00  0.00     0.066 C 
ATOM     20  C   UNL A   1      37.170  22.831  24.856  1.00  0.00     0.037 A 
ATOM     21  C   UNL A   1      36.572  22.669  23.187  1.00  0.00     0.024 A 
ATOM     22  N   UNL A   1      36.411  23.908  25.991  1.00  0.00    -0.261 NA
ATOM     23  C   UNL A   1      35.084  23.605  22.733  1.00  0.00     0.014 A 
ATOM     24  C   UNL A   1      34.995  24.814  25.557  1.00  0.00     0.121 A 
ENDBRANCH  10  18
ENDBRANCH   8   9
ENDBRANCH   7   8
ENDBRANCH   5   7
ENDBRANCH   4   5
ENDBRANCH   3   4
ENDBRANCH   2   3
ENDBRANCH   1   2
BRANCH   1  25
ATOM     25  C   UNL A   1      35.333  29.313  27.909  1.00  0.00     0.202 C 
BRANCH  25  26
ATOM     26  C   UNL A   1      36.661  29.976  27.585  1.00  0.00     0.261 C 
BRANCH  26  27
ATOM     27  O   UNL A   1      37.579  29.698  28.614  1.00  0.00    -0.460 OA
BRANCH  27  28
ATOM     28  C   UNL A   1      38.456  28.705  28.337  1.00  0.00     0.338 C 
ATOM     29  O   UNL A   1      38.289  27.506  28.464  1.00  0.00    -0.246 OA
BRANCH  28  30
ATOM     30  C   UNL A   1      39.694  29.370  27.884  1.00  0.00     0.060 A 
ATOM     31  C   UNL A   1      39.970  29.170  26.541  1.00  0.00     0.016 A 
ATOM     32  C   UNL A   1      40.699  29.574  28.848  1.00  0.00     0.016 A 
ATOM     33  C   UNL A   1      41.194  28.627  26.279  1.00  0.00     0.010 A 
ATOM     34  C   UNL A   1      41.909  29.013  28.597  1.00  0.00     0.010 A 
ATOM     35  C   UNL A   1      42.058  28.412  27.362  1.00  0.00    -0.014 A 
BRANCH  35  36
ATOM     36  C   UNL A   1      43.172  27.534  27.171  1.00  0.00     0.031 A 
ATOM     37  C   UNL A   1      42.702  26.146  27.131  1.00  0.00     0.074 A 
ATOM     38  C   UNL A   1      44.430  27.995  27.059  1.00  0.00     0.049 A 
ATOM     39  N   UNL A   1      42.656  25.342  28.138  1.00  0.00    -0.248 NA
ATOM     40  C   UNL A   1      41.915  25.711  25.966  1.00  0.00     0.031 C 
ATOM     41  C   UNL A   1      44.919  29.360  26.836  1.00  0.00     0.029 A 
ATOM     42  N   UNL A   1      45.572  27.271  27.045  1.00  0.00    -0.354 N 
ATOM     43  C   UNL A   1      42.111  24.181  27.624  1.00  0.00     0.074 A 
ATOM     44  C   UNL A   1      41.434  24.547  26.407  1.00  0.00     0.031 C 
ATOM     45  C   UNL A   1      46.221  29.309  26.459  1.00  0.00     0.029 A 
ATOM     46  C   UNL A   1      46.688  27.936  26.554  1.00  0.00     0.049 A 
ATOM     47  H   UNL A   1      45.611  26.340  27.360  1.00  0.00     0.167 HD
ATOM     48  C   UNL A   1      42.569  22.975  28.047  1.00  0.00     0.034 A 
ATOM     49  C   UNL A   1      47.855  27.340  26.193  1.00  0.00     0.034 A 
ATOM     50  C   UNL A   1      43.316  23.093  29.274  1.00  0.00     0.049 A 
ATOM     51  C   UNL A   1      47.882  26.030  26.901  1.00  0.00     0.074 A 
ATOM     52  C   UNL A   1      43.024  23.559  30.541  1.00  0.00     0.029 A 
ATOM     53  N   UNL A   1      44.685  23.130  29.153  1.00  0.00    -0.354 N 
ATOM     54  N   UNL A   1      47.941  25.920  28.200  1.00  0.00    -0.248 NA
ATOM     55  C   UNL A   1      47.348  24.873  26.196  1.00  0.00     0.031 C 
ATOM     56  C   UNL A   1      44.189  24.272  30.949  1.00  0.00     0.029 A 
ATOM     57  C   UNL A   1      45.158  24.140  29.951  1.00  0.00     0.049 A 
ATOM     58  H   UNL A   1      45.232  22.535  28.592  1.00  0.00     0.167 HD
ATOM     59  C   UNL A   1      47.048  24.899  28.500  1.00  0.00     0.074 A 
ATOM     60  C   UNL A   1      46.777  24.237  27.223  1.00  0.00     0.031 C 
ATOM     61  C   UNL A   1      46.370  24.883  29.684  1.00  0.00     0.034 A 
BRANCH  48  62
ATOM     62  C   UNL A   1      42.701  21.795  27.131  1.00  0.00     0.023 A 
ATOM     63  C   UNL A   1      41.909  20.667  27.404  1.00  0.00     0.012 A 
ATOM     64  C   UNL A   1      43.738  21.650  26.179  1.00  0.00     0.148 A 
ATOM     65  C   UNL A   1      42.139  19.449  26.757  1.00  0.00     0.002 A 
ATOM     66  C   UNL A   1      43.908  20.467  25.478  1.00  0.00     0.091 A 
ATOM     67  F   UNL A   1      44.664  22.605  26.044  1.00  0.00    -0.205 F 
ATOM     68  C   UNL A   1      43.125  19.354  25.780  1.00  0.00     0.022 A 
BRANCH  66  69
ATOM     69  S   UNL A   1      45.152  20.312  24.190  1.00  0.00     0.127 S 
ATOM     70  O   UNL A   1      46.339  20.824  24.868  1.00  0.00    -0.237 OA
ATOM     71  O   UNL A   1      45.147  18.869  23.947  1.00  0.00    -0.237 OA
ATOM     72  O   UNL A   1      44.659  21.105  23.072  1.00  0.00    -0.744 OA
ENDBRANCH  66  69
ENDBRANCH  48  62
BRANCH  49  73
ATOM     73  C   UNL A   1      48.744  27.599  25.024  1.00  0.00     0.023 A 
ATOM     74  C   UNL A   1      50.144  27.619  25.227  1.00  0.00     0.012 A 
ATOM     75  C   UNL A   1      48.278  27.503  23.695  1.00  0.00     0.148 A 
ATOM     76  C   UNL A   1      51.040  27.468  24.159  1.00  0.00     0.002 A 
ATOM     77  C   UNL A   1      49.172  27.361  22.635  1.00  0.00     0.091 A 
ATOM     78  F   UNL A   1      46.960  27.455  23.472  1.00  0.00    -0.205 F 
ATOM     79  C   UNL A   1      50.553  27.322  22.865  1.00  0.00     0.022 A 
BRANCH  77  80
ATOM     80  S   UNL A   1      48.617  27.157  20.935  1.00  0.00     0.127 S 
ATOM     81  O   UNL A   1      49.676  27.832  20.184  1.00  0.00    -0.237 OA
ATOM     82  O   UNL A   1      48.596  25.704  20.793  1.00  0.00    -0.237 OA
ATOM     83  O   UNL A   1      47.319  27.818  20.861  1.00  0.00    -0.744 OA
ENDBRANCH  77  80
ENDBRANCH  49  73
BRANCH  61  84
ATOM     84  C   UNL A   1      46.785  25.865  30.751  1.00  0.00     0.023 A 
ATOM     85  C   UNL A   1      47.922  25.674  31.566  1.00  0.00     0.012 A 
ATOM     86  C   UNL A   1      46.128  27.104  30.772  1.00  0.00     0.148 A 
ATOM     87  C   UNL A   1      48.396  26.710  32.379  1.00  0.00     0.002 A 
ATOM     88  C   UNL A   1      46.623  28.140  31.554  1.00  0.00     0.091 A 
ATOM     89  F   UNL A   1      45.058  27.260  29.980  1.00  0.00    -0.205 F 
ATOM     90  C   UNL A   1      47.756  27.949  32.360  1.00  0.00     0.022 A 
BRANCH  88  91
ATOM     91  S   UNL A   1      45.907  29.783  31.493  1.00  0.00     0.127 S 
ATOM     92  O   UNL A   1      46.735  30.512  32.452  1.00  0.00    -0.237 OA
ATOM     93  O   UNL A   1      46.115  30.159  30.094  1.00  0.00    -0.237 OA
ATOM     94  O   UNL A   1      44.508  29.633  31.873  1.00  0.00    -0.744 OA
ENDBRANCH  88  91
ENDBRANCH  61  84
ENDBRANCH  35  36
ENDBRANCH  28  30
ENDBRANCH  27  28
ENDBRANCH  26  27
ENDBRANCH  25  26
ENDBRANCH   1  25
TORSDOF 20
ENDMDL
