MODEL 1
REMARK VINA RESULT:     -10.3      0.000      0.000
REMARK SMILES COc1ccc(C(=O)OCCOCCOC(=O)c2ccc(-c3c4nc(c(-c5cccc(S(=O)(=O)[O-])c5F)c5ccc([nH]5)c(-c5cccc(S(=O)(=O)[O-])c5F)c5nc(c(-c6cccc(S(=O)(=O)[O-])c6F)c6ccc3[nH]6)C=C5)C=C4)cc2)cc1NC(=O)c1ccccc1[N+](=O)[O-]
REMARK SMILES IDX 12 1 11 2 10 3 9 4 7 5 8 6 6 7 3 8 4 9 82 10 5 11 81 12 2 13
REMARK SMILES IDX 1 14 83 15 84 16 85 18 86 19 87 20 91 21 88 22 90 23 89 24
REMARK SMILES IDX 92 25 93 26 94 27 13 28 14 29 15 30 16 31 17 32 18 33 19 34
REMARK SMILES IDX 80 35 20 36 79 37 21 38 22 39 23 40 73 41 24 42 78 43 72 44
REMARK SMILES IDX 74 45 25 46 77 47 71 48 70 49 26 51 58 52 38 53 57 54 39 55
REMARK SMILES IDX 42 56 56 57 75 58 40 59 41 60 55 62 76 63 43 64 27 65 28 66
REMARK SMILES IDX 36 67 29 68 31 69 37 70 30 71 32 72 33 73 34 74 35 75 59 76
REMARK SMILES IDX 60 77 68 78 61 79 63 80 69 81 62 82 64 83 65 84 66 85 67 86
REMARK SMILES IDX 44 87 45 88 53 89 46 90 48 91 54 92 47 93 49 94 50 95 51 96
REMARK SMILES IDX 52 97
REMARK H PARENT 83 17 74 50 42 61
REMARK Flexibility Score: inf
ROOT
ATOM      1  O   UNL A   1      37.330  21.264  25.631  1.00  0.00    -0.374 OA
ENDROOT
BRANCH   1   2
ATOM      2  C   UNL A   1      37.006  22.421  24.858  1.00  0.00     0.202 C 
BRANCH   2   3
ATOM      3  C   UNL A   1      35.608  23.010  25.069  1.00  0.00     0.261 C 
BRANCH   3   4
ATOM      4  O   UNL A   1      34.610  21.977  25.117  1.00  0.00    -0.460 OA
BRANCH   4   5
ATOM      5  C   UNL A   1      33.348  22.390  25.375  1.00  0.00     0.338 C 
ATOM      6  O   UNL A   1      32.714  22.196  26.406  1.00  0.00    -0.246 OA
BRANCH   5   7
ATOM      7  C   UNL A   1      32.816  23.203  24.248  1.00  0.00     0.062 A 
ATOM      8  C   UNL A   1      32.070  24.878  22.169  1.00  0.00     0.142 A 
ATOM      9  C   UNL A   1      33.087  23.947  21.966  1.00  0.00     0.049 A 
ATOM     10  C   UNL A   1      31.374  24.954  23.388  1.00  0.00     0.084 A 
ATOM     11  C   UNL A   1      33.490  23.140  23.024  1.00  0.00     0.019 A 
ATOM     12  C   UNL A   1      31.696  24.040  24.389  1.00  0.00     0.045 A 
BRANCH   8  13
ATOM     13  O   UNL A   1      31.770  25.735  21.137  1.00  0.00    -0.495 OA
ATOM     14  C   UNL A   1      32.645  25.497  20.028  1.00  0.00     0.278 C 
ENDBRANCH   8  13
BRANCH  10  15
ATOM     15  N   UNL A   1      30.448  26.006  23.521  1.00  0.00    -0.319 N 
ATOM     16  C   UNL A   1      30.454  27.235  24.132  1.00  0.00     0.262 C 
ATOM     17  H   UNL A   1      29.595  25.814  23.069  1.00  0.00     0.170 HD
ATOM     18  O   UNL A   1      29.453  27.947  24.045  1.00  0.00    -0.269 OA
BRANCH  16  19
ATOM     19  C   UNL A   1      31.576  27.718  24.949  1.00  0.00     0.117 A 
ATOM     20  C   UNL A   1      31.397  27.590  26.335  1.00  0.00     0.021 A 
ATOM     21  C   UNL A   1      32.778  28.244  24.463  1.00  0.00     0.282 A 
ATOM     22  C   UNL A   1      32.439  27.891  27.209  1.00  0.00     0.001 A 
ATOM     23  C   UNL A   1      33.841  28.509  25.342  1.00  0.00     0.086 A 
ATOM     24  C   UNL A   1      33.669  28.313  26.712  1.00  0.00     0.007 A 
BRANCH  21  25
ATOM     25  N   UNL A   1      32.999  28.454  23.038  1.00  0.00     0.063 N 
ATOM     26  O   UNL A   1      32.263  29.275  22.468  1.00  0.00    -0.258 OA
ATOM     27  O   UNL A   1      33.918  27.835  22.486  1.00  0.00    -0.258 OA
ENDBRANCH  21  25
ENDBRANCH  16  19
ENDBRANCH  10  15
ENDBRANCH   5   7
ENDBRANCH   4   5
ENDBRANCH   3   4
ENDBRANCH   2   3
ENDBRANCH   1   2
BRANCH   1  28
ATOM     28  C   UNL A   1      37.741  20.096  24.923  1.00  0.00     0.202 C 
BRANCH  28  29
ATOM     29  C   UNL A   1      38.953  19.334  25.471  1.00  0.00     0.261 C 
BRANCH  29  30
ATOM     30  O   UNL A   1      40.134  20.145  25.566  1.00  0.00    -0.460 OA
BRANCH  30  31
ATOM     31  C   UNL A   1      40.689  20.176  26.800  1.00  0.00     0.338 C 
ATOM     32  O   UNL A   1      41.117  19.224  27.441  1.00  0.00    -0.246 OA
BRANCH  31  33
ATOM     33  C   UNL A   1      40.861  21.567  27.252  1.00  0.00     0.060 A 
ATOM     34  C   UNL A   1      40.321  22.582  26.452  1.00  0.00     0.016 A 
ATOM     35  C   UNL A   1      41.621  21.882  28.381  1.00  0.00     0.016 A 
ATOM     36  C   UNL A   1      40.580  23.918  26.748  1.00  0.00     0.010 A 
ATOM     37  C   UNL A   1      41.886  23.224  28.671  1.00  0.00     0.010 A 
ATOM     38  C   UNL A   1      41.394  24.248  27.840  1.00  0.00    -0.014 A 
BRANCH  38  39
ATOM     39  C   UNL A   1      41.849  25.649  28.029  1.00  0.00     0.031 A 
ATOM     40  C   UNL A   1      43.235  26.033  27.587  1.00  0.00     0.074 A 
ATOM     41  C   UNL A   1      41.040  26.569  28.586  1.00  0.00     0.049 A 
ATOM     42  N   UNL A   1      43.847  27.183  27.695  1.00  0.00    -0.248 NA
ATOM     43  C   UNL A   1      44.035  24.983  26.935  1.00  0.00     0.031 C 
ATOM     44  C   UNL A   1      39.673  26.326  29.039  1.00  0.00     0.029 A 
ATOM     45  N   UNL A   1      41.261  27.889  28.887  1.00  0.00    -0.354 N 
ATOM     46  C   UNL A   1      45.107  26.994  27.140  1.00  0.00     0.074 A 
ATOM     47  C   UNL A   1      45.183  25.611  26.722  1.00  0.00     0.031 C 
ATOM     48  C   UNL A   1      39.188  27.447  29.598  1.00  0.00     0.029 A 
ATOM     49  C   UNL A   1      40.215  28.486  29.552  1.00  0.00     0.049 A 
ATOM     50  H   UNL A   1      42.089  28.365  28.650  1.00  0.00     0.167 HD
ATOM     51  C   UNL A   1      46.103  27.895  26.967  1.00  0.00     0.034 A 
ATOM     52  C   UNL A   1      40.104  29.723  30.075  1.00  0.00     0.034 A 
ATOM     53  C   UNL A   1      46.021  29.274  27.366  1.00  0.00     0.049 A 
ATOM     54  C   UNL A   1      41.244  30.695  29.906  1.00  0.00     0.074 A 
ATOM     55  C   UNL A   1      46.970  30.271  27.216  1.00  0.00     0.029 A 
ATOM     56  N   UNL A   1      44.930  29.853  27.994  1.00  0.00    -0.354 N 
ATOM     57  N   UNL A   1      42.386  30.528  29.284  1.00  0.00    -0.248 NA
ATOM     58  C   UNL A   1      41.063  32.038  30.477  1.00  0.00     0.031 C 
ATOM     59  C   UNL A   1      46.457  31.449  27.767  1.00  0.00     0.029 A 
ATOM     60  C   UNL A   1      45.180  31.192  28.240  1.00  0.00     0.049 A 
ATOM     61  H   UNL A   1      44.098  29.381  28.230  1.00  0.00     0.167 HD
ATOM     62  C   UNL A   1      43.039  31.754  29.351  1.00  0.00     0.074 A 
ATOM     63  C   UNL A   1      42.156  32.660  30.057  1.00  0.00     0.031 C 
ATOM     64  C   UNL A   1      44.264  32.097  28.885  1.00  0.00     0.034 A 
BRANCH  51  65
ATOM     65  C   UNL A   1      47.353  27.428  26.272  1.00  0.00     0.023 A 
ATOM     66  C   UNL A   1      47.550  27.753  24.914  1.00  0.00     0.012 A 
ATOM     67  C   UNL A   1      48.354  26.724  26.968  1.00  0.00     0.148 A 
ATOM     68  C   UNL A   1      48.712  27.361  24.251  1.00  0.00     0.002 A 
ATOM     69  C   UNL A   1      49.528  26.373  26.312  1.00  0.00     0.091 A 
ATOM     70  F   UNL A   1      48.137  26.406  28.252  1.00  0.00    -0.205 F 
ATOM     71  C   UNL A   1      49.705  26.681  24.952  1.00  0.00     0.022 A 
BRANCH  69  72
ATOM     72  S   UNL A   1      50.898  25.559  27.142  1.00  0.00     0.127 S 
ATOM     73  O   UNL A   1      50.271  24.319  27.598  1.00  0.00    -0.237 OA
ATOM     74  O   UNL A   1      51.861  25.392  26.054  1.00  0.00    -0.237 OA
ATOM     75  O   UNL A   1      51.324  26.467  28.199  1.00  0.00    -0.744 OA
ENDBRANCH  69  72
ENDBRANCH  51  65
BRANCH  52  76
ATOM     76  C   UNL A   1      38.855  30.135  30.777  1.00  0.00     0.023 A 
ATOM     77  C   UNL A   1      38.670  29.793  32.130  1.00  0.00     0.012 A 
ATOM     78  C   UNL A   1      37.846  30.855  30.109  1.00  0.00     0.148 A 
ATOM     79  C   UNL A   1      37.489  30.125  32.794  1.00  0.00     0.002 A 
ATOM     80  C   UNL A   1      36.696  31.233  30.792  1.00  0.00     0.091 A 
ATOM     81  F   UNL A   1      38.029  31.156  28.815  1.00  0.00    -0.205 F 
ATOM     82  C   UNL A   1      36.506  30.852  32.128  1.00  0.00     0.022 A 
BRANCH  80  83
ATOM     83  S   UNL A   1      35.449  32.288  30.046  1.00  0.00     0.127 S 
ATOM     84  O   UNL A   1      35.034  31.492  28.894  1.00  0.00    -0.237 OA
ATOM     85  O   UNL A   1      34.457  32.392  31.116  1.00  0.00    -0.237 OA
ATOM     86  O   UNL A   1      36.135  33.538  29.747  1.00  0.00    -0.744 OA
ENDBRANCH  80  83
ENDBRANCH  52  76
BRANCH  64  87
ATOM     87  C   UNL A   1      44.714  33.521  29.078  1.00  0.00     0.023 A 
ATOM     88  C   UNL A   1      44.412  34.491  28.102  1.00  0.00     0.012 A 
ATOM     89  C   UNL A   1      45.373  33.912  30.262  1.00  0.00     0.148 A 
ATOM     90  C   UNL A   1      44.787  35.821  28.286  1.00  0.00     0.002 A 
ATOM     91  C   UNL A   1      45.700  35.248  30.459  1.00  0.00     0.091 A 
ATOM     92  F   UNL A   1      45.668  32.970  31.170  1.00  0.00    -0.205 F 
ATOM     93  C   UNL A   1      45.419  36.202  29.468  1.00  0.00     0.022 A 
BRANCH  91  94
ATOM     94  S   UNL A   1      46.431  35.843  31.989  1.00  0.00     0.127 S 
ATOM     95  O   UNL A   1      46.580  37.271  31.712  1.00  0.00    -0.237 OA
ATOM     96  O   UNL A   1      45.397  35.519  32.973  1.00  0.00    -0.237 OA
ATOM     97  O   UNL A   1      47.674  35.104  32.154  1.00  0.00    -0.744 OA
ENDBRANCH  91  94
ENDBRANCH  64  87
ENDBRANCH  38  39
ENDBRANCH  31  33
ENDBRANCH  30  31
ENDBRANCH  29  30
ENDBRANCH  28  29
ENDBRANCH   1  28
TORSDOF 21
ENDMDL
MODEL 2
REMARK VINA RESULT:     -10.1      5.696     10.979
REMARK SMILES COc1ccc(C(=O)OCCOCCOC(=O)c2ccc(-c3c4nc(c(-c5cccc(S(=O)(=O)[O-])c5F)c5ccc([nH]5)c(-c5cccc(S(=O)(=O)[O-])c5F)c5nc(c(-c6cccc(S(=O)(=O)[O-])c6F)c6ccc3[nH]6)C=C5)C=C4)cc2)cc1NC(=O)c1ccccc1[N+](=O)[O-]
REMARK SMILES IDX 12 1 11 2 10 3 9 4 7 5 8 6 6 7 3 8 4 9 82 10 5 11 81 12 2 13
REMARK SMILES IDX 1 14 83 15 84 16 85 18 86 19 87 20 91 21 88 22 90 23 89 24
REMARK SMILES IDX 92 25 93 26 94 27 13 28 14 29 15 30 16 31 17 32 18 33 19 34
REMARK SMILES IDX 80 35 20 36 79 37 21 38 22 39 23 40 73 41 24 42 78 43 72 44
REMARK SMILES IDX 74 45 25 46 77 47 71 48 70 49 26 51 58 52 38 53 57 54 39 55
REMARK SMILES IDX 42 56 56 57 75 58 40 59 41 60 55 62 76 63 43 64 27 65 28 66
REMARK SMILES IDX 36 67 29 68 31 69 37 70 30 71 32 72 33 73 34 74 35 75 59 76
REMARK SMILES IDX 60 77 68 78 61 79 63 80 69 81 62 82 64 83 65 84 66 85 67 86
REMARK SMILES IDX 44 87 45 88 53 89 46 90 48 91 54 92 47 93 49 94 50 95 51 96
REMARK SMILES IDX 52 97
REMARK H PARENT 83 17 74 50 42 61
REMARK Flexibility Score: inf
ROOT
ATOM      1  O   UNL A   1      33.871  33.593  29.115  1.00  0.00    -0.374 OA
ENDROOT
BRANCH   1   2
ATOM      2  C   UNL A   1      34.174  32.839  27.940  1.00  0.00     0.202 C 
BRANCH   2   3
ATOM      3  C   UNL A   1      33.631  31.408  27.892  1.00  0.00     0.261 C 
BRANCH   3   4
ATOM      4  O   UNL A   1      34.127  30.702  26.742  1.00  0.00    -0.460 OA
BRANCH   4   5
ATOM      5  C   UNL A   1      34.458  29.406  26.945  1.00  0.00     0.338 C 
ATOM      6  O   UNL A   1      35.191  28.971  27.826  1.00  0.00    -0.246 OA
BRANCH   5   7
ATOM      7  C   UNL A   1      33.747  28.521  25.985  1.00  0.00     0.062 A 
ATOM      8  C   UNL A   1      32.172  26.999  24.285  1.00  0.00     0.142 A 
ATOM      9  C   UNL A   1      32.379  28.348  24.000  1.00  0.00     0.049 A 
ATOM     10  C   UNL A   1      32.787  26.375  25.384  1.00  0.00     0.084 A 
ATOM     11  C   UNL A   1      33.131  29.119  24.880  1.00  0.00     0.019 A 
ATOM     12  C   UNL A   1      33.652  27.131  26.172  1.00  0.00     0.045 A 
BRANCH   8  13
ATOM     13  O   UNL A   1      31.335  26.291  23.456  1.00  0.00    -0.495 OA
ATOM     14  C   UNL A   1      29.968  26.596  23.757  1.00  0.00     0.278 C 
ENDBRANCH   8  13
BRANCH  10  15
ATOM     15  N   UNL A   1      32.416  25.041  25.641  1.00  0.00    -0.319 N 
ATOM     16  C   UNL A   1      33.049  23.826  25.572  1.00  0.00     0.262 C 
ATOM     17  H   UNL A   1      31.481  24.962  25.938  1.00  0.00     0.170 HD
ATOM     18  O   UNL A   1      32.427  22.812  25.891  1.00  0.00    -0.269 OA
BRANCH  16  19
ATOM     19  C   UNL A   1      34.422  23.664  25.069  1.00  0.00     0.117 A 
ATOM     20  C   UNL A   1      35.421  23.694  26.054  1.00  0.00     0.021 A 
ATOM     21  C   UNL A   1      34.786  23.455  23.734  1.00  0.00     0.282 A 
ATOM     22  C   UNL A   1      36.745  23.422  25.719  1.00  0.00     0.001 A 
ATOM     23  C   UNL A   1      36.115  23.141  23.404  1.00  0.00     0.086 A 
ATOM     24  C   UNL A   1      37.085  23.110  24.406  1.00  0.00     0.007 A 
BRANCH  21  25
ATOM     25  N   UNL A   1      33.799  23.470  22.661  1.00  0.00     0.063 N 
ATOM     26  O   UNL A   1      33.110  22.448  22.515  1.00  0.00    -0.258 OA
ATOM     27  O   UNL A   1      33.680  24.499  21.985  1.00  0.00    -0.258 OA
ENDBRANCH  21  25
ENDBRANCH  16  19
ENDBRANCH  10  15
ENDBRANCH   5   7
ENDBRANCH   4   5
ENDBRANCH   3   4
ENDBRANCH   2   3
ENDBRANCH   1   2
BRANCH   1  28
ATOM     28  C   UNL A   1      34.086  35.002  29.062  1.00  0.00     0.202 C 
BRANCH  28  29
ATOM     29  C   UNL A   1      33.095  35.891  29.823  1.00  0.00     0.261 C 
BRANCH  29  30
ATOM     30  O   UNL A   1      32.545  35.255  30.988  1.00  0.00    -0.460 OA
BRANCH  30  31
ATOM     31  C   UNL A   1      32.916  35.824  32.159  1.00  0.00     0.338 C 
ATOM     32  O   UNL A   1      32.396  36.787  32.709  1.00  0.00    -0.246 OA
BRANCH  31  33
ATOM     33  C   UNL A   1      33.978  35.031  32.802  1.00  0.00     0.060 A 
ATOM     34  C   UNL A   1      35.163  35.692  33.150  1.00  0.00     0.016 A 
ATOM     35  C   UNL A   1      33.859  33.650  32.971  1.00  0.00     0.016 A 
ATOM     36  C   UNL A   1      36.255  34.967  33.621  1.00  0.00     0.010 A 
ATOM     37  C   UNL A   1      34.960  32.924  33.437  1.00  0.00     0.010 A 
ATOM     38  C   UNL A   1      36.173  33.573  33.734  1.00  0.00    -0.014 A 
BRANCH  38  39
ATOM     39  C   UNL A   1      37.394  32.780  34.026  1.00  0.00     0.031 A 
ATOM     40  C   UNL A   1      38.228  33.137  35.227  1.00  0.00     0.074 A 
ATOM     41  C   UNL A   1      37.758  31.755  33.233  1.00  0.00     0.049 A 
ATOM     42  N   UNL A   1      39.349  32.607  35.641  1.00  0.00    -0.248 NA
ATOM     43  C   UNL A   1      37.730  34.233  36.074  1.00  0.00     0.031 C 
ATOM     44  C   UNL A   1      37.028  31.300  32.053  1.00  0.00     0.029 A 
ATOM     45  N   UNL A   1      38.850  30.925  33.290  1.00  0.00    -0.354 N 
ATOM     46  C   UNL A   1      39.700  33.313  36.785  1.00  0.00     0.074 A 
ATOM     47  C   UNL A   1      38.688  34.327  36.985  1.00  0.00     0.031 C 
ATOM     48  C   UNL A   1      37.710  30.300  31.471  1.00  0.00     0.029 A 
ATOM     49  C   UNL A   1      38.932  30.049  32.233  1.00  0.00     0.049 A 
ATOM     50  H   UNL A   1      39.511  30.952  34.018  1.00  0.00     0.167 HD
ATOM     51  C   UNL A   1      40.754  33.118  37.613  1.00  0.00     0.034 A 
ATOM     52  C   UNL A   1      39.889  29.157  31.908  1.00  0.00     0.034 A 
ATOM     53  C   UNL A   1      41.750  32.098  37.426  1.00  0.00     0.049 A 
ATOM     54  C   UNL A   1      41.074  28.989  32.825  1.00  0.00     0.074 A 
ATOM     55  C   UNL A   1      42.845  31.808  38.221  1.00  0.00     0.029 A 
ATOM     56  N   UNL A   1      41.774  31.201  36.370  1.00  0.00    -0.354 N 
ATOM     57  N   UNL A   1      41.332  29.592  33.960  1.00  0.00    -0.248 NA
ATOM     58  C   UNL A   1      42.078  27.988  32.436  1.00  0.00     0.031 C 
ATOM     59  C   UNL A   1      43.540  30.745  37.636  1.00  0.00     0.029 A 
ATOM     60  C   UNL A   1      42.865  30.358  36.490  1.00  0.00     0.049 A 
ATOM     61  H   UNL A   1      41.113  31.168  35.641  1.00  0.00     0.167 HD
ATOM     62  C   UNL A   1      42.503  29.016  34.440  1.00  0.00     0.074 A 
ATOM     63  C   UNL A   1      42.892  28.000  33.483  1.00  0.00     0.031 C 
ATOM     64  C   UNL A   1      43.202  29.309  35.563  1.00  0.00     0.034 A 
BRANCH  51  65
ATOM     65  C   UNL A   1      40.857  33.998  38.830  1.00  0.00     0.023 A 
ATOM     66  C   UNL A   1      40.142  33.652  39.995  1.00  0.00     0.012 A 
ATOM     67  C   UNL A   1      41.698  35.127  38.843  1.00  0.00     0.148 A 
ATOM     68  C   UNL A   1      40.242  34.431  41.147  1.00  0.00     0.002 A 
ATOM     69  C   UNL A   1      41.825  35.875  40.008  1.00  0.00     0.091 A 
ATOM     70  F   UNL A   1      42.351  35.451  37.718  1.00  0.00    -0.205 F 
ATOM     71  C   UNL A   1      41.091  35.534  41.157  1.00  0.00     0.022 A 
BRANCH  69  72
ATOM     72  S   UNL A   1      42.946  37.271  40.148  1.00  0.00     0.127 S 
ATOM     73  O   UNL A   1      44.235  36.645  39.858  1.00  0.00    -0.237 OA
ATOM     74  O   UNL A   1      42.453  38.166  39.100  1.00  0.00    -0.237 OA
ATOM     75  O   UNL A   1      42.789  37.778  41.504  1.00  0.00    -0.744 OA
ENDBRANCH  69  72
ENDBRANCH  51  65
BRANCH  52  76
ATOM     76  C   UNL A   1      39.757  28.323  30.680  1.00  0.00     0.023 A 
ATOM     77  C   UNL A   1      38.957  27.165  30.706  1.00  0.00     0.012 A 
ATOM     78  C   UNL A   1      40.426  28.666  29.489  1.00  0.00     0.148 A 
ATOM     79  C   UNL A   1      38.857  26.343  29.583  1.00  0.00     0.002 A 
ATOM     80  C   UNL A   1      40.277  27.874  28.357  1.00  0.00     0.091 A 
ATOM     81  F   UNL A   1      41.199  29.762  29.487  1.00  0.00    -0.205 F 
ATOM     82  C   UNL A   1      39.509  26.702  28.406  1.00  0.00     0.022 A 
BRANCH  80  83
ATOM     83  S   UNL A   1      40.971  28.344  26.769  1.00  0.00     0.127 S 
ATOM     84  O   UNL A   1      40.933  27.079  26.039  1.00  0.00    -0.237 OA
ATOM     85  O   UNL A   1      40.018  29.353  26.306  1.00  0.00    -0.237 OA
ATOM     86  O   UNL A   1      42.295  28.871  27.070  1.00  0.00    -0.744 OA
ENDBRANCH  80  83
ENDBRANCH  52  76
BRANCH  64  87
ATOM     87  C   UNL A   1      44.437  28.496  35.852  1.00  0.00     0.023 A 
ATOM     88  C   UNL A   1      45.690  28.930  35.376  1.00  0.00     0.012 A 
ATOM     89  C   UNL A   1      44.364  27.340  36.656  1.00  0.00     0.148 A 
ATOM     90  C   UNL A   1      46.847  28.210  35.670  1.00  0.00     0.002 A 
ATOM     91  C   UNL A   1      45.528  26.655  36.984  1.00  0.00     0.091 A 
ATOM     92  F   UNL A   1      43.160  26.933  37.082  1.00  0.00    -0.205 F 
ATOM     93  C   UNL A   1      46.768  27.080  36.482  1.00  0.00     0.022 A 
BRANCH  91  94
ATOM     94  S   UNL A   1      45.532  25.246  38.099  1.00  0.00     0.127 S 
ATOM     95  O   UNL A   1      44.850  25.793  39.272  1.00  0.00    -0.237 OA
ATOM     96  O   UNL A   1      44.757  24.255  37.351  1.00  0.00    -0.237 OA
ATOM     97  O   UNL A   1      46.931  24.895  38.296  1.00  0.00    -0.744 OA
ENDBRANCH  91  94
ENDBRANCH  64  87
ENDBRANCH  38  39
ENDBRANCH  31  33
ENDBRANCH  30  31
ENDBRANCH  29  30
ENDBRANCH  28  29
ENDBRANCH   1  28
TORSDOF 21
ENDMDL
MODEL 3
REMARK VINA RESULT:      -9.9      5.411     10.732
REMARK SMILES COc1ccc(C(=O)OCCOCCOC(=O)c2ccc(-c3c4nc(c(-c5cccc(S(=O)(=O)[O-])c5F)c5ccc([nH]5)c(-c5cccc(S(=O)(=O)[O-])c5F)c5nc(c(-c6cccc(S(=O)(=O)[O-])c6F)c6ccc3[nH]6)C=C5)C=C4)cc2)cc1NC(=O)c1ccccc1[N+](=O)[O-]
REMARK SMILES IDX 12 1 11 2 10 3 9 4 7 5 8 6 6 7 3 8 4 9 82 10 5 11 81 12 2 13
REMARK SMILES IDX 1 14 83 15 84 16 85 18 86 19 87 20 91 21 88 22 90 23 89 24
REMARK SMILES IDX 92 25 93 26 94 27 13 28 14 29 15 30 16 31 17 32 18 33 19 34
REMARK SMILES IDX 80 35 20 36 79 37 21 38 22 39 23 40 73 41 24 42 78 43 72 44
REMARK SMILES IDX 74 45 25 46 77 47 71 48 70 49 26 51 58 52 38 53 57 54 39 55
REMARK SMILES IDX 42 56 56 57 75 58 40 59 41 60 55 62 76 63 43 64 27 65 28 66
REMARK SMILES IDX 36 67 29 68 31 69 37 70 30 71 32 72 33 73 34 74 35 75 59 76
REMARK SMILES IDX 60 77 68 78 61 79 63 80 69 81 62 82 64 83 65 84 66 85 67 86
REMARK SMILES IDX 44 87 45 88 53 89 46 90 48 91 54 92 47 93 49 94 50 95 51 96
REMARK SMILES IDX 52 97
REMARK H PARENT 83 17 74 50 42 61
REMARK Flexibility Score: inf
ROOT
ATOM      1  O   UNL A   1      34.098  33.148  28.950  1.00  0.00    -0.374 OA
ENDROOT
BRANCH   1   2
ATOM      2  C   UNL A   1      34.401  32.379  27.784  1.00  0.00     0.202 C 
BRANCH   2   3
ATOM      3  C   UNL A   1      33.996  30.903  27.818  1.00  0.00     0.261 C 
BRANCH   3   4
ATOM      4  O   UNL A   1      32.868  30.653  26.962  1.00  0.00    -0.460 OA
BRANCH   4   5
ATOM      5  C   UNL A   1      32.424  29.375  26.931  1.00  0.00     0.338 C 
ATOM      6  O   UNL A   1      32.530  28.546  27.828  1.00  0.00    -0.246 OA
BRANCH   5   7
ATOM      7  C   UNL A   1      31.698  29.098  25.663  1.00  0.00     0.062 A 
ATOM      8  C   UNL A   1      30.099  28.647  23.444  1.00  0.00     0.142 A 
ATOM      9  C   UNL A   1      30.318  29.955  23.875  1.00  0.00     0.049 A 
ATOM     10  C   UNL A   1      30.713  27.551  24.075  1.00  0.00     0.084 A 
ATOM     11  C   UNL A   1      31.083  30.174  25.015  1.00  0.00     0.019 A 
ATOM     12  C   UNL A   1      31.591  27.803  25.127  1.00  0.00     0.045 A 
BRANCH   8  13
ATOM     13  O   UNL A   1      29.250  28.457  22.380  1.00  0.00    -0.495 OA
ATOM     14  C   UNL A   1      28.833  29.721  21.850  1.00  0.00     0.278 C 
ENDBRANCH   8  13
BRANCH  10  15
ATOM     15  N   UNL A   1      30.330  26.272  23.629  1.00  0.00    -0.319 N 
ATOM     16  C   UNL A   1      30.906  25.026  23.639  1.00  0.00     0.262 C 
ATOM     17  H   UNL A   1      29.439  26.271  23.211  1.00  0.00     0.170 HD
ATOM     18  O   UNL A   1      30.280  24.077  23.167  1.00  0.00    -0.269 OA
BRANCH  16  19
ATOM     19  C   UNL A   1      32.272  24.778  24.124  1.00  0.00     0.117 A 
ATOM     20  C   UNL A   1      32.357  24.343  25.456  1.00  0.00     0.021 A 
ATOM     21  C   UNL A   1      33.446  24.905  23.373  1.00  0.00     0.282 A 
ATOM     22  C   UNL A   1      33.582  23.951  25.990  1.00  0.00     0.001 A 
ATOM     23  C   UNL A   1      34.673  24.472  23.899  1.00  0.00     0.086 A 
ATOM     24  C   UNL A   1      34.729  23.979  25.203  1.00  0.00     0.007 A 
BRANCH  21  25
ATOM     25  N   UNL A   1      33.426  25.407  22.004  1.00  0.00     0.063 N 
ATOM     26  O   UNL A   1      33.681  26.610  21.841  1.00  0.00    -0.258 OA
ATOM     27  O   UNL A   1      33.192  24.610  21.088  1.00  0.00    -0.258 OA
ENDBRANCH  21  25
ENDBRANCH  16  19
ENDBRANCH  10  15
ENDBRANCH   5   7
ENDBRANCH   4   5
ENDBRANCH   3   4
ENDBRANCH   2   3
ENDBRANCH   1   2
BRANCH   1  28
ATOM     28  C   UNL A   1      34.255  34.562  28.862  1.00  0.00     0.202 C 
BRANCH  28  29
ATOM     29  C   UNL A   1      33.107  35.430  29.391  1.00  0.00     0.261 C 
BRANCH  29  30
ATOM     30  O   UNL A   1      32.512  34.909  30.590  1.00  0.00    -0.460 OA
BRANCH  30  31
ATOM     31  C   UNL A   1      32.890  35.551  31.721  1.00  0.00     0.338 C 
ATOM     32  O   UNL A   1      32.320  36.493  32.260  1.00  0.00    -0.246 OA
BRANCH  31  33
ATOM     33  C   UNL A   1      34.037  34.869  32.341  1.00  0.00     0.060 A 
ATOM     34  C   UNL A   1      35.267  35.539  32.348  1.00  0.00     0.016 A 
ATOM     35  C   UNL A   1      33.941  33.559  32.816  1.00  0.00     0.016 A 
ATOM     36  C   UNL A   1      36.417  34.885  32.783  1.00  0.00     0.010 A 
ATOM     37  C   UNL A   1      35.099  32.903  33.246  1.00  0.00     0.010 A 
ATOM     38  C   UNL A   1      36.348  33.550  33.202  1.00  0.00    -0.014 A 
BRANCH  38  39
ATOM     39  C   UNL A   1      37.596  32.788  33.458  1.00  0.00     0.031 A 
ATOM     40  C   UNL A   1      38.330  33.002  34.754  1.00  0.00     0.074 A 
ATOM     41  C   UNL A   1      38.071  31.914  32.550  1.00  0.00     0.049 A 
ATOM     42  N   UNL A   1      39.454  32.476  35.162  1.00  0.00    -0.248 NA
ATOM     43  C   UNL A   1      37.715  33.930  35.717  1.00  0.00     0.031 C 
ATOM     44  C   UNL A   1      37.444  31.606  31.268  1.00  0.00     0.029 A 
ATOM     45  N   UNL A   1      39.206  31.144  32.560  1.00  0.00    -0.354 N 
ATOM     46  C   UNL A   1      39.691  33.018  36.420  1.00  0.00     0.074 A 
ATOM     47  C   UNL A   1      38.607  33.935  36.696  1.00  0.00     0.031 C 
ATOM     48  C   UNL A   1      38.220  30.742  30.594  1.00  0.00     0.029 A 
ATOM     49  C   UNL A   1      39.407  30.443  31.394  1.00  0.00     0.049 A 
ATOM     50  H   UNL A   1      39.819  31.096  33.329  1.00  0.00     0.167 HD
ATOM     51  C   UNL A   1      40.702  32.755  37.281  1.00  0.00     0.034 A 
ATOM     52  C   UNL A   1      40.436  29.662  31.009  1.00  0.00     0.034 A 
ATOM     53  C   UNL A   1      41.769  31.829  37.015  1.00  0.00     0.049 A 
ATOM     54  C   UNL A   1      41.570  29.419  31.971  1.00  0.00     0.074 A 
ATOM     55  C   UNL A   1      42.830  31.480  37.834  1.00  0.00     0.029 A 
ATOM     56  N   UNL A   1      41.914  31.104  35.843  1.00  0.00    -0.354 N 
ATOM     57  N   UNL A   1      41.721  29.857  33.198  1.00  0.00    -0.248 NA
ATOM     58  C   UNL A   1      42.657  28.542  31.510  1.00  0.00     0.031 C 
ATOM     59  C   UNL A   1      43.624  30.555  37.149  1.00  0.00     0.029 A 
ATOM     60  C   UNL A   1      43.046  30.311  35.913  1.00  0.00     0.049 A 
ATOM     61  H   UNL A   1      41.301  31.148  35.073  1.00  0.00     0.167 HD
ATOM     62  C   UNL A   1      42.894  29.277  33.668  1.00  0.00     0.074 A 
ATOM     63  C   UNL A   1      43.403  28.439  32.601  1.00  0.00     0.031 C 
ATOM     64  C   UNL A   1      43.504  29.433  34.868  1.00  0.00     0.034 A 
BRANCH  51  65
ATOM     65  C   UNL A   1      40.676  33.446  38.618  1.00  0.00     0.023 A 
ATOM     66  C   UNL A   1      40.025  32.824  39.704  1.00  0.00     0.012 A 
ATOM     67  C   UNL A   1      41.337  34.673  38.818  1.00  0.00     0.148 A 
ATOM     68  C   UNL A   1      40.011  33.424  40.962  1.00  0.00     0.002 A 
ATOM     69  C   UNL A   1      41.354  35.245  40.085  1.00  0.00     0.091 A 
ATOM     70  F   UNL A   1      41.929  35.258  37.768  1.00  0.00    -0.205 F 
ATOM     71  C   UNL A   1      40.684  34.628  41.155  1.00  0.00     0.022 A 
BRANCH  69  72
ATOM     72  S   UNL A   1      42.252  36.756  40.455  1.00  0.00     0.127 S 
ATOM     73  O   UNL A   1      43.616  36.388  40.079  1.00  0.00    -0.237 OA
ATOM     74  O   UNL A   1      41.611  37.720  39.560  1.00  0.00    -0.237 OA
ATOM     75  O   UNL A   1      42.043  37.011  41.873  1.00  0.00    -0.744 OA
ENDBRANCH  69  72
ENDBRANCH  51  65
BRANCH  52  76
ATOM     76  C   UNL A   1      40.431  29.017  29.665  1.00  0.00     0.023 A 
ATOM     77  C   UNL A   1      40.774  29.772  28.527  1.00  0.00     0.012 A 
ATOM     78  C   UNL A   1      40.079  27.662  29.507  1.00  0.00     0.148 A 
ATOM     79  C   UNL A   1      40.729  29.203  27.254  1.00  0.00     0.002 A 
ATOM     80  C   UNL A   1      40.092  27.085  28.243  1.00  0.00     0.091 A 
ATOM     81  F   UNL A   1      39.737  26.962  30.598  1.00  0.00    -0.205 F 
ATOM     82  C   UNL A   1      40.397  27.858  27.112  1.00  0.00     0.022 A 
BRANCH  80  83
ATOM     83  S   UNL A   1      39.812  25.329  27.995  1.00  0.00     0.127 S 
ATOM     84  O   UNL A   1      39.663  25.251  26.544  1.00  0.00    -0.237 OA
ATOM     85  O   UNL A   1      41.047  24.746  28.521  1.00  0.00    -0.237 OA
ATOM     86  O   UNL A   1      38.626  25.016  28.779  1.00  0.00    -0.744 OA
ENDBRANCH  80  83
ENDBRANCH  52  76
BRANCH  64  87
ATOM     87  C   UNL A   1      44.766  28.652  35.119  1.00  0.00     0.023 A 
ATOM     88  C   UNL A   1      46.016  29.208  34.779  1.00  0.00     0.012 A 
ATOM     89  C   UNL A   1      44.719  27.396  35.759  1.00  0.00     0.148 A 
ATOM     90  C   UNL A   1      47.195  28.514  35.043  1.00  0.00     0.002 A 
ATOM     91  C   UNL A   1      45.902  26.732  36.061  1.00  0.00     0.091 A 
ATOM     92  F   UNL A   1      43.520  26.875  36.057  1.00  0.00    -0.205 F 
ATOM     93  C   UNL A   1      47.140  27.283  35.693  1.00  0.00     0.022 A 
BRANCH  91  94
ATOM     94  S   UNL A   1      45.929  25.189  36.980  1.00  0.00     0.127 S 
ATOM     95  O   UNL A   1      47.162  25.326  37.756  1.00  0.00    -0.237 OA
ATOM     96  O   UNL A   1      44.700  25.275  37.770  1.00  0.00    -0.237 OA
ATOM     97  O   UNL A   1      45.932  24.128  35.983  1.00  0.00    -0.744 OA
ENDBRANCH  91  94
ENDBRANCH  64  87
ENDBRANCH  38  39
ENDBRANCH  31  33
ENDBRANCH  30  31
ENDBRANCH  29  30
ENDBRANCH  28  29
ENDBRANCH   1  28
TORSDOF 21
ENDMDL
