MODEL 1
REMARK VINA RESULT:      -9.5      0.000      0.000
REMARK SMILES [NH3+]Cc1c(-c2ccccc2)c(C(=O)OCCOCCOC(=O)c2ccc(-c3c4nc(c(-c5cccc(S(=O)(=O)[O-])c5F)c5ccc([nH]5)c(-c5cccc(S(=O)(=O)[O-])c5F)c5nc(c(-c6cccc(S(=O)(=O)[O-])c6F)c6ccc3[nH]6)C=C5)C=C4)cc2)c2ccccn12
REMARK SMILES IDX 18 1 17 2 16 3 15 4 14 5 12 6 13 7 11 8 3 9 4 10 91 11 86 12
REMARK SMILES IDX 90 13 87 14 89 15 88 16 2 17 1 18 5 22 6 23 10 24 7 25 9 26
REMARK SMILES IDX 8 27 19 28 20 29 21 30 22 31 23 32 24 33 85 34 25 35 84 36
REMARK SMILES IDX 26 37 27 38 28 39 78 40 29 41 83 42 77 43 79 44 30 45 82 46
REMARK SMILES IDX 76 47 75 48 31 50 63 51 43 52 62 53 44 54 47 55 61 56 80 57
REMARK SMILES IDX 45 58 46 59 60 61 81 62 48 63 32 64 33 65 41 66 34 67 36 68
REMARK SMILES IDX 42 69 35 70 37 71 38 72 39 73 40 74 64 75 65 76 73 77 66 78
REMARK SMILES IDX 68 79 74 80 67 81 69 82 70 83 71 84 72 85 49 86 50 87 58 88
REMARK SMILES IDX 51 89 53 90 59 91 52 92 54 93 55 94 56 95 57 96
REMARK H PARENT 1 19 1 20 1 21 79 49 47 60
REMARK Flexibility Score: inf
ROOT
ATOM      1  C   UNL A   1      42.612  20.222  26.100  1.00  0.00     0.202 C 
ENDROOT
BRANCH   1   2
ATOM      2  O   UNL A   1      43.392  20.648  24.983  1.00  0.00    -0.374 OA
BRANCH   2   3
ATOM      3  C   UNL A   1      44.796  20.371  25.055  1.00  0.00     0.202 C 
BRANCH   3   4
ATOM      4  C   UNL A   1      45.652  21.580  25.441  1.00  0.00     0.261 C 
BRANCH   4   5
ATOM      5  O   UNL A   1      45.302  22.697  24.605  1.00  0.00    -0.460 OA
BRANCH   5   6
ATOM      6  C   UNL A   1      44.485  23.632  25.165  1.00  0.00     0.341 C 
ATOM      7  O   UNL A   1      43.412  23.981  24.690  1.00  0.00    -0.246 OA
BRANCH   6   8
ATOM      8  C   UNL A   1      44.973  24.113  26.457  1.00  0.00     0.093 A 
ATOM      9  C   UNL A   1      46.293  25.168  28.017  1.00  0.00     0.086 A 
ATOM     10  C   UNL A   1      46.061  25.026  26.651  1.00  0.00     0.024 A 
ATOM     11  N   UNL A   1      45.293  24.445  28.666  1.00  0.00    -0.314 N 
ATOM     12  C   UNL A   1      44.461  23.849  27.716  1.00  0.00     0.061 A 
ATOM     13  C   UNL A   1      45.075  24.305  30.044  1.00  0.00     0.092 A 
ATOM     14  C   UNL A   1      43.333  23.116  28.204  1.00  0.00     0.027 A 
ATOM     15  C   UNL A   1      44.022  23.603  30.491  1.00  0.00     0.018 A 
ATOM     16  C   UNL A   1      43.119  23.007  29.528  1.00  0.00     0.004 A 
BRANCH   9  17
ATOM     17  C   UNL A   1      47.316  25.904  28.831  1.00  0.00     0.315 C 
BRANCH  17  18
ATOM     18  N   UNL A   1      48.611  25.250  28.933  1.00  0.00    -0.353 N 
ATOM     19  H   UNL A   1      48.985  25.090  27.998  1.00  0.00     0.344 HD
ATOM     20  H   UNL A   1      48.504  24.358  29.416  1.00  0.00     0.344 HD
ATOM     21  H   UNL A   1      49.251  25.846  29.458  1.00  0.00     0.344 HD
ENDBRANCH  17  18
ENDBRANCH   9  17
BRANCH  10  22
ATOM     22  C   UNL A   1      46.734  25.780  25.608  1.00  0.00    -0.015 A 
ATOM     23  C   UNL A   1      48.049  25.440  25.262  1.00  0.00     0.009 A 
ATOM     24  C   UNL A   1      46.120  26.877  25.004  1.00  0.00     0.009 A 
ATOM     25  C   UNL A   1      48.745  26.194  24.319  1.00  0.00     0.001 A 
ATOM     26  C   UNL A   1      46.816  27.627  24.054  1.00  0.00     0.001 A 
ATOM     27  C   UNL A   1      48.127  27.288  23.715  1.00  0.00     0.000 A 
ENDBRANCH  10  22
ENDBRANCH   6   8
ENDBRANCH   5   6
ENDBRANCH   4   5
ENDBRANCH   3   4
ENDBRANCH   2   3
ENDBRANCH   1   2
BRANCH   1  28
ATOM     28  C   UNL A   1      41.171  20.739  26.119  1.00  0.00     0.261 C 
BRANCH  28  29
ATOM     29  O   UNL A   1      41.128  22.163  26.294  1.00  0.00    -0.460 OA
BRANCH  29  30
ATOM     30  C   UNL A   1      39.880  22.677  26.407  1.00  0.00     0.338 C 
ATOM     31  O   UNL A   1      38.824  22.086  26.251  1.00  0.00    -0.246 OA
BRANCH  30  32
ATOM     32  C   UNL A   1      39.956  24.060  26.918  1.00  0.00     0.060 A 
ATOM     33  C   UNL A   1      40.324  25.060  26.010  1.00  0.00     0.016 A 
ATOM     34  C   UNL A   1      39.707  24.374  28.257  1.00  0.00     0.016 A 
ATOM     35  C   UNL A   1      40.494  26.371  26.448  1.00  0.00     0.010 A 
ATOM     36  C   UNL A   1      39.885  25.689  28.696  1.00  0.00     0.010 A 
ATOM     37  C   UNL A   1      40.313  26.684  27.801  1.00  0.00    -0.014 A 
BRANCH  37  38
ATOM     38  C   UNL A   1      40.708  28.022  28.299  1.00  0.00     0.031 A 
ATOM     39  C   UNL A   1      42.166  28.384  28.332  1.00  0.00     0.074 A 
ATOM     40  C   UNL A   1      39.778  28.900  28.714  1.00  0.00     0.049 A 
ATOM     41  N   UNL A   1      42.731  29.499  28.714  1.00  0.00    -0.248 NA
ATOM     42  C   UNL A   1      43.113  27.352  27.878  1.00  0.00     0.031 C 
ATOM     43  C   UNL A   1      38.337  28.655  28.738  1.00  0.00     0.029 A 
ATOM     44  N   UNL A   1      39.914  30.169  29.216  1.00  0.00    -0.354 N 
ATOM     45  C   UNL A   1      44.098  29.300  28.561  1.00  0.00     0.074 A 
ATOM     46  C   UNL A   1      44.280  27.952  28.069  1.00  0.00     0.031 C 
ATOM     47  C   UNL A   1      37.722  29.733  29.256  1.00  0.00     0.029 A 
ATOM     48  C   UNL A   1      38.726  30.736  29.608  1.00  0.00     0.049 A 
ATOM     49  H   UNL A   1      40.781  30.631  29.287  1.00  0.00     0.167 HD
ATOM     50  C   UNL A   1      45.110  30.169  28.790  1.00  0.00     0.034 A 
ATOM     51  C   UNL A   1      38.479  31.926  30.193  1.00  0.00     0.034 A 
ATOM     52  C   UNL A   1      44.926  31.515  29.259  1.00  0.00     0.049 A 
ATOM     53  C   UNL A   1      39.624  32.873  30.443  1.00  0.00     0.074 A 
ATOM     54  C   UNL A   1      45.884  32.489  29.476  1.00  0.00     0.029 A 
ATOM     55  N   UNL A   1      43.703  32.075  29.592  1.00  0.00    -0.354 N 
ATOM     56  N   UNL A   1      40.896  32.722  30.162  1.00  0.00    -0.248 NA
ATOM     57  C   UNL A   1      39.295  34.168  31.058  1.00  0.00     0.031 C 
ATOM     58  C   UNL A   1      45.240  33.636  29.952  1.00  0.00     0.029 A 
ATOM     59  C   UNL A   1      43.880  33.378  30.022  1.00  0.00     0.049 A 
ATOM     60  H   UNL A   1      42.836  31.612  29.533  1.00  0.00     0.167 HD
ATOM     61  C   UNL A   1      41.514  33.913  30.530  1.00  0.00     0.074 A 
ATOM     62  C   UNL A   1      40.472  34.782  31.041  1.00  0.00     0.031 C 
ATOM     63  C   UNL A   1      42.824  34.251  30.466  1.00  0.00     0.034 A 
BRANCH  50  64
ATOM     64  C   UNL A   1      46.507  29.703  28.489  1.00  0.00     0.023 A 
ATOM     65  C   UNL A   1      46.972  29.734  27.160  1.00  0.00     0.012 A 
ATOM     66  C   UNL A   1      47.371  29.282  29.517  1.00  0.00     0.148 A 
ATOM     67  C   UNL A   1      48.272  29.331  26.854  1.00  0.00     0.002 A 
ATOM     68  C   UNL A   1      48.677  28.915  29.208  1.00  0.00     0.091 A 
ATOM     69  F   UNL A   1      46.899  29.231  30.771  1.00  0.00    -0.205 F 
ATOM     70  C   UNL A   1      49.126  28.932  27.877  1.00  0.00     0.022 A 
BRANCH  68  71
ATOM     71  S   UNL A   1      49.866  28.446  30.470  1.00  0.00     0.127 S 
ATOM     72  O   UNL A   1      51.024  28.072  29.661  1.00  0.00    -0.237 OA
ATOM     73  O   UNL A   1      50.026  29.690  31.225  1.00  0.00    -0.237 OA
ATOM     74  O   UNL A   1      49.244  27.364  31.220  1.00  0.00    -0.744 OA
ENDBRANCH  68  71
ENDBRANCH  50  64
BRANCH  51  75
ATOM     75  C   UNL A   1      37.079  32.310  30.526  1.00  0.00     0.023 A 
ATOM     76  C   UNL A   1      36.591  32.088  31.828  1.00  0.00     0.012 A 
ATOM     77  C   UNL A   1      36.241  32.920  29.573  1.00  0.00     0.148 A 
ATOM     78  C   UNL A   1      35.286  32.448  32.169  1.00  0.00     0.002 A 
ATOM     79  C   UNL A   1      34.960  33.323  29.934  1.00  0.00     0.091 A 
ATOM     80  F   UNL A   1      36.715  33.101  28.332  1.00  0.00    -0.205 F 
ATOM     81  C   UNL A   1      34.476  33.075  31.227  1.00  0.00     0.022 A 
BRANCH  79  82
ATOM     82  S   UNL A   1      33.905  34.253  28.816  1.00  0.00     0.127 S 
ATOM     83  O   UNL A   1      34.793  35.329  28.390  1.00  0.00    -0.237 OA
ATOM     84  O   UNL A   1      33.598  33.260  27.786  1.00  0.00    -0.237 OA
ATOM     85  O   UNL A   1      32.754  34.653  29.616  1.00  0.00    -0.744 OA
ENDBRANCH  79  82
ENDBRANCH  51  75
BRANCH  63  86
ATOM     86  C   UNL A   1      43.218  35.627  30.934  1.00  0.00     0.023 A 
ATOM     87  C   UNL A   1      43.517  35.840  32.293  1.00  0.00     0.012 A 
ATOM     88  C   UNL A   1      43.384  36.681  30.013  1.00  0.00     0.148 A 
ATOM     89  C   UNL A   1      43.956  37.088  32.735  1.00  0.00     0.002 A 
ATOM     90  C   UNL A   1      43.860  37.911  30.455  1.00  0.00     0.091 A 
ATOM     91  F   UNL A   1      43.073  36.465  28.727  1.00  0.00    -0.205 F 
ATOM     92  C   UNL A   1      44.139  38.119  31.815  1.00  0.00     0.022 A 
BRANCH  90  93
ATOM     93  S   UNL A   1      44.210  39.261  29.321  1.00  0.00     0.127 S 
ATOM     94  O   UNL A   1      45.395  38.765  28.624  1.00  0.00    -0.237 OA
ATOM     95  O   UNL A   1      42.997  39.308  28.503  1.00  0.00    -0.237 OA
ATOM     96  O   UNL A   1      44.416  40.436  30.157  1.00  0.00    -0.744 OA
ENDBRANCH  90  93
ENDBRANCH  63  86
ENDBRANCH  37  38
ENDBRANCH  30  32
ENDBRANCH  29  30
ENDBRANCH  28  29
ENDBRANCH   1  28
TORSDOF 20
ENDMDL
MODEL 2
REMARK VINA RESULT:      -9.5      6.042     12.180
REMARK SMILES [NH3+]Cc1c(-c2ccccc2)c(C(=O)OCCOCCOC(=O)c2ccc(-c3c4nc(c(-c5cccc(S(=O)(=O)[O-])c5F)c5ccc([nH]5)c(-c5cccc(S(=O)(=O)[O-])c5F)c5nc(c(-c6cccc(S(=O)(=O)[O-])c6F)c6ccc3[nH]6)C=C5)C=C4)cc2)c2ccccn12
REMARK SMILES IDX 18 1 17 2 16 3 15 4 14 5 12 6 13 7 11 8 3 9 4 10 91 11 86 12
REMARK SMILES IDX 90 13 87 14 89 15 88 16 2 17 1 18 5 22 6 23 10 24 7 25 9 26
REMARK SMILES IDX 8 27 19 28 20 29 21 30 22 31 23 32 24 33 85 34 25 35 84 36
REMARK SMILES IDX 26 37 27 38 28 39 78 40 29 41 83 42 77 43 79 44 30 45 82 46
REMARK SMILES IDX 76 47 75 48 31 50 63 51 43 52 62 53 44 54 47 55 61 56 80 57
REMARK SMILES IDX 45 58 46 59 60 61 81 62 48 63 32 64 33 65 41 66 34 67 36 68
REMARK SMILES IDX 42 69 35 70 37 71 38 72 39 73 40 74 64 75 65 76 73 77 66 78
REMARK SMILES IDX 68 79 74 80 67 81 69 82 70 83 71 84 72 85 49 86 50 87 58 88
REMARK SMILES IDX 51 89 53 90 59 91 52 92 54 93 55 94 56 95 57 96
REMARK H PARENT 1 19 1 20 1 21 79 49 47 60
REMARK Flexibility Score: inf
ROOT
ATOM      1  C   UNL A   1      32.322  31.391  26.474  1.00  0.00     0.202 C 
ENDROOT
BRANCH   1   2
ATOM      2  O   UNL A   1      31.470  30.351  26.951  1.00  0.00    -0.374 OA
BRANCH   2   3
ATOM      3  C   UNL A   1      32.098  29.087  27.200  1.00  0.00     0.202 C 
BRANCH   3   4
ATOM      4  C   UNL A   1      31.131  27.984  27.636  1.00  0.00     0.261 C 
BRANCH   4   5
ATOM      5  O   UNL A   1      31.730  26.700  27.388  1.00  0.00    -0.460 OA
BRANCH   5   6
ATOM      6  C   UNL A   1      31.123  25.928  26.445  1.00  0.00     0.341 C 
ATOM      7  O   UNL A   1      29.983  25.490  26.543  1.00  0.00    -0.246 OA
BRANCH   6   8
ATOM      8  C   UNL A   1      31.938  25.753  25.243  1.00  0.00     0.093 A 
ATOM      9  C   UNL A   1      32.624  25.896  23.052  1.00  0.00     0.086 A 
ATOM     10  C   UNL A   1      31.701  26.381  23.975  1.00  0.00     0.024 A 
ATOM     11  N   UNL A   1      33.494  25.066  23.760  1.00  0.00    -0.314 N 
ATOM     12  C   UNL A   1      33.107  25.024  25.101  1.00  0.00     0.061 A 
ATOM     13  C   UNL A   1      34.612  24.368  23.283  1.00  0.00     0.092 A 
ATOM     14  C   UNL A   1      33.928  24.268  25.995  1.00  0.00     0.027 A 
ATOM     15  C   UNL A   1      35.368  23.649  24.127  1.00  0.00     0.018 A 
ATOM     16  C   UNL A   1      35.013  23.620  25.531  1.00  0.00     0.004 A 
BRANCH   9  17
ATOM     17  C   UNL A   1      32.838  26.103  21.582  1.00  0.00     0.315 C 
BRANCH  17  18
ATOM     18  N   UNL A   1      31.678  25.840  20.747  1.00  0.00    -0.353 N 
ATOM     19  H   UNL A   1      31.984  25.480  19.843  1.00  0.00     0.344 HD
ATOM     20  H   UNL A   1      31.154  26.705  20.610  1.00  0.00     0.344 HD
ATOM     21  H   UNL A   1      31.080  25.150  21.202  1.00  0.00     0.344 HD
ENDBRANCH  17  18
ENDBRANCH   9  17
BRANCH  10  22
ATOM     22  C   UNL A   1      30.742  27.440  23.718  1.00  0.00    -0.015 A 
ATOM     23  C   UNL A   1      29.410  27.101  23.444  1.00  0.00     0.009 A 
ATOM     24  C   UNL A   1      31.143  28.776  23.666  1.00  0.00     0.009 A 
ATOM     25  C   UNL A   1      28.485  28.092  23.118  1.00  0.00     0.001 A 
ATOM     26  C   UNL A   1      30.213  29.768  23.346  1.00  0.00     0.001 A 
ATOM     27  C   UNL A   1      28.889  29.426  23.070  1.00  0.00     0.000 A 
ENDBRANCH  10  22
ENDBRANCH   6   8
ENDBRANCH   5   6
ENDBRANCH   4   5
ENDBRANCH   3   4
ENDBRANCH   2   3
ENDBRANCH   1   2
BRANCH   1  28
ATOM     28  C   UNL A   1      32.146  32.743  27.170  1.00  0.00     0.261 C 
BRANCH  28  29
ATOM     29  O   UNL A   1      33.042  32.879  28.284  1.00  0.00    -0.460 OA
BRANCH  29  30
ATOM     30  C   UNL A   1      34.134  33.640  28.036  1.00  0.00     0.338 C 
ATOM     31  O   UNL A   1      34.153  34.810  27.691  1.00  0.00    -0.246 OA
BRANCH  30  32
ATOM     32  C   UNL A   1      35.354  32.893  28.401  1.00  0.00     0.060 A 
ATOM     33  C   UNL A   1      35.194  31.562  28.808  1.00  0.00     0.016 A 
ATOM     34  C   UNL A   1      36.622  33.481  28.382  1.00  0.00     0.016 A 
ATOM     35  C   UNL A   1      36.294  30.830  29.244  1.00  0.00     0.010 A 
ATOM     36  C   UNL A   1      37.724  32.746  28.828  1.00  0.00     0.010 A 
ATOM     37  C   UNL A   1      37.558  31.430  29.293  1.00  0.00    -0.014 A 
BRANCH  37  38
ATOM     38  C   UNL A   1      38.676  30.725  29.961  1.00  0.00     0.031 A 
ATOM     39  C   UNL A   1      39.025  31.092  31.376  1.00  0.00     0.074 A 
ATOM     40  C   UNL A   1      39.368  29.770  29.315  1.00  0.00     0.049 A 
ATOM     41  N   UNL A   1      39.951  30.596  32.153  1.00  0.00    -0.248 NA
ATOM     42  C   UNL A   1      38.227  32.164  31.996  1.00  0.00     0.031 C 
ATOM     43  C   UNL A   1      39.127  29.338  27.940  1.00  0.00     0.029 A 
ATOM     44  N   UNL A   1      40.430  29.006  29.729  1.00  0.00    -0.354 N 
ATOM     45  C   UNL A   1      39.858  31.301  33.347  1.00  0.00     0.074 A 
ATOM     46  C   UNL A   1      38.799  32.272  33.187  1.00  0.00     0.031 C 
ATOM     47  C   UNL A   1      40.036  28.402  27.613  1.00  0.00     0.029 A 
ATOM     48  C   UNL A   1      40.926  28.178  28.751  1.00  0.00     0.049 A 
ATOM     49  H   UNL A   1      40.800  29.047  30.640  1.00  0.00     0.167 HD
ATOM     50  C   UNL A   1      40.577  31.140  34.483  1.00  0.00     0.034 A 
ATOM     51  C   UNL A   1      41.983  27.342  28.772  1.00  0.00     0.034 A 
ATOM     52  C   UNL A   1      41.616  30.161  34.648  1.00  0.00     0.049 A 
ATOM     53  C   UNL A   1      42.771  27.186  30.046  1.00  0.00     0.074 A 
ATOM     54  C   UNL A   1      42.369  29.887  35.775  1.00  0.00     0.029 A 
ATOM     55  N   UNL A   1      42.053  29.300  33.653  1.00  0.00    -0.354 N 
ATOM     56  N   UNL A   1      42.581  27.760  31.210  1.00  0.00    -0.248 NA
ATOM     57  C   UNL A   1      43.898  26.240  30.022  1.00  0.00     0.031 C 
ATOM     58  C   UNL A   1      43.272  28.866  35.458  1.00  0.00     0.029 A 
ATOM     59  C   UNL A   1      43.073  28.499  34.137  1.00  0.00     0.049 A 
ATOM     60  H   UNL A   1      41.692  29.264  32.738  1.00  0.00     0.167 HD
ATOM     61  C   UNL A   1      43.537  27.221  32.064  1.00  0.00     0.074 A 
ATOM     62  C   UNL A   1      44.296  26.261  31.287  1.00  0.00     0.031 C 
ATOM     63  C   UNL A   1      43.775  27.504  33.368  1.00  0.00     0.034 A 
BRANCH  50  64
ATOM     64  C   UNL A   1      40.230  32.016  35.655  1.00  0.00     0.023 A 
ATOM     65  C   UNL A   1      41.015  33.156  35.919  1.00  0.00     0.012 A 
ATOM     66  C   UNL A   1      39.108  31.744  36.460  1.00  0.00     0.148 A 
ATOM     67  C   UNL A   1      40.703  34.001  36.983  1.00  0.00     0.002 A 
ATOM     68  C   UNL A   1      38.783  32.611  37.498  1.00  0.00     0.091 A 
ATOM     69  F   UNL A   1      38.392  30.639  36.210  1.00  0.00    -0.205 F 
ATOM     70  C   UNL A   1      39.583  33.735  37.765  1.00  0.00     0.022 A 
BRANCH  68  71
ATOM     71  S   UNL A   1      37.322  32.381  38.517  1.00  0.00     0.127 S 
ATOM     72  O   UNL A   1      36.292  33.030  37.709  1.00  0.00    -0.237 OA
ATOM     73  O   UNL A   1      37.215  30.923  38.585  1.00  0.00    -0.237 OA
ATOM     74  O   UNL A   1      37.622  33.022  39.790  1.00  0.00    -0.744 OA
ENDBRANCH  68  71
ENDBRANCH  50  64
BRANCH  51  75
ATOM     75  C   UNL A   1      42.319  26.545  27.560  1.00  0.00     0.023 A 
ATOM     76  C   UNL A   1      43.025  27.152  26.503  1.00  0.00     0.012 A 
ATOM     77  C   UNL A   1      41.972  25.183  27.460  1.00  0.00     0.148 A 
ATOM     78  C   UNL A   1      43.361  26.423  25.361  1.00  0.00     0.002 A 
ATOM     79  C   UNL A   1      42.354  24.450  26.342  1.00  0.00     0.091 A 
ATOM     80  F   UNL A   1      41.278  24.628  28.465  1.00  0.00    -0.205 F 
ATOM     81  C   UNL A   1      43.036  25.072  25.285  1.00  0.00     0.022 A 
BRANCH  79  82
ATOM     82  S   UNL A   1      42.087  22.677  26.229  1.00  0.00     0.127 S 
ATOM     83  O   UNL A   1      42.706  22.362  24.946  1.00  0.00    -0.237 OA
ATOM     84  O   UNL A   1      42.811  22.183  27.402  1.00  0.00    -0.237 OA
ATOM     85  O   UNL A   1      40.643  22.499  26.303  1.00  0.00    -0.744 OA
ENDBRANCH  79  82
ENDBRANCH  51  75
BRANCH  63  86
ATOM     86  C   UNL A   1      44.884  26.755  34.058  1.00  0.00     0.023 A 
ATOM     87  C   UNL A   1      46.215  27.187  33.904  1.00  0.00     0.012 A 
ATOM     88  C   UNL A   1      44.598  25.687  34.932  1.00  0.00     0.148 A 
ATOM     89  C   UNL A   1      47.250  26.555  34.592  1.00  0.00     0.002 A 
ATOM     90  C   UNL A   1      45.631  25.088  35.647  1.00  0.00     0.091 A 
ATOM     91  F   UNL A   1      43.327  25.277  35.049  1.00  0.00    -0.205 F 
ATOM     92  C   UNL A   1      46.957  25.515  35.472  1.00  0.00     0.022 A 
BRANCH  90  93
ATOM     93  S   UNL A   1      45.326  23.805  36.867  1.00  0.00     0.127 S 
ATOM     94  O   UNL A   1      44.312  24.432  37.713  1.00  0.00    -0.237 OA
ATOM     95  O   UNL A   1      44.833  22.698  36.045  1.00  0.00    -0.237 OA
ATOM     96  O   UNL A   1      46.611  23.551  37.505  1.00  0.00    -0.744 OA
ENDBRANCH  90  93
ENDBRANCH  63  86
ENDBRANCH  37  38
ENDBRANCH  30  32
ENDBRANCH  29  30
ENDBRANCH  28  29
ENDBRANCH   1  28
TORSDOF 20
ENDMDL
MODEL 3
REMARK VINA RESULT:      -9.4      4.314      7.435
REMARK SMILES [NH3+]Cc1c(-c2ccccc2)c(C(=O)OCCOCCOC(=O)c2ccc(-c3c4nc(c(-c5cccc(S(=O)(=O)[O-])c5F)c5ccc([nH]5)c(-c5cccc(S(=O)(=O)[O-])c5F)c5nc(c(-c6cccc(S(=O)(=O)[O-])c6F)c6ccc3[nH]6)C=C5)C=C4)cc2)c2ccccn12
REMARK SMILES IDX 18 1 17 2 16 3 15 4 14 5 12 6 13 7 11 8 3 9 4 10 91 11 86 12
REMARK SMILES IDX 90 13 87 14 89 15 88 16 2 17 1 18 5 22 6 23 10 24 7 25 9 26
REMARK SMILES IDX 8 27 19 28 20 29 21 30 22 31 23 32 24 33 85 34 25 35 84 36
REMARK SMILES IDX 26 37 27 38 28 39 78 40 29 41 83 42 77 43 79 44 30 45 82 46
REMARK SMILES IDX 76 47 75 48 31 50 63 51 43 52 62 53 44 54 47 55 61 56 80 57
REMARK SMILES IDX 45 58 46 59 60 61 81 62 48 63 32 64 33 65 41 66 34 67 36 68
REMARK SMILES IDX 42 69 35 70 37 71 38 72 39 73 40 74 64 75 65 76 73 77 66 78
REMARK SMILES IDX 68 79 74 80 67 81 69 82 70 83 71 84 72 85 49 86 50 87 58 88
REMARK SMILES IDX 51 89 53 90 59 91 52 92 54 93 55 94 56 95 57 96
REMARK H PARENT 1 19 1 20 1 21 79 49 47 60
REMARK Flexibility Score: inf
ROOT
ATOM      1  C   UNL A   1      36.308  20.269  24.955  1.00  0.00     0.202 C 
ENDROOT
BRANCH   1   2
ATOM      2  O   UNL A   1      35.879  21.138  26.002  1.00  0.00    -0.374 OA
BRANCH   2   3
ATOM      3  C   UNL A   1      35.782  22.527  25.665  1.00  0.00     0.202 C 
BRANCH   3   4
ATOM      4  C   UNL A   1      34.956  23.353  26.655  1.00  0.00     0.261 C 
BRANCH   4   5
ATOM      5  O   UNL A   1      33.959  22.513  27.261  1.00  0.00    -0.460 OA
BRANCH   5   6
ATOM      6  C   UNL A   1      32.662  22.844  27.008  1.00  0.00     0.341 C 
ATOM      7  O   UNL A   1      31.818  23.033  27.876  1.00  0.00    -0.246 OA
BRANCH   6   8
ATOM      8  C   UNL A   1      32.395  23.051  25.585  1.00  0.00     0.093 A 
ATOM      9  C   UNL A   1      31.867  24.111  23.613  1.00  0.00     0.086 A 
ATOM     10  C   UNL A   1      32.190  24.321  24.951  1.00  0.00     0.024 A 
ATOM     11  N   UNL A   1      31.981  22.739  23.389  1.00  0.00    -0.314 N 
ATOM     12  C   UNL A   1      32.355  22.104  24.576  1.00  0.00     0.061 A 
ATOM     13  C   UNL A   1      31.789  22.034  22.193  1.00  0.00     0.092 A 
ATOM     14  C   UNL A   1      32.584  20.694  24.518  1.00  0.00     0.027 A 
ATOM     15  C   UNL A   1      31.993  20.707  22.153  1.00  0.00     0.018 A 
ATOM     16  C   UNL A   1      32.420  20.029  23.359  1.00  0.00     0.004 A 
BRANCH   9  17
ATOM     17  C   UNL A   1      31.474  25.011  22.480  1.00  0.00     0.315 C 
BRANCH  17  18
ATOM     18  N   UNL A   1      32.583  25.615  21.758  1.00  0.00    -0.353 N 
ATOM     19  H   UNL A   1      32.316  25.761  20.785  1.00  0.00     0.344 HD
ATOM     20  H   UNL A   1      33.393  24.998  21.802  1.00  0.00     0.344 HD
ATOM     21  H   UNL A   1      32.816  26.512  22.184  1.00  0.00     0.344 HD
ENDBRANCH  17  18
ENDBRANCH   9  17
BRANCH  10  22
ATOM     22  C   UNL A   1      32.404  25.621  25.563  1.00  0.00    -0.015 A 
ATOM     23  C   UNL A   1      33.654  26.240  25.427  1.00  0.00     0.009 A 
ATOM     24  C   UNL A   1      31.415  26.219  26.343  1.00  0.00     0.009 A 
ATOM     25  C   UNL A   1      33.912  27.451  26.069  1.00  0.00     0.001 A 
ATOM     26  C   UNL A   1      31.672  27.436  26.979  1.00  0.00     0.001 A 
ATOM     27  C   UNL A   1      32.919  28.048  26.845  1.00  0.00     0.000 A 
ENDBRANCH  10  22
ENDBRANCH   6   8
ENDBRANCH   5   6
ENDBRANCH   4   5
ENDBRANCH   3   4
ENDBRANCH   2   3
ENDBRANCH   1   2
BRANCH   1  28
ATOM     28  C   UNL A   1      37.752  19.774  25.075  1.00  0.00     0.261 C 
BRANCH  28  29
ATOM     29  O   UNL A   1      38.669  20.868  25.227  1.00  0.00    -0.460 OA
BRANCH  29  30
ATOM     30  C   UNL A   1      39.634  20.666  26.156  1.00  0.00     0.338 C 
ATOM     31  O   UNL A   1      40.203  19.618  26.411  1.00  0.00    -0.246 OA
BRANCH  30  32
ATOM     32  C   UNL A   1      40.041  21.960  26.739  1.00  0.00     0.060 A 
ATOM     33  C   UNL A   1      39.414  23.112  26.245  1.00  0.00     0.016 A 
ATOM     34  C   UNL A   1      41.033  22.058  27.719  1.00  0.00     0.016 A 
ATOM     35  C   UNL A   1      39.812  24.368  26.694  1.00  0.00     0.010 A 
ATOM     36  C   UNL A   1      41.436  23.320  28.162  1.00  0.00     0.010 A 
ATOM     37  C   UNL A   1      40.851  24.480  27.625  1.00  0.00    -0.014 A 
BRANCH  37  38
ATOM     38  C   UNL A   1      41.417  25.815  27.931  1.00  0.00     0.031 A 
ATOM     39  C   UNL A   1      42.826  26.121  27.505  1.00  0.00     0.074 A 
ATOM     40  C   UNL A   1      40.684  26.738  28.576  1.00  0.00     0.049 A 
ATOM     41  N   UNL A   1      43.512  27.223  27.655  1.00  0.00    -0.248 NA
ATOM     42  C   UNL A   1      43.559  25.042  26.822  1.00  0.00     0.031 C 
ATOM     43  C   UNL A   1      39.313  26.550  29.046  1.00  0.00     0.029 A 
ATOM     44  N   UNL A   1      41.003  28.015  28.965  1.00  0.00    -0.354 N 
ATOM     45  C   UNL A   1      44.760  26.968  27.101  1.00  0.00     0.074 A 
ATOM     46  C   UNL A   1      44.745  25.602  26.627  1.00  0.00     0.031 C 
ATOM     47  C   UNL A   1      38.916  27.664  29.687  1.00  0.00     0.029 A 
ATOM     48  C   UNL A   1      40.008  28.637  29.679  1.00  0.00     0.049 A 
ATOM     49  H   UNL A   1      41.863  28.444  28.752  1.00  0.00     0.167 HD
ATOM     50  C   UNL A   1      45.819  27.804  26.979  1.00  0.00     0.034 A 
ATOM     51  C   UNL A   1      39.986  29.850  30.267  1.00  0.00     0.034 A 
ATOM     52  C   UNL A   1      45.826  29.168  27.431  1.00  0.00     0.049 A 
ATOM     53  C   UNL A   1      41.179  30.759  30.121  1.00  0.00     0.074 A 
ATOM     54  C   UNL A   1      46.831  30.109  27.311  1.00  0.00     0.029 A 
ATOM     55  N   UNL A   1      44.778  29.782  28.100  1.00  0.00    -0.354 N 
ATOM     56  N   UNL A   1      42.299  30.552  29.472  1.00  0.00    -0.248 NA
ATOM     57  C   UNL A   1      41.091  32.082  30.759  1.00  0.00     0.031 C 
ATOM     58  C   UNL A   1      46.396  31.292  27.917  1.00  0.00     0.029 A 
ATOM     59  C   UNL A   1      45.116  31.089  28.407  1.00  0.00     0.049 A 
ATOM     60  H   UNL A   1      43.922  29.352  28.325  1.00  0.00     0.167 HD
ATOM     61  C   UNL A   1      43.034  31.727  29.591  1.00  0.00     0.074 A 
ATOM     62  C   UNL A   1      42.224  32.649  30.362  1.00  0.00     0.031 C 
ATOM     63  C   UNL A   1      44.272  32.013  29.119  1.00  0.00     0.034 A 
BRANCH  50  64
ATOM     64  C   UNL A   1      47.043  27.276  26.284  1.00  0.00     0.023 A 
ATOM     65  C   UNL A   1      47.206  27.507  24.904  1.00  0.00     0.012 A 
ATOM     66  C   UNL A   1      48.049  26.598  26.998  1.00  0.00     0.148 A 
ATOM     67  C   UNL A   1      48.343  27.052  24.238  1.00  0.00     0.002 A 
ATOM     68  C   UNL A   1      49.196  26.177  26.333  1.00  0.00     0.091 A 
ATOM     69  F   UNL A   1      47.861  26.361  28.304  1.00  0.00    -0.205 F 
ATOM     70  C   UNL A   1      49.341  26.397  24.953  1.00  0.00     0.022 A 
BRANCH  68  71
ATOM     71  S   UNL A   1      50.562  25.380  27.186  1.00  0.00     0.127 S 
ATOM     72  O   UNL A   1      49.880  24.292  27.883  1.00  0.00    -0.237 OA
ATOM     73  O   UNL A   1      51.415  24.953  26.076  1.00  0.00    -0.237 OA
ATOM     74  O   UNL A   1      51.150  26.405  28.037  1.00  0.00    -0.744 OA
ENDBRANCH  68  71
ENDBRANCH  50  64
BRANCH  51  75
ATOM     75  C   UNL A   1      38.766  30.296  30.996  1.00  0.00     0.023 A 
ATOM     76  C   UNL A   1      38.648  30.036  32.375  1.00  0.00     0.012 A 
ATOM     77  C   UNL A   1      37.740  31.004  30.341  1.00  0.00     0.148 A 
ATOM     78  C   UNL A   1      37.520  30.452  33.083  1.00  0.00     0.002 A 
ATOM     79  C   UNL A   1      36.642  31.460  31.063  1.00  0.00     0.091 A 
ATOM     80  F   UNL A   1      37.858  31.222  29.023  1.00  0.00    -0.205 F 
ATOM     81  C   UNL A   1      36.524  31.173  32.432  1.00  0.00     0.022 A 
BRANCH  79  82
ATOM     82  S   UNL A   1      35.384  32.507  30.323  1.00  0.00     0.127 S 
ATOM     83  O   UNL A   1      36.145  33.709  29.999  1.00  0.00    -0.237 OA
ATOM     84  O   UNL A   1      34.965  31.712  29.167  1.00  0.00    -0.237 OA
ATOM     85  O   UNL A   1      34.356  32.657  31.345  1.00  0.00    -0.744 OA
ENDBRANCH  79  82
ENDBRANCH  51  75
BRANCH  63  86
ATOM     86  C   UNL A   1      44.829  33.385  29.393  1.00  0.00     0.023 A 
ATOM     87  C   UNL A   1      45.594  33.604  30.554  1.00  0.00     0.012 A 
ATOM     88  C   UNL A   1      44.674  34.426  28.456  1.00  0.00     0.148 A 
ATOM     89  C   UNL A   1      46.181  34.847  30.791  1.00  0.00     0.002 A 
ATOM     90  C   UNL A   1      45.297  35.650  28.680  1.00  0.00     0.091 A 
ATOM     91  F   UNL A   1      43.924  34.203  27.368  1.00  0.00    -0.205 F 
ATOM     92  C   UNL A   1      46.043  35.865  29.849  1.00  0.00     0.022 A 
BRANCH  90  93
ATOM     93  S   UNL A   1      45.244  36.980  27.473  1.00  0.00     0.127 S 
ATOM     94  O   UNL A   1      46.030  36.419  26.375  1.00  0.00    -0.237 OA
ATOM     95  O   UNL A   1      43.812  37.100  27.197  1.00  0.00    -0.237 OA
ATOM     96  O   UNL A   1      45.826  38.140  28.136  1.00  0.00    -0.744 OA
ENDBRANCH  90  93
ENDBRANCH  63  86
ENDBRANCH  37  38
ENDBRANCH  30  32
ENDBRANCH  29  30
ENDBRANCH  28  29
ENDBRANCH   1  28
TORSDOF 20
ENDMDL
