MODEL 1
REMARK VINA RESULT:     -11.3      0.000      0.000
REMARK SMILES CC(C)C[C@H](NC(=O)[C@H](Cc1ccccc1)NC(=O)CNC(=O)CNC(=O)OCc1ccccc1)C(=O)OCCOCCOC(=O)c1ccc(-c2c3nc(c(-c4cccc(S(=O)(=O)[O-])c4F)c4ccc([nH]4)c(-c4cccc(S(=O)(=O)[O-])c4F)c4nc(c(-c5cccc(S(=O)(=O)[O-])c5F)c5ccc2[nH]5)C=C4)C=C3)cc1
REMARK SMILES IDX 36 1 37 2 5 3 4 4 2 5 1 6 3 7 6 8 7 9 8 11 9 12 17 13 18 14
REMARK SMILES IDX 19 16 20 17 21 18 22 19 23 21 24 22 25 23 26 24 27 26 28 27
REMARK SMILES IDX 29 28 30 29 31 30 35 31 32 32 34 33 33 34 10 35 11 36 12 37
REMARK SMILES IDX 16 38 13 39 15 40 14 41 38 42 39 43 40 44 41 45 42 46 43 47
REMARK SMILES IDX 44 48 45 49 46 50 47 51 48 52 109 53 49 54 108 55 50 56
REMARK SMILES IDX 51 57 52 58 102 59 53 60 107 61 101 62 103 63 54 64 106 65
REMARK SMILES IDX 100 66 99 67 55 69 87 70 67 71 86 72 68 73 71 74 85 75
REMARK SMILES IDX 104 76 69 77 70 78 84 80 105 81 72 82 56 83 57 84 65 85
REMARK SMILES IDX 58 86 60 87 66 88 59 89 61 90 62 91 63 92 64 93 88 94 89 95
REMARK SMILES IDX 97 96 90 97 92 98 98 99 91 100 93 101 94 102 95 103 96 104
REMARK SMILES IDX 73 105 74 106 82 107 75 108 77 109 83 110 76 111 78 112
REMARK SMILES IDX 79 113 80 114 81 115
REMARK H PARENT 6 10 17 15 21 20 25 25 103 68 71 79
REMARK Flexibility Score: inf
ROOT
ATOM      1  C   UNL A   1      33.126  25.519  23.871  1.00  0.00     0.328 C 
ATOM      2  O   UNL A   1      34.278  25.117  24.112  1.00  0.00    -0.250 OA
ENDROOT
BRANCH   1   3
ATOM      3  C   UNL A   1      31.914  24.172  23.710  1.00  0.00     0.192 C 
BRANCH   3   4
ATOM      4  C   UNL A   1      30.732  23.364  24.738  1.00  0.00     0.040 C 
BRANCH   4   5
ATOM      5  C   UNL A   1      30.679  22.714  26.275  1.00  0.00    -0.015 C 
ATOM      6  C   UNL A   1      31.802  23.258  27.195  1.00  0.00     0.007 C 
ATOM      7  C   UNL A   1      29.431  22.926  27.196  1.00  0.00     0.007 C 
ENDBRANCH   4   5
ENDBRANCH   3   4
BRANCH   3   8
ATOM      8  N   UNL A   1      32.878  23.161  23.133  1.00  0.00    -0.341 N 
ATOM      9  C   UNL A   1      32.656  21.812  23.055  1.00  0.00     0.243 C 
ATOM     10  H   UNL A   1      33.735  23.500  22.783  1.00  0.00     0.164 HD
ATOM     11  O   UNL A   1      31.959  21.304  22.187  1.00  0.00    -0.273 OA
BRANCH   9  12
ATOM     12  C   UNL A   1      33.368  21.042  24.147  1.00  0.00     0.175 C 
BRANCH  12  13
ATOM     13  N   UNL A   1      34.101  21.946  24.999  1.00  0.00    -0.342 N 
ATOM     14  C   UNL A   1      35.413  21.845  25.348  1.00  0.00     0.240 C 
ATOM     15  H   UNL A   1      33.603  22.714  25.364  1.00  0.00     0.164 HD
ATOM     16  O   UNL A   1      35.895  22.793  25.980  1.00  0.00    -0.273 OA
BRANCH  14  17
ATOM     17  C   UNL A   1      36.289  20.574  25.050  1.00  0.00     0.216 C 
BRANCH  17  18
ATOM     18  N   UNL A   1      37.744  20.559  24.723  1.00  0.00    -0.346 N 
ATOM     19  C   UNL A   1      38.785  20.159  25.544  1.00  0.00     0.239 C 
ATOM     20  H   UNL A   1      37.992  20.869  23.822  1.00  0.00     0.164 HD
ATOM     21  O   UNL A   1      39.081  18.959  25.430  1.00  0.00    -0.273 OA
BRANCH  19  22
ATOM     22  C   UNL A   1      39.912  21.172  26.177  1.00  0.00     0.219 C 
BRANCH  22  23
ATOM     23  N   UNL A   1      40.350  22.612  25.924  1.00  0.00    -0.312 N 
ATOM     24  C   UNL A   1      41.249  23.423  26.652  1.00  0.00     0.407 C 
ATOM     25  H   UNL A   1      39.945  23.040  25.135  1.00  0.00     0.167 HD
ATOM     26  O   UNL A   1      42.420  23.063  26.723  1.00  0.00    -0.225 OA
BRANCH  24  27
ATOM     27  O   UNL A   1      40.786  24.663  27.324  1.00  0.00    -0.445 OA
BRANCH  27  28
ATOM     28  C   UNL A   1      40.332  26.394  27.172  1.00  0.00     0.270 C 
BRANCH  28  29
ATOM     29  C   UNL A   1      41.265  27.898  27.529  1.00  0.00    -0.011 A 
ATOM     30  C   UNL A   1      42.173  28.967  26.307  1.00  0.00     0.007 A 
ATOM     31  C   UNL A   1      41.794  28.054  29.274  1.00  0.00     0.007 A 
ATOM     32  C   UNL A   1      43.382  30.246  26.838  1.00  0.00     0.000 A 
ATOM     33  C   UNL A   1      43.024  29.303  29.783  1.00  0.00     0.000 A 
ATOM     34  C   UNL A   1      43.725  30.461  28.593  1.00  0.00     0.000 A 
ENDBRANCH  28  29
ENDBRANCH  27  28
ENDBRANCH  24  27
ENDBRANCH  22  23
ENDBRANCH  19  22
ENDBRANCH  17  18
ENDBRANCH  14  17
ENDBRANCH  12  13
BRANCH  12  35
ATOM     35  C   UNL A   1      32.442  20.067  24.889  1.00  0.00     0.070 C 
BRANCH  35  36
ATOM     36  C   UNL A   1      32.852  18.617  24.666  1.00  0.00    -0.045 A 
ATOM     37  C   UNL A   1      32.730  17.690  25.705  1.00  0.00     0.004 A 
ATOM     38  C   UNL A   1      33.368  18.174  23.436  1.00  0.00     0.004 A 
ATOM     39  C   UNL A   1      33.218  16.391  25.552  1.00  0.00     0.000 A 
ATOM     40  C   UNL A   1      33.913  16.899  23.303  1.00  0.00     0.000 A 
ATOM     41  C   UNL A   1      33.845  16.009  24.367  1.00  0.00     0.000 A 
ENDBRANCH  35  36
ENDBRANCH  12  35
ENDBRANCH   9  12
ENDBRANCH   3   8
ENDBRANCH   1   3
BRANCH   1  42
ATOM     42  O   UNL A   1      32.959  26.933  23.732  1.00  0.00    -0.462 OA
BRANCH  42  43
ATOM     43  C   UNL A   1      33.409  28.580  24.132  1.00  0.00     0.261 C 
BRANCH  43  44
ATOM     44  C   UNL A   1      32.726  29.724  25.363  1.00  0.00     0.202 C 
BRANCH  44  45
ATOM     45  O   UNL A   1      33.288  30.536  26.532  1.00  0.00    -0.374 OA
BRANCH  45  46
ATOM     46  C   UNL A   1      34.464  30.492  27.440  1.00  0.00     0.202 C 
BRANCH  46  47
ATOM     47  C   UNL A   1      34.943  31.694  28.416  1.00  0.00     0.261 C 
BRANCH  47  48
ATOM     48  O   UNL A   1      36.329  32.113  28.358  1.00  0.00    -0.460 OA
BRANCH  48  49
ATOM     49  C   UNL A   1      37.323  31.379  29.275  1.00  0.00     0.338 C 
ATOM     50  O   UNL A   1      37.753  30.528  28.438  1.00  0.00    -0.246 OA
BRANCH  49  51
ATOM     51  C   UNL A   1      37.776  31.856  31.318  1.00  0.00     0.060 A 
ATOM     52  C   UNL A   1      37.352  33.112  32.155  1.00  0.00     0.016 A 
ATOM     53  C   UNL A   1      38.701  31.229  32.339  1.00  0.00     0.016 A 
ATOM     54  C   UNL A   1      37.797  33.636  33.396  1.00  0.00     0.010 A 
ATOM     55  C   UNL A   1      39.205  31.776  33.584  1.00  0.00     0.010 A 
ATOM     56  C   UNL A   1      38.806  33.011  34.075  1.00  0.00    -0.014 A 
BRANCH  56  57
ATOM     57  C   UNL A   1      39.431  33.697  35.230  1.00  0.00     0.031 A 
ATOM     58  C   UNL A   1      40.591  34.632  35.004  1.00  0.00     0.074 A 
ATOM     59  C   UNL A   1      38.917  33.551  36.463  1.00  0.00     0.049 A 
ATOM     60  N   UNL A   1      41.288  35.319  35.872  1.00  0.00    -0.248 NA
ATOM     61  C   UNL A   1      41.011  34.833  33.607  1.00  0.00     0.031 C 
ATOM     62  C   UNL A   1      37.752  32.730  36.787  1.00  0.00     0.029 A 
ATOM     63  N   UNL A   1      39.320  34.063  37.672  1.00  0.00    -0.354 N 
ATOM     64  C   UNL A   1      42.257  35.996  35.138  1.00  0.00     0.074 A 
ATOM     65  C   UNL A   1      42.039  35.660  33.747  1.00  0.00     0.031 C 
ATOM     66  C   UNL A   1      37.567  32.746  38.117  1.00  0.00     0.029 A 
ATOM     67  C   UNL A   1      38.623  33.544  38.737  1.00  0.00     0.049 A 
ATOM     68  H   UNL A   1      40.035  34.734  37.766  1.00  0.00     0.167 HD
ATOM     69  C   UNL A   1      43.244  36.810  35.587  1.00  0.00     0.034 A 
ATOM     70  C   UNL A   1      38.847  33.649  40.062  1.00  0.00     0.034 A 
ATOM     71  C   UNL A   1      43.449  37.128  36.977  1.00  0.00     0.049 A 
ATOM     72  C   UNL A   1      39.979  34.514  40.543  1.00  0.00     0.074 A 
ATOM     73  C   UNL A   1      44.395  37.967  37.540  1.00  0.00     0.029 A 
ATOM     74  N   UNL A   1      42.714  36.595  38.027  1.00  0.00    -0.354 N 
ATOM     75  N   UNL A   1      40.836  35.214  39.839  1.00  0.00    -0.248 NA
ATOM     76  C   UNL A   1      40.161  34.630  41.997  1.00  0.00     0.031 C 
ATOM     77  C   UNL A   1      44.265  37.900  38.931  1.00  0.00     0.029 A 
ATOM     78  C   UNL A   1      43.203  37.061  39.234  1.00  0.00     0.049 A 
ATOM     79  H   UNL A   1      41.955  35.975  37.927  1.00  0.00     0.167 HD
ATOM     80  C   UNL A   1      41.642  35.873  40.759  1.00  0.00     0.074 A 
ATOM     81  C   UNL A   1      41.159  35.501  42.074  1.00  0.00     0.031 C 
ATOM     82  C   UNL A   1      42.687  36.708  40.534  1.00  0.00     0.034 A 
BRANCH  69  83
ATOM     83  C   UNL A   1      44.203  37.388  34.573  1.00  0.00     0.023 A 
ATOM     84  C   UNL A   1      45.399  36.711  34.258  1.00  0.00     0.012 A 
ATOM     85  C   UNL A   1      43.893  38.585  33.896  1.00  0.00     0.148 A 
ATOM     86  C   UNL A   1      46.288  37.238  33.316  1.00  0.00     0.002 A 
ATOM     87  C   UNL A   1      44.761  39.080  32.929  1.00  0.00     0.091 A 
ATOM     88  F   UNL A   1      42.759  39.225  34.217  1.00  0.00    -0.205 F 
ATOM     89  C   UNL A   1      45.965  38.416  32.648  1.00  0.00     0.022 A 
BRANCH  87  90
ATOM     90  S   UNL A   1      44.396  40.550  31.960  1.00  0.00     0.127 S 
ATOM     91  O   UNL A   1      44.607  41.611  32.943  1.00  0.00    -0.237 OA
ATOM     92  O   UNL A   1      45.411  40.484  30.908  1.00  0.00    -0.237 OA
ATOM     93  O   UNL A   1      43.026  40.393  31.492  1.00  0.00    -0.744 OA
ENDBRANCH  87  90
ENDBRANCH  69  83
BRANCH  70  94
ATOM     94  C   UNL A   1      37.984  32.884  41.006  1.00  0.00     0.023 A 
ATOM     95  C   UNL A   1      38.298  31.553  41.335  1.00  0.00     0.012 A 
ATOM     96  C   UNL A   1      36.892  33.512  41.642  1.00  0.00     0.148 A 
ATOM     97  C   UNL A   1      37.534  30.857  42.274  1.00  0.00     0.002 A 
ATOM     98  C   UNL A   1      36.177  32.835  42.621  1.00  0.00     0.091 A 
ATOM     99  F   UNL A   1      36.599  34.773  41.298  1.00  0.00    -0.205 F 
ATOM    100  C   UNL A   1      36.486  31.502  42.928  1.00  0.00     0.022 A 
BRANCH  98 101
ATOM    101  S   UNL A   1      34.912  33.636  43.614  1.00  0.00     0.127 S 
ATOM    102  O   UNL A   1      34.021  34.172  42.588  1.00  0.00    -0.237 OA
ATOM    103  O   UNL A   1      34.368  32.510  44.375  1.00  0.00    -0.237 OA
ATOM    104  O   UNL A   1      35.608  34.627  44.424  1.00  0.00    -0.744 OA
ENDBRANCH  98 101
ENDBRANCH  70  94
BRANCH  82 105
ATOM    105  C   UNL A   1      43.366  37.316  41.734  1.00  0.00     0.023 A 
ATOM    106  C   UNL A   1      44.493  36.692  42.301  1.00  0.00     0.012 A 
ATOM    107  C   UNL A   1      42.938  38.563  42.233  1.00  0.00     0.148 A 
ATOM    108  C   UNL A   1      45.171  37.289  43.365  1.00  0.00     0.002 A 
ATOM    109  C   UNL A   1      43.649  39.175  43.258  1.00  0.00     0.091 A 
ATOM    110  F   UNL A   1      41.852  39.130  41.689  1.00  0.00    -0.205 F 
ATOM    111  C   UNL A   1      44.757  38.534  43.833  1.00  0.00     0.022 A 
BRANCH 109 112
ATOM    112  S   UNL A   1      43.252  40.822  43.857  1.00  0.00     0.127 S 
ATOM    113  O   UNL A   1      41.836  40.682  44.195  1.00  0.00    -0.237 OA
ATOM    114  O   UNL A   1      44.144  40.953  45.008  1.00  0.00    -0.237 OA
ATOM    115  O   UNL A   1      43.539  41.734  42.758  1.00  0.00    -0.744 OA
ENDBRANCH 109 112
ENDBRANCH  82 105
ENDBRANCH  56  57
ENDBRANCH  49  51
ENDBRANCH  48  49
ENDBRANCH  47  48
ENDBRANCH  46  47
ENDBRANCH  45  46
ENDBRANCH  44  45
ENDBRANCH  43  44
ENDBRANCH  42  43
ENDBRANCH   1  42
TORSDOF 31
ENDMDL
MODEL 2
REMARK VINA RESULT:     -10.2      2.263      2.543
REMARK SMILES CC(C)C[C@H](NC(=O)[C@H](Cc1ccccc1)NC(=O)CNC(=O)CNC(=O)OCc1ccccc1)C(=O)OCCOCCOC(=O)c1ccc(-c2c3nc(c(-c4cccc(S(=O)(=O)[O-])c4F)c4ccc([nH]4)c(-c4cccc(S(=O)(=O)[O-])c4F)c4nc(c(-c5cccc(S(=O)(=O)[O-])c5F)c5ccc2[nH]5)C=C4)C=C3)cc1
REMARK SMILES IDX 36 1 37 2 5 3 4 4 2 5 1 6 3 7 6 8 7 9 8 11 9 12 17 13 18 14
REMARK SMILES IDX 19 16 20 17 21 18 22 19 23 21 24 22 25 23 26 24 27 26 28 27
REMARK SMILES IDX 29 28 30 29 31 30 35 31 32 32 34 33 33 34 10 35 11 36 12 37
REMARK SMILES IDX 16 38 13 39 15 40 14 41 38 42 39 43 40 44 41 45 42 46 43 47
REMARK SMILES IDX 44 48 45 49 46 50 47 51 48 52 109 53 49 54 108 55 50 56
REMARK SMILES IDX 51 57 52 58 102 59 53 60 107 61 101 62 103 63 54 64 106 65
REMARK SMILES IDX 100 66 99 67 55 69 87 70 67 71 86 72 68 73 71 74 85 75
REMARK SMILES IDX 104 76 69 77 70 78 84 80 105 81 72 82 56 83 57 84 65 85
REMARK SMILES IDX 58 86 60 87 66 88 59 89 61 90 62 91 63 92 64 93 88 94 89 95
REMARK SMILES IDX 97 96 90 97 92 98 98 99 91 100 93 101 94 102 95 103 96 104
REMARK SMILES IDX 73 105 74 106 82 107 75 108 77 109 83 110 76 111 78 112
REMARK SMILES IDX 79 113 80 114 81 115
REMARK H PARENT 6 10 17 15 21 20 25 25 103 68 71 79
REMARK Flexibility Score: inf
ROOT
ATOM      1  C   UNL A   1      33.023  26.045  24.392  1.00  0.00     0.328 C 
ATOM      2  O   UNL A   1      34.211  25.785  24.655  1.00  0.00    -0.250 OA
ENDROOT
BRANCH   1   3
ATOM      3  C   UNL A   1      32.040  24.571  23.976  1.00  0.00     0.192 C 
BRANCH   3   4
ATOM      4  C   UNL A   1      30.917  23.489  24.797  1.00  0.00     0.040 C 
BRANCH   4   5
ATOM      5  C   UNL A   1      30.826  22.695  26.263  1.00  0.00    -0.015 C 
ATOM      6  C   UNL A   1      31.868  23.206  27.290  1.00  0.00     0.007 C 
ATOM      7  C   UNL A   1      29.523  22.753  27.129  1.00  0.00     0.007 C 
ENDBRANCH   4   5
ENDBRANCH   3   4
BRANCH   3   8
ATOM      8  N   UNL A   1      33.184  23.782  23.383  1.00  0.00    -0.341 N 
ATOM      9  C   UNL A   1      33.215  22.420  23.241  1.00  0.00     0.243 C 
ATOM     10  H   UNL A   1      33.971  24.287  23.073  1.00  0.00     0.164 HD
ATOM     11  O   UNL A   1      32.640  21.835  22.333  1.00  0.00    -0.273 OA
BRANCH   9  12
ATOM     12  C   UNL A   1      34.034  21.741  24.318  1.00  0.00     0.175 C 
BRANCH  12  13
ATOM     13  N   UNL A   1      34.599  22.725  25.210  1.00  0.00    -0.342 N 
ATOM     14  C   UNL A   1      35.898  22.803  25.610  1.00  0.00     0.240 C 
ATOM     15  H   UNL A   1      33.984  23.408  25.564  1.00  0.00     0.164 HD
ATOM     16  O   UNL A   1      36.217  23.798  26.272  1.00  0.00    -0.273 OA
BRANCH  14  17
ATOM     17  C   UNL A   1      36.955  21.673  25.332  1.00  0.00     0.216 C 
BRANCH  17  18
ATOM     18  N   UNL A   1      38.433  21.850  25.231  1.00  0.00    -0.346 N 
ATOM     19  C   UNL A   1      39.335  21.981  26.274  1.00  0.00     0.239 C 
ATOM     20  H   UNL A   1      38.809  21.877  24.322  1.00  0.00     0.164 HD
ATOM     21  O   UNL A   1      39.819  20.904  26.657  1.00  0.00    -0.273 OA
BRANCH  19  22
ATOM     22  C   UNL A   1      40.154  23.361  26.629  1.00  0.00     0.219 C 
BRANCH  22  23
ATOM     23  N   UNL A   1      41.597  23.715  26.971  1.00  0.00    -0.312 N 
ATOM     24  C   UNL A   1      42.392  24.794  26.525  1.00  0.00     0.407 C 
ATOM     25  H   UNL A   1      42.042  23.098  27.598  1.00  0.00     0.167 HD
ATOM     26  O   UNL A   1      42.029  25.931  26.810  1.00  0.00    -0.225 OA
BRANCH  24  27
ATOM     27  O   UNL A   1      43.618  24.559  25.723  1.00  0.00    -0.445 OA
BRANCH  27  28
ATOM     28  C   UNL A   1      45.287  25.080  25.310  1.00  0.00     0.270 C 
BRANCH  28  29
ATOM     29  C   UNL A   1      46.607  25.750  26.343  1.00  0.00    -0.011 A 
ATOM     30  C   UNL A   1      48.036  24.814  27.079  1.00  0.00     0.007 A 
ATOM     31  C   UNL A   1      46.190  27.337  27.154  1.00  0.00     0.007 A 
ATOM     32  C   UNL A   1      49.092  25.527  28.405  1.00  0.00     0.000 A 
ATOM     33  C   UNL A   1      47.225  28.016  28.496  1.00  0.00     0.000 A 
ATOM     34  C   UNL A   1      48.723  27.172  29.036  1.00  0.00     0.000 A 
ENDBRANCH  28  29
ENDBRANCH  27  28
ENDBRANCH  24  27
ENDBRANCH  22  23
ENDBRANCH  19  22
ENDBRANCH  17  18
ENDBRANCH  14  17
ENDBRANCH  12  13
BRANCH  12  35
ATOM     35  C   UNL A   1      33.274  20.603  25.015  1.00  0.00     0.070 C 
BRANCH  35  36
ATOM     36  C   UNL A   1      33.580  19.250  24.383  1.00  0.00    -0.045 A 
ATOM     37  C   UNL A   1      32.649  18.654  23.528  1.00  0.00     0.004 A 
ATOM     38  C   UNL A   1      34.779  18.565  24.645  1.00  0.00     0.004 A 
ATOM     39  C   UNL A   1      32.863  17.361  23.044  1.00  0.00     0.000 A 
ATOM     40  C   UNL A   1      34.964  17.252  24.216  1.00  0.00     0.000 A 
ATOM     41  C   UNL A   1      34.000  16.647  23.421  1.00  0.00     0.000 A 
ENDBRANCH  35  36
ENDBRANCH  12  35
ENDBRANCH   9  12
ENDBRANCH   3   8
ENDBRANCH   1   3
BRANCH   1  42
ATOM     42  O   UNL A   1      32.648  27.425  24.429  1.00  0.00    -0.462 OA
BRANCH  42  43
ATOM     43  C   UNL A   1      32.964  29.091  24.874  1.00  0.00     0.261 C 
BRANCH  43  44
ATOM     44  C   UNL A   1      32.209  30.134  26.152  1.00  0.00     0.202 C 
BRANCH  44  45
ATOM     45  O   UNL A   1      32.718  31.150  27.177  1.00  0.00    -0.374 OA
BRANCH  45  46
ATOM     46  C   UNL A   1      33.999  31.489  27.850  1.00  0.00     0.202 C 
BRANCH  46  47
ATOM     47  C   UNL A   1      34.230  32.736  28.858  1.00  0.00     0.261 C 
BRANCH  47  48
ATOM     48  O   UNL A   1      35.473  33.476  28.760  1.00  0.00    -0.460 OA
BRANCH  48  49
ATOM     49  C   UNL A   1      36.710  32.862  29.437  1.00  0.00     0.338 C 
ATOM     50  O   UNL A   1      37.234  32.327  28.412  1.00  0.00    -0.246 OA
BRANCH  49  51
ATOM     51  C   UNL A   1      37.264  33.039  31.502  1.00  0.00     0.060 A 
ATOM     52  C   UNL A   1      37.093  34.263  32.468  1.00  0.00     0.016 A 
ATOM     53  C   UNL A   1      38.063  32.152  32.432  1.00  0.00     0.016 A 
ATOM     54  C   UNL A   1      37.641  34.568  33.740  1.00  0.00     0.010 A 
ATOM     55  C   UNL A   1      38.673  32.468  33.709  1.00  0.00     0.010 A 
ATOM     56  C   UNL A   1      38.520  33.701  34.327  1.00  0.00    -0.014 A 
BRANCH  56  57
ATOM     57  C   UNL A   1      39.274  34.140  35.525  1.00  0.00     0.031 A 
ATOM     58  C   UNL A   1      40.526  34.960  35.359  1.00  0.00     0.074 A 
ATOM     59  C   UNL A   1      38.801  33.877  36.756  1.00  0.00     0.049 A 
ATOM     60  N   UNL A   1      41.339  35.432  36.269  1.00  0.00    -0.248 NA
ATOM     61  C   UNL A   1      40.904  35.310  33.980  1.00  0.00     0.031 C 
ATOM     62  C   UNL A   1      37.562  33.155  37.035  1.00  0.00     0.029 A 
ATOM     63  N   UNL A   1      39.317  34.162  37.996  1.00  0.00    -0.354 N 
ATOM     64  C   UNL A   1      42.349  36.093  35.576  1.00  0.00     0.074 A 
ATOM     65  C   UNL A   1      42.030  35.987  34.168  1.00  0.00     0.031 C 
ATOM     66  C   UNL A   1      37.439  33.001  38.363  1.00  0.00     0.029 A 
ATOM     67  C   UNL A   1      38.610  33.578  39.021  1.00  0.00     0.049 A 
ATOM     68  H   UNL A   1      40.111  34.728  38.138  1.00  0.00     0.167 HD
ATOM     69  C   UNL A   1      43.446  36.718  36.072  1.00  0.00     0.034 A 
ATOM     70  C   UNL A   1      38.904  33.466  40.331  1.00  0.00     0.034 A 
ATOM     71  C   UNL A   1      43.750  36.809  37.477  1.00  0.00     0.049 A 
ATOM     72  C   UNL A   1      40.153  34.120  40.857  1.00  0.00     0.074 A 
ATOM     73  C   UNL A   1      44.814  37.446  38.090  1.00  0.00     0.029 A 
ATOM     74  N   UNL A   1      43.004  36.217  38.487  1.00  0.00    -0.354 N 
ATOM     75  N   UNL A   1      41.055  34.811  40.204  1.00  0.00    -0.248 NA
ATOM     76  C   UNL A   1      40.412  34.005  42.299  1.00  0.00     0.031 C 
ATOM     77  C   UNL A   1      44.739  37.195  39.465  1.00  0.00     0.029 A 
ATOM     78  C   UNL A   1      43.598  36.448  39.714  1.00  0.00     0.049 A 
ATOM     79  H   UNL A   1      42.172  35.708  38.349  1.00  0.00     0.167 HD
ATOM     80  C   UNL A   1      41.975  35.237  41.154  1.00  0.00     0.074 A 
ATOM     81  C   UNL A   1      41.510  34.737  42.434  1.00  0.00     0.031 C 
ATOM     82  C   UNL A   1      43.102  35.972  40.983  1.00  0.00     0.034 A 
BRANCH  69  83
ATOM     83  C   UNL A   1      44.422  37.323  35.090  1.00  0.00     0.023 A 
ATOM     84  C   UNL A   1      45.590  36.624  34.724  1.00  0.00     0.012 A 
ATOM     85  C   UNL A   1      44.153  38.571  34.491  1.00  0.00     0.148 A 
ATOM     86  C   UNL A   1      46.494  37.176  33.812  1.00  0.00     0.002 A 
ATOM     87  C   UNL A   1      45.034  39.094  33.551  1.00  0.00     0.091 A 
ATOM     88  F   UNL A   1      43.046  39.231  34.859  1.00  0.00    -0.205 F 
ATOM     89  C   UNL A   1      46.212  38.405  33.221  1.00  0.00     0.022 A 
BRANCH  87  90
ATOM     90  S   UNL A   1      44.720  40.634  32.680  1.00  0.00     0.127 S 
ATOM     91  O   UNL A   1      43.418  40.369  32.071  1.00  0.00    -0.237 OA
ATOM     92  O   UNL A   1      44.694  41.607  33.774  1.00  0.00    -0.237 OA
ATOM     93  O   UNL A   1      45.825  40.801  31.747  1.00  0.00    -0.744 OA
ENDBRANCH  87  90
ENDBRANCH  69  83
BRANCH  70  94
ATOM     94  C   UNL A   1      37.999  32.676  41.213  1.00  0.00     0.023 A 
ATOM     95  C   UNL A   1      38.276  31.324  41.486  1.00  0.00     0.012 A 
ATOM     96  C   UNL A   1      36.902  33.297  41.847  1.00  0.00     0.148 A 
ATOM     97  C   UNL A   1      37.470  30.601  42.369  1.00  0.00     0.002 A 
ATOM     98  C   UNL A   1      36.144  32.591  42.772  1.00  0.00     0.091 A 
ATOM     99  F   UNL A   1      36.645  34.579  41.557  1.00  0.00    -0.205 F 
ATOM    100  C   UNL A   1      36.417  31.238  43.023  1.00  0.00     0.022 A 
BRANCH  98 101
ATOM    101  S   UNL A   1      34.867  33.371  43.766  1.00  0.00     0.127 S 
ATOM    102  O   UNL A   1      34.168  34.182  42.773  1.00  0.00    -0.237 OA
ATOM    103  O   UNL A   1      34.116  32.213  44.254  1.00  0.00    -0.237 OA
ATOM    104  O   UNL A   1      35.568  34.113  44.805  1.00  0.00    -0.744 OA
ENDBRANCH  98 101
ENDBRANCH  70  94
BRANCH  82 105
ATOM    105  C   UNL A   1      43.902  36.322  42.210  1.00  0.00     0.023 A 
ATOM    106  C   UNL A   1      43.659  37.529  42.893  1.00  0.00     0.012 A 
ATOM    107  C   UNL A   1      44.829  35.400  42.739  1.00  0.00     0.148 A 
ATOM    108  C   UNL A   1      44.344  37.824  44.072  1.00  0.00     0.002 A 
ATOM    109  C   UNL A   1      45.468  35.678  43.940  1.00  0.00     0.091 A 
ATOM    110  F   UNL A   1      45.057  34.265  42.062  1.00  0.00    -0.205 F 
ATOM    111  C   UNL A   1      45.237  36.895  44.601  1.00  0.00     0.022 A 
BRANCH 109 112
ATOM    112  S   UNL A   1      46.556  34.500  44.749  1.00  0.00     0.127 S 
ATOM    113  O   UNL A   1      46.181  34.665  46.154  1.00  0.00    -0.237 OA
ATOM    114  O   UNL A   1      46.136  33.233  44.151  1.00  0.00    -0.237 OA
ATOM    115  O   UNL A   1      47.914  34.907  44.418  1.00  0.00    -0.744 OA
ENDBRANCH 109 112
ENDBRANCH  82 105
ENDBRANCH  56  57
ENDBRANCH  49  51
ENDBRANCH  48  49
ENDBRANCH  47  48
ENDBRANCH  46  47
ENDBRANCH  45  46
ENDBRANCH  44  45
ENDBRANCH  43  44
ENDBRANCH  42  43
ENDBRANCH   1  42
TORSDOF 31
ENDMDL
MODEL 3
REMARK VINA RESULT:     -10.2      2.319      2.836
REMARK SMILES CC(C)C[C@H](NC(=O)[C@H](Cc1ccccc1)NC(=O)CNC(=O)CNC(=O)OCc1ccccc1)C(=O)OCCOCCOC(=O)c1ccc(-c2c3nc(c(-c4cccc(S(=O)(=O)[O-])c4F)c4ccc([nH]4)c(-c4cccc(S(=O)(=O)[O-])c4F)c4nc(c(-c5cccc(S(=O)(=O)[O-])c5F)c5ccc2[nH]5)C=C4)C=C3)cc1
REMARK SMILES IDX 36 1 37 2 5 3 4 4 2 5 1 6 3 7 6 8 7 9 8 11 9 12 17 13 18 14
REMARK SMILES IDX 19 16 20 17 21 18 22 19 23 21 24 22 25 23 26 24 27 26 28 27
REMARK SMILES IDX 29 28 30 29 31 30 35 31 32 32 34 33 33 34 10 35 11 36 12 37
REMARK SMILES IDX 16 38 13 39 15 40 14 41 38 42 39 43 40 44 41 45 42 46 43 47
REMARK SMILES IDX 44 48 45 49 46 50 47 51 48 52 109 53 49 54 108 55 50 56
REMARK SMILES IDX 51 57 52 58 102 59 53 60 107 61 101 62 103 63 54 64 106 65
REMARK SMILES IDX 100 66 99 67 55 69 87 70 67 71 86 72 68 73 71 74 85 75
REMARK SMILES IDX 104 76 69 77 70 78 84 80 105 81 72 82 56 83 57 84 65 85
REMARK SMILES IDX 58 86 60 87 66 88 59 89 61 90 62 91 63 92 64 93 88 94 89 95
REMARK SMILES IDX 97 96 90 97 92 98 98 99 91 100 93 101 94 102 95 103 96 104
REMARK SMILES IDX 73 105 74 106 82 107 75 108 77 109 83 110 76 111 78 112
REMARK SMILES IDX 79 113 80 114 81 115
REMARK H PARENT 6 10 17 15 21 20 25 25 103 68 71 79
REMARK Flexibility Score: inf
ROOT
ATOM      1  C   UNL A   1      33.297  25.853  25.212  1.00  0.00     0.328 C 
ATOM      2  O   UNL A   1      34.324  25.398  25.746  1.00  0.00    -0.250 OA
ENDROOT
BRANCH   1   3
ATOM      3  C   UNL A   1      32.285  24.578  24.397  1.00  0.00     0.192 C 
BRANCH   3   4
ATOM      4  C   UNL A   1      31.211  23.270  24.887  1.00  0.00     0.040 C 
BRANCH   4   5
ATOM      5  C   UNL A   1      30.646  22.612  26.313  1.00  0.00    -0.015 C 
ATOM      6  C   UNL A   1      31.744  22.506  27.402  1.00  0.00     0.007 C 
ATOM      7  C   UNL A   1      29.508  23.314  27.127  1.00  0.00     0.007 C 
ENDBRANCH   4   5
ENDBRANCH   3   4
BRANCH   3   8
ATOM      8  N   UNL A   1      33.389  24.043  23.513  1.00  0.00    -0.341 N 
ATOM      9  C   UNL A   1      33.663  22.717  23.307  1.00  0.00     0.243 C 
ATOM     10  H   UNL A   1      33.955  24.701  23.048  1.00  0.00     0.164 HD
ATOM     11  O   UNL A   1      33.018  22.019  22.537  1.00  0.00    -0.273 OA
BRANCH   9  12
ATOM     12  C   UNL A   1      34.840  22.233  24.127  1.00  0.00     0.175 C 
BRANCH  12  13
ATOM     13  N   UNL A   1      35.741  23.326  24.402  1.00  0.00    -0.342 N 
ATOM     14  C   UNL A   1      37.023  23.225  24.848  1.00  0.00     0.240 C 
ATOM     15  H   UNL A   1      35.394  24.236  24.252  1.00  0.00     0.164 HD
ATOM     16  O   UNL A   1      37.679  24.273  24.897  1.00  0.00    -0.273 OA
BRANCH  14  17
ATOM     17  C   UNL A   1      37.656  21.879  25.356  1.00  0.00     0.216 C 
BRANCH  17  18
ATOM     18  N   UNL A   1      38.806  21.742  26.296  1.00  0.00    -0.346 N 
ATOM     19  C   UNL A   1      39.674  22.739  26.712  1.00  0.00     0.239 C 
ATOM     20  H   UNL A   1      38.966  20.843  26.663  1.00  0.00     0.164 HD
ATOM     21  O   UNL A   1      39.315  23.316  27.751  1.00  0.00    -0.273 OA
BRANCH  19  22
ATOM     22  C   UNL A   1      41.260  22.826  26.293  1.00  0.00     0.219 C 
BRANCH  22  23
ATOM     23  N   UNL A   1      42.180  22.064  25.344  1.00  0.00    -0.312 N 
ATOM     24  C   UNL A   1      43.005  20.944  25.593  1.00  0.00     0.407 C 
ATOM     25  H   UNL A   1      42.203  22.404  24.420  1.00  0.00     0.167 HD
ATOM     26  O   UNL A   1      42.464  19.897  25.935  1.00  0.00    -0.225 OA
BRANCH  24  27
ATOM     27  O   UNL A   1      44.480  21.038  25.461  1.00  0.00    -0.445 OA
BRANCH  27  28
ATOM     28  C   UNL A   1      45.935  22.089  25.383  1.00  0.00     0.270 C 
BRANCH  28  29
ATOM     29  C   UNL A   1      46.161  23.830  25.803  1.00  0.00    -0.011 A 
ATOM     30  C   UNL A   1      47.130  24.518  27.234  1.00  0.00     0.007 A 
ATOM     31  C   UNL A   1      44.898  24.943  25.085  1.00  0.00     0.007 A 
ATOM     32  C   UNL A   1      46.976  26.271  27.765  1.00  0.00     0.000 A 
ATOM     33  C   UNL A   1      44.729  26.671  25.648  1.00  0.00     0.000 A 
ATOM     34  C   UNL A   1      45.833  27.358  26.896  1.00  0.00     0.000 A 
ENDBRANCH  28  29
ENDBRANCH  27  28
ENDBRANCH  24  27
ENDBRANCH  22  23
ENDBRANCH  19  22
ENDBRANCH  17  18
ENDBRANCH  14  17
ENDBRANCH  12  13
BRANCH  12  35
ATOM     35  C   UNL A   1      34.414  21.424  25.361  1.00  0.00     0.070 C 
BRANCH  35  36
ATOM     36  C   UNL A   1      34.097  19.977  25.006  1.00  0.00    -0.045 A 
ATOM     37  C   UNL A   1      32.785  19.506  25.104  1.00  0.00     0.004 A 
ATOM     38  C   UNL A   1      35.097  19.081  24.590  1.00  0.00     0.004 A 
ATOM     39  C   UNL A   1      32.505  18.153  24.903  1.00  0.00     0.000 A 
ATOM     40  C   UNL A   1      34.830  17.720  24.452  1.00  0.00     0.000 A 
ATOM     41  C   UNL A   1      33.532  17.255  24.617  1.00  0.00     0.000 A 
ENDBRANCH  35  36
ENDBRANCH  12  35
ENDBRANCH   9  12
ENDBRANCH   3   8
ENDBRANCH   1   3
BRANCH   1  42
ATOM     42  O   UNL A   1      33.106  27.268  25.296  1.00  0.00    -0.462 OA
BRANCH  42  43
ATOM     43  C   UNL A   1      33.652  28.866  25.769  1.00  0.00     0.261 C 
BRANCH  43  44
ATOM     44  C   UNL A   1      32.916  30.078  26.900  1.00  0.00     0.202 C 
BRANCH  44  45
ATOM     45  O   UNL A   1      33.395  31.350  27.603  1.00  0.00    -0.374 OA
BRANCH  45  46
ATOM     46  C   UNL A   1      34.672  32.081  27.810  1.00  0.00     0.202 C 
BRANCH  46  47
ATOM     47  C   UNL A   1      35.636  31.940  29.105  1.00  0.00     0.261 C 
BRANCH  47  48
ATOM     48  O   UNL A   1      36.992  32.444  29.008  1.00  0.00    -0.460 OA
BRANCH  48  49
ATOM     49  C   UNL A   1      38.029  31.858  29.981  1.00  0.00     0.338 C 
ATOM     50  O   UNL A   1      38.556  31.009  29.199  1.00  0.00    -0.246 OA
BRANCH  49  51
ATOM     51  C   UNL A   1      38.390  32.483  32.001  1.00  0.00     0.060 A 
ATOM     52  C   UNL A   1      38.042  33.849  32.689  1.00  0.00     0.016 A 
ATOM     53  C   UNL A   1      39.175  31.872  33.142  1.00  0.00     0.016 A 
ATOM     54  C   UNL A   1      38.455  34.445  33.908  1.00  0.00     0.010 A 
ATOM     55  C   UNL A   1      39.648  32.485  34.368  1.00  0.00     0.010 A 
ATOM     56  C   UNL A   1      39.346  33.794  34.715  1.00  0.00    -0.014 A 
BRANCH  56  57
ATOM     57  C   UNL A   1      39.959  34.525  35.849  1.00  0.00     0.031 A 
ATOM     58  C   UNL A   1      41.097  35.479  35.594  1.00  0.00     0.074 A 
ATOM     59  C   UNL A   1      39.452  34.401  37.088  1.00  0.00     0.049 A 
ATOM     60  N   UNL A   1      41.781  36.204  36.441  1.00  0.00    -0.248 NA
ATOM     61  C   UNL A   1      41.509  35.651  34.191  1.00  0.00     0.031 C 
ATOM     62  C   UNL A   1      38.306  33.564  37.438  1.00  0.00     0.029 A 
ATOM     63  N   UNL A   1      39.847  34.955  38.280  1.00  0.00    -0.354 N 
ATOM     64  C   UNL A   1      42.733  36.881  35.685  1.00  0.00     0.074 A 
ATOM     65  C   UNL A   1      42.519  36.503  34.304  1.00  0.00     0.031 C 
ATOM     66  C   UNL A   1      38.124  33.612  38.767  1.00  0.00     0.029 A 
ATOM     67  C   UNL A   1      39.164  34.450  39.362  1.00  0.00     0.049 A 
ATOM     68  H   UNL A   1      40.547  35.644  38.354  1.00  0.00     0.167 HD
ATOM     69  C   UNL A   1      43.704  37.729  36.109  1.00  0.00     0.034 A 
ATOM     70  C   UNL A   1      39.389  34.595  40.682  1.00  0.00     0.034 A 
ATOM     71  C   UNL A   1      43.906  38.089  37.489  1.00  0.00     0.049 A 
ATOM     72  C   UNL A   1      40.504  35.498  41.137  1.00  0.00     0.074 A 
ATOM     73  C   UNL A   1      44.834  38.964  38.025  1.00  0.00     0.029 A 
ATOM     74  N   UNL A   1      43.185  37.569  38.555  1.00  0.00    -0.354 N 
ATOM     75  N   UNL A   1      41.343  36.197  40.411  1.00  0.00    -0.248 NA
ATOM     76  C   UNL A   1      40.687  35.657  42.586  1.00  0.00     0.031 C 
ATOM     77  C   UNL A   1      44.710  38.931  39.419  1.00  0.00     0.029 A 
ATOM     78  C   UNL A   1      43.667  38.079  39.747  1.00  0.00     0.049 A 
ATOM     79  H   UNL A   1      42.440  36.930  38.475  1.00  0.00     0.167 HD
ATOM     80  C   UNL A   1      42.137  36.899  41.309  1.00  0.00     0.074 A 
ATOM     81  C   UNL A   1      41.666  36.552  42.636  1.00  0.00     0.031 C 
ATOM     82  C   UNL A   1      43.163  37.750  41.059  1.00  0.00     0.034 A 
BRANCH  69  83
ATOM     83  C   UNL A   1      44.647  38.300  35.076  1.00  0.00     0.023 A 
ATOM     84  C   UNL A   1      44.361  39.532  34.454  1.00  0.00     0.012 A 
ATOM     85  C   UNL A   1      45.847  37.632  34.757  1.00  0.00     0.148 A 
ATOM     86  C   UNL A   1      45.233  40.068  33.502  1.00  0.00     0.002 A 
ATOM     87  C   UNL A   1      46.731  38.192  33.841  1.00  0.00     0.091 A 
ATOM     88  F   UNL A   1      46.099  36.454  35.346  1.00  0.00    -0.205 F 
ATOM     89  C   UNL A   1      46.419  39.403  33.202  1.00  0.00     0.022 A 
BRANCH  87  90
ATOM     90  S   UNL A   1      48.318  37.449  33.446  1.00  0.00     0.127 S 
ATOM     91  O   UNL A   1      48.934  37.348  34.768  1.00  0.00    -0.237 OA
ATOM     92  O   UNL A   1      47.921  36.167  32.861  1.00  0.00    -0.237 OA
ATOM     93  O   UNL A   1      48.971  38.362  32.519  1.00  0.00    -0.744 OA
ENDBRANCH  87  90
ENDBRANCH  69  83
BRANCH  70  94
ATOM     94  C   UNL A   1      38.547  33.838  41.650  1.00  0.00     0.023 A 
ATOM     95  C   UNL A   1      37.314  34.363  42.081  1.00  0.00     0.012 A 
ATOM     96  C   UNL A   1      38.936  32.552  42.080  1.00  0.00     0.148 A 
ATOM     97  C   UNL A   1      36.489  33.624  42.931  1.00  0.00     0.002 A 
ATOM     98  C   UNL A   1      38.082  31.797  42.873  1.00  0.00     0.091 A 
ATOM     99  F   UNL A   1      40.122  32.080  41.674  1.00  0.00    -0.205 F 
ATOM    100  C   UNL A   1      36.864  32.337  43.313  1.00  0.00     0.022 A 
BRANCH  98 101
ATOM    101  S   UNL A   1      38.419  30.082  43.288  1.00  0.00     0.127 S 
ATOM    102  O   UNL A   1      37.337  29.781  44.222  1.00  0.00    -0.237 OA
ATOM    103  O   UNL A   1      38.305  29.428  41.983  1.00  0.00    -0.237 OA
ATOM    104  O   UNL A   1      39.761  30.064  43.852  1.00  0.00    -0.744 OA
ENDBRANCH  98 101
ENDBRANCH  70  94
BRANCH  82 105
ATOM    105  C   UNL A   1      43.832  38.405  42.239  1.00  0.00     0.023 A 
ATOM    106  C   UNL A   1      44.968  37.816  42.825  1.00  0.00     0.012 A 
ATOM    107  C   UNL A   1      43.384  39.660  42.700  1.00  0.00     0.148 A 
ATOM    108  C   UNL A   1      45.636  38.456  43.870  1.00  0.00     0.002 A 
ATOM    109  C   UNL A   1      44.085  40.314  43.705  1.00  0.00     0.091 A 
ATOM    110  F   UNL A   1      42.289  40.193  42.138  1.00  0.00    -0.205 F 
ATOM    111  C   UNL A   1      45.203  39.709  44.300  1.00  0.00     0.022 A 
BRANCH 109 112
ATOM    112  S   UNL A   1      43.662  41.972  44.253  1.00  0.00     0.127 S 
ATOM    113  O   UNL A   1      44.667  42.208  45.290  1.00  0.00    -0.237 OA
ATOM    114  O   UNL A   1      43.850  42.757  43.033  1.00  0.00    -0.237 OA
ATOM    115  O   UNL A   1      42.287  41.905  44.727  1.00  0.00    -0.744 OA
ENDBRANCH 109 112
ENDBRANCH  82 105
ENDBRANCH  56  57
ENDBRANCH  49  51
ENDBRANCH  48  49
ENDBRANCH  47  48
ENDBRANCH  46  47
ENDBRANCH  45  46
ENDBRANCH  44  45
ENDBRANCH  43  44
ENDBRANCH  42  43
ENDBRANCH   1  42
TORSDOF 31
ENDMDL
