MODEL 1
REMARK VINA RESULT:     -11.1      0.000      0.000
REMARK SMILES Cc1ccc([C@H](C)NC(=O)[C@H]2[C@@H]3CC[C@@H](C3)[C@@H]2C(=O)OCCOCCOC(=O)c2ccc(-c3c4nc(c(-c5cccc(S(=O)(=O)[O-])c5F)c5ccc([nH]5)c(-c5cccc(S(=O)(=O)[O-])c5F)c5nc(c(-c6cccc(S(=O)(=O)[O-])c6F)c6ccc3[nH]6)C=C5)C=C4)cc2)cc1
REMARK SMILES IDX 23 1 22 2 21 3 20 4 18 5 19 6 17 7 11 8 12 9 13 10 16 11
REMARK SMILES IDX 15 12 14 13 9 14 8 15 10 17 6 18 7 19 5 20 1 21 2 22 3 23
REMARK SMILES IDX 93 24 4 25 92 26 24 27 25 28 26 29 27 30 28 31 29 32 30 33
REMARK SMILES IDX 91 34 31 35 90 36 32 37 33 38 34 39 84 40 35 41 89 42 83 43
REMARK SMILES IDX 85 44 36 45 88 46 82 47 81 48 37 50 69 51 49 52 68 53 50 54
REMARK SMILES IDX 53 55 67 56 86 57 51 58 52 59 66 61 87 62 54 63 38 64 39 65
REMARK SMILES IDX 47 66 40 67 42 68 48 69 41 70 43 71 44 72 45 73 46 74 70 75
REMARK SMILES IDX 71 76 79 77 72 78 74 79 80 80 73 81 75 82 76 83 77 84 78 85
REMARK SMILES IDX 55 86 56 87 64 88 57 89 59 90 65 91 58 92 60 93 61 94 62 95
REMARK SMILES IDX 63 96
REMARK H PARENT 8 16 85 49 53 60
REMARK Flexibility Score: inf
ROOT
ATOM      1  O   UNL A   1      33.298  30.444  26.582  1.00  0.00    -0.374 OA
ENDROOT
BRANCH   1   2
ATOM      2  C   UNL A   1      32.921  29.185  27.106  1.00  0.00     0.202 C 
BRANCH   2   3
ATOM      3  C   UNL A   1      34.073  28.349  26.688  1.00  0.00     0.261 C 
BRANCH   3   4
ATOM      4  O   UNL A   1      33.676  27.209  25.881  1.00  0.00    -0.463 OA
BRANCH   4   5
ATOM      5  C   UNL A   1      33.561  27.274  24.522  1.00  0.00     0.310 C 
ATOM      6  O   UNL A   1      34.027  28.129  23.788  1.00  0.00    -0.252 OA
BRANCH   5   7
ATOM      7  C   UNL A   1      32.666  26.177  23.983  1.00  0.00     0.115 C 
ATOM      8  C   UNL A   1      32.366  26.285  22.482  1.00  0.00     0.096 C 
ATOM      9  C   UNL A   1      30.847  26.542  22.455  1.00  0.00     0.002 C 
ATOM     10  C   UNL A   1      30.585  27.940  23.082  1.00  0.00     0.005 C 
ATOM     11  C   UNL A   1      30.341  25.618  23.553  1.00  0.00     0.009 C 
ATOM     12  C   UNL A   1      31.243  26.236  24.624  1.00  0.00     0.004 C 
ATOM     13  C   UNL A   1      30.699  27.674  24.592  1.00  0.00     0.005 C 
BRANCH   8  14
ATOM     14  C   UNL A   1      32.853  25.179  21.553  1.00  0.00     0.224 C 
ATOM     15  N   UNL A   1      32.940  23.861  21.820  1.00  0.00    -0.349 N 
ATOM     16  H   UNL A   1      33.149  23.341  21.010  1.00  0.00     0.164 HD
ATOM     17  O   UNL A   1      33.137  25.487  20.385  1.00  0.00    -0.275 OA
BRANCH  15  18
ATOM     18  C   UNL A   1      32.811  22.999  22.994  1.00  0.00     0.109 C 
ATOM     19  C   UNL A   1      32.231  21.639  22.602  1.00  0.00     0.036 C 
BRANCH  18  20
ATOM     20  C   UNL A   1      34.156  22.768  23.655  1.00  0.00    -0.026 A 
ATOM     21  C   UNL A   1      37.996  21.978  25.492  1.00  0.00     0.044 C 
ATOM     22  C   UNL A   1      36.648  22.189  24.858  1.00  0.00    -0.051 A 
ATOM     23  C   UNL A   1      35.444  21.962  25.544  1.00  0.00     0.004 A 
ATOM     24  C   UNL A   1      36.591  22.710  23.569  1.00  0.00     0.004 A 
ATOM     25  C   UNL A   1      34.212  22.270  24.962  1.00  0.00     0.006 A 
ATOM     26  C   UNL A   1      35.363  22.968  22.965  1.00  0.00     0.006 A 
ENDBRANCH  18  20
ENDBRANCH  15  18
ENDBRANCH   8  14
ENDBRANCH   5   7
ENDBRANCH   4   5
ENDBRANCH   3   4
ENDBRANCH   2   3
ENDBRANCH   1   2
BRANCH   1  27
ATOM     27  C   UNL A   1      33.280  31.524  27.466  1.00  0.00     0.202 C 
BRANCH  27  28
ATOM     28  C   UNL A   1      34.689  31.899  27.902  1.00  0.00     0.261 C 
BRANCH  28  29
ATOM     29  O   UNL A   1      34.662  32.396  29.258  1.00  0.00    -0.460 OA
BRANCH  29  30
ATOM     30  C   UNL A   1      35.370  33.545  29.469  1.00  0.00     0.338 C 
ATOM     31  O   UNL A   1      34.999  34.648  29.073  1.00  0.00    -0.246 OA
BRANCH  30  32
ATOM     32  C   UNL A   1      36.703  33.234  30.062  1.00  0.00     0.060 A 
ATOM     33  C   UNL A   1      37.888  33.733  29.488  1.00  0.00     0.016 A 
ATOM     34  C   UNL A   1      36.769  32.194  30.985  1.00  0.00     0.016 A 
ATOM     35  C   UNL A   1      39.116  33.090  29.719  1.00  0.00     0.010 A 
ATOM     36  C   UNL A   1      37.946  31.489  31.096  1.00  0.00     0.010 A 
ATOM     37  C   UNL A   1      39.124  31.915  30.465  1.00  0.00    -0.014 A 
BRANCH  37  38
ATOM     38  C   UNL A   1      40.288  31.066  30.730  1.00  0.00     0.031 A 
ATOM     39  C   UNL A   1      40.309  29.832  29.913  1.00  0.00     0.074 A 
ATOM     40  C   UNL A   1      41.312  31.453  31.535  1.00  0.00     0.049 A 
ATOM     41  N   UNL A   1      40.623  28.664  30.358  1.00  0.00    -0.248 NA
ATOM     42  C   UNL A   1      39.801  29.782  28.532  1.00  0.00     0.031 C 
ATOM     43  C   UNL A   1      42.690  30.970  31.588  1.00  0.00     0.029 A 
ATOM     44  N   UNL A   1      41.322  32.477  32.489  1.00  0.00    -0.354 N 
ATOM     45  C   UNL A   1      40.770  27.875  29.231  1.00  0.00     0.074 A 
ATOM     46  C   UNL A   1      39.995  28.506  28.206  1.00  0.00     0.031 C 
ATOM     47  C   UNL A   1      43.325  31.531  32.638  1.00  0.00     0.029 A 
ATOM     48  C   UNL A   1      42.367  32.329  33.390  1.00  0.00     0.049 A 
ATOM     49  H   UNL A   1      40.668  33.212  32.518  1.00  0.00     0.167 HD
ATOM     50  C   UNL A   1      41.836  27.034  29.139  1.00  0.00     0.034 A 
ATOM     51  C   UNL A   1      42.153  32.316  34.733  1.00  0.00     0.034 A 
ATOM     52  C   UNL A   1      42.710  27.230  30.312  1.00  0.00     0.049 A 
ATOM     53  C   UNL A   1      42.384  30.883  35.112  1.00  0.00     0.074 A 
ATOM     54  C   UNL A   1      43.983  27.754  30.373  1.00  0.00     0.029 A 
ATOM     55  N   UNL A   1      42.231  27.211  31.644  1.00  0.00    -0.354 N 
ATOM     56  N   UNL A   1      42.115  29.875  34.318  1.00  0.00    -0.248 NA
ATOM     57  C   UNL A   1      43.223  30.540  36.250  1.00  0.00     0.031 C 
ATOM     58  C   UNL A   1      44.291  27.920  31.726  1.00  0.00     0.029 A 
ATOM     59  C   UNL A   1      43.177  27.723  32.521  1.00  0.00     0.049 A 
ATOM     60  H   UNL A   1      41.345  26.878  31.912  1.00  0.00     0.167 HD
ATOM     61  C   UNL A   1      42.890  28.820  34.697  1.00  0.00     0.074 A 
ATOM     62  C   UNL A   1      43.544  29.278  35.927  1.00  0.00     0.031 C 
ATOM     63  C   UNL A   1      43.085  27.671  33.981  1.00  0.00     0.034 A 
BRANCH  50  64
ATOM     64  C   UNL A   1      42.356  26.437  27.811  1.00  0.00     0.023 A 
ATOM     65  C   UNL A   1      42.725  27.340  26.784  1.00  0.00     0.012 A 
ATOM     66  C   UNL A   1      42.500  25.067  27.474  1.00  0.00     0.148 A 
ATOM     67  C   UNL A   1      43.039  26.945  25.479  1.00  0.00     0.002 A 
ATOM     68  C   UNL A   1      42.808  24.662  26.162  1.00  0.00     0.091 A 
ATOM     69  F   UNL A   1      42.436  24.139  28.434  1.00  0.00    -0.205 F 
ATOM     70  C   UNL A   1      43.050  25.602  25.157  1.00  0.00     0.022 A 
BRANCH  68  71
ATOM     71  S   UNL A   1      42.910  22.932  25.663  1.00  0.00     0.127 S 
ATOM     72  O   UNL A   1      43.167  23.036  24.224  1.00  0.00    -0.237 OA
ATOM     73  O   UNL A   1      44.048  22.453  26.446  1.00  0.00    -0.237 OA
ATOM     74  O   UNL A   1      41.621  22.341  25.995  1.00  0.00    -0.744 OA
ENDBRANCH  68  71
ENDBRANCH  50  64
BRANCH  51  75
ATOM     75  C   UNL A   1      41.137  33.280  35.261  1.00  0.00     0.023 A 
ATOM     76  C   UNL A   1      41.463  34.666  35.231  1.00  0.00     0.012 A 
ATOM     77  C   UNL A   1      39.794  32.925  35.447  1.00  0.00     0.148 A 
ATOM     78  C   UNL A   1      40.469  35.659  35.269  1.00  0.00     0.002 A 
ATOM     79  C   UNL A   1      38.803  33.910  35.389  1.00  0.00     0.091 A 
ATOM     80  F   UNL A   1      39.491  31.635  35.636  1.00  0.00    -0.205 F 
ATOM     81  C   UNL A   1      39.132  35.275  35.294  1.00  0.00     0.022 A 
BRANCH  79  82
ATOM     82  S   UNL A   1      37.075  33.481  35.114  1.00  0.00     0.127 S 
ATOM     83  O   UNL A   1      36.525  33.565  36.464  1.00  0.00    -0.237 OA
ATOM     84  O   UNL A   1      36.646  34.548  34.207  1.00  0.00    -0.237 OA
ATOM     85  O   UNL A   1      37.091  32.157  34.514  1.00  0.00    -0.744 OA
ENDBRANCH  79  82
ENDBRANCH  51  75
BRANCH  63  86
ATOM     86  C   UNL A   1      43.502  26.410  34.684  1.00  0.00     0.023 A 
ATOM     87  C   UNL A   1      42.560  25.404  34.983  1.00  0.00     0.012 A 
ATOM     88  C   UNL A   1      44.861  26.113  34.920  1.00  0.00     0.148 A 
ATOM     89  C   UNL A   1      42.920  24.223  35.618  1.00  0.00     0.002 A 
ATOM     90  C   UNL A   1      45.229  24.891  35.451  1.00  0.00     0.091 A 
ATOM     91  F   UNL A   1      45.813  26.997  34.603  1.00  0.00    -0.205 F 
ATOM     92  C   UNL A   1      44.260  23.963  35.844  1.00  0.00     0.022 A 
BRANCH  90  93
ATOM     93  S   UNL A   1      46.945  24.387  35.558  1.00  0.00     0.127 S 
ATOM     94  O   UNL A   1      46.866  23.293  36.526  1.00  0.00    -0.237 OA
ATOM     95  O   UNL A   1      47.210  23.973  34.181  1.00  0.00    -0.237 OA
ATOM     96  O   UNL A   1      47.696  25.547  36.013  1.00  0.00    -0.744 OA
ENDBRANCH  90  93
ENDBRANCH  63  86
ENDBRANCH  37  38
ENDBRANCH  30  32
ENDBRANCH  29  30
ENDBRANCH  28  29
ENDBRANCH  27  28
ENDBRANCH   1  27
TORSDOF 20
ENDMDL
MODEL 2
REMARK VINA RESULT:     -11.1      5.271      9.786
REMARK SMILES Cc1ccc([C@H](C)NC(=O)[C@H]2[C@@H]3CC[C@@H](C3)[C@@H]2C(=O)OCCOCCOC(=O)c2ccc(-c3c4nc(c(-c5cccc(S(=O)(=O)[O-])c5F)c5ccc([nH]5)c(-c5cccc(S(=O)(=O)[O-])c5F)c5nc(c(-c6cccc(S(=O)(=O)[O-])c6F)c6ccc3[nH]6)C=C5)C=C4)cc2)cc1
REMARK SMILES IDX 23 1 22 2 21 3 20 4 18 5 19 6 17 7 11 8 12 9 13 10 16 11
REMARK SMILES IDX 15 12 14 13 9 14 8 15 10 17 6 18 7 19 5 20 1 21 2 22 3 23
REMARK SMILES IDX 93 24 4 25 92 26 24 27 25 28 26 29 27 30 28 31 29 32 30 33
REMARK SMILES IDX 91 34 31 35 90 36 32 37 33 38 34 39 84 40 35 41 89 42 83 43
REMARK SMILES IDX 85 44 36 45 88 46 82 47 81 48 37 50 69 51 49 52 68 53 50 54
REMARK SMILES IDX 53 55 67 56 86 57 51 58 52 59 66 61 87 62 54 63 38 64 39 65
REMARK SMILES IDX 47 66 40 67 42 68 48 69 41 70 43 71 44 72 45 73 46 74 70 75
REMARK SMILES IDX 71 76 79 77 72 78 74 79 80 80 73 81 75 82 76 83 77 84 78 85
REMARK SMILES IDX 55 86 56 87 64 88 57 89 59 90 65 91 58 92 60 93 61 94 62 95
REMARK SMILES IDX 63 96
REMARK H PARENT 8 16 85 49 53 60
REMARK Flexibility Score: inf
ROOT
ATOM      1  O   UNL A   1      32.631  29.134  27.540  1.00  0.00    -0.374 OA
ENDROOT
BRANCH   1   2
ATOM      2  C   UNL A   1      31.762  28.222  26.895  1.00  0.00     0.202 C 
BRANCH   2   3
ATOM      3  C   UNL A   1      32.627  27.020  26.811  1.00  0.00     0.261 C 
BRANCH   3   4
ATOM      4  O   UNL A   1      31.870  25.781  26.850  1.00  0.00    -0.463 OA
BRANCH   4   5
ATOM      5  C   UNL A   1      31.782  24.939  25.780  1.00  0.00     0.310 C 
ATOM      6  O   UNL A   1      30.857  24.192  25.509  1.00  0.00    -0.252 OA
BRANCH   5   7
ATOM      7  C   UNL A   1      33.057  24.939  24.961  1.00  0.00     0.115 C 
ATOM      8  C   UNL A   1      32.942  24.220  23.611  1.00  0.00     0.096 C 
ATOM      9  C   UNL A   1      33.907  23.029  23.776  1.00  0.00     0.002 C 
ATOM     10  C   UNL A   1      33.317  22.081  24.858  1.00  0.00     0.005 C 
ATOM     11  C   UNL A   1      35.073  23.656  24.524  1.00  0.00     0.009 C 
ATOM     12  C   UNL A   1      34.196  24.146  25.678  1.00  0.00     0.004 C 
ATOM     13  C   UNL A   1      33.674  22.788  26.175  1.00  0.00     0.005 C 
BRANCH   8  14
ATOM     14  C   UNL A   1      33.122  25.026  22.329  1.00  0.00     0.224 C 
ATOM     15  N   UNL A   1      33.158  26.367  22.201  1.00  0.00    -0.349 N 
ATOM     16  H   UNL A   1      33.426  26.636  21.292  1.00  0.00     0.164 HD
ATOM     17  O   UNL A   1      33.336  24.402  21.278  1.00  0.00    -0.275 OA
BRANCH  15  18
ATOM     18  C   UNL A   1      32.904  27.528  23.052  1.00  0.00     0.109 C 
ATOM     19  C   UNL A   1      33.819  28.690  22.666  1.00  0.00     0.036 C 
BRANCH  18  20
ATOM     20  C   UNL A   1      31.466  27.994  22.926  1.00  0.00    -0.026 A 
ATOM     21  C   UNL A   1      27.376  29.395  22.688  1.00  0.00     0.044 C 
ATOM     22  C   UNL A   1      28.793  28.912  22.836  1.00  0.00    -0.051 A 
ATOM     23  C   UNL A   1      29.117  27.687  23.441  1.00  0.00     0.004 A 
ATOM     24  C   UNL A   1      29.818  29.669  22.276  1.00  0.00     0.004 A 
ATOM     25  C   UNL A   1      30.433  27.219  23.465  1.00  0.00     0.006 A 
ATOM     26  C   UNL A   1      31.138  29.232  22.346  1.00  0.00     0.006 A 
ENDBRANCH  18  20
ENDBRANCH  15  18
ENDBRANCH   8  14
ENDBRANCH   5   7
ENDBRANCH   4   5
ENDBRANCH   3   4
ENDBRANCH   2   3
ENDBRANCH   1   2
BRANCH   1  27
ATOM     27  C   UNL A   1      33.219  30.116  26.741  1.00  0.00     0.202 C 
BRANCH  27  28
ATOM     28  C   UNL A   1      33.469  31.391  27.535  1.00  0.00     0.261 C 
BRANCH  28  29
ATOM     29  O   UNL A   1      34.889  31.584  27.710  1.00  0.00    -0.460 OA
BRANCH  29  30
ATOM     30  C   UNL A   1      35.262  32.847  28.071  1.00  0.00     0.338 C 
ATOM     31  O   UNL A   1      34.647  33.856  27.733  1.00  0.00    -0.246 OA
BRANCH  30  32
ATOM     32  C   UNL A   1      36.590  32.823  28.751  1.00  0.00     0.060 A 
ATOM     33  C   UNL A   1      37.010  31.696  29.485  1.00  0.00     0.016 A 
ATOM     34  C   UNL A   1      37.253  34.036  28.913  1.00  0.00     0.016 A 
ATOM     35  C   UNL A   1      37.984  31.824  30.490  1.00  0.00     0.010 A 
ATOM     36  C   UNL A   1      38.102  34.183  29.986  1.00  0.00     0.010 A 
ATOM     37  C   UNL A   1      38.471  33.093  30.789  1.00  0.00    -0.014 A 
BRANCH  37  38
ATOM     38  C   UNL A   1      39.416  33.428  31.858  1.00  0.00     0.031 A 
ATOM     39  C   UNL A   1      38.754  33.792  33.130  1.00  0.00     0.074 A 
ATOM     40  C   UNL A   1      40.760  33.271  31.726  1.00  0.00     0.049 A 
ATOM     41  N   UNL A   1      39.112  34.770  33.888  1.00  0.00    -0.248 NA
ATOM     42  C   UNL A   1      37.497  33.171  33.581  1.00  0.00     0.031 C 
ATOM     43  C   UNL A   1      41.788  33.141  32.755  1.00  0.00     0.029 A 
ATOM     44  N   UNL A   1      41.502  33.127  30.548  1.00  0.00    -0.354 N 
ATOM     45  C   UNL A   1      38.416  34.587  35.069  1.00  0.00     0.074 A 
ATOM     46  C   UNL A   1      37.268  33.801  34.730  1.00  0.00     0.031 C 
ATOM     47  C   UNL A   1      43.008  33.153  32.178  1.00  0.00     0.029 A 
ATOM     48  C   UNL A   1      42.848  33.399  30.752  1.00  0.00     0.049 A 
ATOM     49  H   UNL A   1      41.117  32.865  29.681  1.00  0.00     0.167 HD
ATOM     50  C   UNL A   1      39.065  34.734  36.257  1.00  0.00     0.034 A 
ATOM     51  C   UNL A   1      43.516  34.303  29.989  1.00  0.00     0.034 A 
ATOM     52  C   UNL A   1      40.495  34.991  35.998  1.00  0.00     0.049 A 
ATOM     53  C   UNL A   1      43.732  35.459  30.920  1.00  0.00     0.074 A 
ATOM     54  C   UNL A   1      41.586  34.194  36.268  1.00  0.00     0.029 A 
ATOM     55  N   UNL A   1      40.951  35.989  35.106  1.00  0.00    -0.354 N 
ATOM     56  N   UNL A   1      42.892  35.784  31.872  1.00  0.00    -0.248 NA
ATOM     57  C   UNL A   1      45.039  36.087  31.036  1.00  0.00     0.031 C 
ATOM     58  C   UNL A   1      42.688  34.788  35.647  1.00  0.00     0.029 A 
ATOM     59  C   UNL A   1      42.296  35.818  34.811  1.00  0.00     0.049 A 
ATOM     60  H   UNL A   1      40.388  36.711  34.743  1.00  0.00     0.167 HD
ATOM     61  C   UNL A   1      43.579  36.475  32.825  1.00  0.00     0.074 A 
ATOM     62  C   UNL A   1      44.911  36.662  32.241  1.00  0.00     0.031 C 
ATOM     63  C   UNL A   1      43.126  36.777  34.080  1.00  0.00     0.034 A 
BRANCH  50  64
ATOM     64  C   UNL A   1      38.557  34.156  37.598  1.00  0.00     0.023 A 
ATOM     65  C   UNL A   1      38.846  34.884  38.778  1.00  0.00     0.012 A 
ATOM     66  C   UNL A   1      37.833  32.955  37.806  1.00  0.00     0.148 A 
ATOM     67  C   UNL A   1      38.608  34.396  40.068  1.00  0.00     0.002 A 
ATOM     68  C   UNL A   1      37.596  32.455  39.099  1.00  0.00     0.091 A 
ATOM     69  F   UNL A   1      37.280  32.327  36.763  1.00  0.00    -0.205 F 
ATOM     70  C   UNL A   1      38.009  33.162  40.231  1.00  0.00     0.022 A 
BRANCH  68  71
ATOM     71  S   UNL A   1      36.763  30.886  39.412  1.00  0.00     0.127 S 
ATOM     72  O   UNL A   1      37.423  30.419  40.634  1.00  0.00    -0.237 OA
ATOM     73  O   UNL A   1      35.375  31.307  39.598  1.00  0.00    -0.237 OA
ATOM     74  O   UNL A   1      37.020  30.055  38.244  1.00  0.00    -0.744 OA
ENDBRANCH  68  71
ENDBRANCH  50  64
BRANCH  51  75
ATOM     75  C   UNL A   1      43.194  34.317  28.527  1.00  0.00     0.023 A 
ATOM     76  C   UNL A   1      42.442  35.418  28.026  1.00  0.00     0.012 A 
ATOM     77  C   UNL A   1      43.875  33.511  27.603  1.00  0.00     0.148 A 
ATOM     78  C   UNL A   1      42.465  35.769  26.665  1.00  0.00     0.002 A 
ATOM     79  C   UNL A   1      43.971  33.918  26.268  1.00  0.00     0.091 A 
ATOM     80  F   UNL A   1      44.454  32.386  28.037  1.00  0.00    -0.205 F 
ATOM     81  C   UNL A   1      43.275  35.046  25.795  1.00  0.00     0.022 A 
BRANCH  79  82
ATOM     82  S   UNL A   1      45.219  33.226  25.169  1.00  0.00     0.127 S 
ATOM     83  O   UNL A   1      44.636  33.477  23.854  1.00  0.00    -0.237 OA
ATOM     84  O   UNL A   1      46.386  34.050  25.491  1.00  0.00    -0.237 OA
ATOM     85  O   UNL A   1      45.349  31.830  25.553  1.00  0.00    -0.744 OA
ENDBRANCH  79  82
ENDBRANCH  51  75
BRANCH  63  86
ATOM     86  C   UNL A   1      43.711  37.941  34.829  1.00  0.00     0.023 A 
ATOM     87  C   UNL A   1      44.577  37.735  35.923  1.00  0.00     0.012 A 
ATOM     88  C   UNL A   1      43.552  39.266  34.371  1.00  0.00     0.148 A 
ATOM     89  C   UNL A   1      45.144  38.791  36.623  1.00  0.00     0.002 A 
ATOM     90  C   UNL A   1      44.207  40.308  35.002  1.00  0.00     0.091 A 
ATOM     91  F   UNL A   1      42.795  39.528  33.302  1.00  0.00    -0.205 F 
ATOM     92  C   UNL A   1      44.965  40.081  36.155  1.00  0.00     0.022 A 
BRANCH  90  93
ATOM     93  S   UNL A   1      44.214  41.966  34.324  1.00  0.00     0.127 S 
ATOM     94  O   UNL A   1      44.730  41.726  32.976  1.00  0.00    -0.237 OA
ATOM     95  O   UNL A   1      42.795  42.309  34.388  1.00  0.00    -0.237 OA
ATOM     96  O   UNL A   1      45.084  42.764  35.175  1.00  0.00    -0.744 OA
ENDBRANCH  90  93
ENDBRANCH  63  86
ENDBRANCH  37  38
ENDBRANCH  30  32
ENDBRANCH  29  30
ENDBRANCH  28  29
ENDBRANCH  27  28
ENDBRANCH   1  27
TORSDOF 20
ENDMDL
MODEL 3
REMARK VINA RESULT:     -11.0      5.300      8.279
REMARK SMILES Cc1ccc([C@H](C)NC(=O)[C@H]2[C@@H]3CC[C@@H](C3)[C@@H]2C(=O)OCCOCCOC(=O)c2ccc(-c3c4nc(c(-c5cccc(S(=O)(=O)[O-])c5F)c5ccc([nH]5)c(-c5cccc(S(=O)(=O)[O-])c5F)c5nc(c(-c6cccc(S(=O)(=O)[O-])c6F)c6ccc3[nH]6)C=C5)C=C4)cc2)cc1
REMARK SMILES IDX 23 1 22 2 21 3 20 4 18 5 19 6 17 7 11 8 12 9 13 10 16 11
REMARK SMILES IDX 15 12 14 13 9 14 8 15 10 17 6 18 7 19 5 20 1 21 2 22 3 23
REMARK SMILES IDX 93 24 4 25 92 26 24 27 25 28 26 29 27 30 28 31 29 32 30 33
REMARK SMILES IDX 91 34 31 35 90 36 32 37 33 38 34 39 84 40 35 41 89 42 83 43
REMARK SMILES IDX 85 44 36 45 88 46 82 47 81 48 37 50 69 51 49 52 68 53 50 54
REMARK SMILES IDX 53 55 67 56 86 57 51 58 52 59 66 61 87 62 54 63 38 64 39 65
REMARK SMILES IDX 47 66 40 67 42 68 48 69 41 70 43 71 44 72 45 73 46 74 70 75
REMARK SMILES IDX 71 76 79 77 72 78 74 79 80 80 73 81 75 82 76 83 77 84 78 85
REMARK SMILES IDX 55 86 56 87 64 88 57 89 59 90 65 91 58 92 60 93 61 94 62 95
REMARK SMILES IDX 63 96
REMARK H PARENT 8 16 85 49 53 60
REMARK Flexibility Score: inf
ROOT
ATOM      1  O   UNL A   1      38.209  21.831  25.364  1.00  0.00    -0.374 OA
ENDROOT
BRANCH   1   2
ATOM      2  C   UNL A   1      37.359  20.847  24.808  1.00  0.00     0.202 C 
BRANCH   2   3
ATOM      3  C   UNL A   1      36.048  21.256  25.368  1.00  0.00     0.261 C 
BRANCH   3   4
ATOM      4  O   UNL A   1      35.060  21.532  24.340  1.00  0.00    -0.463 OA
BRANCH   4   5
ATOM      5  C   UNL A   1      33.758  21.137  24.447  1.00  0.00     0.310 C 
ATOM      6  O   UNL A   1      33.348  19.997  24.589  1.00  0.00    -0.252 OA
BRANCH   5   7
ATOM      7  C   UNL A   1      32.804  22.298  24.263  1.00  0.00     0.115 C 
ATOM      8  C   UNL A   1      33.488  23.664  24.119  1.00  0.00     0.096 C 
ATOM      9  C   UNL A   1      33.016  24.417  25.379  1.00  0.00     0.002 C 
ATOM     10  C   UNL A   1      33.638  23.714  26.619  1.00  0.00     0.005 C 
ATOM     11  C   UNL A   1      31.560  23.989  25.486  1.00  0.00     0.009 C 
ATOM     12  C   UNL A   1      31.899  22.497  25.520  1.00  0.00     0.004 C 
ATOM     13  C   UNL A   1      32.748  22.474  26.802  1.00  0.00     0.005 C 
BRANCH   8  14
ATOM     14  C   UNL A   1      33.333  24.431  22.811  1.00  0.00     0.224 C 
ATOM     15  N   UNL A   1      33.176  25.759  22.651  1.00  0.00    -0.349 N 
ATOM     16  H   UNL A   1      33.242  26.020  21.704  1.00  0.00     0.164 HD
ATOM     17  O   UNL A   1      33.433  23.793  21.750  1.00  0.00    -0.275 OA
BRANCH  15  18
ATOM     18  C   UNL A   1      32.933  26.916  23.511  1.00  0.00     0.109 C 
ATOM     19  C   UNL A   1      33.967  28.012  23.245  1.00  0.00     0.036 C 
BRANCH  18  20
ATOM     20  C   UNL A   1      31.553  27.497  23.271  1.00  0.00    -0.026 A 
ATOM     21  C   UNL A   1      27.618  29.214  22.713  1.00  0.00     0.044 C 
ATOM     22  C   UNL A   1      28.974  28.617  22.972  1.00  0.00    -0.051 A 
ATOM     23  C   UNL A   1      29.146  27.329  23.506  1.00  0.00     0.004 A 
ATOM     24  C   UNL A   1      30.103  29.334  22.588  1.00  0.00     0.004 A 
ATOM     25  C   UNL A   1      30.417  26.764  23.632  1.00  0.00     0.006 A 
ATOM     26  C   UNL A   1      31.375  28.795  22.762  1.00  0.00     0.006 A 
ENDBRANCH  18  20
ENDBRANCH  15  18
ENDBRANCH   8  14
ENDBRANCH   5   7
ENDBRANCH   4   5
ENDBRANCH   3   4
ENDBRANCH   2   3
ENDBRANCH   1   2
BRANCH   1  27
ATOM     27  C   UNL A   1      37.593  22.894  26.027  1.00  0.00     0.202 C 
BRANCH  27  28
ATOM     28  C   UNL A   1      38.572  24.036  26.262  1.00  0.00     0.261 C 
BRANCH  28  29
ATOM     29  O   UNL A   1      39.594  23.616  27.192  1.00  0.00    -0.460 OA
BRANCH  29  30
ATOM     30  C   UNL A   1      40.094  24.605  27.990  1.00  0.00     0.338 C 
ATOM     31  O   UNL A   1      39.388  25.426  28.571  1.00  0.00    -0.246 OA
BRANCH  30  32
ATOM     32  C   UNL A   1      41.582  24.648  27.894  1.00  0.00     0.060 A 
ATOM     33  C   UNL A   1      42.372  23.582  28.369  1.00  0.00     0.016 A 
ATOM     34  C   UNL A   1      42.175  25.879  27.628  1.00  0.00     0.016 A 
ATOM     35  C   UNL A   1      43.715  23.796  28.724  1.00  0.00     0.010 A 
ATOM     36  C   UNL A   1      43.444  26.114  28.105  1.00  0.00     0.010 A 
ATOM     37  C   UNL A   1      44.224  25.090  28.662  1.00  0.00    -0.014 A 
BRANCH  37  38
ATOM     38  C   UNL A   1      45.564  25.514  29.076  1.00  0.00     0.031 A 
ATOM     39  C   UNL A   1      46.601  25.255  28.051  1.00  0.00     0.074 A 
ATOM     40  C   UNL A   1      45.794  26.207  30.221  1.00  0.00     0.049 A 
ATOM     41  N   UNL A   1      47.774  24.785  28.300  1.00  0.00    -0.248 NA
ATOM     42  C   UNL A   1      46.335  25.350  26.607  1.00  0.00     0.031 C 
ATOM     43  C   UNL A   1      46.927  27.055  30.586  1.00  0.00     0.029 A 
ATOM     44  N   UNL A   1      44.957  26.339  31.335  1.00  0.00    -0.354 N 
ATOM     45  C   UNL A   1      48.488  24.954  27.127  1.00  0.00     0.074 A 
ATOM     46  C   UNL A   1      47.512  25.024  26.080  1.00  0.00     0.031 C 
ATOM     47  C   UNL A   1      46.813  27.428  31.878  1.00  0.00     0.029 A 
ATOM     48  C   UNL A   1      45.657  26.760  32.457  1.00  0.00     0.049 A 
ATOM     49  H   UNL A   1      43.990  26.156  31.325  1.00  0.00     0.167 HD
ATOM     50  C   UNL A   1      49.759  25.439  27.182  1.00  0.00     0.034 A 
ATOM     51  C   UNL A   1      45.600  26.076  33.631  1.00  0.00     0.034 A 
ATOM     52  C   UNL A   1      50.084  25.784  28.580  1.00  0.00     0.049 A 
ATOM     53  C   UNL A   1      46.953  25.438  33.733  1.00  0.00     0.074 A 
ATOM     54  C   UNL A   1      50.304  27.021  29.143  1.00  0.00     0.029 A 
ATOM     55  N   UNL A   1      49.893  24.890  29.660  1.00  0.00    -0.354 N 
ATOM     56  N   UNL A   1      47.646  25.047  32.692  1.00  0.00    -0.248 NA
ATOM     57  C   UNL A   1      47.720  25.513  34.968  1.00  0.00     0.031 C 
ATOM     58  C   UNL A   1      50.367  26.834  30.527  1.00  0.00     0.029 A 
ATOM     59  C   UNL A   1      49.979  25.553  30.876  1.00  0.00     0.049 A 
ATOM     60  H   UNL A   1      49.723  23.926  29.562  1.00  0.00     0.167 HD
ATOM     61  C   UNL A   1      48.962  25.021  33.046  1.00  0.00     0.074 A 
ATOM     62  C   UNL A   1      48.952  25.293  34.487  1.00  0.00     0.031 C 
ATOM     63  C   UNL A   1      50.021  24.903  32.187  1.00  0.00     0.034 A 
BRANCH  50  64
ATOM     64  C   UNL A   1      50.496  26.072  25.980  1.00  0.00     0.023 A 
ATOM     65  C   UNL A   1      49.713  26.727  24.999  1.00  0.00     0.012 A 
ATOM     66  C   UNL A   1      51.890  26.069  25.719  1.00  0.00     0.148 A 
ATOM     67  C   UNL A   1      50.222  27.184  23.778  1.00  0.00     0.002 A 
ATOM     68  C   UNL A   1      52.408  26.520  24.491  1.00  0.00     0.091 A 
ATOM     69  F   UNL A   1      52.743  25.719  26.686  1.00  0.00    -0.205 F 
ATOM     70  C   UNL A   1      51.569  27.053  23.509  1.00  0.00     0.022 A 
BRANCH  68  71
ATOM     71  S   UNL A   1      54.161  26.450  24.076  1.00  0.00     0.127 S 
ATOM     72  O   UNL A   1      54.141  26.543  22.613  1.00  0.00    -0.237 OA
ATOM     73  O   UNL A   1      54.685  27.638  24.749  1.00  0.00    -0.237 OA
ATOM     74  O   UNL A   1      54.644  25.173  24.583  1.00  0.00    -0.744 OA
ENDBRANCH  68  71
ENDBRANCH  50  64
BRANCH  51  75
ATOM     75  C   UNL A   1      44.264  25.524  34.022  1.00  0.00     0.023 A 
ATOM     76  C   UNL A   1      44.074  24.116  33.914  1.00  0.00     0.012 A 
ATOM     77  C   UNL A   1      43.350  26.253  34.795  1.00  0.00     0.148 A 
ATOM     78  C   UNL A   1      43.076  23.449  34.646  1.00  0.00     0.002 A 
ATOM     79  C   UNL A   1      42.422  25.576  35.592  1.00  0.00     0.091 A 
ATOM     80  F   UNL A   1      43.419  27.590  34.780  1.00  0.00    -0.205 F 
ATOM     81  C   UNL A   1      42.283  24.177  35.527  1.00  0.00     0.022 A 
BRANCH  79  82
ATOM     82  S   UNL A   1      41.584  26.402  36.957  1.00  0.00     0.127 S 
ATOM     83  O   UNL A   1      42.661  26.536  37.934  1.00  0.00    -0.237 OA
ATOM     84  O   UNL A   1      41.163  27.657  36.329  1.00  0.00    -0.237 OA
ATOM     85  O   UNL A   1      40.488  25.524  37.333  1.00  0.00    -0.744 OA
ENDBRANCH  79  82
ENDBRANCH  51  75
BRANCH  63  86
ATOM     86  C   UNL A   1      51.336  24.372  32.685  1.00  0.00     0.023 A 
ATOM     87  C   UNL A   1      52.430  25.237  32.896  1.00  0.00     0.012 A 
ATOM     88  C   UNL A   1      51.476  23.036  33.114  1.00  0.00     0.148 A 
ATOM     89  C   UNL A   1      53.652  24.776  33.370  1.00  0.00     0.002 A 
ATOM     90  C   UNL A   1      52.656  22.605  33.689  1.00  0.00     0.091 A 
ATOM     91  F   UNL A   1      50.457  22.177  33.000  1.00  0.00    -0.205 F 
ATOM     92  C   UNL A   1      53.761  23.458  33.776  1.00  0.00     0.022 A 
BRANCH  90  93
ATOM     93  S   UNL A   1      52.802  20.989  34.447  1.00  0.00     0.127 S 
ATOM     94  O   UNL A   1      52.338  20.118  33.367  1.00  0.00    -0.237 OA
ATOM     95  O   UNL A   1      54.237  20.925  34.717  1.00  0.00    -0.237 OA
ATOM     96  O   UNL A   1      51.950  20.999  35.627  1.00  0.00    -0.744 OA
ENDBRANCH  90  93
ENDBRANCH  63  86
ENDBRANCH  37  38
ENDBRANCH  30  32
ENDBRANCH  29  30
ENDBRANCH  28  29
ENDBRANCH  27  28
ENDBRANCH   1  27
TORSDOF 20
ENDMDL
