MODEL 1
REMARK VINA RESULT:     -11.7      0.000      0.000
REMARK SMILES CS(=O)(=O)c1ccc(/C=C(/C(=O)OCCOCCOC(=O)c2ccc(-c3c4nc(c(-c5cccc(S(=O)(=O)[O-])c5F)c5ccc([nH]5)c(-c5cccc(S(=O)(=O)[O-])c5F)c5nc(c(-c6cccc(S(=O)(=O)[O-])c6F)c6ccc3[nH]6)C=C5)C=C4)cc2)c2cccc(Br)c2)cc1
REMARK SMILES IDX 17 1 16 2 15 3 14 4 13 5 11 6 12 7 10 8 9 9 8 10 5 11 6 12
REMARK SMILES IDX 93 13 7 14 92 15 2 16 1 17 3 18 4 19 85 20 86 21 91 22 87 23
REMARK SMILES IDX 89 24 88 25 90 26 18 27 19 28 20 29 21 30 22 31 23 32 84 33
REMARK SMILES IDX 24 34 83 35 25 36 26 37 27 38 77 39 28 40 82 41 76 42 78 43
REMARK SMILES IDX 29 44 81 45 75 46 74 47 30 49 62 50 42 51 61 52 43 53 46 54
REMARK SMILES IDX 60 55 79 56 44 57 45 58 59 60 80 61 47 62 31 63 32 64 40 65
REMARK SMILES IDX 33 66 35 67 41 68 34 69 36 70 37 71 38 72 39 73 63 74 64 75
REMARK SMILES IDX 72 76 65 77 67 78 73 79 66 80 68 81 69 82 70 83 71 84 48 85
REMARK SMILES IDX 49 86 57 87 50 88 52 89 58 90 51 91 53 92 54 93 55 94 56 95
REMARK H PARENT 78 48 46 59
REMARK Flexibility Score: inf
ROOT
ATOM      1  C   UNL A   1      31.778  28.575  27.309  1.00  0.00     0.202 C 
ENDROOT
BRANCH   1   2
ATOM      2  O   UNL A   1      31.376  27.535  26.423  1.00  0.00    -0.374 OA
BRANCH   2   3
ATOM      3  C   UNL A   1      31.256  27.850  25.037  1.00  0.00     0.202 C 
BRANCH   3   4
ATOM      4  C   UNL A   1      32.376  27.397  24.094  1.00  0.00     0.261 C 
BRANCH   4   5
ATOM      5  O   UNL A   1      33.030  26.205  24.562  1.00  0.00    -0.460 OA
BRANCH   5   6
ATOM      6  C   UNL A   1      33.483  25.389  23.575  1.00  0.00     0.338 C 
ATOM      7  O   UNL A   1      33.856  25.753  22.468  1.00  0.00    -0.246 OA
BRANCH   6   8
ATOM      8  C   UNL A   1      33.616  23.965  24.027  1.00  0.00     0.067 C 
ATOM      9  C   UNL A   1      32.532  23.155  24.109  1.00  0.00     0.024 C 
BRANCH   9  10
ATOM     10  C   UNL A   1      32.524  21.677  24.265  1.00  0.00    -0.025 A 
ATOM     11  C   UNL A   1      33.061  18.921  24.218  1.00  0.00     0.067 A 
ATOM     12  C   UNL A   1      33.231  19.644  25.398  1.00  0.00     0.021 A 
ATOM     13  C   UNL A   1      32.485  19.527  23.103  1.00  0.00     0.021 A 
ATOM     14  C   UNL A   1      32.921  21.005  25.429  1.00  0.00     0.009 A 
ATOM     15  C   UNL A   1      32.219  20.903  23.133  1.00  0.00     0.009 A 
BRANCH  11  16
ATOM     16  S   UNL A   1      33.686  17.259  24.175  1.00  0.00     0.175 S 
ATOM     17  C   UNL A   1      32.780  16.321  25.368  1.00  0.00     0.163 C 
ATOM     18  O   UNL A   1      35.063  17.316  24.632  1.00  0.00    -0.224 OA
ATOM     19  O   UNL A   1      33.363  16.735  22.862  1.00  0.00    -0.224 OA
ENDBRANCH  11  16
ENDBRANCH   9  10
BRANCH   8  20
ATOM     20  C   UNL A   1      34.998  23.516  24.294  1.00  0.00    -0.010 A 
ATOM     21  C   UNL A   1      35.584  22.560  23.447  1.00  0.00     0.009 A 
ATOM     22  C   UNL A   1      35.746  24.048  25.348  1.00  0.00     0.024 A 
ATOM     23  C   UNL A   1      36.903  22.152  23.636  1.00  0.00     0.002 A 
ATOM     24  C   UNL A   1      37.070  23.648  25.521  1.00  0.00     0.018 A 
ATOM     25  C   UNL A   1      37.651  22.703  24.674  1.00  0.00     0.016 A 
ATOM     26  Br  UNL A   1      38.105  24.418  26.903  1.00  0.00    -0.051 Br
ENDBRANCH   8  20
ENDBRANCH   6   8
ENDBRANCH   5   6
ENDBRANCH   4   5
ENDBRANCH   3   4
ENDBRANCH   2   3
ENDBRANCH   1   2
BRANCH   1  27
ATOM     27  C   UNL A   1      31.725  30.028  26.821  1.00  0.00     0.261 C 
BRANCH  27  28
ATOM     28  O   UNL A   1      33.005  30.536  26.425  1.00  0.00    -0.460 OA
BRANCH  28  29
ATOM     29  C   UNL A   1      33.471  31.544  27.199  1.00  0.00     0.338 C 
ATOM     30  O   UNL A   1      32.850  32.524  27.593  1.00  0.00    -0.246 OA
BRANCH  29  31
ATOM     31  C   UNL A   1      34.818  31.204  27.682  1.00  0.00     0.060 A 
ATOM     32  C   UNL A   1      35.121  29.850  27.888  1.00  0.00     0.016 A 
ATOM     33  C   UNL A   1      35.750  32.200  27.975  1.00  0.00     0.016 A 
ATOM     34  C   UNL A   1      36.350  29.487  28.431  1.00  0.00     0.010 A 
ATOM     35  C   UNL A   1      36.975  31.835  28.533  1.00  0.00     0.010 A 
ATOM     36  C   UNL A   1      37.263  30.482  28.797  1.00  0.00    -0.014 A 
BRANCH  36  37
ATOM     37  C   UNL A   1      38.446  30.146  29.618  1.00  0.00     0.031 A 
ATOM     38  C   UNL A   1      39.467  29.207  29.038  1.00  0.00     0.074 A 
ATOM     39  C   UNL A   1      38.580  30.623  30.866  1.00  0.00     0.049 A 
ATOM     40  N   UNL A   1      40.495  28.646  29.613  1.00  0.00    -0.248 NA
ATOM     41  C   UNL A   1      39.295  28.844  27.620  1.00  0.00     0.031 C 
ATOM     42  C   UNL A   1      37.665  31.557  31.517  1.00  0.00     0.029 A 
ATOM     43  N   UNL A   1      39.525  30.349  31.823  1.00  0.00    -0.354 N 
ATOM     44  C   UNL A   1      41.067  27.828  28.646  1.00  0.00     0.074 A 
ATOM     45  C   UNL A   1      40.269  27.964  27.447  1.00  0.00     0.031 C 
ATOM     46  C   UNL A   1      38.067  31.746  32.786  1.00  0.00     0.029 A 
ATOM     47  C   UNL A   1      39.242  30.917  33.043  1.00  0.00     0.049 A 
ATOM     48  H   UNL A   1      40.324  29.799  31.654  1.00  0.00     0.167 HD
ATOM     49  C   UNL A   1      42.160  27.038  28.747  1.00  0.00     0.034 A 
ATOM     50  C   UNL A   1      39.843  30.750  34.239  1.00  0.00     0.034 A 
ATOM     51  C   UNL A   1      42.954  26.924  29.939  1.00  0.00     0.049 A 
ATOM     52  C   UNL A   1      41.041  29.839  34.335  1.00  0.00     0.074 A 
ATOM     53  C   UNL A   1      44.105  26.183  30.138  1.00  0.00     0.029 A 
ATOM     54  N   UNL A   1      42.672  27.560  31.138  1.00  0.00    -0.354 N 
ATOM     55  N   UNL A   1      41.623  29.137  33.393  1.00  0.00    -0.248 NA
ATOM     56  C   UNL A   1      41.680  29.717  35.653  1.00  0.00     0.031 C 
ATOM     57  C   UNL A   1      44.501  26.345  31.469  1.00  0.00     0.029 A 
ATOM     58  C   UNL A   1      43.622  27.222  32.086  1.00  0.00     0.049 A 
ATOM     59  H   UNL A   1      41.910  28.163  31.293  1.00  0.00     0.167 HD
ATOM     60  C   UNL A   1      42.725  28.535  33.990  1.00  0.00     0.074 A 
ATOM     61  C   UNL A   1      42.730  28.954  35.376  1.00  0.00     0.031 C 
ATOM     62  C   UNL A   1      43.648  27.705  33.443  1.00  0.00     0.034 A 
BRANCH  49  63
ATOM     63  C   UNL A   1      42.566  26.241  27.536  1.00  0.00     0.023 A 
ATOM     64  C   UNL A   1      43.330  26.848  26.519  1.00  0.00     0.012 A 
ATOM     65  C   UNL A   1      42.229  24.878  27.429  1.00  0.00     0.148 A 
ATOM     66  C   UNL A   1      43.724  26.118  25.398  1.00  0.00     0.002 A 
ATOM     67  C   UNL A   1      42.666  24.145  26.332  1.00  0.00     0.091 A 
ATOM     68  F   UNL A   1      41.481  24.327  28.395  1.00  0.00    -0.205 F 
ATOM     69  C   UNL A   1      43.402  24.766  25.311  1.00  0.00     0.022 A 
BRANCH  67  70
ATOM     70  S   UNL A   1      42.372  22.382  26.168  1.00  0.00     0.127 S 
ATOM     71  O   UNL A   1      40.915  22.335  26.061  1.00  0.00    -0.237 OA
ATOM     72  O   UNL A   1      43.085  22.065  24.930  1.00  0.00    -0.237 OA
ATOM     73  O   UNL A   1      42.931  21.766  27.364  1.00  0.00    -0.744 OA
ENDBRANCH  67  70
ENDBRANCH  49  63
BRANCH  50  74
ATOM     74  C   UNL A   1      39.336  31.475  35.436  1.00  0.00     0.023 A 
ATOM     75  C   UNL A   1      38.346  30.880  36.241  1.00  0.00     0.012 A 
ATOM     76  C   UNL A   1      39.838  32.743  35.791  1.00  0.00     0.148 A 
ATOM     77  C   UNL A   1      37.840  31.547  37.357  1.00  0.00     0.002 A 
ATOM     78  C   UNL A   1      39.370  33.379  36.935  1.00  0.00     0.091 A 
ATOM     79  F   UNL A   1      40.771  33.299  35.005  1.00  0.00    -0.205 F 
ATOM     80  C   UNL A   1      38.358  32.790  37.710  1.00  0.00     0.022 A 
BRANCH  78  81
ATOM     81  S   UNL A   1      40.067  34.921  37.535  1.00  0.00     0.127 S 
ATOM     82  O   UNL A   1      39.235  35.192  38.704  1.00  0.00    -0.237 OA
ATOM     83  O   UNL A   1      41.445  34.531  37.835  1.00  0.00    -0.237 OA
ATOM     84  O   UNL A   1      39.939  35.869  36.436  1.00  0.00    -0.744 OA
ENDBRANCH  78  81
ENDBRANCH  50  74
BRANCH  62  85
ATOM     85  C   UNL A   1      44.794  27.249  34.306  1.00  0.00     0.023 A 
ATOM     86  C   UNL A   1      45.948  28.045  34.433  1.00  0.00     0.012 A 
ATOM     87  C   UNL A   1      44.668  26.079  35.083  1.00  0.00     0.148 A 
ATOM     88  C   UNL A   1      46.970  27.671  35.305  1.00  0.00     0.002 A 
ATOM     89  C   UNL A   1      45.666  25.742  35.988  1.00  0.00     0.091 A 
ATOM     90  F   UNL A   1      43.568  25.328  34.933  1.00  0.00    -0.205 F 
ATOM     91  C   UNL A   1      46.823  26.531  36.092  1.00  0.00     0.022 A 
BRANCH  89  92
ATOM     92  S   UNL A   1      45.516  24.352  37.115  1.00  0.00     0.127 S 
ATOM     93  O   UNL A   1      45.155  23.268  36.204  1.00  0.00    -0.237 OA
ATOM     94  O   UNL A   1      46.868  24.259  37.670  1.00  0.00    -0.237 OA
ATOM     95  O   UNL A   1      44.489  24.722  38.079  1.00  0.00    -0.744 OA
ENDBRANCH  89  92
ENDBRANCH  62  85
ENDBRANCH  36  37
ENDBRANCH  29  31
ENDBRANCH  28  29
ENDBRANCH  27  28
ENDBRANCH   1  27
TORSDOF 20
ENDMDL
MODEL 2
REMARK VINA RESULT:     -10.9      2.224      7.841
REMARK SMILES CS(=O)(=O)c1ccc(/C=C(/C(=O)OCCOCCOC(=O)c2ccc(-c3c4nc(c(-c5cccc(S(=O)(=O)[O-])c5F)c5ccc([nH]5)c(-c5cccc(S(=O)(=O)[O-])c5F)c5nc(c(-c6cccc(S(=O)(=O)[O-])c6F)c6ccc3[nH]6)C=C5)C=C4)cc2)c2cccc(Br)c2)cc1
REMARK SMILES IDX 17 1 16 2 15 3 14 4 13 5 11 6 12 7 10 8 9 9 8 10 5 11 6 12
REMARK SMILES IDX 93 13 7 14 92 15 2 16 1 17 3 18 4 19 85 20 86 21 91 22 87 23
REMARK SMILES IDX 89 24 88 25 90 26 18 27 19 28 20 29 21 30 22 31 23 32 84 33
REMARK SMILES IDX 24 34 83 35 25 36 26 37 27 38 77 39 28 40 82 41 76 42 78 43
REMARK SMILES IDX 29 44 81 45 75 46 74 47 30 49 62 50 42 51 61 52 43 53 46 54
REMARK SMILES IDX 60 55 79 56 44 57 45 58 59 60 80 61 47 62 31 63 32 64 40 65
REMARK SMILES IDX 33 66 35 67 41 68 34 69 36 70 37 71 38 72 39 73 63 74 64 75
REMARK SMILES IDX 72 76 65 77 67 78 73 79 66 80 68 81 69 82 70 83 71 84 48 85
REMARK SMILES IDX 49 86 57 87 50 88 52 89 58 90 51 91 53 92 54 93 55 94 56 95
REMARK H PARENT 78 48 46 59
REMARK Flexibility Score: inf
ROOT
ATOM      1  C   UNL A   1      32.396  27.644  26.389  1.00  0.00     0.202 C 
ENDROOT
BRANCH   1   2
ATOM      2  O   UNL A   1      31.197  26.976  26.770  1.00  0.00    -0.374 OA
BRANCH   2   3
ATOM      3  C   UNL A   1      30.409  26.384  25.739  1.00  0.00     0.202 C 
BRANCH   3   4
ATOM      4  C   UNL A   1      30.769  26.699  24.283  1.00  0.00     0.261 C 
BRANCH   4   5
ATOM      5  O   UNL A   1      31.148  25.521  23.550  1.00  0.00    -0.460 OA
BRANCH   5   6
ATOM      6  C   UNL A   1      32.485  25.285  23.521  1.00  0.00     0.338 C 
ATOM      7  O   UNL A   1      33.353  26.131  23.352  1.00  0.00    -0.246 OA
BRANCH   6   8
ATOM      8  C   UNL A   1      32.822  23.863  23.862  1.00  0.00     0.067 C 
ATOM      9  C   UNL A   1      31.847  22.938  24.034  1.00  0.00     0.024 C 
BRANCH   9  10
ATOM     10  C   UNL A   1      32.011  21.462  24.097  1.00  0.00    -0.025 A 
ATOM     11  C   UNL A   1      32.903  18.803  23.961  1.00  0.00     0.067 A 
ATOM     12  C   UNL A   1      32.817  19.446  25.195  1.00  0.00     0.021 A 
ATOM     13  C   UNL A   1      32.409  19.421  22.814  1.00  0.00     0.021 A 
ATOM     14  C   UNL A   1      32.332  20.753  25.263  1.00  0.00     0.009 A 
ATOM     15  C   UNL A   1      31.964  20.747  22.889  1.00  0.00     0.009 A 
BRANCH  11  16
ATOM     16  S   UNL A   1      33.738  17.236  23.908  1.00  0.00     0.175 S 
ATOM     17  C   UNL A   1      35.333  17.460  24.633  1.00  0.00     0.163 C 
ATOM     18  O   UNL A   1      33.947  16.918  22.506  1.00  0.00    -0.224 OA
ATOM     19  O   UNL A   1      32.983  16.342  24.765  1.00  0.00    -0.224 OA
ENDBRANCH  11  16
ENDBRANCH   9  10
BRANCH   8  20
ATOM     20  C   UNL A   1      34.266  23.555  23.917  1.00  0.00    -0.010 A 
ATOM     21  C   UNL A   1      34.903  23.046  22.773  1.00  0.00     0.009 A 
ATOM     22  C   UNL A   1      35.018  23.793  25.072  1.00  0.00     0.024 A 
ATOM     23  C   UNL A   1      36.274  22.793  22.772  1.00  0.00     0.002 A 
ATOM     24  C   UNL A   1      36.391  23.554  25.059  1.00  0.00     0.018 A 
ATOM     25  C   UNL A   1      37.021  23.055  23.918  1.00  0.00     0.016 A 
ATOM     26  Br  UNL A   1      37.421  23.941  26.596  1.00  0.00    -0.051 Br
ENDBRANCH   8  20
ENDBRANCH   6   8
ENDBRANCH   5   6
ENDBRANCH   4   5
ENDBRANCH   3   4
ENDBRANCH   2   3
ENDBRANCH   1   2
BRANCH   1  27
ATOM     27  C   UNL A   1      32.906  28.803  27.254  1.00  0.00     0.261 C 
BRANCH  27  28
ATOM     28  O   UNL A   1      34.306  29.056  27.089  1.00  0.00    -0.460 OA
BRANCH  28  29
ATOM     29  C   UNL A   1      34.746  30.184  27.694  1.00  0.00     0.338 C 
ATOM     30  O   UNL A   1      34.119  31.222  27.875  1.00  0.00    -0.246 OA
BRANCH  29  31
ATOM     31  C   UNL A   1      36.064  29.932  28.297  1.00  0.00     0.060 A 
ATOM     32  C   UNL A   1      37.202  30.170  27.512  1.00  0.00     0.016 A 
ATOM     33  C   UNL A   1      36.178  29.424  29.591  1.00  0.00     0.016 A 
ATOM     34  C   UNL A   1      38.465  29.858  28.006  1.00  0.00     0.010 A 
ATOM     35  C   UNL A   1      37.444  29.098  30.078  1.00  0.00     0.010 A 
ATOM     36  C   UNL A   1      38.586  29.279  29.275  1.00  0.00    -0.014 A 
BRANCH  36  37
ATOM     37  C   UNL A   1      39.872  28.692  29.709  1.00  0.00     0.031 A 
ATOM     38  C   UNL A   1      40.637  29.390  30.798  1.00  0.00     0.074 A 
ATOM     39  C   UNL A   1      40.368  27.595  29.113  1.00  0.00     0.049 A 
ATOM     40  N   UNL A   1      41.846  29.162  31.236  1.00  0.00    -0.248 NA
ATOM     41  C   UNL A   1      39.950  30.506  31.473  1.00  0.00     0.031 C 
ATOM     42  C   UNL A   1      39.699  26.826  28.067  1.00  0.00     0.029 A 
ATOM     43  N   UNL A   1      41.576  26.965  29.280  1.00  0.00    -0.354 N 
ATOM     44  C   UNL A   1      42.083  30.130  32.205  1.00  0.00     0.074 A 
ATOM     45  C   UNL A   1      40.894  30.951  32.288  1.00  0.00     0.031 C 
ATOM     46  C   UNL A   1      40.525  25.850  27.651  1.00  0.00     0.029 A 
ATOM     47  C   UNL A   1      41.789  25.953  28.375  1.00  0.00     0.049 A 
ATOM     48  H   UNL A   1      42.224  27.214  29.978  1.00  0.00     0.167 HD
ATOM     49  C   UNL A   1      43.190  30.316  32.959  1.00  0.00     0.034 A 
ATOM     50  C   UNL A   1      42.898  25.224  28.133  1.00  0.00     0.034 A 
ATOM     51  C   UNL A   1      44.359  29.484  32.879  1.00  0.00     0.049 A 
ATOM     52  C   UNL A   1      44.132  25.470  28.964  1.00  0.00     0.074 A 
ATOM     53  C   UNL A   1      45.521  29.559  33.625  1.00  0.00     0.029 A 
ATOM     54  N   UNL A   1      44.518  28.431  31.990  1.00  0.00    -0.354 N 
ATOM     55  N   UNL A   1      44.315  26.332  29.935  1.00  0.00    -0.248 NA
ATOM     56  C   UNL A   1      45.303  24.626  28.685  1.00  0.00     0.031 C 
ATOM     57  C   UNL A   1      46.397  28.572  33.164  1.00  0.00     0.029 A 
ATOM     58  C   UNL A   1      45.763  27.854  32.163  1.00  0.00     0.049 A 
ATOM     59  H   UNL A   1      43.845  28.138  31.335  1.00  0.00     0.167 HD
ATOM     60  C   UNL A   1      45.599  26.099  30.417  1.00  0.00     0.074 A 
ATOM     61  C   UNL A   1      46.149  25.014  29.631  1.00  0.00     0.031 C 
ATOM     62  C   UNL A   1      46.265  26.729  31.416  1.00  0.00     0.034 A 
BRANCH  49  63
ATOM     63  C   UNL A   1      43.188  31.458  33.940  1.00  0.00     0.023 A 
ATOM     64  C   UNL A   1      43.813  32.675  33.602  1.00  0.00     0.012 A 
ATOM     65  C   UNL A   1      42.527  31.339  35.177  1.00  0.00     0.148 A 
ATOM     66  C   UNL A   1      43.808  33.747  34.495  1.00  0.00     0.002 A 
ATOM     67  C   UNL A   1      42.485  32.427  36.042  1.00  0.00     0.091 A 
ATOM     68  F   UNL A   1      41.961  30.165  35.490  1.00  0.00    -0.205 F 
ATOM     69  C   UNL A   1      43.135  33.625  35.708  1.00  0.00     0.022 A 
BRANCH  67  70
ATOM     70  S   UNL A   1      41.576  32.396  37.590  1.00  0.00     0.127 S 
ATOM     71  O   UNL A   1      40.253  31.961  37.147  1.00  0.00    -0.237 OA
ATOM     72  O   UNL A   1      42.319  31.398  38.362  1.00  0.00    -0.237 OA
ATOM     73  O   UNL A   1      41.643  33.749  38.124  1.00  0.00    -0.744 OA
ENDBRANCH  67  70
ENDBRANCH  49  63
BRANCH  50  74
ATOM     74  C   UNL A   1      42.886  24.178  27.073  1.00  0.00     0.023 A 
ATOM     75  C   UNL A   1      43.511  24.435  25.838  1.00  0.00     0.012 A 
ATOM     76  C   UNL A   1      42.275  22.927  27.286  1.00  0.00     0.148 A 
ATOM     77  C   UNL A   1      43.498  23.480  24.822  1.00  0.00     0.002 A 
ATOM     78  C   UNL A   1      42.313  21.959  26.289  1.00  0.00     0.091 A 
ATOM     79  F   UNL A   1      41.675  22.706  28.464  1.00  0.00    -0.205 F 
ATOM     80  C   UNL A   1      42.908  22.239  25.050  1.00  0.00     0.022 A 
BRANCH  78  81
ATOM     81  S   UNL A   1      41.692  20.292  26.540  1.00  0.00     0.127 S 
ATOM     82  O   UNL A   1      42.161  19.613  25.335  1.00  0.00    -0.237 OA
ATOM     83  O   UNL A   1      42.373  19.900  27.774  1.00  0.00    -0.237 OA
ATOM     84  O   UNL A   1      40.247  20.422  26.669  1.00  0.00    -0.744 OA
ENDBRANCH  78  81
ENDBRANCH  50  74
BRANCH  62  85
ATOM     85  C   UNL A   1      47.634  26.222  31.786  1.00  0.00     0.023 A 
ATOM     86  C   UNL A   1      48.777  26.729  31.139  1.00  0.00     0.012 A 
ATOM     87  C   UNL A   1      47.785  25.323  32.862  1.00  0.00     0.148 A 
ATOM     88  C   UNL A   1      50.051  26.331  31.545  1.00  0.00     0.002 A 
ATOM     89  C   UNL A   1      49.058  24.973  33.294  1.00  0.00     0.091 A 
ATOM     90  F   UNL A   1      46.681  24.841  33.450  1.00  0.00    -0.205 F 
ATOM     91  C   UNL A   1      50.192  25.467  32.629  1.00  0.00     0.022 A 
BRANCH  89  92
ATOM     92  S   UNL A   1      49.337  23.952  34.744  1.00  0.00     0.127 S 
ATOM     93  O   UNL A   1      48.699  24.744  35.793  1.00  0.00    -0.237 OA
ATOM     94  O   UNL A   1      48.629  22.719  34.394  1.00  0.00    -0.237 OA
ATOM     95  O   UNL A   1      50.781  23.808  34.867  1.00  0.00    -0.744 OA
ENDBRANCH  89  92
ENDBRANCH  62  85
ENDBRANCH  36  37
ENDBRANCH  29  31
ENDBRANCH  28  29
ENDBRANCH  27  28
ENDBRANCH   1  27
TORSDOF 20
ENDMDL
MODEL 3
REMARK VINA RESULT:     -10.4      2.272      3.085
REMARK SMILES CS(=O)(=O)c1ccc(/C=C(/C(=O)OCCOCCOC(=O)c2ccc(-c3c4nc(c(-c5cccc(S(=O)(=O)[O-])c5F)c5ccc([nH]5)c(-c5cccc(S(=O)(=O)[O-])c5F)c5nc(c(-c6cccc(S(=O)(=O)[O-])c6F)c6ccc3[nH]6)C=C5)C=C4)cc2)c2cccc(Br)c2)cc1
REMARK SMILES IDX 17 1 16 2 15 3 14 4 13 5 11 6 12 7 10 8 9 9 8 10 5 11 6 12
REMARK SMILES IDX 93 13 7 14 92 15 2 16 1 17 3 18 4 19 85 20 86 21 91 22 87 23
REMARK SMILES IDX 89 24 88 25 90 26 18 27 19 28 20 29 21 30 22 31 23 32 84 33
REMARK SMILES IDX 24 34 83 35 25 36 26 37 27 38 77 39 28 40 82 41 76 42 78 43
REMARK SMILES IDX 29 44 81 45 75 46 74 47 30 49 62 50 42 51 61 52 43 53 46 54
REMARK SMILES IDX 60 55 79 56 44 57 45 58 59 60 80 61 47 62 31 63 32 64 40 65
REMARK SMILES IDX 33 66 35 67 41 68 34 69 36 70 37 71 38 72 39 73 63 74 64 75
REMARK SMILES IDX 72 76 65 77 67 78 73 79 66 80 68 81 69 82 70 83 71 84 48 85
REMARK SMILES IDX 49 86 57 87 50 88 52 89 58 90 51 91 53 92 54 93 55 94 56 95
REMARK H PARENT 78 48 46 59
REMARK Flexibility Score: inf
ROOT
ATOM      1  C   UNL A   1      33.231  30.963  26.674  1.00  0.00     0.202 C 
ENDROOT
BRANCH   1   2
ATOM      2  O   UNL A   1      32.862  29.633  27.024  1.00  0.00    -0.374 OA
BRANCH   2   3
ATOM      3  C   UNL A   1      33.228  28.583  26.131  1.00  0.00     0.202 C 
BRANCH   3   4
ATOM      4  C   UNL A   1      32.764  27.160  26.459  1.00  0.00     0.261 C 
BRANCH   4   5
ATOM      5  O   UNL A   1      33.561  26.163  25.797  1.00  0.00    -0.460 OA
BRANCH   5   6
ATOM      6  C   UNL A   1      32.915  25.494  24.808  1.00  0.00     0.338 C 
ATOM      7  O   UNL A   1      32.278  26.010  23.899  1.00  0.00    -0.246 OA
BRANCH   6   8
ATOM      8  C   UNL A   1      33.173  24.016  24.853  1.00  0.00     0.067 C 
ATOM      9  C   UNL A   1      32.167  23.140  25.094  1.00  0.00     0.024 C 
BRANCH   9  10
ATOM     10  C   UNL A   1      32.193  21.667  24.901  1.00  0.00    -0.025 A 
ATOM     11  C   UNL A   1      32.810  19.007  24.244  1.00  0.00     0.067 A 
ATOM     12  C   UNL A   1      32.902  19.437  25.567  1.00  0.00     0.021 A 
ATOM     13  C   UNL A   1      32.272  19.848  23.272  1.00  0.00     0.021 A 
ATOM     14  C   UNL A   1      32.552  20.748  25.897  1.00  0.00     0.009 A 
ATOM     15  C   UNL A   1      31.966  21.174  23.606  1.00  0.00     0.009 A 
BRANCH  11  16
ATOM     16  S   UNL A   1      33.483  17.412  23.850  1.00  0.00     0.175 S 
ATOM     17  C   UNL A   1      35.153  17.383  24.425  1.00  0.00     0.163 C 
ATOM     18  O   UNL A   1      33.527  17.320  22.401  1.00  0.00    -0.224 OA
ATOM     19  O   UNL A   1      32.730  16.448  24.630  1.00  0.00    -0.224 OA
ENDBRANCH  11  16
ENDBRANCH   9  10
BRANCH   8  20
ATOM     20  C   UNL A   1      34.560  23.610  24.546  1.00  0.00    -0.010 A 
ATOM     21  C   UNL A   1      34.896  23.258  23.228  1.00  0.00     0.009 A 
ATOM     22  C   UNL A   1      35.551  23.603  25.532  1.00  0.00     0.024 A 
ATOM     23  C   UNL A   1      36.206  22.921  22.892  1.00  0.00     0.002 A 
ATOM     24  C   UNL A   1      36.862  23.280  25.185  1.00  0.00     0.018 A 
ATOM     25  C   UNL A   1      37.194  22.938  23.873  1.00  0.00     0.016 A 
ATOM     26  Br  UNL A   1      38.217  23.338  26.502  1.00  0.00    -0.051 Br
ENDBRANCH   8  20
ENDBRANCH   6   8
ENDBRANCH   5   6
ENDBRANCH   4   5
ENDBRANCH   3   4
ENDBRANCH   2   3
ENDBRANCH   1   2
BRANCH   1  27
ATOM     27  C   UNL A   1      33.751  31.901  27.770  1.00  0.00     0.261 C 
BRANCH  27  28
ATOM     28  O   UNL A   1      32.777  32.859  28.201  1.00  0.00    -0.460 OA
BRANCH  28  29
ATOM     29  C   UNL A   1      33.294  34.051  28.581  1.00  0.00     0.338 C 
ATOM     30  O   UNL A   1      32.817  35.163  28.383  1.00  0.00    -0.246 OA
BRANCH  29  31
ATOM     31  C   UNL A   1      34.450  33.823  29.461  1.00  0.00     0.060 A 
ATOM     32  C   UNL A   1      35.704  34.282  29.030  1.00  0.00     0.016 A 
ATOM     33  C   UNL A   1      34.314  33.127  30.662  1.00  0.00     0.016 A 
ATOM     34  C   UNL A   1      36.841  34.008  29.785  1.00  0.00     0.010 A 
ATOM     35  C   UNL A   1      35.457  32.840  31.408  1.00  0.00     0.010 A 
ATOM     36  C   UNL A   1      36.726  33.247  30.953  1.00  0.00    -0.014 A 
BRANCH  36  37
ATOM     37  C   UNL A   1      37.934  32.713  31.620  1.00  0.00     0.031 A 
ATOM     38  C   UNL A   1      38.662  31.574  30.962  1.00  0.00     0.074 A 
ATOM     39  C   UNL A   1      38.341  33.197  32.805  1.00  0.00     0.049 A 
ATOM     40  N   UNL A   1      39.640  30.843  31.421  1.00  0.00    -0.248 NA
ATOM     41  C   UNL A   1      38.214  31.204  29.608  1.00  0.00     0.031 C 
ATOM     42  C   UNL A   1      37.726  34.314  33.519  1.00  0.00     0.029 A 
ATOM     43  N   UNL A   1      39.349  32.776  33.636  1.00  0.00    -0.354 N 
ATOM     44  C   UNL A   1      39.896  29.897  30.436  1.00  0.00     0.074 A 
ATOM     45  C   UNL A   1      38.968  30.145  29.354  1.00  0.00     0.031 C 
ATOM     46  C   UNL A   1      38.341  34.463  34.704  1.00  0.00     0.029 A 
ATOM     47  C   UNL A   1      39.364  33.430  34.845  1.00  0.00     0.049 A 
ATOM     48  H   UNL A   1      39.996  32.076  33.390  1.00  0.00     0.167 HD
ATOM     49  C   UNL A   1      40.824  28.912  30.432  1.00  0.00     0.034 A 
ATOM     50  C   UNL A   1      40.094  33.189  35.953  1.00  0.00     0.034 A 
ATOM     51  C   UNL A   1      41.751  28.686  31.505  1.00  0.00     0.049 A 
ATOM     52  C   UNL A   1      41.100  32.065  35.937  1.00  0.00     0.074 A 
ATOM     53  C   UNL A   1      42.758  27.741  31.587  1.00  0.00     0.029 A 
ATOM     54  N   UNL A   1      41.776  29.404  32.691  1.00  0.00    -0.354 N 
ATOM     55  N   UNL A   1      41.392  31.232  34.968  1.00  0.00    -0.248 NA
ATOM     56  C   UNL A   1      41.895  31.865  37.158  1.00  0.00     0.031 C 
ATOM     57  C   UNL A   1      43.372  27.868  32.837  1.00  0.00     0.029 A 
ATOM     58  C   UNL A   1      42.776  28.920  33.515  1.00  0.00     0.049 A 
ATOM     59  H   UNL A   1      41.173  30.150  32.913  1.00  0.00     0.167 HD
ATOM     60  C   UNL A   1      42.437  30.446  35.441  1.00  0.00     0.074 A 
ATOM     61  C   UNL A   1      42.728  30.903  36.784  1.00  0.00     0.031 C 
ATOM     62  C   UNL A   1      43.095  29.434  34.822  1.00  0.00     0.034 A 
BRANCH  49  63
ATOM     63  C   UNL A   1      40.886  28.011  29.228  1.00  0.00     0.023 A 
ATOM     64  C   UNL A   1      40.078  26.857  29.172  1.00  0.00     0.012 A 
ATOM     65  C   UNL A   1      41.710  28.333  28.133  1.00  0.00     0.148 A 
ATOM     66  C   UNL A   1      40.114  26.020  28.056  1.00  0.00     0.002 A 
ATOM     67  C   UNL A   1      41.706  27.520  27.006  1.00  0.00     0.091 A 
ATOM     68  F   UNL A   1      42.489  29.421  28.217  1.00  0.00    -0.205 F 
ATOM     69  C   UNL A   1      40.920  26.358  26.971  1.00  0.00     0.022 A 
BRANCH  67  70
ATOM     70  S   UNL A   1      42.645  27.912  25.527  1.00  0.00     0.127 S 
ATOM     71  O   UNL A   1      42.435  26.714  24.717  1.00  0.00    -0.237 OA
ATOM     72  O   UNL A   1      41.960  29.109  25.036  1.00  0.00    -0.237 OA
ATOM     73  O   UNL A   1      44.016  28.136  25.967  1.00  0.00    -0.744 OA
ENDBRANCH  67  70
ENDBRANCH  49  63
BRANCH  50  74
ATOM     74  C   UNL A   1      39.918  34.040  37.163  1.00  0.00     0.023 A 
ATOM     75  C   UNL A   1      40.463  35.337  37.184  1.00  0.00     0.012 A 
ATOM     76  C   UNL A   1      39.201  33.578  38.284  1.00  0.00     0.148 A 
ATOM     77  C   UNL A   1      40.328  36.147  38.311  1.00  0.00     0.002 A 
ATOM     78  C   UNL A   1      39.022  34.409  39.383  1.00  0.00     0.091 A 
ATOM     79  F   UNL A   1      38.700  32.334  38.249  1.00  0.00    -0.205 F 
ATOM     80  C   UNL A   1      39.600  35.688  39.406  1.00  0.00     0.022 A 
BRANCH  78  81
ATOM     81  S   UNL A   1      37.995  33.950  40.783  1.00  0.00     0.127 S 
ATOM     82  O   UNL A   1      38.916  33.144  41.579  1.00  0.00    -0.237 OA
ATOM     83  O   UNL A   1      37.666  35.256  41.355  1.00  0.00    -0.237 OA
ATOM     84  O   UNL A   1      36.855  33.238  40.222  1.00  0.00    -0.744 OA
ENDBRANCH  78  81
ENDBRANCH  50  74
BRANCH  62  85
ATOM     85  C   UNL A   1      44.250  28.792  35.544  1.00  0.00     0.023 A 
ATOM     86  C   UNL A   1      45.555  29.295  35.382  1.00  0.00     0.012 A 
ATOM     87  C   UNL A   1      44.014  27.759  36.473  1.00  0.00     0.148 A 
ATOM     88  C   UNL A   1      46.612  28.763  36.121  1.00  0.00     0.002 A 
ATOM     89  C   UNL A   1      45.062  27.271  37.243  1.00  0.00     0.091 A 
ATOM     90  F   UNL A   1      42.766  27.285  36.596  1.00  0.00    -0.205 F 
ATOM     91  C   UNL A   1      46.364  27.764  37.060  1.00  0.00     0.022 A 
BRANCH  89  92
ATOM     92  S   UNL A   1      44.818  26.061  38.547  1.00  0.00     0.127 S 
ATOM     93  O   UNL A   1      44.380  24.891  37.790  1.00  0.00    -0.237 OA
ATOM     94  O   UNL A   1      46.161  25.951  39.119  1.00  0.00    -0.237 OA
ATOM     95  O   UNL A   1      43.821  26.629  39.445  1.00  0.00    -0.744 OA
ENDBRANCH  89  92
ENDBRANCH  62  85
ENDBRANCH  36  37
ENDBRANCH  29  31
ENDBRANCH  28  29
ENDBRANCH  27  28
ENDBRANCH   1  27
TORSDOF 20
ENDMDL
