MODEL 1
REMARK VINA RESULT:     -11.0      0.000      0.000
REMARK SMILES COc1cc(C[N@@H+]2CCO[C@@H](CC(=O)OCCOCCOC(=O)c3ccc(-c4c5nc(c(-c6cccc(S(=O)(=O)[O-])c6F)c6ccc([nH]6)c(-c6cccc(S(=O)(=O)[O-])c6F)c6nc(c(-c7cccc(S(=O)(=O)[O-])c7F)c7ccc4[nH]7)C=C6)C=C5)cc3)C2)ccc1O
REMARK SMILES IDX 17 1 16 2 15 3 13 4 14 5 12 6 11 7 7 8 8 9 87 10 9 12 10 13
REMARK SMILES IDX 6 14 5 15 3 16 4 17 90 18 89 19 88 20 2 21 1 22 91 23 18 25
REMARK SMILES IDX 19 26 20 27 21 28 22 29 23 30 24 31 25 32 86 33 26 34 85 35
REMARK SMILES IDX 27 36 28 37 29 38 79 39 30 40 84 41 78 42 80 43 31 44 83 45
REMARK SMILES IDX 77 46 76 47 32 49 64 50 44 51 63 52 45 53 48 54 62 55 81 56
REMARK SMILES IDX 46 57 47 58 61 60 82 61 49 62 33 63 34 64 42 65 35 66 37 67
REMARK SMILES IDX 43 68 36 69 38 70 39 71 40 72 41 73 65 74 66 75 74 76 67 77
REMARK SMILES IDX 69 78 75 79 68 80 70 81 71 82 72 83 73 84 50 85 51 86 59 87
REMARK SMILES IDX 52 88 54 89 60 90 53 91 55 92 56 93 57 94 58 95
REMARK H PARENT 7 11 91 24 80 48 48 59
REMARK Flexibility Score: inf
ROOT
ATOM      1  C   UNL A   1      32.808  28.783  27.073  1.00  0.00     0.202 C 
ENDROOT
BRANCH   1   2
ATOM      2  C   UNL A   1      32.339  27.341  26.853  1.00  0.00     0.261 C 
BRANCH   2   3
ATOM      3  O   UNL A   1      30.910  27.146  26.933  1.00  0.00    -0.463 OA
BRANCH   3   4
ATOM      4  C   UNL A   1      30.418  26.135  26.170  1.00  0.00     0.308 C 
ATOM      5  O   UNL A   1      29.965  25.084  26.613  1.00  0.00    -0.252 OA
BRANCH   4   6
ATOM      6  C   UNL A   1      30.612  26.359  24.699  1.00  0.00     0.160 C 
BRANCH   6   7
ATOM      7  C   UNL A   1      31.774  25.704  23.952  1.00  0.00     0.184 C 
ATOM      8  N   UNL A   1      32.345  24.125  22.024  1.00  0.00    -0.327 N 
ATOM      9  C   UNL A   1      32.885  25.289  21.330  1.00  0.00     0.291 C 
ATOM     10  C   UNL A   1      31.378  24.493  23.069  1.00  0.00     0.295 C 
ATOM     11  H   UNL A   1      31.756  23.634  21.352  1.00  0.00     0.348 HD
ATOM     12  C   UNL A   1      33.314  26.423  22.265  1.00  0.00     0.222 C 
ATOM     13  O   UNL A   1      32.262  26.803  23.142  1.00  0.00    -0.366 OA
BRANCH   8  14
ATOM     14  C   UNL A   1      33.255  23.001  22.238  1.00  0.00     0.299 C 
BRANCH  14  15
ATOM     15  C   UNL A   1      34.242  23.095  23.380  1.00  0.00     0.010 A 
ATOM     16  C   UNL A   1      34.780  23.097  25.756  1.00  0.00     0.160 A 
ATOM     17  C   UNL A   1      33.840  23.140  24.722  1.00  0.00     0.060 A 
ATOM     18  C   UNL A   1      36.141  23.113  25.450  1.00  0.00     0.157 A 
ATOM     19  C   UNL A   1      36.560  23.174  24.130  1.00  0.00     0.051 A 
ATOM     20  C   UNL A   1      35.611  23.193  23.105  1.00  0.00     0.013 A 
BRANCH  16  21
ATOM     21  O   UNL A   1      34.300  23.119  27.038  1.00  0.00    -0.493 OA
ATOM     22  C   UNL A   1      33.978  21.821  27.544  1.00  0.00     0.278 C 
ENDBRANCH  16  21
BRANCH  18  23
ATOM     23  O   UNL A   1      37.105  23.133  26.416  1.00  0.00    -0.504 OA
ATOM     24  H   UNL A   1      37.365  23.947  26.802  1.00  0.00     0.293 HD
ENDBRANCH  18  23
ENDBRANCH  14  15
ENDBRANCH   8  14
ENDBRANCH   6   7
ENDBRANCH   4   6
ENDBRANCH   3   4
ENDBRANCH   2   3
ENDBRANCH   1   2
BRANCH   1  25
ATOM     25  O   UNL A   1      31.804  29.786  27.197  1.00  0.00    -0.374 OA
BRANCH  25  26
ATOM     26  C   UNL A   1      31.785  30.814  26.218  1.00  0.00     0.202 C 
BRANCH  26  27
ATOM     27  C   UNL A   1      31.950  32.246  26.722  1.00  0.00     0.261 C 
BRANCH  27  28
ATOM     28  O   UNL A   1      32.702  32.353  27.943  1.00  0.00    -0.460 OA
BRANCH  28  29
ATOM     29  C   UNL A   1      33.746  33.214  27.895  1.00  0.00     0.338 C 
ATOM     30  O   UNL A   1      33.686  34.434  27.753  1.00  0.00    -0.246 OA
BRANCH  29  31
ATOM     31  C   UNL A   1      35.017  32.525  28.172  1.00  0.00     0.060 A 
ATOM     32  C   UNL A   1      34.968  31.179  28.556  1.00  0.00     0.016 A 
ATOM     33  C   UNL A   1      36.226  33.222  28.203  1.00  0.00     0.016 A 
ATOM     34  C   UNL A   1      36.123  30.539  29.010  1.00  0.00     0.010 A 
ATOM     35  C   UNL A   1      37.383  32.577  28.660  1.00  0.00     0.010 A 
ATOM     36  C   UNL A   1      37.331  31.243  29.104  1.00  0.00    -0.014 A 
BRANCH  36  37
ATOM     37  C   UNL A   1      38.496  30.619  29.785  1.00  0.00     0.031 A 
ATOM     38  C   UNL A   1      38.830  31.021  31.199  1.00  0.00     0.074 A 
ATOM     39  C   UNL A   1      39.243  29.690  29.162  1.00  0.00     0.049 A 
ATOM     40  N   UNL A   1      39.769  30.564  31.988  1.00  0.00    -0.248 NA
ATOM     41  C   UNL A   1      38.001  32.076  31.802  1.00  0.00     0.031 C 
ATOM     42  C   UNL A   1      39.040  29.226  27.791  1.00  0.00     0.029 A 
ATOM     43  N   UNL A   1      40.335  28.981  29.600  1.00  0.00    -0.354 N 
ATOM     44  C   UNL A   1      39.655  31.285  33.171  1.00  0.00     0.074 A 
ATOM     45  C   UNL A   1      38.569  32.224  32.991  1.00  0.00     0.031 C 
ATOM     46  C   UNL A   1      39.989  28.322  27.492  1.00  0.00     0.029 A 
ATOM     47  C   UNL A   1      40.870  28.148  28.646  1.00  0.00     0.049 A 
ATOM     48  H   UNL A   1      40.699  29.060  30.510  1.00  0.00     0.167 HD
ATOM     49  C   UNL A   1      40.370  31.162  34.316  1.00  0.00     0.034 A 
ATOM     50  C   UNL A   1      41.950  27.340  28.695  1.00  0.00     0.034 A 
ATOM     51  C   UNL A   1      41.434  30.213  34.511  1.00  0.00     0.049 A 
ATOM     52  C   UNL A   1      42.730  27.221  29.980  1.00  0.00     0.074 A 
ATOM     53  C   UNL A   1      42.177  29.977  35.654  1.00  0.00     0.029 A 
ATOM     54  N   UNL A   1      41.913  29.351  33.539  1.00  0.00    -0.354 N 
ATOM     55  N   UNL A   1      42.511  27.801  31.135  1.00  0.00    -0.248 NA
ATOM     56  C   UNL A   1      43.882  26.306  29.978  1.00  0.00     0.031 C 
ATOM     57  C   UNL A   1      43.117  28.982  35.368  1.00  0.00     0.029 A 
ATOM     58  C   UNL A   1      42.947  28.587  34.051  1.00  0.00     0.049 A 
ATOM     59  H   UNL A   1      41.568  29.289  32.619  1.00  0.00     0.167 HD
ATOM     60  C   UNL A   1      43.472  27.296  32.004  1.00  0.00     0.074 A 
ATOM     61  C   UNL A   1      44.263  26.348  31.248  1.00  0.00     0.031 C 
ATOM     62  C   UNL A   1      43.689  27.601  33.308  1.00  0.00     0.034 A 
BRANCH  49  63
ATOM     63  C   UNL A   1      39.993  32.048  35.473  1.00  0.00     0.023 A 
ATOM     64  C   UNL A   1      40.616  33.306  35.612  1.00  0.00     0.012 A 
ATOM     65  C   UNL A   1      38.988  31.670  36.383  1.00  0.00     0.148 A 
ATOM     66  C   UNL A   1      40.265  34.160  36.655  1.00  0.00     0.002 A 
ATOM     67  C   UNL A   1      38.617  32.543  37.400  1.00  0.00     0.091 A 
ATOM     68  F   UNL A   1      38.424  30.461  36.249  1.00  0.00    -0.205 F 
ATOM     69  C   UNL A   1      39.260  33.784  37.542  1.00  0.00     0.022 A 
BRANCH  67  70
ATOM     70  S   UNL A   1      37.285  32.177  38.549  1.00  0.00     0.127 S 
ATOM     71  O   UNL A   1      37.838  32.672  39.809  1.00  0.00    -0.237 OA
ATOM     72  O   UNL A   1      36.182  32.975  38.013  1.00  0.00    -0.237 OA
ATOM     73  O   UNL A   1      37.081  30.737  38.476  1.00  0.00    -0.744 OA
ENDBRANCH  67  70
ENDBRANCH  49  63
BRANCH  50  74
ATOM     74  C   UNL A   1      42.324  26.528  27.502  1.00  0.00     0.023 A 
ATOM     75  C   UNL A   1      43.050  27.126  26.455  1.00  0.00     0.012 A 
ATOM     76  C   UNL A   1      41.980  25.165  27.410  1.00  0.00     0.148 A 
ATOM     77  C   UNL A   1      43.405  26.389  25.324  1.00  0.00     0.002 A 
ATOM     78  C   UNL A   1      42.383  24.423  26.305  1.00  0.00     0.091 A 
ATOM     79  F   UNL A   1      41.268  24.620  28.406  1.00  0.00    -0.205 F 
ATOM     80  C   UNL A   1      43.082  25.036  25.254  1.00  0.00     0.022 A 
BRANCH  78  81
ATOM     81  S   UNL A   1      42.118  22.650  26.194  1.00  0.00     0.127 S 
ATOM     82  O   UNL A   1      42.759  22.175  27.417  1.00  0.00    -0.237 OA
ATOM     83  O   UNL A   1      40.658  22.561  26.188  1.00  0.00    -0.237 OA
ATOM     84  O   UNL A   1      42.747  22.241  24.946  1.00  0.00    -0.744 OA
ENDBRANCH  78  81
ENDBRANCH  50  74
BRANCH  62  85
ATOM     85  C   UNL A   1      44.809  26.888  34.022  1.00  0.00     0.023 A 
ATOM     86  C   UNL A   1      46.118  27.408  33.960  1.00  0.00     0.012 A 
ATOM     87  C   UNL A   1      44.552  25.756  34.821  1.00  0.00     0.148 A 
ATOM     88  C   UNL A   1      47.157  26.796  34.660  1.00  0.00     0.002 A 
ATOM     89  C   UNL A   1      45.585  25.179  35.552  1.00  0.00     0.091 A 
ATOM     90  F   UNL A   1      43.306  25.264  34.852  1.00  0.00    -0.205 F 
ATOM     91  C   UNL A   1      46.889  25.691  35.464  1.00  0.00     0.022 A 
BRANCH  89  92
ATOM     92  S   UNL A   1      45.310  23.810  36.684  1.00  0.00     0.127 S 
ATOM     93  O   UNL A   1      44.586  22.864  35.837  1.00  0.00    -0.237 OA
ATOM     94  O   UNL A   1      46.674  23.404  37.024  1.00  0.00    -0.237 OA
ATOM     95  O   UNL A   1      44.553  24.363  37.799  1.00  0.00    -0.744 OA
ENDBRANCH  89  92
ENDBRANCH  62  85
ENDBRANCH  36  37
ENDBRANCH  29  31
ENDBRANCH  28  29
ENDBRANCH  27  28
ENDBRANCH  26  27
ENDBRANCH  25  26
ENDBRANCH   1  25
TORSDOF 22
ENDMDL
MODEL 2
REMARK VINA RESULT:     -10.7      1.929      2.366
REMARK SMILES COc1cc(C[N@@H+]2CCO[C@@H](CC(=O)OCCOCCOC(=O)c3ccc(-c4c5nc(c(-c6cccc(S(=O)(=O)[O-])c6F)c6ccc([nH]6)c(-c6cccc(S(=O)(=O)[O-])c6F)c6nc(c(-c7cccc(S(=O)(=O)[O-])c7F)c7ccc4[nH]7)C=C6)C=C5)cc3)C2)ccc1O
REMARK SMILES IDX 17 1 16 2 15 3 13 4 14 5 12 6 11 7 7 8 8 9 87 10 9 12 10 13
REMARK SMILES IDX 6 14 5 15 3 16 4 17 90 18 89 19 88 20 2 21 1 22 91 23 18 25
REMARK SMILES IDX 19 26 20 27 21 28 22 29 23 30 24 31 25 32 86 33 26 34 85 35
REMARK SMILES IDX 27 36 28 37 29 38 79 39 30 40 84 41 78 42 80 43 31 44 83 45
REMARK SMILES IDX 77 46 76 47 32 49 64 50 44 51 63 52 45 53 48 54 62 55 81 56
REMARK SMILES IDX 46 57 47 58 61 60 82 61 49 62 33 63 34 64 42 65 35 66 37 67
REMARK SMILES IDX 43 68 36 69 38 70 39 71 40 72 41 73 65 74 66 75 74 76 67 77
REMARK SMILES IDX 69 78 75 79 68 80 70 81 71 82 72 83 73 84 50 85 51 86 59 87
REMARK SMILES IDX 52 88 54 89 60 90 53 91 55 92 56 93 57 94 58 95
REMARK H PARENT 7 11 91 24 80 48 48 59
REMARK Flexibility Score: inf
ROOT
ATOM      1  C   UNL A   1      32.821  28.696  27.106  1.00  0.00     0.202 C 
ENDROOT
BRANCH   1   2
ATOM      2  C   UNL A   1      32.436  27.229  26.888  1.00  0.00     0.261 C 
BRANCH   2   3
ATOM      3  O   UNL A   1      31.034  26.934  27.072  1.00  0.00    -0.463 OA
BRANCH   3   4
ATOM      4  C   UNL A   1      30.477  26.138  26.121  1.00  0.00     0.308 C 
ATOM      5  O   UNL A   1      29.906  25.075  26.348  1.00  0.00    -0.252 OA
BRANCH   4   6
ATOM      6  C   UNL A   1      30.753  26.610  24.724  1.00  0.00     0.160 C 
BRANCH   6   7
ATOM      7  C   UNL A   1      31.885  25.999  23.898  1.00  0.00     0.184 C 
ATOM      8  N   UNL A   1      32.429  24.163  22.203  1.00  0.00    -0.327 N 
ATOM      9  C   UNL A   1      32.630  25.228  21.227  1.00  0.00     0.291 C 
ATOM     10  C   UNL A   1      31.585  24.587  23.331  1.00  0.00     0.295 C 
ATOM     11  H   UNL A   1      31.842  23.462  21.751  1.00  0.00     0.348 HD
ATOM     12  C   UNL A   1      32.984  26.581  21.851  1.00  0.00     0.222 C 
ATOM     13  O   UNL A   1      32.030  26.969  22.831  1.00  0.00    -0.366 OA
BRANCH   8  14
ATOM     14  C   UNL A   1      33.552  23.257  22.436  1.00  0.00     0.299 C 
BRANCH  14  15
ATOM     15  C   UNL A   1      33.384  22.169  23.472  1.00  0.00     0.010 A 
ATOM     16  C   UNL A   1      33.806  21.223  25.677  1.00  0.00     0.160 A 
ATOM     17  C   UNL A   1      34.080  22.174  24.689  1.00  0.00     0.060 A 
ATOM     18  C   UNL A   1      32.902  20.195  25.412  1.00  0.00     0.157 A 
ATOM     19  C   UNL A   1      32.282  20.111  24.175  1.00  0.00     0.051 A 
ATOM     20  C   UNL A   1      32.546  21.081  23.204  1.00  0.00     0.013 A 
BRANCH  16  21
ATOM     21  O   UNL A   1      34.512  21.317  26.847  1.00  0.00    -0.493 OA
ATOM     22  C   UNL A   1      33.921  22.206  27.796  1.00  0.00     0.278 C 
ENDBRANCH  16  21
BRANCH  18  23
ATOM     23  O   UNL A   1      32.639  19.205  26.313  1.00  0.00    -0.504 OA
ATOM     24  H   UNL A   1      31.937  18.603  26.158  1.00  0.00     0.293 HD
ENDBRANCH  18  23
ENDBRANCH  14  15
ENDBRANCH   8  14
ENDBRANCH   6   7
ENDBRANCH   4   6
ENDBRANCH   3   4
ENDBRANCH   2   3
ENDBRANCH   1   2
BRANCH   1  25
ATOM     25  O   UNL A   1      31.767  29.654  27.124  1.00  0.00    -0.374 OA
BRANCH  25  26
ATOM     26  C   UNL A   1      31.746  30.621  26.085  1.00  0.00     0.202 C 
BRANCH  26  27
ATOM     27  C   UNL A   1      31.795  32.087  26.509  1.00  0.00     0.261 C 
BRANCH  27  28
ATOM     28  O   UNL A   1      32.432  32.307  27.780  1.00  0.00    -0.460 OA
BRANCH  28  29
ATOM     29  C   UNL A   1      33.448  33.201  27.760  1.00  0.00     0.338 C 
ATOM     30  O   UNL A   1      33.352  34.419  27.616  1.00  0.00    -0.246 OA
BRANCH  29  31
ATOM     31  C   UNL A   1      34.733  32.554  28.071  1.00  0.00     0.060 A 
ATOM     32  C   UNL A   1      34.717  31.208  28.459  1.00  0.00     0.016 A 
ATOM     33  C   UNL A   1      35.918  33.289  28.128  1.00  0.00     0.016 A 
ATOM     34  C   UNL A   1      35.880  30.606  28.944  1.00  0.00     0.010 A 
ATOM     35  C   UNL A   1      37.083  32.683  28.617  1.00  0.00     0.010 A 
ATOM     36  C   UNL A   1      37.062  31.349  29.065  1.00  0.00    -0.014 A 
BRANCH  36  37
ATOM     37  C   UNL A   1      38.229  30.765  29.778  1.00  0.00     0.031 A 
ATOM     38  C   UNL A   1      38.511  31.176  31.200  1.00  0.00     0.074 A 
ATOM     39  C   UNL A   1      39.025  29.862  29.174  1.00  0.00     0.049 A 
ATOM     40  N   UNL A   1      39.443  30.751  32.015  1.00  0.00    -0.248 NA
ATOM     41  C   UNL A   1      37.630  32.202  31.780  1.00  0.00     0.031 C 
ATOM     42  C   UNL A   1      38.874  29.393  27.799  1.00  0.00     0.029 A 
ATOM     43  N   UNL A   1      40.128  29.191  29.642  1.00  0.00    -0.354 N 
ATOM     44  C   UNL A   1      39.273  31.466  33.194  1.00  0.00     0.074 A 
ATOM     45  C   UNL A   1      38.161  32.367  32.984  1.00  0.00     0.031 C 
ATOM     46  C   UNL A   1      39.862  28.522  27.526  1.00  0.00     0.029 A 
ATOM     47  C   UNL A   1      40.717  28.378  28.702  1.00  0.00     0.049 A 
ATOM     48  H   UNL A   1      40.464  29.282  30.561  1.00  0.00     0.167 HD
ATOM     49  C   UNL A   1      39.961  31.367  34.357  1.00  0.00     0.034 A 
ATOM     50  C   UNL A   1      41.822  27.608  28.780  1.00  0.00     0.034 A 
ATOM     51  C   UNL A   1      41.050  30.455  34.582  1.00  0.00     0.049 A 
ATOM     52  C   UNL A   1      42.570  27.514  30.086  1.00  0.00     0.074 A 
ATOM     53  C   UNL A   1      41.770  30.243  35.744  1.00  0.00     0.029 A 
ATOM     54  N   UNL A   1      41.585  29.610  33.622  1.00  0.00    -0.354 N 
ATOM     55  N   UNL A   1      42.300  28.084  31.235  1.00  0.00    -0.248 NA
ATOM     56  C   UNL A   1      43.753  26.639  30.115  1.00  0.00     0.031 C 
ATOM     57  C   UNL A   1      42.751  29.280  35.483  1.00  0.00     0.029 A 
ATOM     58  C   UNL A   1      42.631  28.882  34.163  1.00  0.00     0.049 A 
ATOM     59  H   UNL A   1      41.268  29.538  32.693  1.00  0.00     0.167 HD
ATOM     60  C   UNL A   1      43.255  27.612  32.130  1.00  0.00     0.074 A 
ATOM     61  C   UNL A   1      44.098  26.692  31.395  1.00  0.00     0.031 C 
ATOM     62  C   UNL A   1      43.426  27.922  33.439  1.00  0.00     0.034 A 
BRANCH  49  63
ATOM     63  C   UNL A   1      39.521  32.238  35.504  1.00  0.00     0.023 A 
ATOM     64  C   UNL A   1      38.668  31.702  36.490  1.00  0.00     0.012 A 
ATOM     65  C   UNL A   1      39.994  33.557  35.639  1.00  0.00     0.148 A 
ATOM     66  C   UNL A   1      38.269  32.475  37.579  1.00  0.00     0.002 A 
ATOM     67  C   UNL A   1      39.622  34.310  36.748  1.00  0.00     0.091 A 
ATOM     68  F   UNL A   1      40.785  34.057  34.680  1.00  0.00    -0.205 F 
ATOM     69  C   UNL A   1      38.753  33.774  37.713  1.00  0.00     0.022 A 
BRANCH  67  70
ATOM     70  S   UNL A   1      40.248  35.968  37.044  1.00  0.00     0.127 S 
ATOM     71  O   UNL A   1      39.780  36.678  35.855  1.00  0.00    -0.237 OA
ATOM     72  O   UNL A   1      39.567  36.342  38.284  1.00  0.00    -0.237 OA
ATOM     73  O   UNL A   1      41.692  35.832  37.166  1.00  0.00    -0.744 OA
ENDBRANCH  67  70
ENDBRANCH  49  63
BRANCH  50  74
ATOM     74  C   UNL A   1      42.256  26.810  27.598  1.00  0.00     0.023 A 
ATOM     75  C   UNL A   1      43.014  27.427  26.585  1.00  0.00     0.012 A 
ATOM     76  C   UNL A   1      41.938  25.443  27.483  1.00  0.00     0.148 A 
ATOM     77  C   UNL A   1      43.425  26.704  25.464  1.00  0.00     0.002 A 
ATOM     78  C   UNL A   1      42.395  24.715  26.390  1.00  0.00     0.091 A 
ATOM     79  F   UNL A   1      41.195  24.880  28.446  1.00  0.00    -0.205 F 
ATOM     80  C   UNL A   1      43.126  25.347  25.372  1.00  0.00     0.022 A 
BRANCH  78  81
ATOM     81  S   UNL A   1      42.163  22.939  26.257  1.00  0.00     0.127 S 
ATOM     82  O   UNL A   1      40.710  22.820  26.340  1.00  0.00    -0.237 OA
ATOM     83  O   UNL A   1      42.730  22.657  24.938  1.00  0.00    -0.237 OA
ATOM     84  O   UNL A   1      42.913  22.365  27.365  1.00  0.00    -0.744 OA
ENDBRANCH  78  81
ENDBRANCH  50  74
BRANCH  62  85
ATOM     85  C   UNL A   1      44.550  27.248  34.184  1.00  0.00     0.023 A 
ATOM     86  C   UNL A   1      44.319  26.012  34.822  1.00  0.00     0.012 A 
ATOM     87  C   UNL A   1      45.849  27.792  34.180  1.00  0.00     0.148 A 
ATOM     88  C   UNL A   1      45.360  25.343  35.467  1.00  0.00     0.002 A 
ATOM     89  C   UNL A   1      46.890  27.097  34.786  1.00  0.00     0.091 A 
ATOM     90  F   UNL A   1      46.045  28.978  33.585  1.00  0.00    -0.205 F 
ATOM     91  C   UNL A   1      46.645  25.879  35.439  1.00  0.00     0.022 A 
BRANCH  89  92
ATOM     92  S   UNL A   1      48.593  27.670  34.717  1.00  0.00     0.127 S 
ATOM     93  O   UNL A   1      48.539  28.867  35.554  1.00  0.00    -0.237 OA
ATOM     94  O   UNL A   1      49.326  26.547  35.304  1.00  0.00    -0.237 OA
ATOM     95  O   UNL A   1      48.877  27.900  33.307  1.00  0.00    -0.744 OA
ENDBRANCH  89  92
ENDBRANCH  62  85
ENDBRANCH  36  37
ENDBRANCH  29  31
ENDBRANCH  28  29
ENDBRANCH  27  28
ENDBRANCH  26  27
ENDBRANCH  25  26
ENDBRANCH   1  25
TORSDOF 22
ENDMDL
MODEL 3
REMARK VINA RESULT:     -10.5      2.187      2.710
REMARK SMILES COc1cc(C[N@@H+]2CCO[C@@H](CC(=O)OCCOCCOC(=O)c3ccc(-c4c5nc(c(-c6cccc(S(=O)(=O)[O-])c6F)c6ccc([nH]6)c(-c6cccc(S(=O)(=O)[O-])c6F)c6nc(c(-c7cccc(S(=O)(=O)[O-])c7F)c7ccc4[nH]7)C=C6)C=C5)cc3)C2)ccc1O
REMARK SMILES IDX 17 1 16 2 15 3 13 4 14 5 12 6 11 7 7 8 8 9 87 10 9 12 10 13
REMARK SMILES IDX 6 14 5 15 3 16 4 17 90 18 89 19 88 20 2 21 1 22 91 23 18 25
REMARK SMILES IDX 19 26 20 27 21 28 22 29 23 30 24 31 25 32 86 33 26 34 85 35
REMARK SMILES IDX 27 36 28 37 29 38 79 39 30 40 84 41 78 42 80 43 31 44 83 45
REMARK SMILES IDX 77 46 76 47 32 49 64 50 44 51 63 52 45 53 48 54 62 55 81 56
REMARK SMILES IDX 46 57 47 58 61 60 82 61 49 62 33 63 34 64 42 65 35 66 37 67
REMARK SMILES IDX 43 68 36 69 38 70 39 71 40 72 41 73 65 74 66 75 74 76 67 77
REMARK SMILES IDX 69 78 75 79 68 80 70 81 71 82 72 83 73 84 50 85 51 86 59 87
REMARK SMILES IDX 52 88 54 89 60 90 53 91 55 92 56 93 57 94 58 95
REMARK H PARENT 7 11 91 24 80 48 48 59
REMARK Flexibility Score: inf
ROOT
ATOM      1  C   UNL A   1      32.581  27.814  26.089  1.00  0.00     0.202 C 
ENDROOT
BRANCH   1   2
ATOM      2  C   UNL A   1      33.544  28.028  24.916  1.00  0.00     0.261 C 
BRANCH   2   3
ATOM      3  O   UNL A   1      33.953  26.821  24.237  1.00  0.00    -0.463 OA
BRANCH   3   4
ATOM      4  C   UNL A   1      33.225  26.499  23.136  1.00  0.00     0.308 C 
ATOM      5  O   UNL A   1      32.374  27.222  22.625  1.00  0.00    -0.252 OA
BRANCH   4   6
ATOM      6  C   UNL A   1      33.452  25.090  22.672  1.00  0.00     0.160 C 
BRANCH   6   7
ATOM      7  C   UNL A   1      32.618  23.936  23.229  1.00  0.00     0.184 C 
ATOM      8  N   UNL A   1      32.742  21.807  24.640  1.00  0.00    -0.327 N 
ATOM      9  C   UNL A   1      31.968  22.522  25.650  1.00  0.00     0.291 C 
ATOM     10  C   UNL A   1      33.442  22.717  23.720  1.00  0.00     0.295 C 
ATOM     11  H   UNL A   1      33.518  21.362  25.130  1.00  0.00     0.348 HD
ATOM     12  C   UNL A   1      31.131  23.673  25.087  1.00  0.00     0.222 C 
ATOM     13  O   UNL A   1      31.925  24.576  24.330  1.00  0.00    -0.366 OA
BRANCH   8  14
ATOM     14  C   UNL A   1      32.178  20.556  24.136  1.00  0.00     0.299 C 
BRANCH  14  15
ATOM     15  C   UNL A   1      33.017  19.303  24.248  1.00  0.00     0.010 A 
ATOM     16  C   UNL A   1      35.120  18.163  24.704  1.00  0.00     0.160 A 
ATOM     17  C   UNL A   1      34.398  19.339  24.479  1.00  0.00     0.060 A 
ATOM     18  C   UNL A   1      34.478  16.930  24.596  1.00  0.00     0.157 A 
ATOM     19  C   UNL A   1      33.134  16.868  24.264  1.00  0.00     0.051 A 
ATOM     20  C   UNL A   1      32.418  18.052  24.064  1.00  0.00     0.013 A 
BRANCH  16  21
ATOM     21  O   UNL A   1      36.461  18.291  24.949  1.00  0.00    -0.493 OA
ATOM     22  C   UNL A   1      36.935  19.634  24.827  1.00  0.00     0.278 C 
ENDBRANCH  16  21
BRANCH  18  23
ATOM     23  O   UNL A   1      35.142  15.747  24.745  1.00  0.00    -0.504 OA
ATOM     24  H   UNL A   1      36.065  15.744  24.913  1.00  0.00     0.293 HD
ENDBRANCH  18  23
ENDBRANCH  14  15
ENDBRANCH   8  14
ENDBRANCH   6   7
ENDBRANCH   4   6
ENDBRANCH   3   4
ENDBRANCH   2   3
ENDBRANCH   1   2
BRANCH   1  25
ATOM     25  O   UNL A   1      31.787  28.925  26.496  1.00  0.00    -0.374 OA
BRANCH  25  26
ATOM     26  C   UNL A   1      31.686  30.018  25.596  1.00  0.00     0.202 C 
BRANCH  26  27
ATOM     27  C   UNL A   1      31.654  31.415  26.211  1.00  0.00     0.261 C 
BRANCH  27  28
ATOM     28  O   UNL A   1      32.316  31.508  27.485  1.00  0.00    -0.460 OA
BRANCH  28  29
ATOM     29  C   UNL A   1      33.238  32.495  27.577  1.00  0.00     0.338 C 
ATOM     30  O   UNL A   1      33.028  33.705  27.515  1.00  0.00    -0.246 OA
BRANCH  29  31
ATOM     31  C   UNL A   1      34.567  31.952  27.903  1.00  0.00     0.060 A 
ATOM     32  C   UNL A   1      34.672  30.583  28.178  1.00  0.00     0.016 A 
ATOM     33  C   UNL A   1      35.667  32.793  28.084  1.00  0.00     0.016 A 
ATOM     34  C   UNL A   1      35.868  30.059  28.675  1.00  0.00     0.010 A 
ATOM     35  C   UNL A   1      36.865  32.265  28.584  1.00  0.00     0.010 A 
ATOM     36  C   UNL A   1      36.961  30.901  28.920  1.00  0.00    -0.014 A 
BRANCH  36  37
ATOM     37  C   UNL A   1      38.147  30.375  29.644  1.00  0.00     0.031 A 
ATOM     38  C   UNL A   1      38.402  30.809  31.064  1.00  0.00     0.074 A 
ATOM     39  C   UNL A   1      38.987  29.505  29.052  1.00  0.00     0.049 A 
ATOM     40  N   UNL A   1      39.346  30.432  31.888  1.00  0.00    -0.248 NA
ATOM     41  C   UNL A   1      37.471  31.798  31.632  1.00  0.00     0.031 C 
ATOM     42  C   UNL A   1      38.867  29.020  27.679  1.00  0.00     0.029 A 
ATOM     43  N   UNL A   1      40.115  28.887  29.532  1.00  0.00    -0.354 N 
ATOM     44  C   UNL A   1      39.136  31.148  33.061  1.00  0.00     0.074 A 
ATOM     45  C   UNL A   1      37.986  31.996  32.838  1.00  0.00     0.031 C 
ATOM     46  C   UNL A   1      39.894  28.192  27.419  1.00  0.00     0.029 A 
ATOM     47  C   UNL A   1      40.747  28.095  28.602  1.00  0.00     0.049 A 
ATOM     48  H   UNL A   1      40.442  29.000  30.453  1.00  0.00     0.167 HD
ATOM     49  C   UNL A   1      39.820  31.087  34.230  1.00  0.00     0.034 A 
ATOM     50  C   UNL A   1      41.885  27.375  28.693  1.00  0.00     0.034 A 
ATOM     51  C   UNL A   1      40.948  30.227  34.468  1.00  0.00     0.049 A 
ATOM     52  C   UNL A   1      42.628  27.325  30.004  1.00  0.00     0.074 A 
ATOM     53  C   UNL A   1      41.668  30.056  35.637  1.00  0.00     0.029 A 
ATOM     54  N   UNL A   1      41.526  29.400  33.518  1.00  0.00    -0.354 N 
ATOM     55  N   UNL A   1      42.325  27.891  31.147  1.00  0.00    -0.248 NA
ATOM     56  C   UNL A   1      43.848  26.504  30.047  1.00  0.00     0.031 C 
ATOM     57  C   UNL A   1      42.693  29.136  35.389  1.00  0.00     0.029 A 
ATOM     58  C   UNL A   1      42.600  28.723  34.070  1.00  0.00     0.049 A 
ATOM     59  H   UNL A   1      41.219  29.307  32.588  1.00  0.00     0.167 HD
ATOM     60  C   UNL A   1      43.294  27.468  32.052  1.00  0.00     0.074 A 
ATOM     61  C   UNL A   1      44.182  26.582  31.329  1.00  0.00     0.031 C 
ATOM     62  C   UNL A   1      43.442  27.795  33.360  1.00  0.00     0.034 A 
BRANCH  49  63
ATOM     63  C   UNL A   1      39.334  31.946  35.367  1.00  0.00     0.023 A 
ATOM     64  C   UNL A   1      38.434  31.403  36.307  1.00  0.00     0.012 A 
ATOM     65  C   UNL A   1      39.808  33.260  35.541  1.00  0.00     0.148 A 
ATOM     66  C   UNL A   1      37.991  32.164  37.386  1.00  0.00     0.002 A 
ATOM     67  C   UNL A   1      39.390  34.001  36.642  1.00  0.00     0.091 A 
ATOM     68  F   UNL A   1      40.644  33.768  34.624  1.00  0.00    -0.205 F 
ATOM     69  C   UNL A   1      38.476  33.458  37.560  1.00  0.00     0.022 A 
BRANCH  67  70
ATOM     70  S   UNL A   1      40.012  35.651  36.987  1.00  0.00     0.127 S 
ATOM     71  O   UNL A   1      39.330  35.967  38.241  1.00  0.00    -0.237 OA
ATOM     72  O   UNL A   1      41.451  35.421  37.118  1.00  0.00    -0.237 OA
ATOM     73  O   UNL A   1      39.632  36.467  35.843  1.00  0.00    -0.744 OA
ENDBRANCH  67  70
ENDBRANCH  49  63
BRANCH  50  74
ATOM     74  C   UNL A   1      42.362  26.589  27.520  1.00  0.00     0.023 A 
ATOM     75  C   UNL A   1      43.148  27.219  26.536  1.00  0.00     0.012 A 
ATOM     76  C   UNL A   1      42.057  25.221  27.384  1.00  0.00     0.148 A 
ATOM     77  C   UNL A   1      43.600  26.507  25.424  1.00  0.00     0.002 A 
ATOM     78  C   UNL A   1      42.554  24.505  26.301  1.00  0.00     0.091 A 
ATOM     79  F   UNL A   1      41.287  24.646  28.319  1.00  0.00    -0.205 F 
ATOM     80  C   UNL A   1      43.313  25.149  25.312  1.00  0.00     0.022 A 
BRANCH  78  81
ATOM     81  S   UNL A   1      42.338  22.728  26.147  1.00  0.00     0.127 S 
ATOM     82  O   UNL A   1      43.034  22.238  27.334  1.00  0.00    -0.237 OA
ATOM     83  O   UNL A   1      40.882  22.595  26.187  1.00  0.00    -0.237 OA
ATOM     84  O   UNL A   1      42.936  22.374  24.867  1.00  0.00    -0.744 OA
ENDBRANCH  78  81
ENDBRANCH  50  74
BRANCH  62  85
ATOM     85  C   UNL A   1      44.590  27.177  34.116  1.00  0.00     0.023 A 
ATOM     86  C   UNL A   1      45.812  27.872  34.217  1.00  0.00     0.012 A 
ATOM     87  C   UNL A   1      44.433  25.953  34.794  1.00  0.00     0.148 A 
ATOM     88  C   UNL A   1      46.868  27.344  34.960  1.00  0.00     0.002 A 
ATOM     89  C   UNL A   1      45.474  25.455  35.570  1.00  0.00     0.091 A 
ATOM     90  F   UNL A   1      43.270  25.296  34.670  1.00  0.00    -0.205 F 
ATOM     91  C   UNL A   1      46.695  26.144  35.645  1.00  0.00     0.022 A 
BRANCH  89  92
ATOM     92  S   UNL A   1      45.305  23.963  36.559  1.00  0.00     0.127 S 
ATOM     93  O   UNL A   1      46.693  23.518  36.668  1.00  0.00    -0.237 OA
ATOM     94  O   UNL A   1      44.729  24.475  37.803  1.00  0.00    -0.237 OA
ATOM     95  O   UNL A   1      44.420  23.086  35.805  1.00  0.00    -0.744 OA
ENDBRANCH  89  92
ENDBRANCH  62  85
ENDBRANCH  36  37
ENDBRANCH  29  31
ENDBRANCH  28  29
ENDBRANCH  27  28
ENDBRANCH  26  27
ENDBRANCH  25  26
ENDBRANCH   1  25
TORSDOF 22
ENDMDL
