MODEL 1
REMARK VINA RESULT:     -11.9      0.000      0.000
REMARK SMILES CC[NH2+][C@@]1(C(=O)OCCOCCOC(=O)c2ccc(-c3c4nc(c(-c5cccc(S(=O)(=O)[O-])c5F)c5ccc([nH]5)c(-c5cccc(S(=O)(=O)[O-])c5F)c5nc(c(-c6cccc(S(=O)(=O)[O-])c6F)c6ccc3[nH]6)C=C5)C=C4)cc2)CC[C@@H](n2cnc3ccccc32)C1
REMARK SMILES IDX 11 1 10 2 9 3 8 4 7 5 5 6 6 7 4 8 79 9 91 10 80 11 81 12
REMARK SMILES IDX 3 13 2 16 1 17 82 18 83 19 90 20 84 21 85 22 89 23 86 24
REMARK SMILES IDX 88 25 87 26 12 27 13 28 14 29 15 30 16 31 17 32 78 33 18 34
REMARK SMILES IDX 77 35 19 36 20 37 21 38 71 39 22 40 76 41 70 42 72 43 23 44
REMARK SMILES IDX 75 45 69 46 68 47 24 49 56 50 36 51 55 52 37 53 40 54 54 55
REMARK SMILES IDX 73 56 38 57 39 58 53 60 74 61 41 62 25 63 26 64 34 65 27 66
REMARK SMILES IDX 29 67 35 68 28 69 30 70 31 71 32 72 33 73 57 74 58 75 66 76
REMARK SMILES IDX 59 77 61 78 67 79 60 80 62 81 63 82 64 83 65 84 42 85 43 86
REMARK SMILES IDX 51 87 44 88 46 89 52 90 45 91 47 92 48 93 49 94 50 95
REMARK H PARENT 3 14 3 15 72 48 40 59
REMARK Flexibility Score: inf
ROOT
ATOM      1  C   UNL A   1      35.681  21.394  25.581  1.00  0.00     0.202 C 
ENDROOT
BRANCH   1   2
ATOM      2  O   UNL A   1      34.610  21.357  24.638  1.00  0.00    -0.374 OA
BRANCH   2   3
ATOM      3  C   UNL A   1      33.703  20.252  24.745  1.00  0.00     0.202 C 
BRANCH   3   4
ATOM      4  C   UNL A   1      32.222  20.570  25.001  1.00  0.00     0.261 C 
BRANCH   4   5
ATOM      5  O   UNL A   1      31.907  21.795  24.331  1.00  0.00    -0.459 OA
BRANCH   5   6
ATOM      6  C   UNL A   1      31.294  22.806  25.013  1.00  0.00     0.368 C 
ATOM      7  O   UNL A   1      30.515  22.588  25.936  1.00  0.00    -0.245 OA
BRANCH   6   8
ATOM      8  C   UNL A   1      31.754  24.399  24.282  1.00  0.00     0.196 C 
ATOM      9  C   UNL A   1      32.804  24.751  25.708  1.00  0.00     0.083 C 
ATOM     10  C   UNL A   1      30.463  25.314  25.237  1.00  0.00     0.106 C 
ATOM     11  C   UNL A   1      32.286  26.002  26.465  1.00  0.00     0.033 C 
ATOM     12  C   UNL A   1      31.142  26.594  25.642  1.00  0.00     0.096 C 
BRANCH   8  13
ATOM     13  N   UNL A   1      32.187  24.714  22.244  1.00  0.00    -0.332 N 
ATOM     14  H   UNL A   1      32.727  23.876  22.026  1.00  0.00     0.347 HD
ATOM     15  H   UNL A   1      31.255  25.088  22.065  1.00  0.00     0.347 HD
BRANCH  13  16
ATOM     16  C   UNL A   1      32.859  25.768  21.287  1.00  0.00     0.257 C 
ATOM     17  C   UNL A   1      32.530  25.493  19.815  1.00  0.00     0.071 C 
ENDBRANCH  13  16
ENDBRANCH   8  13
BRANCH  12  18
ATOM     18  N   UNL A   1      31.524  27.227  24.373  1.00  0.00    -0.327 N 
ATOM     19  C   UNL A   1      30.540  27.794  23.560  1.00  0.00     0.200 A 
ATOM     20  C   UNL A   1      32.527  28.205  24.557  1.00  0.00     0.068 A 
ATOM     21  N   UNL A   1      30.245  29.052  23.869  1.00  0.00    -0.237 NA
ATOM     22  C   UNL A   1      31.243  29.426  24.723  1.00  0.00     0.088 A 
ATOM     23  C   UNL A   1      34.026  28.314  25.609  1.00  0.00     0.028 A 
ATOM     24  C   UNL A   1      31.402  30.752  25.949  1.00  0.00     0.030 A 
ATOM     25  C   UNL A   1      34.152  29.588  26.895  1.00  0.00     0.002 A 
ATOM     26  C   UNL A   1      32.823  30.826  27.053  1.00  0.00     0.002 A 
ENDBRANCH  12  18
ENDBRANCH   6   8
ENDBRANCH   5   6
ENDBRANCH   4   5
ENDBRANCH   3   4
ENDBRANCH   2   3
ENDBRANCH   1   2
BRANCH   1  27
ATOM     27  C   UNL A   1      36.926  20.534  25.324  1.00  0.00     0.261 C 
BRANCH  27  28
ATOM     28  O   UNL A   1      38.108  21.329  25.130  1.00  0.00    -0.460 OA
BRANCH  28  29
ATOM     29  C   UNL A   1      39.080  21.116  26.050  1.00  0.00     0.338 C 
ATOM     30  O   UNL A   1      39.642  20.063  26.299  1.00  0.00    -0.246 OA
BRANCH  29  31
ATOM     31  C   UNL A   1      39.554  22.413  26.566  1.00  0.00     0.060 A 
ATOM     32  C   UNL A   1      38.896  23.560  26.100  1.00  0.00     0.016 A 
ATOM     33  C   UNL A   1      40.624  22.516  27.455  1.00  0.00     0.016 A 
ATOM     34  C   UNL A   1      39.318  24.821  26.505  1.00  0.00     0.010 A 
ATOM     35  C   UNL A   1      41.062  23.787  27.841  1.00  0.00     0.010 A 
ATOM     36  C   UNL A   1      40.428  24.943  27.346  1.00  0.00    -0.014 A 
BRANCH  36  37
ATOM     37  C   UNL A   1      41.014  26.281  27.583  1.00  0.00     0.031 A 
ATOM     38  C   UNL A   1      42.396  26.564  27.067  1.00  0.00     0.074 A 
ATOM     39  C   UNL A   1      40.325  27.227  28.247  1.00  0.00     0.049 A 
ATOM     40  N   UNL A   1      43.131  27.634  27.219  1.00  0.00    -0.248 NA
ATOM     41  C   UNL A   1      43.036  25.500  26.274  1.00  0.00     0.031 C 
ATOM     42  C   UNL A   1      38.967  27.074  28.768  1.00  0.00     0.029 A 
ATOM     43  N   UNL A   1      40.691  28.494  28.626  1.00  0.00    -0.354 N 
ATOM     44  C   UNL A   1      44.336  27.355  26.586  1.00  0.00     0.074 A 
ATOM     45  C   UNL A   1      44.231  26.021  26.038  1.00  0.00     0.031 C 
ATOM     46  C   UNL A   1      38.628  28.190  29.436  1.00  0.00     0.029 A 
ATOM     47  C   UNL A   1      39.759  29.116  29.424  1.00  0.00     0.049 A 
ATOM     48  H   UNL A   1      41.537  28.916  28.355  1.00  0.00     0.167 HD
ATOM     49  C   UNL A   1      45.430  28.141  26.477  1.00  0.00     0.034 A 
ATOM     50  C   UNL A   1      39.831  30.278  30.102  1.00  0.00     0.034 A 
ATOM     51  C   UNL A   1      45.518  29.474  27.006  1.00  0.00     0.049 A 
ATOM     52  C   UNL A   1      41.082  31.114  29.996  1.00  0.00     0.074 A 
ATOM     53  C   UNL A   1      46.558  30.379  26.883  1.00  0.00     0.029 A 
ATOM     54  N   UNL A   1      44.546  30.084  27.781  1.00  0.00    -0.354 N 
ATOM     55  N   UNL A   1      42.165  30.894  29.289  1.00  0.00    -0.248 NA
ATOM     56  C   UNL A   1      41.113  32.369  30.763  1.00  0.00     0.031 C 
ATOM     57  C   UNL A   1      46.239  31.513  27.634  1.00  0.00     0.029 A 
ATOM     58  C   UNL A   1      44.976  31.338  28.176  1.00  0.00     0.049 A 
ATOM     59  H   UNL A   1      43.678  29.684  28.016  1.00  0.00     0.167 HD
ATOM     60  C   UNL A   1      42.987  31.997  29.497  1.00  0.00     0.074 A 
ATOM     61  C   UNL A   1      42.270  32.893  30.379  1.00  0.00     0.031 C 
ATOM     62  C   UNL A   1      44.230  32.241  29.014  1.00  0.00     0.034 A 
BRANCH  49  63
ATOM     63  C   UNL A   1      46.638  27.584  25.773  1.00  0.00     0.023 A 
ATOM     64  C   UNL A   1      46.835  27.826  24.400  1.00  0.00     0.012 A 
ATOM     65  C   UNL A   1      47.622  26.890  26.503  1.00  0.00     0.148 A 
ATOM     66  C   UNL A   1      47.985  27.366  23.759  1.00  0.00     0.002 A 
ATOM     67  C   UNL A   1      48.787  26.476  25.870  1.00  0.00     0.091 A 
ATOM     68  F   UNL A   1      47.401  26.650  27.804  1.00  0.00    -0.205 F 
ATOM     69  C   UNL A   1      48.965  26.704  24.496  1.00  0.00     0.022 A 
BRANCH  67  70
ATOM     70  S   UNL A   1      50.141  25.691  26.749  1.00  0.00     0.127 S 
ATOM     71  O   UNL A   1      50.442  26.688  27.775  1.00  0.00    -0.237 OA
ATOM     72  O   UNL A   1      49.511  24.470  27.251  1.00  0.00    -0.237 OA
ATOM     73  O   UNL A   1      51.193  25.477  25.765  1.00  0.00    -0.744 OA
ENDBRANCH  67  70
ENDBRANCH  49  63
BRANCH  50  74
ATOM     74  C   UNL A   1      38.697  30.720  30.963  1.00  0.00     0.023 A 
ATOM     75  C   UNL A   1      38.697  30.413  32.337  1.00  0.00     0.012 A 
ATOM     76  C   UNL A   1      37.606  31.424  30.419  1.00  0.00     0.148 A 
ATOM     77  C   UNL A   1      37.614  30.763  33.144  1.00  0.00     0.002 A 
ATOM     78  C   UNL A   1      36.558  31.824  31.239  1.00  0.00     0.091 A 
ATOM     79  F   UNL A   1      37.613  31.691  29.104  1.00  0.00    -0.205 F 
ATOM     80  C   UNL A   1      36.550  31.476  32.598  1.00  0.00     0.022 A 
BRANCH  78  81
ATOM     81  S   UNL A   1      35.212  32.853  30.645  1.00  0.00     0.127 S 
ATOM     82  O   UNL A   1      35.918  34.070  30.251  1.00  0.00    -0.237 OA
ATOM     83  O   UNL A   1      34.692  32.055  29.535  1.00  0.00    -0.237 OA
ATOM     84  O   UNL A   1      34.295  32.988  31.769  1.00  0.00    -0.744 OA
ENDBRANCH  78  81
ENDBRANCH  50  74
BRANCH  62  85
ATOM     85  C   UNL A   1      44.888  33.545  29.382  1.00  0.00     0.023 A 
ATOM     86  C   UNL A   1      45.717  33.623  30.518  1.00  0.00     0.012 A 
ATOM     87  C   UNL A   1      44.760  34.669  28.542  1.00  0.00     0.148 A 
ATOM     88  C   UNL A   1      46.385  34.807  30.829  1.00  0.00     0.002 A 
ATOM     89  C   UNL A   1      45.471  35.828  28.826  1.00  0.00     0.091 A 
ATOM     90  F   UNL A   1      43.956  34.578  27.472  1.00  0.00    -0.205 F 
ATOM     91  C   UNL A   1      46.273  35.903  29.977  1.00  0.00     0.022 A 
BRANCH  89  92
ATOM     92  S   UNL A   1      45.469  37.256  27.737  1.00  0.00     0.127 S 
ATOM     93  O   UNL A   1      46.261  38.217  28.504  1.00  0.00    -0.237 OA
ATOM     94  O   UNL A   1      46.133  36.732  26.543  1.00  0.00    -0.237 OA
ATOM     95  O   UNL A   1      44.071  37.619  27.546  1.00  0.00    -0.744 OA
ENDBRANCH  89  92
ENDBRANCH  62  85
ENDBRANCH  36  37
ENDBRANCH  29  31
ENDBRANCH  28  29
ENDBRANCH  27  28
ENDBRANCH   1  27
TORSDOF 20
ENDMDL
MODEL 2
REMARK VINA RESULT:     -11.7      1.100      7.792
REMARK SMILES CC[NH2+][C@@]1(C(=O)OCCOCCOC(=O)c2ccc(-c3c4nc(c(-c5cccc(S(=O)(=O)[O-])c5F)c5ccc([nH]5)c(-c5cccc(S(=O)(=O)[O-])c5F)c5nc(c(-c6cccc(S(=O)(=O)[O-])c6F)c6ccc3[nH]6)C=C5)C=C4)cc2)CC[C@@H](n2cnc3ccccc32)C1
REMARK SMILES IDX 11 1 10 2 9 3 8 4 7 5 5 6 6 7 4 8 79 9 91 10 80 11 81 12
REMARK SMILES IDX 3 13 2 16 1 17 82 18 83 19 90 20 84 21 85 22 89 23 86 24
REMARK SMILES IDX 88 25 87 26 12 27 13 28 14 29 15 30 16 31 17 32 78 33 18 34
REMARK SMILES IDX 77 35 19 36 20 37 21 38 71 39 22 40 76 41 70 42 72 43 23 44
REMARK SMILES IDX 75 45 69 46 68 47 24 49 56 50 36 51 55 52 37 53 40 54 54 55
REMARK SMILES IDX 73 56 38 57 39 58 53 60 74 61 41 62 25 63 26 64 34 65 27 66
REMARK SMILES IDX 29 67 35 68 28 69 30 70 31 71 32 72 33 73 57 74 58 75 66 76
REMARK SMILES IDX 59 77 61 78 67 79 60 80 62 81 63 82 64 83 65 84 42 85 43 86
REMARK SMILES IDX 51 87 44 88 46 89 52 90 45 91 47 92 48 93 49 94 50 95
REMARK H PARENT 3 14 3 15 72 48 40 59
REMARK Flexibility Score: inf
ROOT
ATOM      1  C   UNL A   1      35.860  19.856  25.015  1.00  0.00     0.202 C 
ENDROOT
BRANCH   1   2
ATOM      2  O   UNL A   1      35.028  18.763  24.624  1.00  0.00    -0.374 OA
BRANCH   2   3
ATOM      3  C   UNL A   1      33.618  18.931  24.821  1.00  0.00     0.202 C 
BRANCH   3   4
ATOM      4  C   UNL A   1      33.153  20.159  25.619  1.00  0.00     0.261 C 
BRANCH   4   5
ATOM      5  O   UNL A   1      31.955  20.656  25.014  1.00  0.00    -0.459 OA
BRANCH   5   6
ATOM      6  C   UNL A   1      31.398  21.819  25.462  1.00  0.00     0.368 C 
ATOM      7  O   UNL A   1      30.441  21.826  26.231  1.00  0.00    -0.245 OA
BRANCH   6   8
ATOM      8  C   UNL A   1      32.228  23.230  24.686  1.00  0.00     0.196 C 
ATOM      9  C   UNL A   1      31.912  24.227  26.158  1.00  0.00     0.083 C 
ATOM     10  C   UNL A   1      30.637  23.951  24.080  1.00  0.00     0.106 C 
ATOM     11  C   UNL A   1      30.993  25.428  25.810  1.00  0.00     0.033 C 
ATOM     12  C   UNL A   1      30.797  25.430  24.295  1.00  0.00     0.096 C 
BRANCH   8  13
ATOM     13  N   UNL A   1      34.002  23.117  23.555  1.00  0.00    -0.332 N 
ATOM     14  H   UNL A   1      34.248  22.134  23.673  1.00  0.00     0.347 HD
ATOM     15  H   UNL A   1      33.623  23.725  22.829  1.00  0.00     0.347 HD
BRANCH  13  16
ATOM     16  C   UNL A   1      35.427  23.778  23.448  1.00  0.00     0.257 C 
ATOM     17  C   UNL A   1      36.192  23.700  24.774  1.00  0.00     0.071 C 
ENDBRANCH  13  16
ENDBRANCH   8  13
BRANCH  12  18
ATOM     18  N   UNL A   1      31.974  25.796  23.496  1.00  0.00    -0.327 N 
ATOM     19  C   UNL A   1      31.964  25.586  22.115  1.00  0.00     0.200 A 
ATOM     20  C   UNL A   1      32.358  27.138  23.711  1.00  0.00     0.068 A 
ATOM     21  N   UNL A   1      31.432  26.587  21.423  1.00  0.00    -0.237 NA
ATOM     22  C   UNL A   1      31.337  27.604  22.330  1.00  0.00     0.088 A 
ATOM     23  C   UNL A   1      32.437  28.221  25.189  1.00  0.00     0.028 A 
ATOM     24  C   UNL A   1      30.355  29.126  22.397  1.00  0.00     0.030 A 
ATOM     25  C   UNL A   1      31.391  29.701  25.297  1.00  0.00     0.002 A 
ATOM     26  C   UNL A   1      30.348  30.158  23.872  1.00  0.00     0.002 A 
ENDBRANCH  12  18
ENDBRANCH   6   8
ENDBRANCH   5   6
ENDBRANCH   4   5
ENDBRANCH   3   4
ENDBRANCH   2   3
ENDBRANCH   1   2
BRANCH   1  27
ATOM     27  C   UNL A   1      37.383  19.707  24.898  1.00  0.00     0.261 C 
BRANCH  27  28
ATOM     28  O   UNL A   1      38.084  20.867  25.379  1.00  0.00    -0.460 OA
BRANCH  28  29
ATOM     29  C   UNL A   1      39.265  20.593  25.984  1.00  0.00     0.338 C 
ATOM     30  O   UNL A   1      39.910  19.561  25.911  1.00  0.00    -0.246 OA
BRANCH  29  31
ATOM     31  C   UNL A   1      39.807  21.830  26.575  1.00  0.00     0.060 A 
ATOM     32  C   UNL A   1      39.309  23.042  26.076  1.00  0.00     0.016 A 
ATOM     33  C   UNL A   1      40.789  21.816  27.564  1.00  0.00     0.016 A 
ATOM     34  C   UNL A   1      39.806  24.251  26.549  1.00  0.00     0.010 A 
ATOM     35  C   UNL A   1      41.307  23.033  28.020  1.00  0.00     0.010 A 
ATOM     36  C   UNL A   1      40.836  24.252  27.496  1.00  0.00    -0.014 A 
BRANCH  36  37
ATOM     37  C   UNL A   1      41.520  25.524  27.820  1.00  0.00     0.031 A 
ATOM     38  C   UNL A   1      40.755  26.585  28.558  1.00  0.00     0.074 A 
ATOM     39  C   UNL A   1      42.801  25.726  27.464  1.00  0.00     0.049 A 
ATOM     40  N   UNL A   1      41.127  27.795  28.883  1.00  0.00    -0.248 NA
ATOM     41  C   UNL A   1      39.389  26.239  28.986  1.00  0.00     0.031 C 
ATOM     42  C   UNL A   1      43.650  24.756  26.772  1.00  0.00     0.029 A 
ATOM     43  N   UNL A   1      43.601  26.832  27.608  1.00  0.00    -0.354 N 
ATOM     44  C   UNL A   1      40.028  28.371  29.507  1.00  0.00     0.074 A 
ATOM     45  C   UNL A   1      38.978  27.377  29.526  1.00  0.00     0.031 C 
ATOM     46  C   UNL A   1      44.839  25.325  26.513  1.00  0.00     0.029 A 
ATOM     47  C   UNL A   1      44.821  26.708  26.984  1.00  0.00     0.049 A 
ATOM     48  H   UNL A   1      43.328  27.635  28.107  1.00  0.00     0.167 HD
ATOM     49  C   UNL A   1      39.907  29.619  30.014  1.00  0.00     0.034 A 
ATOM     50  C   UNL A   1      45.790  27.623  26.779  1.00  0.00     0.034 A 
ATOM     51  C   UNL A   1      40.962  30.594  30.010  1.00  0.00     0.049 A 
ATOM     52  C   UNL A   1      45.608  29.019  27.319  1.00  0.00     0.074 A 
ATOM     53  C   UNL A   1      40.960  31.861  30.566  1.00  0.00     0.029 A 
ATOM     54  N   UNL A   1      42.193  30.426  29.398  1.00  0.00    -0.354 N 
ATOM     55  N   UNL A   1      44.614  29.512  28.019  1.00  0.00    -0.248 NA
ATOM     56  C   UNL A   1      46.690  29.981  27.060  1.00  0.00     0.031 C 
ATOM     57  C   UNL A   1      42.169  32.480  30.239  1.00  0.00     0.029 A 
ATOM     58  C   UNL A   1      42.945  31.579  29.529  1.00  0.00     0.049 A 
ATOM     59  H   UNL A   1      42.488  29.607  28.939  1.00  0.00     0.167 HD
ATOM     60  C   UNL A   1      44.968  30.824  28.313  1.00  0.00     0.074 A 
ATOM     61  C   UNL A   1      46.276  31.045  27.735  1.00  0.00     0.031 C 
ATOM     62  C   UNL A   1      44.268  31.768  28.990  1.00  0.00     0.034 A 
BRANCH  49  63
ATOM     63  C   UNL A   1      38.582  30.020  30.605  1.00  0.00     0.023 A 
ATOM     64  C   UNL A   1      38.271  29.694  31.939  1.00  0.00     0.012 A 
ATOM     65  C   UNL A   1      37.681  30.799  29.853  1.00  0.00     0.148 A 
ATOM     66  C   UNL A   1      37.071  30.120  32.510  1.00  0.00     0.002 A 
ATOM     67  C   UNL A   1      36.511  31.260  30.442  1.00  0.00     0.091 A 
ATOM     68  F   UNL A   1      37.988  31.076  28.577  1.00  0.00    -0.205 F 
ATOM     69  C   UNL A   1      36.200  30.913  31.767  1.00  0.00     0.022 A 
BRANCH  67  70
ATOM     70  S   UNL A   1      35.367  32.354  29.595  1.00  0.00     0.127 S 
ATOM     71  O   UNL A   1      36.251  33.446  29.190  1.00  0.00    -0.237 OA
ATOM     72  O   UNL A   1      34.895  31.511  28.497  1.00  0.00    -0.237 OA
ATOM     73  O   UNL A   1      34.348  32.711  30.573  1.00  0.00    -0.744 OA
ENDBRANCH  67  70
ENDBRANCH  49  63
BRANCH  50  74
ATOM     74  C   UNL A   1      47.015  27.262  26.009  1.00  0.00     0.023 A 
ATOM     75  C   UNL A   1      47.069  27.502  24.623  1.00  0.00     0.012 A 
ATOM     76  C   UNL A   1      48.119  26.662  26.645  1.00  0.00     0.148 A 
ATOM     77  C   UNL A   1      48.182  27.112  23.877  1.00  0.00     0.002 A 
ATOM     78  C   UNL A   1      49.249  26.333  25.908  1.00  0.00     0.091 A 
ATOM     79  F   UNL A   1      48.042  26.424  27.962  1.00  0.00    -0.205 F 
ATOM     80  C   UNL A   1      49.275  26.537  24.520  1.00  0.00     0.022 A 
BRANCH  78  81
ATOM     81  S   UNL A   1      50.747  25.706  26.675  1.00  0.00     0.127 S 
ATOM     82  O   UNL A   1      50.276  24.458  27.272  1.00  0.00    -0.237 OA
ATOM     83  O   UNL A   1      51.630  25.543  25.520  1.00  0.00    -0.237 OA
ATOM     84  O   UNL A   1      51.169  26.737  27.613  1.00  0.00    -0.744 OA
ENDBRANCH  78  81
ENDBRANCH  50  74
BRANCH  62  85
ATOM     85  C   UNL A   1      44.910  33.116  29.190  1.00  0.00     0.023 A 
ATOM     86  C   UNL A   1      45.839  33.309  30.230  1.00  0.00     0.012 A 
ATOM     87  C   UNL A   1      44.661  34.164  28.282  1.00  0.00     0.148 A 
ATOM     88  C   UNL A   1      46.490  34.533  30.381  1.00  0.00     0.002 A 
ATOM     89  C   UNL A   1      45.353  35.362  28.405  1.00  0.00     0.091 A 
ATOM     90  F   UNL A   1      43.764  33.964  27.305  1.00  0.00    -0.205 F 
ATOM     91  C   UNL A   1      46.258  35.553  29.462  1.00  0.00     0.022 A 
BRANCH  89  92
ATOM     92  S   UNL A   1      45.197  36.697  27.213  1.00  0.00     0.127 S 
ATOM     93  O   UNL A   1      45.722  37.834  27.967  1.00  0.00    -0.237 OA
ATOM     94  O   UNL A   1      46.056  36.238  26.122  1.00  0.00    -0.237 OA
ATOM     95  O   UNL A   1      43.780  36.778  26.879  1.00  0.00    -0.744 OA
ENDBRANCH  89  92
ENDBRANCH  62  85
ENDBRANCH  36  37
ENDBRANCH  29  31
ENDBRANCH  28  29
ENDBRANCH  27  28
ENDBRANCH   1  27
TORSDOF 20
ENDMDL
MODEL 3
REMARK VINA RESULT:     -11.6      4.443      6.434
REMARK SMILES CC[NH2+][C@@]1(C(=O)OCCOCCOC(=O)c2ccc(-c3c4nc(c(-c5cccc(S(=O)(=O)[O-])c5F)c5ccc([nH]5)c(-c5cccc(S(=O)(=O)[O-])c5F)c5nc(c(-c6cccc(S(=O)(=O)[O-])c6F)c6ccc3[nH]6)C=C5)C=C4)cc2)CC[C@@H](n2cnc3ccccc32)C1
REMARK SMILES IDX 11 1 10 2 9 3 8 4 7 5 5 6 6 7 4 8 79 9 91 10 80 11 81 12
REMARK SMILES IDX 3 13 2 16 1 17 82 18 83 19 90 20 84 21 85 22 89 23 86 24
REMARK SMILES IDX 88 25 87 26 12 27 13 28 14 29 15 30 16 31 17 32 78 33 18 34
REMARK SMILES IDX 77 35 19 36 20 37 21 38 71 39 22 40 76 41 70 42 72 43 23 44
REMARK SMILES IDX 75 45 69 46 68 47 24 49 56 50 36 51 55 52 37 53 40 54 54 55
REMARK SMILES IDX 73 56 38 57 39 58 53 60 74 61 41 62 25 63 26 64 34 65 27 66
REMARK SMILES IDX 29 67 35 68 28 69 30 70 31 71 32 72 33 73 57 74 58 75 66 76
REMARK SMILES IDX 59 77 61 78 67 79 60 80 62 81 63 82 64 83 65 84 42 85 43 86
REMARK SMILES IDX 51 87 44 88 46 89 52 90 45 91 47 92 48 93 49 94 50 95
REMARK H PARENT 3 14 3 15 72 48 40 59
REMARK Flexibility Score: inf
ROOT
ATOM      1  C   UNL A   1      41.967  19.886  26.540  1.00  0.00     0.202 C 
ENDROOT
BRANCH   1   2
ATOM      2  O   UNL A   1      41.043  19.265  25.645  1.00  0.00    -0.374 OA
BRANCH   2   3
ATOM      3  C   UNL A   1      39.662  19.605  25.817  1.00  0.00     0.202 C 
BRANCH   3   4
ATOM      4  C   UNL A   1      39.295  21.097  25.848  1.00  0.00     0.261 C 
BRANCH   4   5
ATOM      5  O   UNL A   1      37.917  21.225  25.483  1.00  0.00    -0.459 OA
BRANCH   5   6
ATOM      6  C   UNL A   1      37.270  22.412  25.672  1.00  0.00     0.368 C 
ATOM      7  O   UNL A   1      37.868  23.432  25.999  1.00  0.00    -0.245 OA
BRANCH   6   8
ATOM      8  C   UNL A   1      35.487  22.175  25.448  1.00  0.00     0.196 C 
ATOM      9  C   UNL A   1      35.504  23.346  24.074  1.00  0.00     0.083 C 
ATOM     10  C   UNL A   1      35.069  23.659  26.468  1.00  0.00     0.106 C 
ATOM     11  C   UNL A   1      34.624  24.581  24.405  1.00  0.00     0.033 C 
ATOM     12  C   UNL A   1      33.924  24.300  25.734  1.00  0.00     0.096 C 
BRANCH   8  13
ATOM     13  N   UNL A   1      34.490  20.322  25.560  1.00  0.00    -0.332 N 
ATOM     14  H   UNL A   1      35.259  19.700  25.811  1.00  0.00     0.347 HD
ATOM     15  H   UNL A   1      33.676  20.745  26.005  1.00  0.00     0.347 HD
BRANCH  13  16
ATOM     16  C   UNL A   1      33.594  19.364  24.691  1.00  0.00     0.257 C 
ATOM     17  C   UNL A   1      32.539  20.138  23.891  1.00  0.00     0.071 C 
ENDBRANCH  13  16
ENDBRANCH   8  13
BRANCH  12  18
ATOM     18  N   UNL A   1      32.879  23.267  25.704  1.00  0.00    -0.327 N 
ATOM     19  C   UNL A   1      32.266  22.871  26.894  1.00  0.00     0.200 A 
ATOM     20  C   UNL A   1      31.850  23.590  24.791  1.00  0.00     0.068 A 
ATOM     21  N   UNL A   1      31.230  23.625  27.243  1.00  0.00    -0.237 NA
ATOM     22  C   UNL A   1      30.971  24.370  26.127  1.00  0.00     0.088 A 
ATOM     23  C   UNL A   1      31.817  24.343  23.119  1.00  0.00     0.028 A 
ATOM     24  C   UNL A   1      30.075  25.920  25.844  1.00  0.00     0.030 A 
ATOM     25  C   UNL A   1      30.992  25.937  22.849  1.00  0.00     0.002 A 
ATOM     26  C   UNL A   1      30.102  26.724  24.233  1.00  0.00     0.002 A 
ENDBRANCH  12  18
ENDBRANCH   6   8
ENDBRANCH   5   6
ENDBRANCH   4   5
ENDBRANCH   3   4
ENDBRANCH   2   3
ENDBRANCH   1   2
BRANCH   1  27
ATOM     27  C   UNL A   1      43.001  20.868  25.973  1.00  0.00     0.261 C 
BRANCH  27  28
ATOM     28  O   UNL A   1      42.388  21.968  25.280  1.00  0.00    -0.460 OA
BRANCH  28  29
ATOM     29  C   UNL A   1      43.150  23.088  25.225  1.00  0.00     0.338 C 
ATOM     30  O   UNL A   1      44.073  23.315  24.461  1.00  0.00    -0.246 OA
BRANCH  29  31
ATOM     31  C   UNL A   1      42.549  24.127  26.080  1.00  0.00     0.060 A 
ATOM     32  C   UNL A   1      43.190  25.374  26.108  1.00  0.00     0.016 A 
ATOM     33  C   UNL A   1      41.413  23.892  26.853  1.00  0.00     0.016 A 
ATOM     34  C   UNL A   1      42.709  26.389  26.926  1.00  0.00     0.010 A 
ATOM     35  C   UNL A   1      40.946  24.907  27.696  1.00  0.00     0.010 A 
ATOM     36  C   UNL A   1      41.609  26.148  27.754  1.00  0.00    -0.014 A 
BRANCH  36  37
ATOM     37  C   UNL A   1      41.247  27.143  28.789  1.00  0.00     0.031 A 
ATOM     38  C   UNL A   1      42.110  27.255  30.014  1.00  0.00     0.074 A 
ATOM     39  C   UNL A   1      40.170  27.934  28.637  1.00  0.00     0.049 A 
ATOM     40  N   UNL A   1      41.945  28.000  31.073  1.00  0.00    -0.248 NA
ATOM     41  C   UNL A   1      43.318  26.412  30.050  1.00  0.00     0.031 C 
ATOM     42  C   UNL A   1      39.278  27.934  27.477  1.00  0.00     0.029 A 
ATOM     43  N   UNL A   1      39.624  28.867  29.481  1.00  0.00    -0.354 N 
ATOM     44  C   UNL A   1      42.998  27.683  31.923  1.00  0.00     0.074 A 
ATOM     45  C   UNL A   1      43.802  26.686  31.253  1.00  0.00     0.031 C 
ATOM     46  C   UNL A   1      38.272  28.795  27.702  1.00  0.00     0.029 A 
ATOM     47  C   UNL A   1      38.427  29.375  29.034  1.00  0.00     0.049 A 
ATOM     48  H   UNL A   1      40.048  29.146  30.325  1.00  0.00     0.167 HD
ATOM     49  C   UNL A   1      43.264  28.178  33.153  1.00  0.00     0.034 A 
ATOM     50  C   UNL A   1      37.538  30.179  29.651  1.00  0.00     0.034 A 
ATOM     51  C   UNL A   1      42.472  29.185  33.804  1.00  0.00     0.049 A 
ATOM     52  C   UNL A   1      37.842  30.681  31.040  1.00  0.00     0.074 A 
ATOM     53  C   UNL A   1      42.702  29.804  35.019  1.00  0.00     0.029 A 
ATOM     54  N   UNL A   1      41.284  29.698  33.310  1.00  0.00    -0.354 N 
ATOM     55  N   UNL A   1      38.905  30.471  31.780  1.00  0.00    -0.248 NA
ATOM     56  C   UNL A   1      36.835  31.547  31.672  1.00  0.00     0.031 C 
ATOM     57  C   UNL A   1      41.622  30.649  35.288  1.00  0.00     0.029 A 
ATOM     58  C   UNL A   1      40.749  30.599  34.213  1.00  0.00     0.049 A 
ATOM     59  H   UNL A   1      40.881  29.458  32.445  1.00  0.00     0.167 HD
ATOM     60  C   UNL A   1      38.710  31.207  32.944  1.00  0.00     0.074 A 
ATOM     61  C   UNL A   1      37.439  31.885  32.804  1.00  0.00     0.031 C 
ATOM     62  C   UNL A   1      39.505  31.304  34.039  1.00  0.00     0.034 A 
BRANCH  49  63
ATOM     63  C   UNL A   1      44.453  27.632  33.896  1.00  0.00     0.023 A 
ATOM     64  C   UNL A   1      44.315  26.508  34.733  1.00  0.00     0.012 A 
ATOM     65  C   UNL A   1      45.730  28.192  33.691  1.00  0.00     0.148 A 
ATOM     66  C   UNL A   1      45.428  25.961  35.372  1.00  0.00     0.002 A 
ATOM     67  C   UNL A   1      46.841  27.613  34.291  1.00  0.00     0.091 A 
ATOM     68  F   UNL A   1      45.833  29.277  32.909  1.00  0.00    -0.205 F 
ATOM     69  C   UNL A   1      46.690  26.505  35.140  1.00  0.00     0.022 A 
BRANCH  67  70
ATOM     70  S   UNL A   1      48.514  28.188  33.990  1.00  0.00     0.127 S 
ATOM     71  O   UNL A   1      49.297  27.240  34.781  1.00  0.00    -0.237 OA
ATOM     72  O   UNL A   1      48.637  28.023  32.541  1.00  0.00    -0.237 OA
ATOM     73  O   UNL A   1      48.559  29.568  34.454  1.00  0.00    -0.744 OA
ENDBRANCH  67  70
ENDBRANCH  49  63
BRANCH  50  74
ATOM     74  C   UNL A   1      36.261  30.548  28.975  1.00  0.00     0.023 A 
ATOM     75  C   UNL A   1      35.463  29.548  28.388  1.00  0.00     0.012 A 
ATOM     76  C   UNL A   1      35.847  31.891  28.894  1.00  0.00     0.148 A 
ATOM     77  C   UNL A   1      34.298  29.883  27.697  1.00  0.00     0.002 A 
ATOM     78  C   UNL A   1      34.654  32.213  28.258  1.00  0.00     0.091 A 
ATOM     79  F   UNL A   1      36.629  32.832  29.442  1.00  0.00    -0.205 F 
ATOM     80  C   UNL A   1      33.889  31.212  27.640  1.00  0.00     0.022 A 
BRANCH  78  81
ATOM     81  S   UNL A   1      33.990  33.881  28.247  1.00  0.00     0.127 S 
ATOM     82  O   UNL A   1      32.680  33.677  27.634  1.00  0.00    -0.237 OA
ATOM     83  O   UNL A   1      33.960  34.201  29.675  1.00  0.00    -0.237 OA
ATOM     84  O   UNL A   1      34.935  34.675  27.474  1.00  0.00    -0.744 OA
ENDBRANCH  78  81
ENDBRANCH  50  74
BRANCH  62  85
ATOM     85  C   UNL A   1      39.059  32.207  35.159  1.00  0.00     0.023 A 
ATOM     86  C   UNL A   1      38.162  31.730  36.135  1.00  0.00     0.012 A 
ATOM     87  C   UNL A   1      39.608  33.497  35.295  1.00  0.00     0.148 A 
ATOM     88  C   UNL A   1      37.797  32.535  37.214  1.00  0.00     0.002 A 
ATOM     89  C   UNL A   1      39.282  34.272  36.401  1.00  0.00     0.091 A 
ATOM     90  F   UNL A   1      40.451  33.936  34.348  1.00  0.00    -0.205 F 
ATOM     91  C   UNL A   1      38.366  33.798  37.354  1.00  0.00     0.022 A 
BRANCH  89  92
ATOM     92  S   UNL A   1      40.040  35.869  36.720  1.00  0.00     0.127 S 
ATOM     93  O   UNL A   1      39.722  36.601  35.494  1.00  0.00    -0.237 OA
ATOM     94  O   UNL A   1      39.314  36.322  37.907  1.00  0.00    -0.237 OA
ATOM     95  O   UNL A   1      41.458  35.611  36.935  1.00  0.00    -0.744 OA
ENDBRANCH  89  92
ENDBRANCH  62  85
ENDBRANCH  36  37
ENDBRANCH  29  31
ENDBRANCH  28  29
ENDBRANCH  27  28
ENDBRANCH   1  27
TORSDOF 20
ENDMDL
