MODEL 1
REMARK VINA RESULT:      -9.6      0.000      0.000
REMARK SMILES CCC(CC)N(CC(C)C)C(=O)N[C@H](C)C(=O)OCCOCCOC(=O)c1ccc(-c2c3nc(c(-c4cccc(S(=O)(=O)[O-])c4F)c4ccc([nH]4)c(-c4cccc(S(=O)(=O)[O-])c4F)c4nc(c(-c5cccc(S(=O)(=O)[O-])c5F)c5ccc2[nH]5)C=C4)C=C3)cc1
REMARK SMILES IDX 20 1 19 2 18 3 16 4 17 5 14 6 15 7 13 8 11 9 12 10 6 12 3 13
REMARK SMILES IDX 2 14 1 15 4 16 5 17 7 18 8 19 9 20 10 21 21 22 22 23 23 24
REMARK SMILES IDX 24 25 25 26 26 27 27 28 28 29 89 30 29 31 88 32 30 33 31 34
REMARK SMILES IDX 32 35 82 36 33 37 87 38 81 39 83 40 34 41 86 42 80 43 79 44
REMARK SMILES IDX 35 46 67 47 47 48 66 49 48 50 51 51 65 52 84 53 49 54 50 55
REMARK SMILES IDX 64 57 85 58 52 59 36 60 37 61 45 62 38 63 40 64 46 65 39 66
REMARK SMILES IDX 41 67 42 68 43 69 44 70 68 71 69 72 77 73 70 74 72 75 78 76
REMARK SMILES IDX 71 77 73 78 74 79 75 80 76 81 53 82 54 83 62 84 55 85 57 86
REMARK SMILES IDX 63 87 56 88 58 89 59 90 60 91 61 92
REMARK H PARENT 13 11 83 45 51 56
REMARK Flexibility Score: inf
ROOT
ATOM      1  C   UNL A   1      35.103  21.555  26.340  1.00  0.00     0.202 C 
ENDROOT
BRANCH   1   2
ATOM      2  C   UNL A   1      33.919  22.525  26.339  1.00  0.00     0.261 C 
BRANCH   2   3
ATOM      3  O   UNL A   1      33.615  22.793  24.965  1.00  0.00    -0.462 OA
BRANCH   3   4
ATOM      4  C   UNL A   1      33.650  24.073  24.535  1.00  0.00     0.328 C 
ATOM      5  O   UNL A   1      34.669  24.738  24.391  1.00  0.00    -0.250 OA
BRANCH   4   6
ATOM      6  C   UNL A   1      32.235  24.561  24.143  1.00  0.00     0.190 C 
ATOM      7  C   UNL A   1      31.310  23.466  23.593  1.00  0.00     0.043 C 
BRANCH   6   8
ATOM      8  N   UNL A   1      31.692  25.301  25.266  1.00  0.00    -0.325 N 
ATOM      9  C   UNL A   1      31.254  26.539  25.510  1.00  0.00     0.318 C 
ATOM     10  O   UNL A   1      30.689  26.635  26.602  1.00  0.00    -0.249 OA
ATOM     11  H   UNL A   1      31.630  24.735  26.069  1.00  0.00     0.166 HD
BRANCH   9  12
ATOM     12  N   UNL A   1      31.358  27.584  24.627  1.00  0.00    -0.322 N 
BRANCH  12  13
ATOM     13  C   UNL A   1      30.170  27.860  23.764  1.00  0.00     0.086 C 
BRANCH  13  14
ATOM     14  C   UNL A   1      30.544  28.717  22.525  1.00  0.00     0.022 C 
ATOM     15  C   UNL A   1      29.658  29.938  22.322  1.00  0.00     0.006 C 
ENDBRANCH  13  14
BRANCH  13  16
ATOM     16  C   UNL A   1      29.272  26.632  23.495  1.00  0.00     0.022 C 
ATOM     17  C   UNL A   1      27.819  26.702  23.932  1.00  0.00     0.006 C 
ENDBRANCH  13  16
ENDBRANCH  12  13
BRANCH  12  18
ATOM     18  C   UNL A   1      32.541  28.421  24.373  1.00  0.00     0.124 C 
BRANCH  18  19
ATOM     19  C   UNL A   1      33.006  29.389  25.482  1.00  0.00     0.002 C 
ATOM     20  C   UNL A   1      31.896  30.137  26.220  1.00  0.00     0.009 C 
ATOM     21  C   UNL A   1      33.806  28.573  26.514  1.00  0.00     0.009 C 
ENDBRANCH  18  19
ENDBRANCH  12  18
ENDBRANCH   9  12
ENDBRANCH   6   8
ENDBRANCH   4   6
ENDBRANCH   3   4
ENDBRANCH   2   3
ENDBRANCH   1   2
BRANCH   1  22
ATOM     22  O   UNL A   1      35.603  21.208  25.045  1.00  0.00    -0.374 OA
BRANCH  22  23
ATOM     23  C   UNL A   1      36.060  19.869  24.849  1.00  0.00     0.202 C 
BRANCH  23  24
ATOM     24  C   UNL A   1      37.569  19.632  24.992  1.00  0.00     0.261 C 
BRANCH  24  25
ATOM     25  O   UNL A   1      38.270  20.836  25.357  1.00  0.00    -0.460 OA
BRANCH  25  26
ATOM     26  C   UNL A   1      39.395  20.645  26.084  1.00  0.00     0.338 C 
ATOM     27  O   UNL A   1      40.058  19.613  26.151  1.00  0.00    -0.246 OA
BRANCH  26  28
ATOM     28  C   UNL A   1      39.866  21.922  26.644  1.00  0.00     0.060 A 
ATOM     29  C   UNL A   1      39.309  23.094  26.115  1.00  0.00     0.016 A 
ATOM     30  C   UNL A   1      40.872  21.990  27.610  1.00  0.00     0.016 A 
ATOM     31  C   UNL A   1      39.792  24.339  26.509  1.00  0.00     0.010 A 
ATOM     32  C   UNL A   1      41.362  23.244  27.999  1.00  0.00     0.010 A 
ATOM     33  C   UNL A   1      40.852  24.420  27.420  1.00  0.00    -0.014 A 
BRANCH  33  34
ATOM     34  C   UNL A   1      41.508  25.733  27.642  1.00  0.00     0.031 A 
ATOM     35  C   UNL A   1      40.766  26.811  28.383  1.00  0.00     0.074 A 
ATOM     36  C   UNL A   1      42.762  25.958  27.212  1.00  0.00     0.049 A 
ATOM     37  N   UNL A   1      41.157  28.017  28.702  1.00  0.00    -0.248 NA
ATOM     38  C   UNL A   1      39.399  26.486  28.820  1.00  0.00     0.031 C 
ATOM     39  C   UNL A   1      43.584  25.001  26.475  1.00  0.00     0.029 A 
ATOM     40  N   UNL A   1      43.551  27.077  27.314  1.00  0.00    -0.354 N 
ATOM     41  C   UNL A   1      40.077  28.609  29.346  1.00  0.00     0.074 A 
ATOM     42  C   UNL A   1      39.009  27.631  29.360  1.00  0.00     0.031 C 
ATOM     43  C   UNL A   1      44.750  25.587  26.156  1.00  0.00     0.029 A 
ATOM     44  C   UNL A   1      44.748  26.964  26.650  1.00  0.00     0.049 A 
ATOM     45  H   UNL A   1      43.284  27.882  27.813  1.00  0.00     0.167 HD
ATOM     46  C   UNL A   1      39.984  29.845  29.891  1.00  0.00     0.034 A 
ATOM     47  C   UNL A   1      45.721  27.873  26.440  1.00  0.00     0.034 A 
ATOM     48  C   UNL A   1      41.051  30.810  29.890  1.00  0.00     0.049 A 
ATOM     49  C   UNL A   1      45.599  29.246  27.045  1.00  0.00     0.074 A 
ATOM     50  C   UNL A   1      41.078  32.063  30.478  1.00  0.00     0.029 A 
ATOM     51  N   UNL A   1      42.270  30.644  29.250  1.00  0.00    -0.354 N 
ATOM     52  N   UNL A   1      44.629  29.741  27.775  1.00  0.00    -0.248 NA
ATOM     53  C   UNL A   1      46.720  30.171  26.832  1.00  0.00     0.031 C 
ATOM     54  C   UNL A   1      42.298  32.668  30.161  1.00  0.00     0.029 A 
ATOM     55  C   UNL A   1      43.048  31.779  29.408  1.00  0.00     0.049 A 
ATOM     56  H   UNL A   1      42.542  29.837  28.756  1.00  0.00     0.167 HD
ATOM     57  C   UNL A   1      45.032  31.025  28.130  1.00  0.00     0.074 A 
ATOM     58  C   UNL A   1      46.346  31.222  27.551  1.00  0.00     0.031 C 
ATOM     59  C   UNL A   1      44.370  31.956  28.860  1.00  0.00     0.034 A 
BRANCH  46  60
ATOM     60  C   UNL A   1      38.676  30.218  30.540  1.00  0.00     0.023 A 
ATOM     61  C   UNL A   1      38.397  29.791  31.855  1.00  0.00     0.012 A 
ATOM     62  C   UNL A   1      37.731  31.005  29.854  1.00  0.00     0.148 A 
ATOM     63  C   UNL A   1      37.179  30.103  32.458  1.00  0.00     0.002 A 
ATOM     64  C   UNL A   1      36.539  31.350  30.481  1.00  0.00     0.091 A 
ATOM     65  F   UNL A   1      38.001  31.379  28.596  1.00  0.00    -0.205 F 
ATOM     66  C   UNL A   1      36.255  30.888  31.776  1.00  0.00     0.022 A 
BRANCH  64  67
ATOM     67  S   UNL A   1      35.324  32.423  29.707  1.00  0.00     0.127 S 
ATOM     68  O   UNL A   1      34.813  31.567  28.638  1.00  0.00    -0.237 OA
ATOM     69  O   UNL A   1      34.380  32.662  30.799  1.00  0.00    -0.237 OA
ATOM     70  O   UNL A   1      36.056  33.604  29.273  1.00  0.00    -0.744 OA
ENDBRANCH  64  67
ENDBRANCH  46  60
BRANCH  47  71
ATOM     71  C   UNL A   1      46.905  27.492  25.622  1.00  0.00     0.023 A 
ATOM     72  C   UNL A   1      46.928  27.769  24.243  1.00  0.00     0.012 A 
ATOM     73  C   UNL A   1      48.035  26.908  26.229  1.00  0.00     0.148 A 
ATOM     74  C   UNL A   1      48.054  27.459  23.478  1.00  0.00     0.002 A 
ATOM     75  C   UNL A   1      49.172  26.655  25.473  1.00  0.00     0.091 A 
ATOM     76  F   UNL A   1      47.981  26.640  27.541  1.00  0.00    -0.205 F 
ATOM     77  C   UNL A   1      49.180  26.916  24.094  1.00  0.00     0.022 A 
BRANCH  75  78
ATOM     78  S   UNL A   1      50.709  26.086  26.205  1.00  0.00     0.127 S 
ATOM     79  O   UNL A   1      51.573  25.970  25.033  1.00  0.00    -0.237 OA
ATOM     80  O   UNL A   1      51.035  27.191  27.107  1.00  0.00    -0.237 OA
ATOM     81  O   UNL A   1      50.389  24.832  26.876  1.00  0.00    -0.744 OA
ENDBRANCH  75  78
ENDBRANCH  47  71
BRANCH  59  82
ATOM     82  C   UNL A   1      45.057  33.277  29.105  1.00  0.00     0.023 A 
ATOM     83  C   UNL A   1      45.909  33.432  30.217  1.00  0.00     0.012 A 
ATOM     84  C   UNL A   1      44.919  34.340  28.189  1.00  0.00     0.148 A 
ATOM     85  C   UNL A   1      46.587  34.632  30.431  1.00  0.00     0.002 A 
ATOM     86  C   UNL A   1      45.637  35.515  28.381  1.00  0.00     0.091 A 
ATOM     87  F   UNL A   1      44.091  34.183  27.146  1.00  0.00    -0.205 F 
ATOM     88  C   UNL A   1      46.460  35.668  29.508  1.00  0.00     0.022 A 
BRANCH  86  89
ATOM     89  S   UNL A   1      45.612  36.865  27.195  1.00  0.00     0.127 S 
ATOM     90  O   UNL A   1      46.342  36.286  26.069  1.00  0.00    -0.237 OA
ATOM     91  O   UNL A   1      44.179  37.050  26.964  1.00  0.00    -0.237 OA
ATOM     92  O   UNL A   1      46.268  37.988  27.853  1.00  0.00    -0.744 OA
ENDBRANCH  86  89
ENDBRANCH  59  82
ENDBRANCH  33  34
ENDBRANCH  26  28
ENDBRANCH  25  26
ENDBRANCH  24  25
ENDBRANCH  23  24
ENDBRANCH  22  23
ENDBRANCH   1  22
TORSDOF 24
ENDMDL
MODEL 2
REMARK VINA RESULT:      -9.5      0.673      7.788
REMARK SMILES CCC(CC)N(CC(C)C)C(=O)N[C@H](C)C(=O)OCCOCCOC(=O)c1ccc(-c2c3nc(c(-c4cccc(S(=O)(=O)[O-])c4F)c4ccc([nH]4)c(-c4cccc(S(=O)(=O)[O-])c4F)c4nc(c(-c5cccc(S(=O)(=O)[O-])c5F)c5ccc2[nH]5)C=C4)C=C3)cc1
REMARK SMILES IDX 20 1 19 2 18 3 16 4 17 5 14 6 15 7 13 8 11 9 12 10 6 12 3 13
REMARK SMILES IDX 2 14 1 15 4 16 5 17 7 18 8 19 9 20 10 21 21 22 22 23 23 24
REMARK SMILES IDX 24 25 25 26 26 27 27 28 28 29 89 30 29 31 88 32 30 33 31 34
REMARK SMILES IDX 32 35 82 36 33 37 87 38 81 39 83 40 34 41 86 42 80 43 79 44
REMARK SMILES IDX 35 46 67 47 47 48 66 49 48 50 51 51 65 52 84 53 49 54 50 55
REMARK SMILES IDX 64 57 85 58 52 59 36 60 37 61 45 62 38 63 40 64 46 65 39 66
REMARK SMILES IDX 41 67 42 68 43 69 44 70 68 71 69 72 77 73 70 74 72 75 78 76
REMARK SMILES IDX 71 77 73 78 74 79 75 80 76 81 53 82 54 83 62 84 55 85 57 86
REMARK SMILES IDX 63 87 56 88 58 89 59 90 60 91 61 92
REMARK H PARENT 13 11 83 45 51 56
REMARK Flexibility Score: inf
ROOT
ATOM      1  C   UNL A   1      35.202  21.442  26.267  1.00  0.00     0.202 C 
ENDROOT
BRANCH   1   2
ATOM      2  C   UNL A   1      33.936  22.302  26.257  1.00  0.00     0.261 C 
BRANCH   2   3
ATOM      3  O   UNL A   1      33.632  22.562  24.880  1.00  0.00    -0.462 OA
BRANCH   3   4
ATOM      4  C   UNL A   1      33.601  23.844  24.458  1.00  0.00     0.328 C 
ATOM      5  O   UNL A   1      34.574  24.586  24.395  1.00  0.00    -0.250 OA
BRANCH   4   6
ATOM      6  C   UNL A   1      32.187  24.226  23.961  1.00  0.00     0.190 C 
ATOM      7  C   UNL A   1      31.409  23.078  23.303  1.00  0.00     0.043 C 
BRANCH   6   8
ATOM      8  N   UNL A   1      31.492  24.878  25.055  1.00  0.00    -0.325 N 
ATOM      9  C   UNL A   1      31.258  26.126  25.468  1.00  0.00     0.318 C 
ATOM     10  O   UNL A   1      30.423  26.178  26.373  1.00  0.00    -0.249 OA
ATOM     11  H   UNL A   1      31.078  24.219  25.657  1.00  0.00     0.166 HD
BRANCH   9  12
ATOM     12  N   UNL A   1      31.832  27.244  24.916  1.00  0.00    -0.322 N 
BRANCH  12  13
ATOM     13  C   UNL A   1      31.182  27.802  23.692  1.00  0.00     0.086 C 
BRANCH  13  14
ATOM     14  C   UNL A   1      31.874  27.307  22.394  1.00  0.00     0.022 C 
ATOM     15  C   UNL A   1      33.395  27.331  22.449  1.00  0.00     0.006 C 
ENDBRANCH  13  14
BRANCH  13  16
ATOM     16  C   UNL A   1      29.638  27.747  23.703  1.00  0.00     0.022 C 
ATOM     17  C   UNL A   1      28.881  28.825  22.946  1.00  0.00     0.006 C 
ENDBRANCH  13  16
ENDBRANCH  12  13
BRANCH  12  18
ATOM     18  C   UNL A   1      33.069  27.915  25.345  1.00  0.00     0.124 C 
BRANCH  18  19
ATOM     19  C   UNL A   1      33.023  28.801  26.608  1.00  0.00     0.002 C 
ATOM     20  C   UNL A   1      34.364  29.040  27.301  1.00  0.00     0.009 C 
ATOM     21  C   UNL A   1      32.438  30.167  26.204  1.00  0.00     0.009 C 
ENDBRANCH  18  19
ENDBRANCH  12  18
ENDBRANCH   9  12
ENDBRANCH   6   8
ENDBRANCH   4   6
ENDBRANCH   3   4
ENDBRANCH   2   3
ENDBRANCH   1   2
BRANCH   1  22
ATOM     22  O   UNL A   1      35.718  21.108  24.974  1.00  0.00    -0.374 OA
BRANCH  22  23
ATOM     23  C   UNL A   1      36.246  19.794  24.792  1.00  0.00     0.202 C 
BRANCH  23  24
ATOM     24  C   UNL A   1      37.740  19.608  25.090  1.00  0.00     0.261 C 
BRANCH  24  25
ATOM     25  O   UNL A   1      38.377  20.852  25.438  1.00  0.00    -0.460 OA
BRANCH  25  26
ATOM     26  C   UNL A   1      39.530  20.728  26.134  1.00  0.00     0.338 C 
ATOM     27  O   UNL A   1      40.280  19.755  26.144  1.00  0.00    -0.246 OA
BRANCH  26  28
ATOM     28  C   UNL A   1      39.905  22.018  26.738  1.00  0.00     0.060 A 
ATOM     29  C   UNL A   1      39.316  23.169  26.200  1.00  0.00     0.016 A 
ATOM     30  C   UNL A   1      40.855  22.119  27.757  1.00  0.00     0.016 A 
ATOM     31  C   UNL A   1      39.711  24.429  26.638  1.00  0.00     0.010 A 
ATOM     32  C   UNL A   1      41.257  23.389  28.192  1.00  0.00     0.010 A 
ATOM     33  C   UNL A   1      40.717  24.548  27.605  1.00  0.00    -0.014 A 
BRANCH  33  34
ATOM     34  C   UNL A   1      41.292  25.888  27.882  1.00  0.00     0.031 A 
ATOM     35  C   UNL A   1      42.693  26.196  27.430  1.00  0.00     0.074 A 
ATOM     36  C   UNL A   1      40.568  26.833  28.507  1.00  0.00     0.049 A 
ATOM     37  N   UNL A   1      43.379  27.303  27.550  1.00  0.00    -0.248 NA
ATOM     38  C   UNL A   1      43.419  25.109  26.754  1.00  0.00     0.031 C 
ATOM     39  C   UNL A   1      39.204  26.658  29.003  1.00  0.00     0.029 A 
ATOM     40  N   UNL A   1      40.894  28.121  28.852  1.00  0.00    -0.354 N 
ATOM     41  C   UNL A   1      44.626  27.039  26.998  1.00  0.00     0.074 A 
ATOM     42  C   UNL A   1      44.607  25.661  26.553  1.00  0.00     0.031 C 
ATOM     43  C   UNL A   1      38.822  27.786  29.624  1.00  0.00     0.029 A 
ATOM     44  C   UNL A   1      39.919  28.753  29.585  1.00  0.00     0.049 A 
ATOM     45  H   UNL A   1      41.743  28.550  28.599  1.00  0.00     0.167 HD
ATOM     46  C   UNL A   1      45.687  27.869  26.857  1.00  0.00     0.034 A 
ATOM     47  C   UNL A   1      39.919  29.962  30.182  1.00  0.00     0.034 A 
ATOM     48  C   UNL A   1      45.700  29.242  27.283  1.00  0.00     0.049 A 
ATOM     49  C   UNL A   1      41.109  30.869  30.023  1.00  0.00     0.074 A 
ATOM     50  C   UNL A   1      46.702  30.184  27.121  1.00  0.00     0.029 A 
ATOM     51  N   UNL A   1      44.676  29.867  27.981  1.00  0.00    -0.354 N 
ATOM     52  N   UNL A   1      42.228  30.655  29.372  1.00  0.00    -0.248 NA
ATOM     53  C   UNL A   1      41.024  32.198  30.645  1.00  0.00     0.031 C 
ATOM     54  C   UNL A   1      46.298  31.365  27.754  1.00  0.00     0.029 A 
ATOM     55  C   UNL A   1      45.030  31.172  28.277  1.00  0.00     0.049 A 
ATOM     56  H   UNL A   1      43.823  29.442  28.229  1.00  0.00     0.167 HD
ATOM     57  C   UNL A   1      42.968  31.828  29.485  1.00  0.00     0.074 A 
ATOM     58  C   UNL A   1      42.160  32.757  30.248  1.00  0.00     0.031 C 
ATOM     59  C   UNL A   1      44.207  32.105  29.007  1.00  0.00     0.034 A 
BRANCH  46  60
ATOM     60  C   UNL A   1      46.923  27.306  26.204  1.00  0.00     0.023 A 
ATOM     61  C   UNL A   1      47.122  27.466  24.817  1.00  0.00     0.012 A 
ATOM     62  C   UNL A   1      47.897  26.632  26.967  1.00  0.00     0.148 A 
ATOM     63  C   UNL A   1      48.246  26.925  24.194  1.00  0.00     0.002 A 
ATOM     64  C   UNL A   1      49.036  26.137  26.346  1.00  0.00     0.091 A 
ATOM     65  F   UNL A   1      47.679  26.465  28.280  1.00  0.00    -0.205 F 
ATOM     66  C   UNL A   1      49.206  26.268  24.958  1.00  0.00     0.022 A 
BRANCH  64  67
ATOM     67  S   UNL A   1      50.363  25.346  27.263  1.00  0.00     0.127 S 
ATOM     68  O   UNL A   1      50.723  26.390  28.220  1.00  0.00    -0.237 OA
ATOM     69  O   UNL A   1      49.687  24.188  27.851  1.00  0.00    -0.237 OA
ATOM     70  O   UNL A   1      51.383  25.012  26.279  1.00  0.00    -0.744 OA
ENDBRANCH  64  67
ENDBRANCH  46  60
BRANCH  47  71
ATOM     71  C   UNL A   1      38.731  30.379  30.976  1.00  0.00     0.023 A 
ATOM     72  C   UNL A   1      38.685  30.130  32.360  1.00  0.00     0.012 A 
ATOM     73  C   UNL A   1      37.672  31.078  30.364  1.00  0.00     0.148 A 
ATOM     74  C   UNL A   1      37.596  30.561  33.121  1.00  0.00     0.002 A 
ATOM     75  C   UNL A   1      36.620  31.553  31.136  1.00  0.00     0.091 A 
ATOM     76  F   UNL A   1      37.733  31.289  29.041  1.00  0.00    -0.205 F 
ATOM     77  C   UNL A   1      36.572  31.284  32.512  1.00  0.00     0.022 A 
BRANCH  75  78
ATOM     78  S   UNL A   1      35.330  32.607  30.465  1.00  0.00     0.127 S 
ATOM     79  O   UNL A   1      36.093  33.775  30.035  1.00  0.00    -0.237 OA
ATOM     80  O   UNL A   1      34.804  31.777  29.379  1.00  0.00    -0.237 OA
ATOM     81  O   UNL A   1      34.394  32.834  31.558  1.00  0.00    -0.744 OA
ENDBRANCH  75  78
ENDBRANCH  47  71
BRANCH  59  82
ATOM     82  C   UNL A   1      44.771  33.479  29.267  1.00  0.00     0.023 A 
ATOM     83  C   UNL A   1      45.466  33.740  30.464  1.00  0.00     0.012 A 
ATOM     84  C   UNL A   1      44.678  34.491  28.290  1.00  0.00     0.148 A 
ATOM     85  C   UNL A   1      46.033  34.993  30.699  1.00  0.00     0.002 A 
ATOM     86  C   UNL A   1      45.288  35.721  28.508  1.00  0.00     0.091 A 
ATOM     87  F   UNL A   1      43.998  34.233  27.163  1.00  0.00    -0.205 F 
ATOM     88  C   UNL A   1      45.954  35.978  29.717  1.00  0.00     0.022 A 
BRANCH  86  89
ATOM     89  S   UNL A   1      45.323  37.016  27.262  1.00  0.00     0.127 S 
ATOM     90  O   UNL A   1      43.898  37.226  27.011  1.00  0.00    -0.237 OA
ATOM     91  O   UNL A   1      45.985  38.111  27.970  1.00  0.00    -0.237 OA
ATOM     92  O   UNL A   1      46.081  36.474  26.142  1.00  0.00    -0.744 OA
ENDBRANCH  86  89
ENDBRANCH  59  82
ENDBRANCH  33  34
ENDBRANCH  26  28
ENDBRANCH  25  26
ENDBRANCH  24  25
ENDBRANCH  23  24
ENDBRANCH  22  23
ENDBRANCH   1  22
TORSDOF 24
ENDMDL
MODEL 3
REMARK VINA RESULT:      -9.4      1.386      7.812
REMARK SMILES CCC(CC)N(CC(C)C)C(=O)N[C@H](C)C(=O)OCCOCCOC(=O)c1ccc(-c2c3nc(c(-c4cccc(S(=O)(=O)[O-])c4F)c4ccc([nH]4)c(-c4cccc(S(=O)(=O)[O-])c4F)c4nc(c(-c5cccc(S(=O)(=O)[O-])c5F)c5ccc2[nH]5)C=C4)C=C3)cc1
REMARK SMILES IDX 20 1 19 2 18 3 16 4 17 5 14 6 15 7 13 8 11 9 12 10 6 12 3 13
REMARK SMILES IDX 2 14 1 15 4 16 5 17 7 18 8 19 9 20 10 21 21 22 22 23 23 24
REMARK SMILES IDX 24 25 25 26 26 27 27 28 28 29 89 30 29 31 88 32 30 33 31 34
REMARK SMILES IDX 32 35 82 36 33 37 87 38 81 39 83 40 34 41 86 42 80 43 79 44
REMARK SMILES IDX 35 46 67 47 47 48 66 49 48 50 51 51 65 52 84 53 49 54 50 55
REMARK SMILES IDX 64 57 85 58 52 59 36 60 37 61 45 62 38 63 40 64 46 65 39 66
REMARK SMILES IDX 41 67 42 68 43 69 44 70 68 71 69 72 77 73 70 74 72 75 78 76
REMARK SMILES IDX 71 77 73 78 74 79 75 80 76 81 53 82 54 83 62 84 55 85 57 86
REMARK SMILES IDX 63 87 56 88 58 89 59 90 60 91 61 92
REMARK H PARENT 13 11 83 45 51 56
REMARK Flexibility Score: inf
ROOT
ATOM      1  C   UNL A   1      35.515  22.337  26.107  1.00  0.00     0.202 C 
ENDROOT
BRANCH   1   2
ATOM      2  C   UNL A   1      34.849  23.712  26.190  1.00  0.00     0.261 C 
BRANCH   2   3
ATOM      3  O   UNL A   1      33.488  23.530  25.777  1.00  0.00    -0.462 OA
BRANCH   3   4
ATOM      4  C   UNL A   1      32.938  24.445  24.950  1.00  0.00     0.328 C 
ATOM      5  O   UNL A   1      33.495  24.934  23.975  1.00  0.00    -0.250 OA
BRANCH   4   6
ATOM      6  C   UNL A   1      31.466  24.720  25.335  1.00  0.00     0.190 C 
ATOM      7  C   UNL A   1      30.654  23.467  25.695  1.00  0.00     0.043 C 
BRANCH   6   8
ATOM      8  N   UNL A   1      31.456  25.757  26.349  1.00  0.00    -0.325 N 
ATOM      9  C   UNL A   1      31.497  27.091  26.393  1.00  0.00     0.318 C 
ATOM     10  O   UNL A   1      31.258  27.536  27.518  1.00  0.00    -0.249 OA
ATOM     11  H   UNL A   1      31.404  25.371  27.253  1.00  0.00     0.166 HD
BRANCH   9  12
ATOM     12  N   UNL A   1      31.720  27.894  25.303  1.00  0.00    -0.322 N 
BRANCH  12  13
ATOM     13  C   UNL A   1      33.146  28.157  24.939  1.00  0.00     0.086 C 
BRANCH  13  14
ATOM     14  C   UNL A   1      33.264  29.000  23.641  1.00  0.00     0.022 C 
ATOM     15  C   UNL A   1      34.440  28.618  22.754  1.00  0.00     0.006 C 
ENDBRANCH  13  14
BRANCH  13  16
ATOM     16  C   UNL A   1      34.039  28.598  26.120  1.00  0.00     0.022 C 
ATOM     17  C   UNL A   1      33.644  29.850  26.884  1.00  0.00     0.006 C 
ENDBRANCH  13  16
ENDBRANCH  12  13
BRANCH  12  18
ATOM     18  C   UNL A   1      30.714  28.596  24.492  1.00  0.00     0.124 C 
BRANCH  18  19
ATOM     19  C   UNL A   1      29.797  27.760  23.574  1.00  0.00     0.002 C 
ATOM     20  C   UNL A   1      28.635  28.515  22.930  1.00  0.00     0.009 C 
ATOM     21  C   UNL A   1      30.669  27.167  22.451  1.00  0.00     0.009 C 
ENDBRANCH  18  19
ENDBRANCH  12  18
ENDBRANCH   9  12
ENDBRANCH   6   8
ENDBRANCH   4   6
ENDBRANCH   3   4
ENDBRANCH   2   3
ENDBRANCH   1   2
BRANCH   1  22
ATOM     22  O   UNL A   1      35.850  21.904  24.785  1.00  0.00    -0.374 OA
BRANCH  22  23
ATOM     23  C   UNL A   1      36.340  20.572  24.628  1.00  0.00     0.202 C 
BRANCH  23  24
ATOM     24  C   UNL A   1      37.549  20.181  25.490  1.00  0.00     0.261 C 
BRANCH  24  25
ATOM     25  O   UNL A   1      38.649  21.094  25.317  1.00  0.00    -0.460 OA
BRANCH  25  26
ATOM     26  C   UNL A   1      39.671  20.928  26.187  1.00  0.00     0.338 C 
ATOM     27  O   UNL A   1      40.348  19.914  26.339  1.00  0.00    -0.246 OA
BRANCH  26  28
ATOM     28  C   UNL A   1      40.029  22.214  26.808  1.00  0.00     0.060 A 
ATOM     29  C   UNL A   1      39.372  23.357  26.332  1.00  0.00     0.016 A 
ATOM     30  C   UNL A   1      41.024  22.324  27.782  1.00  0.00     0.016 A 
ATOM     31  C   UNL A   1      39.743  24.618  26.787  1.00  0.00     0.010 A 
ATOM     32  C   UNL A   1      41.402  23.596  28.232  1.00  0.00     0.010 A 
ATOM     33  C   UNL A   1      40.791  24.750  27.706  1.00  0.00    -0.014 A 
BRANCH  33  34
ATOM     34  C   UNL A   1      41.330  26.103  27.992  1.00  0.00     0.031 A 
ATOM     35  C   UNL A   1      42.724  26.449  27.546  1.00  0.00     0.074 A 
ATOM     36  C   UNL A   1      40.580  27.025  28.620  1.00  0.00     0.049 A 
ATOM     37  N   UNL A   1      43.380  27.573  27.675  1.00  0.00    -0.248 NA
ATOM     38  C   UNL A   1      43.480  25.385  26.866  1.00  0.00     0.031 C 
ATOM     39  C   UNL A   1      39.219  26.812  29.111  1.00  0.00     0.029 A 
ATOM     40  N   UNL A   1      40.871  28.319  28.974  1.00  0.00    -0.354 N 
ATOM     41  C   UNL A   1      44.635  27.345  27.125  1.00  0.00     0.074 A 
ATOM     42  C   UNL A   1      44.653  25.970  26.673  1.00  0.00     0.031 C 
ATOM     43  C   UNL A   1      38.806  27.926  29.737  1.00  0.00     0.029 A 
ATOM     44  C   UNL A   1      39.878  28.921  29.707  1.00  0.00     0.049 A 
ATOM     45  H   UNL A   1      41.710  28.771  28.726  1.00  0.00     0.167 HD
ATOM     46  C   UNL A   1      45.675  28.203  26.992  1.00  0.00     0.034 A 
ATOM     47  C   UNL A   1      39.845  30.126  30.311  1.00  0.00     0.034 A 
ATOM     48  C   UNL A   1      45.651  29.573  27.427  1.00  0.00     0.049 A 
ATOM     49  C   UNL A   1      41.012  31.065  30.161  1.00  0.00     0.074 A 
ATOM     50  C   UNL A   1      46.628  30.542  27.273  1.00  0.00     0.029 A 
ATOM     51  N   UNL A   1      44.610  30.167  28.124  1.00  0.00    -0.354 N 
ATOM     52  N   UNL A   1      42.137  30.883  29.513  1.00  0.00    -0.248 NA
ATOM     53  C   UNL A   1      40.890  32.387  30.790  1.00  0.00     0.031 C 
ATOM     54  C   UNL A   1      46.193  31.708  27.911  1.00  0.00     0.029 A 
ATOM     55  C   UNL A   1      44.929  31.479  28.429  1.00  0.00     0.049 A 
ATOM     56  H   UNL A   1      43.767  29.719  28.367  1.00  0.00     0.167 HD
ATOM     57  C   UNL A   1      42.846  32.075  29.634  1.00  0.00     0.074 A 
ATOM     58  C   UNL A   1      42.012  32.978  30.400  1.00  0.00     0.031 C 
ATOM     59  C   UNL A   1      44.079  32.386  29.162  1.00  0.00     0.034 A 
BRANCH  46  60
ATOM     60  C   UNL A   1      46.927  27.676  26.340  1.00  0.00     0.023 A 
ATOM     61  C   UNL A   1      47.869  26.956  27.104  1.00  0.00     0.012 A 
ATOM     62  C   UNL A   1      47.164  27.878  24.966  1.00  0.00     0.148 A 
ATOM     63  C   UNL A   1      49.047  26.488  26.522  1.00  0.00     0.002 A 
ATOM     64  C   UNL A   1      48.318  27.368  24.385  1.00  0.00     0.091 A 
ATOM     65  F   UNL A   1      46.272  28.587  24.260  1.00  0.00    -0.205 F 
ATOM     66  C   UNL A   1      49.267  26.686  25.163  1.00  0.00     0.022 A 
BRANCH  64  67
ATOM     67  S   UNL A   1      48.648  27.507  22.624  1.00  0.00     0.127 S 
ATOM     68  O   UNL A   1      48.391  26.143  22.167  1.00  0.00    -0.237 OA
ATOM     69  O   UNL A   1      47.651  28.490  22.199  1.00  0.00    -0.237 OA
ATOM     70  O   UNL A   1      50.027  27.960  22.513  1.00  0.00    -0.744 OA
ENDBRANCH  64  67
ENDBRANCH  46  60
BRANCH  47  71
ATOM     71  C   UNL A   1      38.644  30.507  31.104  1.00  0.00     0.023 A 
ATOM     72  C   UNL A   1      38.597  30.244  32.485  1.00  0.00     0.012 A 
ATOM     73  C   UNL A   1      37.571  31.188  30.494  1.00  0.00     0.148 A 
ATOM     74  C   UNL A   1      37.496  30.642  33.245  1.00  0.00     0.002 A 
ATOM     75  C   UNL A   1      36.505  31.630  31.265  1.00  0.00     0.091 A 
ATOM     76  F   UNL A   1      37.633  31.413  29.173  1.00  0.00    -0.205 F 
ATOM     77  C   UNL A   1      36.457  31.346  32.639  1.00  0.00     0.022 A 
BRANCH  75  78
ATOM     78  S   UNL A   1      35.194  32.660  30.599  1.00  0.00     0.127 S 
ATOM     79  O   UNL A   1      35.906  33.903  30.315  1.00  0.00    -0.237 OA
ATOM     80  O   UNL A   1      34.788  31.897  29.418  1.00  0.00    -0.237 OA
ATOM     81  O   UNL A   1      34.182  32.740  31.644  1.00  0.00    -0.744 OA
ENDBRANCH  75  78
ENDBRANCH  47  71
BRANCH  59  82
ATOM     82  C   UNL A   1      44.606  33.773  29.432  1.00  0.00     0.023 A 
ATOM     83  C   UNL A   1      45.513  33.989  30.488  1.00  0.00     0.012 A 
ATOM     84  C   UNL A   1      44.262  34.850  28.588  1.00  0.00     0.148 A 
ATOM     85  C   UNL A   1      46.044  35.257  30.721  1.00  0.00     0.002 A 
ATOM     86  C   UNL A   1      44.834  36.100  28.795  1.00  0.00     0.091 A 
ATOM     87  F   UNL A   1      43.384  34.632  27.599  1.00  0.00    -0.205 F 
ATOM     88  C   UNL A   1      45.715  36.309  29.868  1.00  0.00     0.022 A 
BRANCH  86  89
ATOM     89  S   UNL A   1      44.544  37.488  27.691  1.00  0.00     0.127 S 
ATOM     90  O   UNL A   1      44.189  38.548  28.632  1.00  0.00    -0.237 OA
ATOM     91  O   UNL A   1      45.848  37.653  27.049  1.00  0.00    -0.237 OA
ATOM     92  O   UNL A   1      43.477  37.069  26.792  1.00  0.00    -0.744 OA
ENDBRANCH  86  89
ENDBRANCH  59  82
ENDBRANCH  33  34
ENDBRANCH  26  28
ENDBRANCH  25  26
ENDBRANCH  24  25
ENDBRANCH  23  24
ENDBRANCH  22  23
ENDBRANCH   1  22
TORSDOF 24
ENDMDL
