MODEL 1
REMARK VINA RESULT:     -11.6      0.000      0.000
REMARK SMILES CCN1C(=O)C[C@@H](C(=O)OCCOCCOC(=O)c2ccc(-c3c4nc(c(-c5cccc(S(=O)(=O)[O-])c5F)c5ccc([nH]5)c(-c5cccc(S(=O)(=O)[O-])c5F)c5nc(c(-c6cccc(S(=O)(=O)[O-])c6F)c6ccc3[nH]6)C=C5)C=C4)cc2)[C@H]1c1ccccc1C1CC1
REMARK SMILES IDX 14 1 13 2 12 3 11 4 10 5 8 6 9 7 7 8 3 9 4 10 82 11 5 12
REMARK SMILES IDX 6 13 2 14 1 15 83 16 84 17 88 18 85 19 87 20 86 21 89 22
REMARK SMILES IDX 90 23 91 24 15 25 16 26 17 27 18 28 19 29 20 30 81 31 21 32
REMARK SMILES IDX 80 33 22 34 23 35 24 36 74 37 25 38 79 39 73 40 75 41 26 42
REMARK SMILES IDX 78 43 72 44 71 45 27 47 59 48 39 49 58 50 40 51 43 52 57 53
REMARK SMILES IDX 76 54 41 55 42 56 56 58 77 59 44 60 28 61 29 62 37 63 30 64
REMARK SMILES IDX 32 65 38 66 31 67 33 68 34 69 35 70 36 71 60 72 61 73 69 74
REMARK SMILES IDX 62 75 64 76 70 77 63 78 65 79 66 80 67 81 68 82 45 83 46 84
REMARK SMILES IDX 54 85 47 86 49 87 55 88 48 89 50 90 51 91 52 92 53 93
REMARK H PARENT 75 46 43 57
REMARK Flexibility Score: inf
ROOT
ATOM      1  C   UNL A   1      31.280  30.261  25.605  1.00  0.00     0.202 C 
ENDROOT
BRANCH   1   2
ATOM      2  O   UNL A   1      32.281  29.694  24.756  1.00  0.00    -0.374 OA
BRANCH   2   3
ATOM      3  C   UNL A   1      31.841  28.914  23.648  1.00  0.00     0.202 C 
BRANCH   3   4
ATOM      4  C   UNL A   1      32.750  27.833  23.034  1.00  0.00     0.261 C 
BRANCH   4   5
ATOM      5  O   UNL A   1      32.749  26.548  23.677  1.00  0.00    -0.463 OA
BRANCH   5   6
ATOM      6  C   UNL A   1      33.050  25.541  22.814  1.00  0.00     0.312 C 
ATOM      7  O   UNL A   1      34.031  25.565  22.089  1.00  0.00    -0.252 OA
BRANCH   6   8
ATOM      8  C   UNL A   1      32.105  24.365  22.959  1.00  0.00     0.135 C 
ATOM      9  N   UNL A   1      31.367  24.521  25.188  1.00  0.00    -0.335 N 
ATOM     10  C   UNL A   1      30.451  25.242  24.405  1.00  0.00     0.224 C 
ATOM     11  C   UNL A   1      32.174  23.657  24.331  1.00  0.00     0.130 C 
ATOM     12  O   UNL A   1      29.538  25.948  24.806  1.00  0.00    -0.275 OA
ATOM     13  C   UNL A   1      30.681  24.901  22.949  1.00  0.00     0.118 C 
BRANCH   9  14
ATOM     14  C   UNL A   1      31.063  24.261  26.588  1.00  0.00     0.117 C 
ATOM     15  C   UNL A   1      30.342  22.962  26.880  1.00  0.00     0.027 C 
ENDBRANCH   9  14
BRANCH  11  16
ATOM     16  C   UNL A   1      33.582  23.229  24.733  1.00  0.00    -0.021 A 
ATOM     17  C   UNL A   1      34.444  24.201  25.293  1.00  0.00     0.006 A 
ATOM     18  C   UNL A   1      34.139  21.972  24.375  1.00  0.00    -0.040 A 
ATOM     19  C   UNL A   1      35.829  24.075  25.289  1.00  0.00     0.000 A 
ATOM     20  C   UNL A   1      35.560  21.892  24.364  1.00  0.00     0.004 A 
ATOM     21  C   UNL A   1      36.394  22.930  24.773  1.00  0.00     0.000 A 
BRANCH  18  22
ATOM     22  C   UNL A   1      33.422  20.658  24.065  1.00  0.00     0.019 C 
ATOM     23  C   UNL A   1      33.868  19.334  24.627  1.00  0.00     0.009 C 
ATOM     24  C   UNL A   1      32.523  19.906  24.998  1.00  0.00     0.009 C 
ENDBRANCH  18  22
ENDBRANCH  11  16
ENDBRANCH   6   8
ENDBRANCH   5   6
ENDBRANCH   4   5
ENDBRANCH   3   4
ENDBRANCH   2   3
ENDBRANCH   1   2
BRANCH   1  25
ATOM     25  C   UNL A   1      31.658  31.527  26.377  1.00  0.00     0.261 C 
BRANCH  25  26
ATOM     26  O   UNL A   1      32.688  31.247  27.339  1.00  0.00    -0.460 OA
BRANCH  26  27
ATOM     27  C   UNL A   1      33.486  32.303  27.625  1.00  0.00     0.338 C 
ATOM     28  O   UNL A   1      33.140  33.461  27.801  1.00  0.00    -0.246 OA
BRANCH  27  29
ATOM     29  C   UNL A   1      34.846  31.822  27.938  1.00  0.00     0.060 A 
ATOM     30  C   UNL A   1      35.025  30.433  28.004  1.00  0.00     0.016 A 
ATOM     31  C   UNL A   1      35.913  32.692  28.177  1.00  0.00     0.016 A 
ATOM     32  C   UNL A   1      36.250  29.906  28.393  1.00  0.00     0.010 A 
ATOM     33  C   UNL A   1      37.140  32.162  28.587  1.00  0.00     0.010 A 
ATOM     34  C   UNL A   1      37.290  30.772  28.750  1.00  0.00    -0.014 A 
BRANCH  34  35
ATOM     35  C   UNL A   1      38.429  30.224  29.518  1.00  0.00     0.031 A 
ATOM     36  C   UNL A   1      38.598  30.675  30.944  1.00  0.00     0.074 A 
ATOM     37  C   UNL A   1      39.261  29.317  28.981  1.00  0.00     0.049 A 
ATOM     38  N   UNL A   1      39.499  30.323  31.822  1.00  0.00    -0.248 NA
ATOM     39  C   UNL A   1      37.617  31.653  31.448  1.00  0.00     0.031 C 
ATOM     40  C   UNL A   1      39.178  28.798  27.617  1.00  0.00     0.029 A 
ATOM     41  N   UNL A   1      40.352  28.686  29.520  1.00  0.00    -0.354 N 
ATOM     42  C   UNL A   1      39.210  31.052  32.969  1.00  0.00     0.074 A 
ATOM     43  C   UNL A   1      38.060  31.876  32.675  1.00  0.00     0.031 C 
ATOM     44  C   UNL A   1      40.197  27.943  27.416  1.00  0.00     0.029 A 
ATOM     45  C   UNL A   1      41.010  27.871  28.630  1.00  0.00     0.049 A 
ATOM     46  H   UNL A   1      40.636  28.805  30.455  1.00  0.00     0.167 HD
ATOM     47  C   UNL A   1      39.835  31.024  34.169  1.00  0.00     0.034 A 
ATOM     48  C   UNL A   1      42.147  27.163  28.779  1.00  0.00     0.034 A 
ATOM     49  C   UNL A   1      40.964  30.187  34.463  1.00  0.00     0.049 A 
ATOM     50  C   UNL A   1      42.839  27.167  30.118  1.00  0.00     0.074 A 
ATOM     51  C   UNL A   1      41.648  30.053  35.656  1.00  0.00     0.029 A 
ATOM     52  N   UNL A   1      41.583  29.350  33.547  1.00  0.00    -0.354 N 
ATOM     53  N   UNL A   1      42.487  27.770  31.229  1.00  0.00    -0.248 NA
ATOM     54  C   UNL A   1      44.064  26.364  30.236  1.00  0.00     0.031 C 
ATOM     55  C   UNL A   1      42.697  29.149  35.457  1.00  0.00     0.029 A 
ATOM     56  C   UNL A   1      42.650  28.703  34.145  1.00  0.00     0.049 A 
ATOM     57  H   UNL A   1      41.303  29.232  32.611  1.00  0.00     0.167 HD
ATOM     58  C   UNL A   1      43.425  27.394  32.184  1.00  0.00     0.074 A 
ATOM     59  C   UNL A   1      44.349  26.493  31.525  1.00  0.00     0.031 C 
ATOM     60  C   UNL A   1      43.523  27.768  33.485  1.00  0.00     0.034 A 
BRANCH  47  61
ATOM     61  C   UNL A   1      39.292  31.911  35.257  1.00  0.00     0.023 A 
ATOM     62  C   UNL A   1      38.287  31.425  36.117  1.00  0.00     0.012 A 
ATOM     63  C   UNL A   1      39.804  33.208  35.453  1.00  0.00     0.148 A 
ATOM     64  C   UNL A   1      37.777  32.227  37.137  1.00  0.00     0.002 A 
ATOM     65  C   UNL A   1      39.322  33.986  36.498  1.00  0.00     0.091 A 
ATOM     66  F   UNL A   1      40.739  33.662  34.605  1.00  0.00    -0.205 F 
ATOM     67  C   UNL A   1      38.301  33.502  37.334  1.00  0.00     0.022 A 
BRANCH  65  68
ATOM     68  S   UNL A   1      39.984  35.612  36.876  1.00  0.00     0.127 S 
ATOM     69  O   UNL A   1      39.286  35.934  38.120  1.00  0.00    -0.237 OA
ATOM     70  O   UNL A   1      41.411  35.334  37.034  1.00  0.00    -0.237 OA
ATOM     71  O   UNL A   1      39.652  36.455  35.736  1.00  0.00    -0.744 OA
ENDBRANCH  65  68
ENDBRANCH  47  61
BRANCH  48  72
ATOM     72  C   UNL A   1      42.680  26.364  27.641  1.00  0.00     0.023 A 
ATOM     73  C   UNL A   1      43.652  26.925  26.790  1.00  0.00     0.012 A 
ATOM     74  C   UNL A   1      42.249  25.043  27.413  1.00  0.00     0.148 A 
ATOM     75  C   UNL A   1      44.163  26.195  25.716  1.00  0.00     0.002 A 
ATOM     76  C   UNL A   1      42.803  24.302  26.375  1.00  0.00     0.091 A 
ATOM     77  F   UNL A   1      41.309  24.533  28.222  1.00  0.00    -0.205 F 
ATOM     78  C   UNL A   1      43.748  24.881  25.516  1.00  0.00     0.022 A 
BRANCH  76  79
ATOM     79  S   UNL A   1      42.422  22.564  26.127  1.00  0.00     0.127 S 
ATOM     80  O   UNL A   1      43.028  21.953  27.306  1.00  0.00    -0.237 OA
ATOM     81  O   UNL A   1      40.958  22.573  26.121  1.00  0.00    -0.237 OA
ATOM     82  O   UNL A   1      43.021  22.209  24.849  1.00  0.00    -0.744 OA
ENDBRANCH  76  79
ENDBRANCH  48  72
BRANCH  60  83
ATOM     83  C   UNL A   1      44.649  27.183  34.297  1.00  0.00     0.023 A 
ATOM     84  C   UNL A   1      45.911  27.807  34.294  1.00  0.00     0.012 A 
ATOM     85  C   UNL A   1      44.430  26.068  35.130  1.00  0.00     0.148 A 
ATOM     86  C   UNL A   1      46.949  27.311  35.083  1.00  0.00     0.002 A 
ATOM     87  C   UNL A   1      45.453  25.609  35.949  1.00  0.00     0.091 A 
ATOM     88  F   UNL A   1      43.225  25.478  35.107  1.00  0.00    -0.205 F 
ATOM     89  C   UNL A   1      46.716  26.222  35.919  1.00  0.00     0.022 A 
BRANCH  87  90
ATOM     90  S   UNL A   1      45.213  24.273  37.128  1.00  0.00     0.127 S 
ATOM     91  O   UNL A   1      44.867  23.159  36.249  1.00  0.00    -0.237 OA
ATOM     92  O   UNL A   1      46.533  24.170  37.754  1.00  0.00    -0.237 OA
ATOM     93  O   UNL A   1      44.155  24.718  38.025  1.00  0.00    -0.744 OA
ENDBRANCH  87  90
ENDBRANCH  60  83
ENDBRANCH  34  35
ENDBRANCH  27  29
ENDBRANCH  26  27
ENDBRANCH  25  26
ENDBRANCH   1  25
TORSDOF 20
ENDMDL
MODEL 2
REMARK VINA RESULT:     -11.4      4.604     10.074
REMARK SMILES CCN1C(=O)C[C@@H](C(=O)OCCOCCOC(=O)c2ccc(-c3c4nc(c(-c5cccc(S(=O)(=O)[O-])c5F)c5ccc([nH]5)c(-c5cccc(S(=O)(=O)[O-])c5F)c5nc(c(-c6cccc(S(=O)(=O)[O-])c6F)c6ccc3[nH]6)C=C5)C=C4)cc2)[C@H]1c1ccccc1C1CC1
REMARK SMILES IDX 14 1 13 2 12 3 11 4 10 5 8 6 9 7 7 8 3 9 4 10 82 11 5 12
REMARK SMILES IDX 6 13 2 14 1 15 83 16 84 17 88 18 85 19 87 20 86 21 89 22
REMARK SMILES IDX 90 23 91 24 15 25 16 26 17 27 18 28 19 29 20 30 81 31 21 32
REMARK SMILES IDX 80 33 22 34 23 35 24 36 74 37 25 38 79 39 73 40 75 41 26 42
REMARK SMILES IDX 78 43 72 44 71 45 27 47 59 48 39 49 58 50 40 51 43 52 57 53
REMARK SMILES IDX 76 54 41 55 42 56 56 58 77 59 44 60 28 61 29 62 37 63 30 64
REMARK SMILES IDX 32 65 38 66 31 67 33 68 34 69 35 70 36 71 60 72 61 73 69 74
REMARK SMILES IDX 62 75 64 76 70 77 63 78 65 79 66 80 67 81 68 82 45 83 46 84
REMARK SMILES IDX 54 85 47 86 49 87 55 88 48 89 50 90 51 91 52 92 53 93
REMARK H PARENT 75 46 43 57
REMARK Flexibility Score: inf
ROOT
ATOM      1  C   UNL A   1      36.337  20.841  25.317  1.00  0.00     0.202 C 
ENDROOT
BRANCH   1   2
ATOM      2  O   UNL A   1      35.729  21.618  24.282  1.00  0.00    -0.374 OA
BRANCH   2   3
ATOM      3  C   UNL A   1      36.249  22.922  24.044  1.00  0.00     0.202 C 
BRANCH   3   4
ATOM      4  C   UNL A   1      36.020  24.060  25.055  1.00  0.00     0.261 C 
BRANCH   4   5
ATOM      5  O   UNL A   1      35.060  25.065  24.689  1.00  0.00    -0.463 OA
BRANCH   5   6
ATOM      6  C   UNL A   1      33.780  24.616  24.789  1.00  0.00     0.312 C 
ATOM      7  O   UNL A   1      33.143  24.222  23.826  1.00  0.00    -0.252 OA
BRANCH   6   8
ATOM      8  C   UNL A   1      33.310  24.551  26.228  1.00  0.00     0.135 C 
ATOM      9  N   UNL A   1      31.487  23.066  26.149  1.00  0.00    -0.335 N 
ATOM     10  C   UNL A   1      32.629  22.294  26.419  1.00  0.00     0.224 C 
ATOM     11  C   UNL A   1      31.776  24.476  26.396  1.00  0.00     0.130 C 
ATOM     12  O   UNL A   1      32.700  21.075  26.450  1.00  0.00    -0.275 OA
ATOM     13  C   UNL A   1      33.759  23.220  26.810  1.00  0.00     0.118 C 
BRANCH   9  14
ATOM     14  C   UNL A   1      30.170  22.454  26.244  1.00  0.00     0.117 C 
ATOM     15  C   UNL A   1      29.363  22.806  27.477  1.00  0.00     0.027 C 
ENDBRANCH   9  14
BRANCH  11  16
ATOM     16  C   UNL A   1      31.021  25.582  25.666  1.00  0.00    -0.021 A 
ATOM     17  C   UNL A   1      30.176  25.221  24.591  1.00  0.00     0.006 A 
ATOM     18  C   UNL A   1      31.291  26.963  25.866  1.00  0.00    -0.040 A 
ATOM     19  C   UNL A   1      29.796  26.115  23.596  1.00  0.00     0.000 A 
ATOM     20  C   UNL A   1      30.905  27.840  24.815  1.00  0.00     0.004 A 
ATOM     21  C   UNL A   1      30.207  27.426  23.682  1.00  0.00     0.000 A 
BRANCH  18  22
ATOM     22  C   UNL A   1      31.880  27.657  27.094  1.00  0.00     0.019 C 
ATOM     23  C   UNL A   1      33.291  28.182  27.136  1.00  0.00     0.009 C 
ATOM     24  C   UNL A   1      32.122  29.128  27.241  1.00  0.00     0.009 C 
ENDBRANCH  18  22
ENDBRANCH  11  16
ENDBRANCH   6   8
ENDBRANCH   5   6
ENDBRANCH   4   5
ENDBRANCH   3   4
ENDBRANCH   2   3
ENDBRANCH   1   2
BRANCH   1  25
ATOM     25  C   UNL A   1      37.712  20.240  25.020  1.00  0.00     0.261 C 
BRANCH  25  26
ATOM     26  O   UNL A   1      38.742  21.232  25.164  1.00  0.00    -0.460 OA
BRANCH  26  27
ATOM     27  C   UNL A   1      39.642  20.963  26.139  1.00  0.00     0.338 C 
ATOM     28  O   UNL A   1      40.249  19.918  26.315  1.00  0.00    -0.246 OA
BRANCH  27  29
ATOM     29  C   UNL A   1      39.985  22.211  26.851  1.00  0.00     0.060 A 
ATOM     30  C   UNL A   1      39.253  23.356  26.505  1.00  0.00     0.016 A 
ATOM     31  C   UNL A   1      40.996  22.273  27.813  1.00  0.00     0.016 A 
ATOM     32  C   UNL A   1      39.586  24.587  27.056  1.00  0.00     0.010 A 
ATOM     33  C   UNL A   1      41.342  23.515  28.353  1.00  0.00     0.010 A 
ATOM     34  C   UNL A   1      40.674  24.679  27.931  1.00  0.00    -0.014 A 
BRANCH  34  35
ATOM     35  C   UNL A   1      41.251  26.015  28.198  1.00  0.00     0.031 A 
ATOM     36  C   UNL A   1      42.636  26.299  27.681  1.00  0.00     0.074 A 
ATOM     37  C   UNL A   1      40.548  26.964  28.838  1.00  0.00     0.049 A 
ATOM     38  N   UNL A   1      43.343  27.394  27.769  1.00  0.00    -0.248 NA
ATOM     39  C   UNL A   1      43.313  25.201  26.969  1.00  0.00     0.031 C 
ATOM     40  C   UNL A   1      39.194  26.801  29.363  1.00  0.00     0.029 A 
ATOM     41  N   UNL A   1      40.890  28.249  29.168  1.00  0.00    -0.354 N 
ATOM     42  C   UNL A   1      44.554  27.109  27.148  1.00  0.00     0.074 A 
ATOM     43  C   UNL A   1      44.493  25.737  26.699  1.00  0.00     0.031 C 
ATOM     44  C   UNL A   1      38.828  27.941  29.977  1.00  0.00     0.029 A 
ATOM     45  C   UNL A   1      39.928  28.902  29.901  1.00  0.00     0.049 A 
ATOM     46  H   UNL A   1      41.742  28.665  28.905  1.00  0.00     0.167 HD
ATOM     47  C   UNL A   1      45.615  27.925  26.950  1.00  0.00     0.034 A 
ATOM     48  C   UNL A   1      39.945  30.129  30.458  1.00  0.00     0.034 A 
ATOM     49  C   UNL A   1      45.662  29.295  27.380  1.00  0.00     0.049 A 
ATOM     50  C   UNL A   1      41.150  31.010  30.245  1.00  0.00     0.074 A 
ATOM     51  C   UNL A   1      46.673  30.219  27.196  1.00  0.00     0.029 A 
ATOM     52  N   UNL A   1      44.656  29.932  28.089  1.00  0.00    -0.354 N 
ATOM     53  N   UNL A   1      42.239  30.768  29.555  1.00  0.00    -0.248 NA
ATOM     54  C   UNL A   1      41.112  32.346  30.856  1.00  0.00     0.031 C 
ATOM     55  C   UNL A   1      46.287  31.413  27.816  1.00  0.00     0.029 A 
ATOM     56  C   UNL A   1      45.025  31.237  28.363  1.00  0.00     0.049 A 
ATOM     57  H   UNL A   1      43.804  29.517  28.357  1.00  0.00     0.167 HD
ATOM     58  C   UNL A   1      43.001  31.930  29.620  1.00  0.00     0.074 A 
ATOM     59  C   UNL A   1      42.237  32.883  30.400  1.00  0.00     0.031 C 
ATOM     60  C   UNL A   1      44.225  32.185  29.094  1.00  0.00     0.034 A 
BRANCH  47  61
ATOM     61  C   UNL A   1      46.802  27.358  26.219  1.00  0.00     0.023 A 
ATOM     62  C   UNL A   1      46.888  27.491  24.819  1.00  0.00     0.012 A 
ATOM     63  C   UNL A   1      47.848  26.729  26.921  1.00  0.00     0.148 A 
ATOM     64  C   UNL A   1      47.983  26.980  24.123  1.00  0.00     0.002 A 
ATOM     65  C   UNL A   1      48.957  26.260  26.226  1.00  0.00     0.091 A 
ATOM     66  F   UNL A   1      47.733  26.586  28.249  1.00  0.00    -0.205 F 
ATOM     67  C   UNL A   1      49.021  26.376  24.828  1.00  0.00     0.022 A 
BRANCH  65  68
ATOM     68  S   UNL A   1      50.376  25.532  27.051  1.00  0.00     0.127 S 
ATOM     69  O   UNL A   1      49.781  24.352  27.676  1.00  0.00    -0.237 OA
ATOM     70  O   UNL A   1      51.269  25.243  25.930  1.00  0.00    -0.237 OA
ATOM     71  O   UNL A   1      50.868  26.547  27.972  1.00  0.00    -0.744 OA
ENDBRANCH  65  68
ENDBRANCH  47  61
BRANCH  48  72
ATOM     72  C   UNL A   1      38.771  30.608  31.239  1.00  0.00     0.023 A 
ATOM     73  C   UNL A   1      38.759  30.465  32.639  1.00  0.00     0.012 A 
ATOM     74  C   UNL A   1      37.678  31.228  30.602  1.00  0.00     0.148 A 
ATOM     75  C   UNL A   1      37.667  30.905  33.390  1.00  0.00     0.002 A 
ATOM     76  C   UNL A   1      36.619  31.714  31.361  1.00  0.00     0.091 A 
ATOM     77  F   UNL A   1      37.698  31.337  29.266  1.00  0.00    -0.205 F 
ATOM     78  C   UNL A   1      36.604  31.539  32.753  1.00  0.00     0.022 A 
BRANCH  76  79
ATOM     79  S   UNL A   1      35.273  32.658  30.637  1.00  0.00     0.127 S 
ATOM     80  O   UNL A   1      34.934  31.850  29.470  1.00  0.00    -0.237 OA
ATOM     81  O   UNL A   1      34.278  32.640  31.710  1.00  0.00    -0.237 OA
ATOM     82  O   UNL A   1      35.824  33.976  30.358  1.00  0.00    -0.744 OA
ENDBRANCH  76  79
ENDBRANCH  48  72
BRANCH  60  83
ATOM     83  C   UNL A   1      44.809  33.556  29.314  1.00  0.00     0.023 A 
ATOM     84  C   UNL A   1      45.590  33.808  30.459  1.00  0.00     0.012 A 
ATOM     85  C   UNL A   1      44.656  34.566  28.345  1.00  0.00     0.148 A 
ATOM     86  C   UNL A   1      46.184  35.055  30.650  1.00  0.00     0.002 A 
ATOM     87  C   UNL A   1      45.290  35.790  28.518  1.00  0.00     0.091 A 
ATOM     88  F   UNL A   1      43.895  34.312  27.269  1.00  0.00    -0.205 F 
ATOM     89  C   UNL A   1      46.045  36.040  29.675  1.00  0.00     0.022 A 
BRANCH  87  90
ATOM     90  S   UNL A   1      45.245  37.081  27.269  1.00  0.00     0.127 S 
ATOM     91  O   UNL A   1      43.815  37.163  26.978  1.00  0.00    -0.237 OA
ATOM     92  O   UNL A   1      45.787  38.233  27.991  1.00  0.00    -0.237 OA
ATOM     93  O   UNL A   1      46.082  36.607  26.175  1.00  0.00    -0.744 OA
ENDBRANCH  87  90
ENDBRANCH  60  83
ENDBRANCH  34  35
ENDBRANCH  27  29
ENDBRANCH  26  27
ENDBRANCH  25  26
ENDBRANCH   1  25
TORSDOF 20
ENDMDL
MODEL 3
REMARK VINA RESULT:     -11.3      1.465      2.960
REMARK SMILES CCN1C(=O)C[C@@H](C(=O)OCCOCCOC(=O)c2ccc(-c3c4nc(c(-c5cccc(S(=O)(=O)[O-])c5F)c5ccc([nH]5)c(-c5cccc(S(=O)(=O)[O-])c5F)c5nc(c(-c6cccc(S(=O)(=O)[O-])c6F)c6ccc3[nH]6)C=C5)C=C4)cc2)[C@H]1c1ccccc1C1CC1
REMARK SMILES IDX 14 1 13 2 12 3 11 4 10 5 8 6 9 7 7 8 3 9 4 10 82 11 5 12
REMARK SMILES IDX 6 13 2 14 1 15 83 16 84 17 88 18 85 19 87 20 86 21 89 22
REMARK SMILES IDX 90 23 91 24 15 25 16 26 17 27 18 28 19 29 20 30 81 31 21 32
REMARK SMILES IDX 80 33 22 34 23 35 24 36 74 37 25 38 79 39 73 40 75 41 26 42
REMARK SMILES IDX 78 43 72 44 71 45 27 47 59 48 39 49 58 50 40 51 43 52 57 53
REMARK SMILES IDX 76 54 41 55 42 56 56 58 77 59 44 60 28 61 29 62 37 63 30 64
REMARK SMILES IDX 32 65 38 66 31 67 33 68 34 69 35 70 36 71 60 72 61 73 69 74
REMARK SMILES IDX 62 75 64 76 70 77 63 78 65 79 66 80 67 81 68 82 45 83 46 84
REMARK SMILES IDX 54 85 47 86 49 87 55 88 48 89 50 90 51 91 52 92 53 93
REMARK H PARENT 75 46 43 57
REMARK Flexibility Score: inf
ROOT
ATOM      1  C   UNL A   1      31.309  31.656  26.466  1.00  0.00     0.202 C 
ENDROOT
BRANCH   1   2
ATOM      2  O   UNL A   1      31.975  30.565  27.107  1.00  0.00    -0.374 OA
BRANCH   2   3
ATOM      3  C   UNL A   1      31.885  29.283  26.491  1.00  0.00     0.202 C 
BRANCH   3   4
ATOM      4  C   UNL A   1      31.993  27.997  27.329  1.00  0.00     0.261 C 
BRANCH   4   5
ATOM      5  O   UNL A   1      31.006  26.982  27.084  1.00  0.00    -0.463 OA
BRANCH   5   6
ATOM      6  C   UNL A   1      31.528  25.899  26.448  1.00  0.00     0.312 C 
ATOM      7  O   UNL A   1      32.711  25.605  26.510  1.00  0.00    -0.252 OA
BRANCH   6   8
ATOM      8  C   UNL A   1      30.458  25.060  25.780  1.00  0.00     0.135 C 
ATOM      9  N   UNL A   1      31.445  24.422  23.741  1.00  0.00    -0.335 N 
ATOM     10  C   UNL A   1      31.746  23.415  24.672  1.00  0.00     0.224 C 
ATOM     11  C   UNL A   1      30.357  25.253  24.250  1.00  0.00     0.130 C 
ATOM     12  O   UNL A   1      32.503  22.469  24.511  1.00  0.00    -0.275 OA
ATOM     13  C   UNL A   1      30.868  23.599  25.889  1.00  0.00     0.118 C 
BRANCH   9  14
ATOM     14  C   UNL A   1      31.746  24.211  22.333  1.00  0.00     0.117 C 
ATOM     15  C   UNL A   1      33.199  23.947  21.998  1.00  0.00     0.027 C 
ENDBRANCH   9  14
BRANCH  11  16
ATOM     16  C   UNL A   1      30.200  26.708  23.822  1.00  0.00    -0.021 A 
ATOM     17  C   UNL A   1      28.896  27.255  23.773  1.00  0.00     0.006 A 
ATOM     18  C   UNL A   1      31.262  27.469  23.264  1.00  0.00    -0.040 A 
ATOM     19  C   UNL A   1      28.573  28.371  23.008  1.00  0.00     0.000 A 
ATOM     20  C   UNL A   1      30.887  28.590  22.472  1.00  0.00     0.004 A 
ATOM     21  C   UNL A   1      29.570  29.014  22.310  1.00  0.00     0.000 A 
BRANCH  18  22
ATOM     22  C   UNL A   1      32.769  27.295  23.454  1.00  0.00     0.019 C 
ATOM     23  C   UNL A   1      33.761  27.516  22.342  1.00  0.00     0.009 C 
ATOM     24  C   UNL A   1      33.775  28.400  23.564  1.00  0.00     0.009 C 
ENDBRANCH  18  22
ENDBRANCH  11  16
ENDBRANCH   6   8
ENDBRANCH   5   6
ENDBRANCH   4   5
ENDBRANCH   3   4
ENDBRANCH   2   3
ENDBRANCH   1   2
BRANCH   1  25
ATOM     25  C   UNL A   1      31.682  33.066  26.925  1.00  0.00     0.261 C 
BRANCH  25  26
ATOM     26  O   UNL A   1      33.108  33.240  26.926  1.00  0.00    -0.460 OA
BRANCH  26  27
ATOM     27  C   UNL A   1      33.627  33.594  28.124  1.00  0.00     0.338 C 
ATOM     28  O   UNL A   1      33.079  34.244  29.002  1.00  0.00    -0.246 OA
BRANCH  27  29
ATOM     29  C   UNL A   1      34.900  32.877  28.343  1.00  0.00     0.060 A 
ATOM     30  C   UNL A   1      34.808  31.522  28.691  1.00  0.00     0.016 A 
ATOM     31  C   UNL A   1      36.143  33.503  28.230  1.00  0.00     0.016 A 
ATOM     32  C   UNL A   1      35.955  30.807  29.012  1.00  0.00     0.010 A 
ATOM     33  C   UNL A   1      37.295  32.788  28.571  1.00  0.00     0.010 A 
ATOM     34  C   UNL A   1      37.193  31.458  29.017  1.00  0.00    -0.014 A 
BRANCH  34  35
ATOM     35  C   UNL A   1      38.324  30.813  29.721  1.00  0.00     0.031 A 
ATOM     36  C   UNL A   1      38.567  31.191  31.157  1.00  0.00     0.074 A 
ATOM     37  C   UNL A   1      39.083  29.883  29.117  1.00  0.00     0.049 A 
ATOM     38  N   UNL A   1      39.475  30.751  31.987  1.00  0.00    -0.248 NA
ATOM     39  C   UNL A   1      37.663  32.201  31.735  1.00  0.00     0.031 C 
ATOM     40  C   UNL A   1      38.923  29.429  27.737  1.00  0.00     0.029 A 
ATOM     41  N   UNL A   1      40.152  29.168  29.590  1.00  0.00    -0.354 N 
ATOM     42  C   UNL A   1      39.268  31.446  33.173  1.00  0.00     0.074 A 
ATOM     43  C   UNL A   1      38.159  32.346  32.954  1.00  0.00     0.031 C 
ATOM     44  C   UNL A   1      39.883  28.527  27.464  1.00  0.00     0.029 A 
ATOM     45  C   UNL A   1      40.731  28.356  28.644  1.00  0.00     0.049 A 
ATOM     46  H   UNL A   1      40.474  29.230  30.518  1.00  0.00     0.167 HD
ATOM     47  C   UNL A   1      39.930  31.330  34.346  1.00  0.00     0.034 A 
ATOM     48  C   UNL A   1      41.828  27.579  28.723  1.00  0.00     0.034 A 
ATOM     49  C   UNL A   1      41.018  30.418  34.565  1.00  0.00     0.049 A 
ATOM     50  C   UNL A   1      42.564  27.485  30.036  1.00  0.00     0.074 A 
ATOM     51  C   UNL A   1      41.732  30.194  35.726  1.00  0.00     0.029 A 
ATOM     52  N   UNL A   1      41.555  29.588  33.594  1.00  0.00    -0.354 N 
ATOM     53  N   UNL A   1      42.286  28.059  31.182  1.00  0.00    -0.248 NA
ATOM     54  C   UNL A   1      43.743  26.609  30.076  1.00  0.00     0.031 C 
ATOM     55  C   UNL A   1      42.719  29.241  35.452  1.00  0.00     0.029 A 
ATOM     56  C   UNL A   1      42.601  28.855  34.126  1.00  0.00     0.049 A 
ATOM     57  H   UNL A   1      41.237  29.526  32.664  1.00  0.00     0.167 HD
ATOM     58  C   UNL A   1      43.232  27.590  32.087  1.00  0.00     0.074 A 
ATOM     59  C   UNL A   1      44.079  26.666  31.358  1.00  0.00     0.031 C 
ATOM     60  C   UNL A   1      43.396  27.901  33.397  1.00  0.00     0.034 A 
BRANCH  47  61
ATOM     61  C   UNL A   1      39.478  32.199  35.489  1.00  0.00     0.023 A 
ATOM     62  C   UNL A   1      38.610  31.672  36.466  1.00  0.00     0.012 A 
ATOM     63  C   UNL A   1      39.942  33.522  35.616  1.00  0.00     0.148 A 
ATOM     64  C   UNL A   1      38.186  32.457  37.538  1.00  0.00     0.002 A 
ATOM     65  C   UNL A   1      39.549  34.286  36.709  1.00  0.00     0.091 A 
ATOM     66  F   UNL A   1      40.742  34.015  34.660  1.00  0.00    -0.205 F 
ATOM     67  C   UNL A   1      38.663  33.759  37.664  1.00  0.00     0.022 A 
BRANCH  65  68
ATOM     68  S   UNL A   1      40.166  35.947  36.998  1.00  0.00     0.127 S 
ATOM     69  O   UNL A   1      39.469  36.312  38.231  1.00  0.00    -0.237 OA
ATOM     70  O   UNL A   1      41.602  35.719  37.156  1.00  0.00    -0.237 OA
ATOM     71  O   UNL A   1      39.801  36.721  35.820  1.00  0.00    -0.744 OA
ENDBRANCH  65  68
ENDBRANCH  47  61
BRANCH  48  72
ATOM     72  C   UNL A   1      42.275  26.800  27.534  1.00  0.00     0.023 A 
ATOM     73  C   UNL A   1      43.032  27.433  26.531  1.00  0.00     0.012 A 
ATOM     74  C   UNL A   1      41.976  25.430  27.407  1.00  0.00     0.148 A 
ATOM     75  C   UNL A   1      43.459  26.723  25.407  1.00  0.00     0.002 A 
ATOM     76  C   UNL A   1      42.451  24.715  26.313  1.00  0.00     0.091 A 
ATOM     77  F   UNL A   1      41.237  24.849  28.363  1.00  0.00    -0.205 F 
ATOM     78  C   UNL A   1      43.179  25.363  25.304  1.00  0.00     0.022 A 
BRANCH  76  79
ATOM     79  S   UNL A   1      42.249  22.936  26.168  1.00  0.00     0.127 S 
ATOM     80  O   UNL A   1      42.832  22.674  24.856  1.00  0.00    -0.237 OA
ATOM     81  O   UNL A   1      43.035  22.448  27.302  1.00  0.00    -0.237 OA
ATOM     82  O   UNL A   1      40.818  22.692  26.286  1.00  0.00    -0.744 OA
ENDBRANCH  76  79
ENDBRANCH  48  72
BRANCH  60  83
ATOM     83  C   UNL A   1      44.512  27.218  34.144  1.00  0.00     0.023 A 
ATOM     84  C   UNL A   1      45.813  27.755  34.100  1.00  0.00     0.012 A 
ATOM     85  C   UNL A   1      44.252  26.097  34.956  1.00  0.00     0.148 A 
ATOM     86  C   UNL A   1      46.846  27.168  34.830  1.00  0.00     0.002 A 
ATOM     87  C   UNL A   1      45.275  25.546  35.717  1.00  0.00     0.091 A 
ATOM     88  F   UNL A   1      43.009  25.591  34.971  1.00  0.00    -0.205 F 
ATOM     89  C   UNL A   1      46.575  26.073  35.647  1.00  0.00     0.022 A 
BRANCH  87  90
ATOM     90  S   UNL A   1      44.994  24.197  36.871  1.00  0.00     0.127 S 
ATOM     91  O   UNL A   1      43.950  24.752  37.729  1.00  0.00    -0.237 OA
ATOM     92  O   UNL A   1      44.548  23.119  35.986  1.00  0.00    -0.237 OA
ATOM     93  O   UNL A   1      46.276  23.952  37.518  1.00  0.00    -0.744 OA
ENDBRANCH  87  90
ENDBRANCH  60  83
ENDBRANCH  34  35
ENDBRANCH  27  29
ENDBRANCH  26  27
ENDBRANCH  25  26
ENDBRANCH   1  25
TORSDOF 20
ENDMDL
