MODEL 1
REMARK VINA RESULT:     -10.3      0.000      0.000
REMARK SMILES CC(C)[C@@H](C)NC(=O)N1CCO[C@H](CC(=O)OCCOCCOC(=O)c2ccc(-c3c4nc(c(-c5cccc(S(=O)(=O)[O-])c5F)c5ccc([nH]5)c(-c5cccc(S(=O)(=O)[O-])c5F)c5nc(c(-c6cccc(S(=O)(=O)[O-])c6F)c6ccc3[nH]6)C=C5)C=C4)cc2)C1
REMARK SMILES IDX 19 1 18 2 17 3 15 4 16 5 14 6 13 7 9 8 10 9 89 10 11 11
REMARK SMILES IDX 12 12 7 13 6 14 8 16 4 17 5 18 2 19 1 20 3 21 20 22 21 23
REMARK SMILES IDX 22 24 23 25 24 26 25 27 26 28 27 29 88 30 28 31 87 32 29 33
REMARK SMILES IDX 30 34 31 35 81 36 32 37 86 38 80 39 82 40 33 41 85 42 79 43
REMARK SMILES IDX 78 44 34 46 66 47 46 48 65 49 47 50 50 51 64 52 83 53 48 54
REMARK SMILES IDX 49 55 63 57 84 58 51 59 35 60 36 61 44 62 37 63 39 64 45 65
REMARK SMILES IDX 38 66 40 67 41 68 42 69 43 70 67 71 68 72 76 73 69 74 71 75
REMARK SMILES IDX 77 76 70 77 72 78 73 79 74 80 75 81 52 82 53 83 61 84 54 85
REMARK SMILES IDX 56 86 62 87 55 88 57 89 58 90 59 91 60 92
REMARK H PARENT 6 15 82 45 50 56
REMARK Flexibility Score: inf
ROOT
ATOM      1  C   UNL A   1      35.882  22.390  25.528  1.00  0.00     0.202 C 
ENDROOT
BRANCH   1   2
ATOM      2  C   UNL A   1      34.782  22.065  24.511  1.00  0.00     0.261 C 
BRANCH   2   3
ATOM      3  O   UNL A   1      34.700  22.978  23.393  1.00  0.00    -0.463 OA
BRANCH   3   4
ATOM      4  C   UNL A   1      33.507  22.963  22.748  1.00  0.00     0.308 C 
ATOM      5  O   UNL A   1      33.342  23.319  21.582  1.00  0.00    -0.252 OA
BRANCH   4   6
ATOM      6  C   UNL A   1      32.330  22.455  23.539  1.00  0.00     0.156 C 
BRANCH   6   7
ATOM      7  C   UNL A   1      31.107  23.328  23.823  1.00  0.00     0.149 C 
ATOM      8  N   UNL A   1      32.315  25.147  24.935  1.00  0.00    -0.320 N 
ATOM      9  C   UNL A   1      31.816  24.740  26.247  1.00  0.00     0.150 C 
ATOM     10  C   UNL A   1      31.373  24.840  23.860  1.00  0.00     0.154 C 
ATOM     11  C   UNL A   1      31.392  23.267  26.235  1.00  0.00     0.182 C 
ATOM     12  O   UNL A   1      30.543  22.942  25.114  1.00  0.00    -0.374 OA
BRANCH   8  13
ATOM     13  C   UNL A   1      33.273  26.094  24.740  1.00  0.00     0.317 C 
ATOM     14  N   UNL A   1      32.948  27.404  24.811  1.00  0.00    -0.335 N 
ATOM     15  H   UNL A   1      33.695  28.012  24.610  1.00  0.00     0.165 HD
ATOM     16  O   UNL A   1      34.462  25.816  24.602  1.00  0.00    -0.249 OA
BRANCH  14  17
ATOM     17  C   UNL A   1      31.698  28.085  25.130  1.00  0.00     0.083 C 
ATOM     18  C   UNL A   1      31.306  28.889  23.886  1.00  0.00     0.031 C 
BRANCH  17  19
ATOM     19  C   UNL A   1      31.817  29.001  26.380  1.00  0.00     0.005 C 
ATOM     20  C   UNL A   1      31.490  28.216  27.660  1.00  0.00     0.009 C 
ATOM     21  C   UNL A   1      33.209  29.619  26.544  1.00  0.00     0.009 C 
ENDBRANCH  17  19
ENDBRANCH  14  17
ENDBRANCH   8  13
ENDBRANCH   6   7
ENDBRANCH   4   6
ENDBRANCH   3   4
ENDBRANCH   2   3
ENDBRANCH   1   2
BRANCH   1  22
ATOM     22  O   UNL A   1      36.802  21.345  25.833  1.00  0.00    -0.374 OA
BRANCH  22  23
ATOM     23  C   UNL A   1      37.243  20.542  24.734  1.00  0.00     0.202 C 
BRANCH  23  24
ATOM     24  C   UNL A   1      38.492  19.689  24.997  1.00  0.00     0.261 C 
BRANCH  24  25
ATOM     25  O   UNL A   1      39.002  19.891  26.329  1.00  0.00    -0.460 OA
BRANCH  25  26
ATOM     26  C   UNL A   1      40.313  20.217  26.357  1.00  0.00     0.338 C 
ATOM     27  O   UNL A   1      41.238  19.612  25.827  1.00  0.00    -0.246 OA
BRANCH  26  28
ATOM     28  C   UNL A   1      40.493  21.552  26.943  1.00  0.00     0.060 A 
ATOM     29  C   UNL A   1      39.862  22.620  26.292  1.00  0.00     0.016 A 
ATOM     30  C   UNL A   1      41.366  21.777  28.009  1.00  0.00     0.016 A 
ATOM     31  C   UNL A   1      40.182  23.926  26.639  1.00  0.00     0.010 A 
ATOM     32  C   UNL A   1      41.685  23.095  28.357  1.00  0.00     0.010 A 
ATOM     33  C   UNL A   1      41.146  24.169  27.627  1.00  0.00    -0.014 A 
BRANCH  33  34
ATOM     34  C   UNL A   1      41.735  25.529  27.710  1.00  0.00     0.031 A 
ATOM     35  C   UNL A   1      40.954  26.609  28.413  1.00  0.00     0.074 A 
ATOM     36  C   UNL A   1      42.973  25.776  27.248  1.00  0.00     0.049 A 
ATOM     37  N   UNL A   1      41.305  27.838  28.691  1.00  0.00    -0.248 NA
ATOM     38  C   UNL A   1      39.597  26.258  28.868  1.00  0.00     0.031 C 
ATOM     39  C   UNL A   1      43.826  24.808  26.560  1.00  0.00     0.029 A 
ATOM     40  N   UNL A   1      43.728  26.920  27.293  1.00  0.00    -0.354 N 
ATOM     41  C   UNL A   1      40.213  28.408  29.336  1.00  0.00     0.074 A 
ATOM     42  C   UNL A   1      39.177  27.401  29.387  1.00  0.00     0.031 C 
ATOM     43  C   UNL A   1      44.988  25.403  26.238  1.00  0.00     0.029 A 
ATOM     44  C   UNL A   1      44.958  26.793  26.692  1.00  0.00     0.049 A 
ATOM     45  H   UNL A   1      43.418  27.753  27.715  1.00  0.00     0.167 HD
ATOM     46  C   UNL A   1      40.090  29.648  29.864  1.00  0.00     0.034 A 
ATOM     47  C   UNL A   1      45.946  27.695  26.533  1.00  0.00     0.034 A 
ATOM     48  C   UNL A   1      41.132  30.637  29.840  1.00  0.00     0.049 A 
ATOM     49  C   UNL A   1      45.786  29.068  27.134  1.00  0.00     0.074 A 
ATOM     50  C   UNL A   1      41.118  31.918  30.362  1.00  0.00     0.029 A 
ATOM     51  N   UNL A   1      42.378  30.454  29.261  1.00  0.00    -0.354 N 
ATOM     52  N   UNL A   1      44.789  29.553  27.834  1.00  0.00    -0.248 NA
ATOM     53  C   UNL A   1      46.908  30.003  26.964  1.00  0.00     0.031 C 
ATOM     54  C   UNL A   1      42.354  32.513  30.091  1.00  0.00     0.029 A 
ATOM     55  C   UNL A   1      43.144  31.595  29.416  1.00  0.00     0.049 A 
ATOM     56  H   UNL A   1      42.675  29.632  28.807  1.00  0.00     0.167 HD
ATOM     57  C   UNL A   1      45.179  30.830  28.223  1.00  0.00     0.074 A 
ATOM     58  C   UNL A   1      46.512  31.038  27.694  1.00  0.00     0.031 C 
ATOM     59  C   UNL A   1      44.494  31.755  28.940  1.00  0.00     0.034 A 
BRANCH  46  60
ATOM     60  C   UNL A   1      38.794  29.987  30.550  1.00  0.00     0.023 A 
ATOM     61  C   UNL A   1      38.554  29.513  31.856  1.00  0.00     0.012 A 
ATOM     62  C   UNL A   1      37.832  30.805  29.924  1.00  0.00     0.148 A 
ATOM     63  C   UNL A   1      37.367  29.823  32.519  1.00  0.00     0.002 A 
ATOM     64  C   UNL A   1      36.668  31.143  30.607  1.00  0.00     0.091 A 
ATOM     65  F   UNL A   1      38.065  31.224  28.673  1.00  0.00    -0.205 F 
ATOM     66  C   UNL A   1      36.430  30.644  31.899  1.00  0.00     0.022 A 
BRANCH  64  67
ATOM     67  S   UNL A   1      35.434  32.251  29.919  1.00  0.00     0.127 S 
ATOM     68  O   UNL A   1      34.947  31.481  28.776  1.00  0.00    -0.237 OA
ATOM     69  O   UNL A   1      34.479  32.374  31.022  1.00  0.00    -0.237 OA
ATOM     70  O   UNL A   1      36.140  33.483  29.592  1.00  0.00    -0.744 OA
ENDBRANCH  64  67
ENDBRANCH  46  60
BRANCH  47  71
ATOM     71  C   UNL A   1      47.202  27.307  25.831  1.00  0.00     0.023 A 
ATOM     72  C   UNL A   1      48.188  26.575  26.521  1.00  0.00     0.012 A 
ATOM     73  C   UNL A   1      47.416  27.641  24.480  1.00  0.00     0.148 A 
ATOM     74  C   UNL A   1      49.375  26.207  25.886  1.00  0.00     0.002 A 
ATOM     75  C   UNL A   1      48.577  27.226  23.839  1.00  0.00     0.091 A 
ATOM     76  F   UNL A   1      46.477  28.358  23.846  1.00  0.00    -0.205 F 
ATOM     77  C   UNL A   1      49.566  26.523  24.543  1.00  0.00     0.022 A 
BRANCH  75  78
ATOM     78  S   UNL A   1      48.838  27.479  22.079  1.00  0.00     0.127 S 
ATOM     79  O   UNL A   1      48.438  26.188  21.528  1.00  0.00    -0.237 OA
ATOM     80  O   UNL A   1      47.923  28.584  21.789  1.00  0.00    -0.237 OA
ATOM     81  O   UNL A   1      50.248  27.822  21.943  1.00  0.00    -0.744 OA
ENDBRANCH  75  78
ENDBRANCH  47  71
BRANCH  59  82
ATOM     82  C   UNL A   1      45.183  33.060  29.239  1.00  0.00     0.023 A 
ATOM     83  C   UNL A   1      45.957  33.191  30.409  1.00  0.00     0.012 A 
ATOM     84  C   UNL A   1      45.126  34.129  28.325  1.00  0.00     0.148 A 
ATOM     85  C   UNL A   1      46.635  34.378  30.680  1.00  0.00     0.002 A 
ATOM     86  C   UNL A   1      45.841  35.294  28.579  1.00  0.00     0.091 A 
ATOM     87  F   UNL A   1      44.368  33.995  27.226  1.00  0.00    -0.205 F 
ATOM     88  C   UNL A   1      46.587  35.425  29.761  1.00  0.00     0.022 A 
BRANCH  86  89
ATOM     89  S   UNL A   1      45.906  36.648  27.399  1.00  0.00     0.127 S 
ATOM     90  O   UNL A   1      44.503  37.052  27.332  1.00  0.00    -0.237 OA
ATOM     91  O   UNL A   1      46.786  37.607  28.067  1.00  0.00    -0.237 OA
ATOM     92  O   UNL A   1      46.459  36.078  26.178  1.00  0.00    -0.744 OA
ENDBRANCH  86  89
ENDBRANCH  59  82
ENDBRANCH  33  34
ENDBRANCH  26  28
ENDBRANCH  25  26
ENDBRANCH  24  25
ENDBRANCH  23  24
ENDBRANCH  22  23
ENDBRANCH   1  22
TORSDOF 21
ENDMDL
MODEL 2
REMARK VINA RESULT:     -10.3      5.154      8.323
REMARK SMILES CC(C)[C@@H](C)NC(=O)N1CCO[C@H](CC(=O)OCCOCCOC(=O)c2ccc(-c3c4nc(c(-c5cccc(S(=O)(=O)[O-])c5F)c5ccc([nH]5)c(-c5cccc(S(=O)(=O)[O-])c5F)c5nc(c(-c6cccc(S(=O)(=O)[O-])c6F)c6ccc3[nH]6)C=C5)C=C4)cc2)C1
REMARK SMILES IDX 19 1 18 2 17 3 15 4 16 5 14 6 13 7 9 8 10 9 89 10 11 11
REMARK SMILES IDX 12 12 7 13 6 14 8 16 4 17 5 18 2 19 1 20 3 21 20 22 21 23
REMARK SMILES IDX 22 24 23 25 24 26 25 27 26 28 27 29 88 30 28 31 87 32 29 33
REMARK SMILES IDX 30 34 31 35 81 36 32 37 86 38 80 39 82 40 33 41 85 42 79 43
REMARK SMILES IDX 78 44 34 46 66 47 46 48 65 49 47 50 50 51 64 52 83 53 48 54
REMARK SMILES IDX 49 55 63 57 84 58 51 59 35 60 36 61 44 62 37 63 39 64 45 65
REMARK SMILES IDX 38 66 40 67 41 68 42 69 43 70 67 71 68 72 76 73 69 74 71 75
REMARK SMILES IDX 77 76 70 77 72 78 73 79 74 80 75 81 52 82 53 83 61 84 54 85
REMARK SMILES IDX 56 86 62 87 55 88 57 89 58 90 59 91 60 92
REMARK H PARENT 6 15 82 45 50 56
REMARK Flexibility Score: inf
ROOT
ATOM      1  C   UNL A   1      31.467  28.081  26.605  1.00  0.00     0.202 C 
ENDROOT
BRANCH   1   2
ATOM      2  C   UNL A   1      31.436  26.556  26.448  1.00  0.00     0.261 C 
BRANCH   2   3
ATOM      3  O   UNL A   1      31.701  26.078  25.110  1.00  0.00    -0.463 OA
BRANCH   3   4
ATOM      4  C   UNL A   1      32.948  25.573  24.936  1.00  0.00     0.308 C 
ATOM      5  O   UNL A   1      33.893  26.202  24.463  1.00  0.00    -0.252 OA
BRANCH   4   6
ATOM      6  C   UNL A   1      33.156  24.149  25.381  1.00  0.00     0.156 C 
BRANCH   6   7
ATOM      7  C   UNL A   1      31.992  23.169  25.530  1.00  0.00     0.149 C 
ATOM      8  N   UNL A   1      33.148  21.219  24.600  1.00  0.00    -0.320 N 
ATOM      9  C   UNL A   1      32.383  21.299  23.358  1.00  0.00     0.150 C 
ATOM     10  C   UNL A   1      32.391  21.703  25.753  1.00  0.00     0.154 C 
ATOM     11  C   UNL A   1      31.828  22.713  23.150  1.00  0.00     0.182 C 
ATOM     12  O   UNL A   1      31.168  23.229  24.326  1.00  0.00    -0.374 OA
BRANCH   8  13
ATOM     13  C   UNL A   1      34.212  20.393  24.792  1.00  0.00     0.317 C 
ATOM     14  N   UNL A   1      34.026  19.055  24.840  1.00  0.00    -0.335 N 
ATOM     15  H   UNL A   1      34.846  18.544  25.029  1.00  0.00     0.165 HD
ATOM     16  O   UNL A   1      35.371  20.801  24.822  1.00  0.00    -0.249 OA
BRANCH  14  17
ATOM     17  C   UNL A   1      32.837  18.227  24.664  1.00  0.00     0.083 C 
ATOM     18  C   UNL A   1      32.682  17.402  25.946  1.00  0.00     0.031 C 
BRANCH  17  19
ATOM     19  C   UNL A   1      32.925  17.312  23.411  1.00  0.00     0.005 C 
ATOM     20  C   UNL A   1      32.407  18.047  22.165  1.00  0.00     0.009 C 
ATOM     21  C   UNL A   1      34.348  16.827  23.117  1.00  0.00     0.009 C 
ENDBRANCH  17  19
ENDBRANCH  14  17
ENDBRANCH   8  13
ENDBRANCH   6   7
ENDBRANCH   4   6
ENDBRANCH   3   4
ENDBRANCH   2   3
ENDBRANCH   1   2
BRANCH   1  22
ATOM     22  O   UNL A   1      31.216  28.851  25.432  1.00  0.00    -0.374 OA
BRANCH  22  23
ATOM     23  C   UNL A   1      31.757  30.176  25.410  1.00  0.00     0.202 C 
BRANCH  23  24
ATOM     24  C   UNL A   1      32.994  30.402  26.290  1.00  0.00     0.261 C 
BRANCH  24  25
ATOM     25  O   UNL A   1      32.663  31.115  27.498  1.00  0.00    -0.460 OA
BRANCH  25  26
ATOM     26  C   UNL A   1      33.457  32.185  27.723  1.00  0.00     0.338 C 
ATOM     27  O   UNL A   1      33.100  33.331  27.975  1.00  0.00    -0.246 OA
BRANCH  26  28
ATOM     28  C   UNL A   1      34.858  31.763  27.845  1.00  0.00     0.060 A 
ATOM     29  C   UNL A   1      35.096  30.390  27.987  1.00  0.00     0.016 A 
ATOM     30  C   UNL A   1      35.898  32.688  27.963  1.00  0.00     0.016 A 
ATOM     31  C   UNL A   1      36.360  29.942  28.350  1.00  0.00     0.010 A 
ATOM     32  C   UNL A   1      37.171  32.232  28.327  1.00  0.00     0.010 A 
ATOM     33  C   UNL A   1      37.386  30.867  28.588  1.00  0.00    -0.014 A 
BRANCH  33  34
ATOM     34  C   UNL A   1      38.588  30.405  29.326  1.00  0.00     0.031 A 
ATOM     35  C   UNL A   1      38.767  30.847  30.756  1.00  0.00     0.074 A 
ATOM     36  C   UNL A   1      39.453  29.541  28.768  1.00  0.00     0.049 A 
ATOM     37  N   UNL A   1      39.680  30.496  31.623  1.00  0.00    -0.248 NA
ATOM     38  C   UNL A   1      37.784  31.812  31.280  1.00  0.00     0.031 C 
ATOM     39  C   UNL A   1      39.376  29.035  27.398  1.00  0.00     0.029 A 
ATOM     40  N   UNL A   1      40.566  28.934  29.290  1.00  0.00    -0.354 N 
ATOM     41  C   UNL A   1      39.393  31.205  32.785  1.00  0.00     0.074 A 
ATOM     42  C   UNL A   1      38.236  32.026  32.506  1.00  0.00     0.031 C 
ATOM     43  C   UNL A   1      40.407  28.199  27.185  1.00  0.00     0.029 A 
ATOM     44  C   UNL A   1      41.217  28.115  28.399  1.00  0.00     0.049 A 
ATOM     45  H   UNL A   1      40.871  29.072  30.216  1.00  0.00     0.167 HD
ATOM     46  C   UNL A   1      40.017  31.158  33.985  1.00  0.00     0.034 A 
ATOM     47  C   UNL A   1      42.336  27.379  28.550  1.00  0.00     0.034 A 
ATOM     48  C   UNL A   1      41.147  30.318  34.270  1.00  0.00     0.049 A 
ATOM     49  C   UNL A   1      43.009  27.340  29.898  1.00  0.00     0.074 A 
ATOM     50  C   UNL A   1      41.843  30.181  35.457  1.00  0.00     0.029 A 
ATOM     51  N   UNL A   1      41.749  29.470  33.353  1.00  0.00    -0.354 N 
ATOM     52  N   UNL A   1      42.659  27.933  31.014  1.00  0.00    -0.248 NA
ATOM     53  C   UNL A   1      44.205  26.493  30.020  1.00  0.00     0.031 C 
ATOM     54  C   UNL A   1      42.871  29.255  35.256  1.00  0.00     0.029 A 
ATOM     55  C   UNL A   1      42.804  28.803  33.947  1.00  0.00     0.049 A 
ATOM     56  H   UNL A   1      41.466  29.359  32.416  1.00  0.00     0.167 HD
ATOM     57  C   UNL A   1      43.563  27.500  31.978  1.00  0.00     0.074 A 
ATOM     58  C   UNL A   1      44.468  26.580  31.317  1.00  0.00     0.031 C 
ATOM     59  C   UNL A   1      43.649  27.840  33.288  1.00  0.00     0.034 A 
BRANCH  46  60
ATOM     60  C   UNL A   1      39.459  32.011  35.093  1.00  0.00     0.023 A 
ATOM     61  C   UNL A   1      38.473  31.481  35.949  1.00  0.00     0.012 A 
ATOM     62  C   UNL A   1      39.937  33.318  35.314  1.00  0.00     0.148 A 
ATOM     63  C   UNL A   1      37.949  32.246  36.991  1.00  0.00     0.002 A 
ATOM     64  C   UNL A   1      39.438  34.061  36.379  1.00  0.00     0.091 A 
ATOM     65  F   UNL A   1      40.854  33.815  34.474  1.00  0.00    -0.205 F 
ATOM     66  C   UNL A   1      38.438  33.531  37.211  1.00  0.00     0.022 A 
BRANCH  64  67
ATOM     67  S   UNL A   1      40.055  35.698  36.785  1.00  0.00     0.127 S 
ATOM     68  O   UNL A   1      39.644  36.470  35.614  1.00  0.00    -0.237 OA
ATOM     69  O   UNL A   1      39.317  36.011  38.011  1.00  0.00    -0.237 OA
ATOM     70  O   UNL A   1      41.492  35.550  36.968  1.00  0.00    -0.744 OA
ENDBRANCH  64  67
ENDBRANCH  46  60
BRANCH  47  71
ATOM     71  C   UNL A   1      42.850  26.565  27.413  1.00  0.00     0.023 A 
ATOM     72  C   UNL A   1      43.772  27.131  26.510  1.00  0.00     0.012 A 
ATOM     73  C   UNL A   1      42.449  25.227  27.234  1.00  0.00     0.148 A 
ATOM     74  C   UNL A   1      44.261  26.389  25.434  1.00  0.00     0.002 A 
ATOM     75  C   UNL A   1      42.981  24.477  26.191  1.00  0.00     0.091 A 
ATOM     76  F   UNL A   1      41.554  24.712  28.089  1.00  0.00    -0.205 F 
ATOM     77  C   UNL A   1      43.875  25.060  25.281  1.00  0.00     0.022 A 
BRANCH  75  78
ATOM     78  S   UNL A   1      42.635  22.724  26.003  1.00  0.00     0.127 S 
ATOM     79  O   UNL A   1      41.176  22.704  26.009  1.00  0.00    -0.237 OA
ATOM     80  O   UNL A   1      43.250  22.429  24.708  1.00  0.00    -0.237 OA
ATOM     81  O   UNL A   1      43.288  22.077  27.133  1.00  0.00    -0.744 OA
ENDBRANCH  75  78
ENDBRANCH  47  71
BRANCH  59  82
ATOM     82  C   UNL A   1      44.725  27.185  34.112  1.00  0.00     0.023 A 
ATOM     83  C   UNL A   1      46.005  27.771  34.186  1.00  0.00     0.012 A 
ATOM     84  C   UNL A   1      44.448  26.033  34.872  1.00  0.00     0.148 A 
ATOM     85  C   UNL A   1      47.000  27.200  34.977  1.00  0.00     0.002 A 
ATOM     86  C   UNL A   1      45.431  25.495  35.694  1.00  0.00     0.091 A 
ATOM     87  F   UNL A   1      43.231  25.476  34.774  1.00  0.00    -0.205 F 
ATOM     88  C   UNL A   1      46.711  26.070  35.740  1.00  0.00     0.022 A 
BRANCH  86  89
ATOM     89  S   UNL A   1      45.107  24.098  36.777  1.00  0.00     0.127 S 
ATOM     90  O   UNL A   1      44.637  23.088  35.831  1.00  0.00    -0.237 OA
ATOM     91  O   UNL A   1      46.425  23.830  37.351  1.00  0.00    -0.237 OA
ATOM     92  O   UNL A   1      44.120  24.569  37.741  1.00  0.00    -0.744 OA
ENDBRANCH  86  89
ENDBRANCH  59  82
ENDBRANCH  33  34
ENDBRANCH  26  28
ENDBRANCH  25  26
ENDBRANCH  24  25
ENDBRANCH  23  24
ENDBRANCH  22  23
ENDBRANCH   1  22
TORSDOF 21
ENDMDL
MODEL 3
REMARK VINA RESULT:     -10.1      5.285     10.893
REMARK SMILES CC(C)[C@@H](C)NC(=O)N1CCO[C@H](CC(=O)OCCOCCOC(=O)c2ccc(-c3c4nc(c(-c5cccc(S(=O)(=O)[O-])c5F)c5ccc([nH]5)c(-c5cccc(S(=O)(=O)[O-])c5F)c5nc(c(-c6cccc(S(=O)(=O)[O-])c6F)c6ccc3[nH]6)C=C5)C=C4)cc2)C1
REMARK SMILES IDX 19 1 18 2 17 3 15 4 16 5 14 6 13 7 9 8 10 9 89 10 11 11
REMARK SMILES IDX 12 12 7 13 6 14 8 16 4 17 5 18 2 19 1 20 3 21 20 22 21 23
REMARK SMILES IDX 22 24 23 25 24 26 25 27 26 28 27 29 88 30 28 31 87 32 29 33
REMARK SMILES IDX 30 34 31 35 81 36 32 37 86 38 80 39 82 40 33 41 85 42 79 43
REMARK SMILES IDX 78 44 34 46 66 47 46 48 65 49 47 50 50 51 64 52 83 53 48 54
REMARK SMILES IDX 49 55 63 57 84 58 51 59 35 60 36 61 44 62 37 63 39 64 45 65
REMARK SMILES IDX 38 66 40 67 41 68 42 69 43 70 67 71 68 72 76 73 69 74 71 75
REMARK SMILES IDX 77 76 70 77 72 78 73 79 74 80 75 81 52 82 53 83 61 84 54 85
REMARK SMILES IDX 56 86 62 87 55 88 57 89 58 90 59 91 60 92
REMARK H PARENT 6 15 82 45 50 56
REMARK Flexibility Score: inf
ROOT
ATOM      1  C   UNL A   1      31.046  30.371  24.998  1.00  0.00     0.202 C 
ENDROOT
BRANCH   1   2
ATOM      2  C   UNL A   1      32.304  29.655  25.504  1.00  0.00     0.261 C 
BRANCH   2   3
ATOM      3  O   UNL A   1      32.053  28.472  26.296  1.00  0.00    -0.463 OA
BRANCH   3   4
ATOM      4  C   UNL A   1      33.009  27.516  26.189  1.00  0.00     0.308 C 
ATOM      5  O   UNL A   1      34.218  27.731  26.259  1.00  0.00    -0.252 OA
BRANCH   4   6
ATOM      6  C   UNL A   1      32.519  26.107  25.988  1.00  0.00     0.156 C 
BRANCH   6   7
ATOM      7  C   UNL A   1      31.030  25.757  25.997  1.00  0.00     0.149 C 
ATOM      8  N   UNL A   1      31.249  23.573  24.910  1.00  0.00    -0.320 N 
ATOM      9  C   UNL A   1      30.698  24.088  23.658  1.00  0.00     0.150 C 
ATOM     10  C   UNL A   1      30.707  24.258  26.081  1.00  0.00     0.154 C 
ATOM     11  C   UNL A   1      30.859  25.610  23.579  1.00  0.00     0.182 C 
ATOM     12  O   UNL A   1      30.416  26.278  24.779  1.00  0.00    -0.374 OA
BRANCH   8  13
ATOM     13  C   UNL A   1      31.808  22.339  25.050  1.00  0.00     0.317 C 
ATOM     14  N   UNL A   1      33.108  22.150  24.735  1.00  0.00    -0.335 N 
ATOM     15  H   UNL A   1      33.409  21.217  24.825  1.00  0.00     0.165 HD
ATOM     16  O   UNL A   1      31.208  21.394  25.557  1.00  0.00    -0.249 OA
BRANCH  14  17
ATOM     17  C   UNL A   1      34.149  23.068  24.286  1.00  0.00     0.083 C 
ATOM     18  C   UNL A   1      34.072  23.106  22.756  1.00  0.00     0.031 C 
BRANCH  17  19
ATOM     19  C   UNL A   1      35.566  22.651  24.769  1.00  0.00     0.005 C 
ATOM     20  C   UNL A   1      35.655  21.125  24.933  1.00  0.00     0.009 C 
ATOM     21  C   UNL A   1      36.682  23.091  23.817  1.00  0.00     0.009 C 
ENDBRANCH  17  19
ENDBRANCH  14  17
ENDBRANCH   8  13
ENDBRANCH   6   7
ENDBRANCH   4   6
ENDBRANCH   3   4
ENDBRANCH   2   3
ENDBRANCH   1   2
BRANCH   1  22
ATOM     22  O   UNL A   1      30.718  31.609  25.623  1.00  0.00    -0.374 OA
BRANCH  22  23
ATOM     23  C   UNL A   1      31.439  31.933  26.817  1.00  0.00     0.202 C 
BRANCH  23  24
ATOM     24  C   UNL A   1      32.125  33.306  26.824  1.00  0.00     0.261 C 
BRANCH  24  25
ATOM     25  O   UNL A   1      32.422  33.744  28.165  1.00  0.00    -0.460 OA
BRANCH  25  26
ATOM     26  C   UNL A   1      33.571  34.449  28.256  1.00  0.00     0.338 C 
ATOM     27  O   UNL A   1      33.689  35.669  28.310  1.00  0.00    -0.246 OA
BRANCH  26  28
ATOM     28  C   UNL A   1      34.703  33.547  28.504  1.00  0.00     0.060 A 
ATOM     29  C   UNL A   1      34.417  32.328  29.130  1.00  0.00     0.016 A 
ATOM     30  C   UNL A   1      36.022  33.939  28.265  1.00  0.00     0.016 A 
ATOM     31  C   UNL A   1      35.453  31.539  29.614  1.00  0.00     0.010 A 
ATOM     32  C   UNL A   1      37.065  33.141  28.752  1.00  0.00     0.010 A 
ATOM     33  C   UNL A   1      36.779  31.976  29.487  1.00  0.00    -0.014 A 
BRANCH  33  34
ATOM     34  C   UNL A   1      37.813  31.323  30.327  1.00  0.00     0.031 A 
ATOM     35  C   UNL A   1      38.700  30.281  29.694  1.00  0.00     0.074 A 
ATOM     36  C   UNL A   1      38.018  31.709  31.598  1.00  0.00     0.049 A 
ATOM     37  N   UNL A   1      39.728  29.650  30.200  1.00  0.00    -0.248 NA
ATOM     38  C   UNL A   1      38.392  29.902  28.304  1.00  0.00     0.031 C 
ATOM     39  C   UNL A   1      37.231  32.713  32.312  1.00  0.00     0.029 A 
ATOM     40  N   UNL A   1      38.956  31.302  32.512  1.00  0.00    -0.354 N 
ATOM     41  C   UNL A   1      40.176  28.792  29.201  1.00  0.00     0.074 A 
ATOM     42  C   UNL A   1      39.295  28.964  28.068  1.00  0.00     0.031 C 
ATOM     43  C   UNL A   1      37.715  32.838  33.561  1.00  0.00     0.029 A 
ATOM     44  C   UNL A   1      38.840  31.920  33.734  1.00  0.00     0.049 A 
ATOM     45  H   UNL A   1      39.647  30.630  32.312  1.00  0.00     0.167 HD
ATOM     46  C   UNL A   1      41.241  27.957  29.213  1.00  0.00     0.034 A 
ATOM     47  C   UNL A   1      39.564  31.765  34.860  1.00  0.00     0.034 A 
ATOM     48  C   UNL A   1      42.133  27.810  30.330  1.00  0.00     0.049 A 
ATOM     49  C   UNL A   1      40.747  30.831  34.846  1.00  0.00     0.074 A 
ATOM     50  C   UNL A   1      43.253  27.005  30.439  1.00  0.00     0.029 A 
ATOM     51  N   UNL A   1      42.007  28.487  31.533  1.00  0.00    -0.354 N 
ATOM     52  N   UNL A   1      41.220  30.110  33.857  1.00  0.00    -0.248 NA
ATOM     53  C   UNL A   1      41.526  30.726  36.089  1.00  0.00     0.031 C 
ATOM     54  C   UNL A   1      43.799  27.190  31.713  1.00  0.00     0.029 A 
ATOM     55  C   UNL A   1      43.029  28.123  32.390  1.00  0.00     0.049 A 
ATOM     56  H   UNL A   1      41.294  29.133  31.746  1.00  0.00     0.167 HD
ATOM     57  C   UNL A   1      42.371  29.501  34.345  1.00  0.00     0.074 A 
ATOM     58  C   UNL A   1      42.534  29.951  35.712  1.00  0.00     0.031 C 
ATOM     59  C   UNL A   1      43.211  28.635  33.724  1.00  0.00     0.034 A 
BRANCH  46  60
ATOM     60  C   UNL A   1      41.520  27.167  27.962  1.00  0.00     0.023 A 
ATOM     61  C   UNL A   1      42.091  27.813  26.847  1.00  0.00     0.012 A 
ATOM     62  C   UNL A   1      41.258  25.785  27.901  1.00  0.00     0.148 A 
ATOM     63  C   UNL A   1      42.372  27.103  25.680  1.00  0.00     0.002 A 
ATOM     64  C   UNL A   1      41.577  25.075  26.748  1.00  0.00     0.091 A 
ATOM     65  F   UNL A   1      40.690  25.193  28.961  1.00  0.00    -0.205 F 
ATOM     66  C   UNL A   1      42.124  25.734  25.634  1.00  0.00     0.022 A 
BRANCH  64  67
ATOM     67  S   UNL A   1      41.359  23.297  26.620  1.00  0.00     0.127 S 
ATOM     68  O   UNL A   1      42.085  22.997  25.387  1.00  0.00    -0.237 OA
ATOM     69  O   UNL A   1      42.008  22.816  27.841  1.00  0.00    -0.237 OA
ATOM     70  O   UNL A   1      39.921  23.072  26.572  1.00  0.00    -0.744 OA
ENDBRANCH  64  67
ENDBRANCH  46  60
BRANCH  47  71
ATOM     71  C   UNL A   1      39.232  32.563  36.074  1.00  0.00     0.023 A 
ATOM     72  C   UNL A   1      39.748  33.866  36.215  1.00  0.00     0.012 A 
ATOM     73  C   UNL A   1      38.391  32.046  37.079  1.00  0.00     0.148 A 
ATOM     74  C   UNL A   1      39.456  34.628  37.346  1.00  0.00     0.002 A 
ATOM     75  C   UNL A   1      38.061  32.830  38.178  1.00  0.00     0.091 A 
ATOM     76  F   UNL A   1      37.927  30.796  36.939  1.00  0.00    -0.205 F 
ATOM     77  C   UNL A   1      38.605  34.116  38.323  1.00  0.00     0.022 A 
BRANCH  75  78
ATOM     78  S   UNL A   1      36.870  32.294  39.411  1.00  0.00     0.127 S 
ATOM     79  O   UNL A   1      37.308  30.928  39.677  1.00  0.00    -0.237 OA
ATOM     80  O   UNL A   1      37.109  33.242  40.501  1.00  0.00    -0.237 OA
ATOM     81  O   UNL A   1      35.566  32.434  38.776  1.00  0.00    -0.744 OA
ENDBRANCH  75  78
ENDBRANCH  47  71
BRANCH  59  82
ATOM     82  C   UNL A   1      44.410  28.150  34.494  1.00  0.00     0.023 A 
ATOM     83  C   UNL A   1      45.612  28.884  34.456  1.00  0.00     0.012 A 
ATOM     84  C   UNL A   1      44.322  27.009  35.316  1.00  0.00     0.148 A 
ATOM     85  C   UNL A   1      46.718  28.471  35.196  1.00  0.00     0.002 A 
ATOM     86  C   UNL A   1      45.415  26.629  36.086  1.00  0.00     0.091 A 
ATOM     87  F   UNL A   1      43.178  26.310  35.325  1.00  0.00    -0.205 F 
ATOM     88  C   UNL A   1      46.617  27.351  36.020  1.00  0.00     0.022 A 
BRANCH  86  89
ATOM     89  S   UNL A   1      45.332  25.255  37.242  1.00  0.00     0.127 S 
ATOM     90  O   UNL A   1      44.013  25.447  37.840  1.00  0.00    -0.237 OA
ATOM     91  O   UNL A   1      45.440  24.093  36.360  1.00  0.00    -0.237 OA
ATOM     92  O   UNL A   1      46.466  25.430  38.141  1.00  0.00    -0.744 OA
ENDBRANCH  86  89
ENDBRANCH  59  82
ENDBRANCH  33  34
ENDBRANCH  26  28
ENDBRANCH  25  26
ENDBRANCH  24  25
ENDBRANCH  23  24
ENDBRANCH  22  23
ENDBRANCH   1  22
TORSDOF 21
ENDMDL
