MODEL 1
REMARK VINA RESULT:     -11.5      0.000      0.000
REMARK SMILES COc1cccc([C@H]2CC(c3ccc(S(C)(=O)=O)cc3)=NN2c2ccc(C(=O)OCCOCCOC(=O)c3ccc(-c4c5nc(c(-c6cccc(S(=O)(=O)[O-])c6F)c6ccc([nH]6)c(-c6cccc(S(=O)(=O)[O-])c6F)c6nc(c(-c7cccc(S(=O)(=O)[O-])c7F)c7ccc4[nH]7)C=C6)C=C5)cc3)cc2)c1
REMARK SMILES IDX 32 1 31 2 30 3 29 4 27 5 28 6 26 7 23 8 24 9 102 10 25 11
REMARK SMILES IDX 101 12 22 13 8 14 9 15 10 16 21 17 7 18 3 19 4 20 103 21
REMARK SMILES IDX 5 22 6 23 2 24 1 25 11 26 12 27 20 28 13 29 19 30 14 31
REMARK SMILES IDX 15 32 16 33 17 34 18 35 33 36 34 37 35 38 36 39 37 40 38 41
REMARK SMILES IDX 39 42 100 43 40 44 99 45 41 46 42 47 43 48 93 49 44 50 98 51
REMARK SMILES IDX 92 52 94 53 45 54 97 55 91 56 90 57 46 59 78 60 58 61 77 62
REMARK SMILES IDX 59 63 62 64 76 65 95 66 60 67 61 68 75 70 96 71 63 72 47 73
REMARK SMILES IDX 48 74 56 75 49 76 51 77 57 78 50 79 52 80 53 81 54 82 55 83
REMARK SMILES IDX 79 84 80 85 88 86 81 87 83 88 89 89 82 90 84 91 85 92 86 93
REMARK SMILES IDX 87 94 64 95 65 96 73 97 66 98 68 99 74 100 67 101 69 102
REMARK SMILES IDX 70 103 71 104 72 105
REMARK H PARENT 94 58 62 69
REMARK Flexibility Score: inf
ROOT
ATOM      1  O   UNL A   1      34.665  34.704  28.529  1.00  0.00    -0.374 OA
ENDROOT
BRANCH   1   2
ATOM      2  C   UNL A   1      35.127  33.394  28.194  1.00  0.00     0.202 C 
BRANCH   2   3
ATOM      3  C   UNL A   1      34.444  32.228  28.914  1.00  0.00     0.261 C 
BRANCH   3   4
ATOM      4  O   UNL A   1      34.006  31.222  27.986  1.00  0.00    -0.460 OA
BRANCH   4   5
ATOM      5  C   UNL A   1      34.802  30.131  27.907  1.00  0.00     0.338 C 
ATOM      6  O   UNL A   1      35.913  29.997  28.406  1.00  0.00    -0.246 OA
BRANCH   5   7
ATOM      7  C   UNL A   1      34.086  29.021  27.243  1.00  0.00     0.060 A 
ATOM      8  C   UNL A   1      32.709  26.792  26.232  1.00  0.00     0.060 A 
ATOM      9  C   UNL A   1      32.096  27.639  27.162  1.00  0.00     0.029 A 
ATOM     10  C   UNL A   1      33.976  27.142  25.736  1.00  0.00     0.029 A 
ATOM     11  C   UNL A   1      32.790  28.729  27.688  1.00  0.00     0.018 A 
ATOM     12  C   UNL A   1      34.661  28.258  26.225  1.00  0.00     0.018 A 
BRANCH   8  13
ATOM     13  N   UNL A   1      32.145  25.555  25.918  1.00  0.00    -0.257 N 
ATOM     14  C   UNL A   1      30.762  25.482  25.425  1.00  0.00     0.144 C 
ATOM     15  C   UNL A   1      30.654  24.030  24.954  1.00  0.00     0.091 C 
ATOM     16  C   UNL A   1      32.084  23.591  25.118  1.00  0.00     0.071 C 
ATOM     17  N   UNL A   1      32.902  24.466  25.617  1.00  0.00    -0.176 NA
BRANCH  14  18
ATOM     18  C   UNL A   1      30.481  26.501  24.322  1.00  0.00    -0.019 A 
ATOM     19  C   UNL A   1      28.994  28.029  23.137  1.00  0.00     0.119 A 
ATOM     20  C   UNL A   1      29.965  28.216  22.156  1.00  0.00     0.046 A 
ATOM     21  C   UNL A   1      29.242  27.159  24.203  1.00  0.00     0.052 A 
ATOM     22  C   UNL A   1      31.195  27.570  22.254  1.00  0.00     0.004 A 
ATOM     23  C   UNL A   1      31.454  26.723  23.331  1.00  0.00     0.006 A 
BRANCH  19  24
ATOM     24  O   UNL A   1      27.809  28.684  22.931  1.00  0.00    -0.497 OA
ATOM     25  C   UNL A   1      27.897  30.101  23.011  1.00  0.00     0.278 C 
ENDBRANCH  19  24
ENDBRANCH  14  18
BRANCH  16  26
ATOM     26  C   UNL A   1      32.475  22.214  24.798  1.00  0.00    -0.002 A 
ATOM     27  C   UNL A   1      33.230  21.503  25.738  1.00  0.00     0.011 A 
ATOM     28  C   UNL A   1      32.054  21.606  23.612  1.00  0.00     0.011 A 
ATOM     29  C   UNL A   1      33.552  20.167  25.502  1.00  0.00     0.021 A 
ATOM     30  C   UNL A   1      32.399  20.275  23.361  1.00  0.00     0.021 A 
ATOM     31  C   UNL A   1      33.144  19.564  24.308  1.00  0.00     0.067 A 
BRANCH  31  32
ATOM     32  S   UNL A   1      33.557  17.860  24.014  1.00  0.00     0.175 S 
ATOM     33  C   UNL A   1      32.611  16.964  25.217  1.00  0.00     0.163 C 
ATOM     34  O   UNL A   1      33.058  17.524  22.696  1.00  0.00    -0.224 OA
ATOM     35  O   UNL A   1      34.959  17.684  24.347  1.00  0.00    -0.224 OA
ENDBRANCH  31  32
ENDBRANCH  16  26
ENDBRANCH   8  13
ENDBRANCH   5   7
ENDBRANCH   4   5
ENDBRANCH   3   4
ENDBRANCH   2   3
ENDBRANCH   1   2
BRANCH   1  36
ATOM     36  C   UNL A   1      33.259  34.860  28.733  1.00  0.00     0.202 C 
BRANCH  36  37
ATOM     37  C   UNL A   1      32.807  36.162  29.405  1.00  0.00     0.261 C 
BRANCH  37  38
ATOM     38  O   UNL A   1      33.462  36.372  30.668  1.00  0.00    -0.460 OA
BRANCH  38  39
ATOM     39  C   UNL A   1      32.988  35.627  31.693  1.00  0.00     0.338 C 
ATOM     40  O   UNL A   1      31.813  35.402  31.962  1.00  0.00    -0.246 OA
BRANCH  39  41
ATOM     41  C   UNL A   1      34.104  34.946  32.372  1.00  0.00     0.060 A 
ATOM     42  C   UNL A   1      35.405  35.390  32.100  1.00  0.00     0.016 A 
ATOM     43  C   UNL A   1      33.888  33.858  33.221  1.00  0.00     0.016 A 
ATOM     44  C   UNL A   1      36.501  34.720  32.640  1.00  0.00     0.010 A 
ATOM     45  C   UNL A   1      34.988  33.181  33.753  1.00  0.00     0.010 A 
ATOM     46  C   UNL A   1      36.298  33.588  33.440  1.00  0.00    -0.014 A 
BRANCH  46  47
ATOM     47  C   UNL A   1      37.445  32.741  33.845  1.00  0.00     0.031 A 
ATOM     48  C   UNL A   1      38.234  33.125  35.066  1.00  0.00     0.074 A 
ATOM     49  C   UNL A   1      37.802  31.671  33.113  1.00  0.00     0.049 A 
ATOM     50  N   UNL A   1      39.332  32.601  35.541  1.00  0.00    -0.248 NA
ATOM     51  C   UNL A   1      37.717  34.258  35.853  1.00  0.00     0.031 C 
ATOM     52  C   UNL A   1      37.107  31.196  31.919  1.00  0.00     0.029 A 
ATOM     53  N   UNL A   1      38.865  30.814  33.249  1.00  0.00    -0.354 N 
ATOM     54  C   UNL A   1      39.661  33.359  36.659  1.00  0.00     0.074 A 
ATOM     55  C   UNL A   1      38.647  34.383  36.790  1.00  0.00     0.031 C 
ATOM     56  C   UNL A   1      37.783  30.153  31.407  1.00  0.00     0.029 A 
ATOM     57  C   UNL A   1      38.975  29.911  32.218  1.00  0.00     0.049 A 
ATOM     58  H   UNL A   1      39.488  30.842  34.011  1.00  0.00     0.167 HD
ATOM     59  C   UNL A   1      40.706  33.208  37.505  1.00  0.00     0.034 A 
ATOM     60  C   UNL A   1      39.945  29.014  31.944  1.00  0.00     0.034 A 
ATOM     61  C   UNL A   1      41.697  32.175  37.382  1.00  0.00     0.049 A 
ATOM     62  C   UNL A   1      41.115  28.886  32.885  1.00  0.00     0.074 A 
ATOM     63  C   UNL A   1      42.770  31.910  38.214  1.00  0.00     0.029 A 
ATOM     64  N   UNL A   1      41.744  31.243  36.357  1.00  0.00    -0.354 N 
ATOM     65  N   UNL A   1      41.356  29.539  33.997  1.00  0.00    -0.248 NA
ATOM     66  C   UNL A   1      42.134  27.878  32.551  1.00  0.00     0.031 C 
ATOM     67  C   UNL A   1      43.482  30.834  37.676  1.00  0.00     0.029 A 
ATOM     68  C   UNL A   1      42.834  30.408  36.529  1.00  0.00     0.049 A 
ATOM     69  H   UNL A   1      41.099  31.185  35.616  1.00  0.00     0.167 HD
ATOM     70  C   UNL A   1      42.524  28.992  34.517  1.00  0.00     0.074 A 
ATOM     71  C   UNL A   1      42.940  27.949  33.603  1.00  0.00     0.031 C 
ATOM     72  C   UNL A   1      43.196  29.329  35.646  1.00  0.00     0.034 A 
BRANCH  59  73
ATOM     73  C   UNL A   1      40.819  34.170  38.659  1.00  0.00     0.023 A 
ATOM     74  C   UNL A   1      41.724  35.248  38.581  1.00  0.00     0.012 A 
ATOM     75  C   UNL A   1      39.989  34.042  39.789  1.00  0.00     0.148 A 
ATOM     76  C   UNL A   1      41.821  36.168  39.624  1.00  0.00     0.002 A 
ATOM     77  C   UNL A   1      40.062  34.987  40.806  1.00  0.00     0.091 A 
ATOM     78  F   UNL A   1      39.152  32.997  39.854  1.00  0.00    -0.205 F 
ATOM     79  C   UNL A   1      40.984  36.044  40.730  1.00  0.00     0.022 A 
BRANCH  77  80
ATOM     80  S   UNL A   1      38.972  34.957  42.233  1.00  0.00     0.127 S 
ATOM     81  O   UNL A   1      37.697  35.362  41.639  1.00  0.00    -0.237 OA
ATOM     82  O   UNL A   1      39.036  33.554  42.641  1.00  0.00    -0.237 OA
ATOM     83  O   UNL A   1      39.539  35.894  43.192  1.00  0.00    -0.744 OA
ENDBRANCH  77  80
ENDBRANCH  59  73
BRANCH  60  84
ATOM     84  C   UNL A   1      39.836  28.146  30.737  1.00  0.00     0.023 A 
ATOM     85  C   UNL A   1      38.969  27.037  30.757  1.00  0.00     0.012 A 
ATOM     86  C   UNL A   1      40.570  28.423  29.567  1.00  0.00     0.148 A 
ATOM     87  C   UNL A   1      38.856  26.203  29.644  1.00  0.00     0.002 A 
ATOM     88  C   UNL A   1      40.412  27.619  28.444  1.00  0.00     0.091 A 
ATOM     89  F   UNL A   1      41.404  29.472  29.573  1.00  0.00    -0.205 F 
ATOM     90  C   UNL A   1      39.569  26.499  28.486  1.00  0.00     0.022 A 
BRANCH  88  91
ATOM     91  S   UNL A   1      41.192  28.000  26.871  1.00  0.00     0.127 S 
ATOM     92  O   UNL A   1      40.860  26.819  26.077  1.00  0.00    -0.237 OA
ATOM     93  O   UNL A   1      40.495  29.225  26.476  1.00  0.00    -0.237 OA
ATOM     94  O   UNL A   1      42.606  28.187  27.167  1.00  0.00    -0.744 OA
ENDBRANCH  88  91
ENDBRANCH  60  84
BRANCH  72  95
ATOM     95  C   UNL A   1      44.424  28.534  36.005  1.00  0.00     0.023 A 
ATOM     96  C   UNL A   1      45.695  28.977  35.592  1.00  0.00     0.012 A 
ATOM     97  C   UNL A   1      44.321  27.411  36.851  1.00  0.00     0.148 A 
ATOM     98  C   UNL A   1      46.845  28.302  36.000  1.00  0.00     0.002 A 
ATOM     99  C   UNL A   1      45.473  26.774  37.293  1.00  0.00     0.091 A 
ATOM    100  F   UNL A   1      43.099  26.999  37.219  1.00  0.00    -0.205 F 
ATOM    101  C   UNL A   1      46.735  27.211  36.861  1.00  0.00     0.022 A 
BRANCH  99 102
ATOM    102  S   UNL A   1      45.437  25.425  38.480  1.00  0.00     0.127 S 
ATOM    103  O   UNL A   1      44.701  24.399  37.743  1.00  0.00    -0.237 OA
ATOM    104  O   UNL A   1      46.860  25.140  38.667  1.00  0.00    -0.237 OA
ATOM    105  O   UNL A   1      44.763  25.945  39.662  1.00  0.00    -0.744 OA
ENDBRANCH  99 102
ENDBRANCH  72  95
ENDBRANCH  46  47
ENDBRANCH  39  41
ENDBRANCH  38  39
ENDBRANCH  37  38
ENDBRANCH  36  37
ENDBRANCH   1  36
TORSDOF 22
ENDMDL
MODEL 2
REMARK VINA RESULT:     -10.6      3.752      5.876
REMARK SMILES COc1cccc([C@H]2CC(c3ccc(S(C)(=O)=O)cc3)=NN2c2ccc(C(=O)OCCOCCOC(=O)c3ccc(-c4c5nc(c(-c6cccc(S(=O)(=O)[O-])c6F)c6ccc([nH]6)c(-c6cccc(S(=O)(=O)[O-])c6F)c6nc(c(-c7cccc(S(=O)(=O)[O-])c7F)c7ccc4[nH]7)C=C6)C=C5)cc3)cc2)c1
REMARK SMILES IDX 32 1 31 2 30 3 29 4 27 5 28 6 26 7 23 8 24 9 102 10 25 11
REMARK SMILES IDX 101 12 22 13 8 14 9 15 10 16 21 17 7 18 3 19 4 20 103 21
REMARK SMILES IDX 5 22 6 23 2 24 1 25 11 26 12 27 20 28 13 29 19 30 14 31
REMARK SMILES IDX 15 32 16 33 17 34 18 35 33 36 34 37 35 38 36 39 37 40 38 41
REMARK SMILES IDX 39 42 100 43 40 44 99 45 41 46 42 47 43 48 93 49 44 50 98 51
REMARK SMILES IDX 92 52 94 53 45 54 97 55 91 56 90 57 46 59 78 60 58 61 77 62
REMARK SMILES IDX 59 63 62 64 76 65 95 66 60 67 61 68 75 70 96 71 63 72 47 73
REMARK SMILES IDX 48 74 56 75 49 76 51 77 57 78 50 79 52 80 53 81 54 82 55 83
REMARK SMILES IDX 79 84 80 85 88 86 81 87 83 88 89 89 82 90 84 91 85 92 86 93
REMARK SMILES IDX 87 94 64 95 65 96 73 97 66 98 68 99 74 100 67 101 69 102
REMARK SMILES IDX 70 103 71 104 72 105
REMARK H PARENT 94 58 62 69
REMARK Flexibility Score: inf
ROOT
ATOM      1  O   UNL A   1      35.537  32.902  30.123  1.00  0.00    -0.374 OA
ENDROOT
BRANCH   1   2
ATOM      2  C   UNL A   1      34.667  32.953  28.992  1.00  0.00     0.202 C 
BRANCH   2   3
ATOM      3  C   UNL A   1      34.983  31.986  27.847  1.00  0.00     0.261 C 
BRANCH   3   4
ATOM      4  O   UNL A   1      34.315  30.727  28.023  1.00  0.00    -0.460 OA
BRANCH   4   5
ATOM      5  C   UNL A   1      33.241  30.531  27.225  1.00  0.00     0.338 C 
ATOM      6  O   UNL A   1      32.643  31.383  26.579  1.00  0.00    -0.246 OA
BRANCH   5   7
ATOM      7  C   UNL A   1      32.950  29.086  27.102  1.00  0.00     0.060 A 
ATOM      8  C   UNL A   1      32.411  26.378  26.595  1.00  0.00     0.060 A 
ATOM      9  C   UNL A   1      33.637  26.937  26.218  1.00  0.00     0.029 A 
ATOM     10  C   UNL A   1      31.507  27.167  27.326  1.00  0.00     0.029 A 
ATOM     11  C   UNL A   1      33.894  28.289  26.443  1.00  0.00     0.018 A 
ATOM     12  C   UNL A   1      31.775  28.512  27.593  1.00  0.00     0.018 A 
BRANCH   8  13
ATOM     13  N   UNL A   1      32.030  25.119  26.127  1.00  0.00    -0.257 N 
ATOM     14  C   UNL A   1      30.860  24.986  25.246  1.00  0.00     0.144 C 
ATOM     15  C   UNL A   1      30.973  23.538  24.764  1.00  0.00     0.091 C 
ATOM     16  C   UNL A   1      32.311  23.168  25.343  1.00  0.00     0.071 C 
ATOM     17  N   UNL A   1      32.897  24.073  26.063  1.00  0.00    -0.176 NA
BRANCH  14  18
ATOM     18  C   UNL A   1      30.866  26.007  24.110  1.00  0.00    -0.019 A 
ATOM     19  C   UNL A   1      29.897  27.905  22.922  1.00  0.00     0.119 A 
ATOM     20  C   UNL A   1      30.818  27.732  21.891  1.00  0.00     0.046 A 
ATOM     21  C   UNL A   1      29.907  27.033  24.016  1.00  0.00     0.052 A 
ATOM     22  C   UNL A   1      31.771  26.719  21.964  1.00  0.00     0.004 A 
ATOM     23  C   UNL A   1      31.800  25.866  23.068  1.00  0.00     0.006 A 
BRANCH  19  24
ATOM     24  O   UNL A   1      28.983  28.908  22.738  1.00  0.00    -0.497 OA
ATOM     25  C   UNL A   1      29.426  29.960  21.891  1.00  0.00     0.278 C 
ENDBRANCH  19  24
ENDBRANCH  14  18
BRANCH  16  26
ATOM     26  C   UNL A   1      32.849  21.816  25.153  1.00  0.00    -0.002 A 
ATOM     27  C   UNL A   1      31.946  20.754  25.031  1.00  0.00     0.011 A 
ATOM     28  C   UNL A   1      34.225  21.602  25.037  1.00  0.00     0.011 A 
ATOM     29  C   UNL A   1      32.419  19.468  24.772  1.00  0.00     0.021 A 
ATOM     30  C   UNL A   1      34.703  20.310  24.802  1.00  0.00     0.021 A 
ATOM     31  C   UNL A   1      33.797  19.251  24.670  1.00  0.00     0.067 A 
BRANCH  31  32
ATOM     32  S   UNL A   1      34.393  17.610  24.338  1.00  0.00     0.175 S 
ATOM     33  C   UNL A   1      33.457  16.573  25.430  1.00  0.00     0.163 C 
ATOM     34  O   UNL A   1      34.022  17.293  22.973  1.00  0.00    -0.224 OA
ATOM     35  O   UNL A   1      35.779  17.551  24.765  1.00  0.00    -0.224 OA
ENDBRANCH  31  32
ENDBRANCH  16  26
ENDBRANCH   8  13
ENDBRANCH   5   7
ENDBRANCH   4   5
ENDBRANCH   3   4
ENDBRANCH   2   3
ENDBRANCH   1   2
BRANCH   1  36
ATOM     36  C   UNL A   1      35.041  33.453  31.344  1.00  0.00     0.202 C 
BRANCH  36  37
ATOM     37  C   UNL A   1      35.297  32.634  32.616  1.00  0.00     0.261 C 
BRANCH  37  38
ATOM     38  O   UNL A   1      36.405  31.731  32.461  1.00  0.00    -0.460 OA
BRANCH  38  39
ATOM     39  C   UNL A   1      37.250  31.670  33.516  1.00  0.00     0.338 C 
ATOM     40  O   UNL A   1      37.017  32.012  34.670  1.00  0.00    -0.246 OA
BRANCH  39  41
ATOM     41  C   UNL A   1      38.476  30.949  33.132  1.00  0.00     0.060 A 
ATOM     42  C   UNL A   1      38.545  29.578  33.415  1.00  0.00     0.016 A 
ATOM     43  C   UNL A   1      39.560  31.610  32.553  1.00  0.00     0.016 A 
ATOM     44  C   UNL A   1      39.718  28.870  33.161  1.00  0.00     0.010 A 
ATOM     45  C   UNL A   1      40.739  30.901  32.309  1.00  0.00     0.010 A 
ATOM     46  C   UNL A   1      40.834  29.537  32.641  1.00  0.00    -0.014 A 
BRANCH  46  47
ATOM     47  C   UNL A   1      42.147  28.854  32.565  1.00  0.00     0.031 A 
ATOM     48  C   UNL A   1      43.089  28.963  33.733  1.00  0.00     0.074 A 
ATOM     49  C   UNL A   1      42.511  28.182  31.458  1.00  0.00     0.049 A 
ATOM     50  N   UNL A   1      44.321  28.544  33.844  1.00  0.00    -0.248 NA
ATOM     51  C   UNL A   1      42.572  29.642  34.933  1.00  0.00     0.031 C 
ATOM     52  C   UNL A   1      41.679  27.999  30.271  1.00  0.00     0.029 A 
ATOM     53  N   UNL A   1      43.693  27.561  31.141  1.00  0.00    -0.354 N 
ATOM     54  C   UNL A   1      44.742  28.939  35.109  1.00  0.00     0.074 A 
ATOM     55  C   UNL A   1      43.634  29.635  35.727  1.00  0.00     0.031 C 
ATOM     56  C   UNL A   1      42.390  27.344  29.338  1.00  0.00     0.029 A 
ATOM     57  C   UNL A   1      43.736  27.093  29.850  1.00  0.00     0.049 A 
ATOM     58  H   UNL A   1      44.438  27.461  31.778  1.00  0.00     0.167 HD
ATOM     59  C   UNL A   1      45.939  28.731  35.705  1.00  0.00     0.034 A 
ATOM     60  C   UNL A   1      44.756  26.553  29.151  1.00  0.00     0.034 A 
ATOM     61  C   UNL A   1      47.028  28.020  35.094  1.00  0.00     0.049 A 
ATOM     62  C   UNL A   1      46.089  26.360  29.827  1.00  0.00     0.074 A 
ATOM     63  C   UNL A   1      48.266  27.717  35.633  1.00  0.00     0.029 A 
ATOM     64  N   UNL A   1      47.015  27.510  33.806  1.00  0.00    -0.354 N 
ATOM     65  N   UNL A   1      46.438  26.643  31.060  1.00  0.00    -0.248 NA
ATOM     66  C   UNL A   1      47.161  25.747  29.028  1.00  0.00     0.031 C 
ATOM     67  C   UNL A   1      49.012  27.047  34.658  1.00  0.00     0.029 A 
ATOM     68  C   UNL A   1      48.227  26.904  33.526  1.00  0.00     0.049 A 
ATOM     69  H   UNL A   1      46.257  27.571  33.182  1.00  0.00     0.167 HD
ATOM     70  C   UNL A   1      47.751  26.202  31.196  1.00  0.00     0.074 A 
ATOM     71  C   UNL A   1      48.133  25.627  29.923  1.00  0.00     0.031 C 
ATOM     72  C   UNL A   1      48.568  26.275  32.276  1.00  0.00     0.034 A 
BRANCH  59  73
ATOM     73  C   UNL A   1      46.128  29.258  37.103  1.00  0.00     0.023 A 
ATOM     74  C   UNL A   1      46.473  30.611  37.297  1.00  0.00     0.012 A 
ATOM     75  C   UNL A   1      45.903  28.434  38.222  1.00  0.00     0.148 A 
ATOM     76  C   UNL A   1      46.622  31.127  38.584  1.00  0.00     0.002 A 
ATOM     77  C   UNL A   1      46.011  28.965  39.502  1.00  0.00     0.091 A 
ATOM     78  F   UNL A   1      45.598  27.144  38.016  1.00  0.00    -0.205 F 
ATOM     79  C   UNL A   1      46.380  30.309  39.684  1.00  0.00     0.022 A 
BRANCH  77  80
ATOM     80  S   UNL A   1      45.644  28.013  40.979  1.00  0.00     0.127 S 
ATOM     81  O   UNL A   1      46.759  27.066  41.004  1.00  0.00    -0.237 OA
ATOM     82  O   UNL A   1      45.690  29.036  42.025  1.00  0.00    -0.237 OA
ATOM     83  O   UNL A   1      44.330  27.425  40.762  1.00  0.00    -0.744 OA
ENDBRANCH  77  80
ENDBRANCH  59  73
BRANCH  60  84
ATOM     84  C   UNL A   1      44.548  26.130  27.737  1.00  0.00     0.023 A 
ATOM     85  C   UNL A   1      44.952  26.983  26.692  1.00  0.00     0.012 A 
ATOM     86  C   UNL A   1      43.972  24.884  27.422  1.00  0.00     0.148 A 
ATOM     87  C   UNL A   1      44.760  26.616  25.360  1.00  0.00     0.002 A 
ATOM     88  C   UNL A   1      43.834  24.501  26.093  1.00  0.00     0.091 A 
ATOM     89  F   UNL A   1      43.577  24.093  28.430  1.00  0.00    -0.205 F 
ATOM     90  C   UNL A   1      44.211  25.372  25.061  1.00  0.00     0.022 A 
BRANCH  88  91
ATOM     91  S   UNL A   1      43.255  22.867  25.617  1.00  0.00     0.127 S 
ATOM     92  O   UNL A   1      43.459  22.886  24.171  1.00  0.00    -0.237 OA
ATOM     93  O   UNL A   1      44.168  21.996  26.358  1.00  0.00    -0.237 OA
ATOM     94  O   UNL A   1      41.870  22.795  26.061  1.00  0.00    -0.744 OA
ENDBRANCH  88  91
ENDBRANCH  60  84
BRANCH  72  95
ATOM     95  C   UNL A   1      49.944  25.671  32.166  1.00  0.00     0.023 A 
ATOM     96  C   UNL A   1      51.003  26.427  31.630  1.00  0.00     0.012 A 
ATOM     97  C   UNL A   1      50.204  24.394  32.706  1.00  0.00     0.148 A 
ATOM     98  C   UNL A   1      52.300  25.913  31.613  1.00  0.00     0.002 A 
ATOM     99  C   UNL A   1      51.506  23.910  32.730  1.00  0.00     0.091 A 
ATOM    100  F   UNL A   1      49.177  23.688  33.197  1.00  0.00    -0.205 F 
ATOM    101  C   UNL A   1      52.553  24.662  32.175  1.00  0.00     0.022 A 
BRANCH  99 102
ATOM    102  S   UNL A   1      51.944  22.357  33.520  1.00  0.00     0.127 S 
ATOM    103  O   UNL A   1      51.424  22.553  34.872  1.00  0.00    -0.237 OA
ATOM    104  O   UNL A   1      51.205  21.382  32.718  1.00  0.00    -0.237 OA
ATOM    105  O   UNL A   1      53.393  22.249  33.422  1.00  0.00    -0.744 OA
ENDBRANCH  99 102
ENDBRANCH  72  95
ENDBRANCH  46  47
ENDBRANCH  39  41
ENDBRANCH  38  39
ENDBRANCH  37  38
ENDBRANCH  36  37
ENDBRANCH   1  36
TORSDOF 22
ENDMDL
MODEL 3
REMARK VINA RESULT:     -10.6      3.302      4.420
REMARK SMILES COc1cccc([C@H]2CC(c3ccc(S(C)(=O)=O)cc3)=NN2c2ccc(C(=O)OCCOCCOC(=O)c3ccc(-c4c5nc(c(-c6cccc(S(=O)(=O)[O-])c6F)c6ccc([nH]6)c(-c6cccc(S(=O)(=O)[O-])c6F)c6nc(c(-c7cccc(S(=O)(=O)[O-])c7F)c7ccc4[nH]7)C=C6)C=C5)cc3)cc2)c1
REMARK SMILES IDX 32 1 31 2 30 3 29 4 27 5 28 6 26 7 23 8 24 9 102 10 25 11
REMARK SMILES IDX 101 12 22 13 8 14 9 15 10 16 21 17 7 18 3 19 4 20 103 21
REMARK SMILES IDX 5 22 6 23 2 24 1 25 11 26 12 27 20 28 13 29 19 30 14 31
REMARK SMILES IDX 15 32 16 33 17 34 18 35 33 36 34 37 35 38 36 39 37 40 38 41
REMARK SMILES IDX 39 42 100 43 40 44 99 45 41 46 42 47 43 48 93 49 44 50 98 51
REMARK SMILES IDX 92 52 94 53 45 54 97 55 91 56 90 57 46 59 78 60 58 61 77 62
REMARK SMILES IDX 59 63 62 64 76 65 95 66 60 67 61 68 75 70 96 71 63 72 47 73
REMARK SMILES IDX 48 74 56 75 49 76 51 77 57 78 50 79 52 80 53 81 54 82 55 83
REMARK SMILES IDX 79 84 80 85 88 86 81 87 83 88 89 89 82 90 84 91 85 92 86 93
REMARK SMILES IDX 87 94 64 95 65 96 73 97 66 98 68 99 74 100 67 101 69 102
REMARK SMILES IDX 70 103 71 104 72 105
REMARK H PARENT 94 58 62 69
REMARK Flexibility Score: inf
ROOT
ATOM      1  O   UNL A   1      34.517  35.187  28.724  1.00  0.00    -0.374 OA
ENDROOT
BRANCH   1   2
ATOM      2  C   UNL A   1      34.856  34.004  27.999  1.00  0.00     0.202 C 
BRANCH   2   3
ATOM      3  C   UNL A   1      34.208  32.702  28.480  1.00  0.00     0.261 C 
BRANCH   3   4
ATOM      4  O   UNL A   1      34.249  31.688  27.464  1.00  0.00    -0.460 OA
BRANCH   4   5
ATOM      5  C   UNL A   1      34.835  30.527  27.837  1.00  0.00     0.338 C 
ATOM      6  O   UNL A   1      35.744  30.392  28.646  1.00  0.00    -0.246 OA
BRANCH   5   7
ATOM      7  C   UNL A   1      34.123  29.378  27.238  1.00  0.00     0.060 A 
ATOM      8  C   UNL A   1      32.736  27.101  26.357  1.00  0.00     0.060 A 
ATOM      9  C   UNL A   1      32.097  28.050  27.163  1.00  0.00     0.029 A 
ATOM     10  C   UNL A   1      34.041  27.366  25.910  1.00  0.00     0.029 A 
ATOM     11  C   UNL A   1      32.794  29.166  27.626  1.00  0.00     0.018 A 
ATOM     12  C   UNL A   1      34.732  28.505  26.334  1.00  0.00     0.018 A 
BRANCH   8  13
ATOM     13  N   UNL A   1      32.151  25.855  26.127  1.00  0.00    -0.257 N 
ATOM     14  C   UNL A   1      30.797  25.772  25.562  1.00  0.00     0.144 C 
ATOM     15  C   UNL A   1      30.669  24.285  25.223  1.00  0.00     0.091 C 
ATOM     16  C   UNL A   1      32.073  23.826  25.511  1.00  0.00     0.071 C 
ATOM     17  N   UNL A   1      32.888  24.722  25.975  1.00  0.00    -0.176 NA
BRANCH  14  18
ATOM     18  C   UNL A   1      30.612  26.689  24.353  1.00  0.00    -0.019 A 
ATOM     19  C   UNL A   1      29.477  28.508  23.191  1.00  0.00     0.119 A 
ATOM     20  C   UNL A   1      30.188  28.212  22.030  1.00  0.00     0.046 A 
ATOM     21  C   UNL A   1      29.671  27.736  24.341  1.00  0.00     0.052 A 
ATOM     22  C   UNL A   1      31.120  27.177  22.022  1.00  0.00     0.004 A 
ATOM     23  C   UNL A   1      31.334  26.424  23.176  1.00  0.00     0.006 A 
BRANCH  19  24
ATOM     24  O   UNL A   1      28.564  29.523  23.084  1.00  0.00    -0.497 OA
ATOM     25  C   UNL A   1      28.269  29.912  21.748  1.00  0.00     0.278 C 
ENDBRANCH  19  24
ENDBRANCH  14  18
BRANCH  16  26
ATOM     26  C   UNL A   1      32.436  22.414  25.345  1.00  0.00    -0.002 A 
ATOM     27  C   UNL A   1      32.007  21.751  24.189  1.00  0.00     0.011 A 
ATOM     28  C   UNL A   1      33.237  21.764  26.287  1.00  0.00     0.011 A 
ATOM     29  C   UNL A   1      32.399  20.432  23.961  1.00  0.00     0.021 A 
ATOM     30  C   UNL A   1      33.609  20.434  26.073  1.00  0.00     0.021 A 
ATOM     31  C   UNL A   1      33.189  19.777  24.911  1.00  0.00     0.067 A 
BRANCH  31  32
ATOM     32  S   UNL A   1      33.686  18.096  24.613  1.00  0.00     0.175 S 
ATOM     33  C   UNL A   1      32.929  17.682  23.064  1.00  0.00     0.163 C 
ATOM     34  O   UNL A   1      35.124  18.106  24.433  1.00  0.00    -0.224 OA
ATOM     35  O   UNL A   1      33.068  17.268  25.633  1.00  0.00    -0.224 OA
ENDBRANCH  31  32
ENDBRANCH  16  26
ENDBRANCH   8  13
ENDBRANCH   5   7
ENDBRANCH   4   5
ENDBRANCH   3   4
ENDBRANCH   2   3
ENDBRANCH   1   2
BRANCH   1  36
ATOM     36  C   UNL A   1      33.405  35.100  29.617  1.00  0.00     0.202 C 
BRANCH  36  37
ATOM     37  C   UNL A   1      33.727  35.155  31.116  1.00  0.00     0.261 C 
BRANCH  37  38
ATOM     38  O   UNL A   1      34.943  34.455  31.432  1.00  0.00    -0.460 OA
BRANCH  38  39
ATOM     39  C   UNL A   1      34.775  33.226  31.972  1.00  0.00     0.338 C 
ATOM     40  O   UNL A   1      33.739  32.753  32.426  1.00  0.00    -0.246 OA
BRANCH  39  41
ATOM     41  C   UNL A   1      35.998  32.426  31.783  1.00  0.00     0.060 A 
ATOM     42  C   UNL A   1      36.072  31.182  32.424  1.00  0.00     0.016 A 
ATOM     43  C   UNL A   1      37.075  32.905  31.036  1.00  0.00     0.016 A 
ATOM     44  C   UNL A   1      37.242  30.429  32.358  1.00  0.00     0.010 A 
ATOM     45  C   UNL A   1      38.251  32.154  30.978  1.00  0.00     0.010 A 
ATOM     46  C   UNL A   1      38.352  30.929  31.665  1.00  0.00    -0.014 A 
BRANCH  46  47
ATOM     47  C   UNL A   1      39.665  30.249  31.762  1.00  0.00     0.031 A 
ATOM     48  C   UNL A   1      40.648  30.715  32.801  1.00  0.00     0.074 A 
ATOM     49  C   UNL A   1      39.992  29.260  30.912  1.00  0.00     0.049 A 
ATOM     50  N   UNL A   1      41.885  30.345  32.995  1.00  0.00    -0.248 NA
ATOM     51  C   UNL A   1      40.170  31.742  33.744  1.00  0.00     0.031 C 
ATOM     52  C   UNL A   1      39.119  28.717  29.874  1.00  0.00     0.029 A 
ATOM     53  N   UNL A   1      41.166  28.564  30.765  1.00  0.00    -0.354 N 
ATOM     54  C   UNL A   1      42.349  31.116  34.054  1.00  0.00     0.074 A 
ATOM     55  C   UNL A   1      41.260  31.979  34.460  1.00  0.00     0.031 C 
ATOM     56  C   UNL A   1      39.800  27.796  29.170  1.00  0.00     0.029 A 
ATOM     57  C   UNL A   1      41.165  27.711  29.687  1.00  0.00     0.049 A 
ATOM     58  H   UNL A   1      41.933  28.664  31.373  1.00  0.00     0.167 HD
ATOM     59  C   UNL A   1      43.567  31.099  34.643  1.00  0.00     0.034 A 
ATOM     60  C   UNL A   1      42.161  26.972  29.158  1.00  0.00     0.034 A 
ATOM     61  C   UNL A   1      44.638  30.225  34.249  1.00  0.00     0.049 A 
ATOM     62  C   UNL A   1      43.519  26.994  29.813  1.00  0.00     0.074 A 
ATOM     63  C   UNL A   1      45.896  30.099  34.811  1.00  0.00     0.029 A 
ATOM     64  N   UNL A   1      44.581  29.335  33.189  1.00  0.00    -0.354 N 
ATOM     65  N   UNL A   1      43.911  27.648  30.879  1.00  0.00    -0.248 NA
ATOM     66  C   UNL A   1      44.565  26.153  29.209  1.00  0.00     0.031 C 
ATOM     67  C   UNL A   1      46.610  29.151  34.072  1.00  0.00     0.029 A 
ATOM     68  C   UNL A   1      45.785  28.663  33.072  1.00  0.00     0.049 A 
ATOM     69  H   UNL A   1      43.801  29.201  32.605  1.00  0.00     0.167 HD
ATOM     70  C   UNL A   1      45.230  27.265  31.101  1.00  0.00     0.074 A 
ATOM     71  C   UNL A   1      45.569  26.315  30.062  1.00  0.00     0.031 C 
ATOM     72  C   UNL A   1      46.085  27.670  32.073  1.00  0.00     0.034 A 
BRANCH  59  73
ATOM     73  C   UNL A   1      43.804  32.040  35.795  1.00  0.00     0.023 A 
ATOM     74  C   UNL A   1      44.333  33.323  35.550  1.00  0.00     0.012 A 
ATOM     75  C   UNL A   1      43.445  31.678  37.108  1.00  0.00     0.148 A 
ATOM     76  C   UNL A   1      44.530  34.221  36.599  1.00  0.00     0.002 A 
ATOM     77  C   UNL A   1      43.604  32.592  38.142  1.00  0.00     0.091 A 
ATOM     78  F   UNL A   1      42.964  30.444  37.323  1.00  0.00    -0.205 F 
ATOM     79  C   UNL A   1      44.155  33.860  37.891  1.00  0.00     0.022 A 
BRANCH  77  80
ATOM     80  S   UNL A   1      43.079  32.250  39.825  1.00  0.00     0.127 S 
ATOM     81  O   UNL A   1      43.978  31.158  40.198  1.00  0.00    -0.237 OA
ATOM     82  O   UNL A   1      43.353  33.521  40.498  1.00  0.00    -0.237 OA
ATOM     83  O   UNL A   1      41.669  31.899  39.743  1.00  0.00    -0.744 OA
ENDBRANCH  77  80
ENDBRANCH  59  73
BRANCH  60  84
ATOM     84  C   UNL A   1      41.905  26.126  27.958  1.00  0.00     0.023 A 
ATOM     85  C   UNL A   1      41.783  26.734  26.695  1.00  0.00     0.012 A 
ATOM     86  C   UNL A   1      41.802  24.724  28.059  1.00  0.00     0.148 A 
ATOM     87  C   UNL A   1      41.533  25.966  25.557  1.00  0.00     0.002 A 
ATOM     88  C   UNL A   1      41.608  23.960  26.913  1.00  0.00     0.091 A 
ATOM     89  F   UNL A   1      41.903  24.164  29.272  1.00  0.00    -0.205 F 
ATOM     90  C   UNL A   1      41.456  24.580  25.664  1.00  0.00     0.022 A 
BRANCH  88  91
ATOM     91  S   UNL A   1      41.623  22.164  26.940  1.00  0.00     0.127 S 
ATOM     92  O   UNL A   1      40.776  21.839  25.796  1.00  0.00    -0.237 OA
ATOM     93  O   UNL A   1      43.045  21.871  26.758  1.00  0.00    -0.237 OA
ATOM     94  O   UNL A   1      41.098  21.785  28.245  1.00  0.00    -0.744 OA
ENDBRANCH  88  91
ENDBRANCH  60  84
BRANCH  72  95
ATOM     95  C   UNL A   1      47.459  27.053  32.111  1.00  0.00     0.023 A 
ATOM     96  C   UNL A   1      47.694  25.907  32.892  1.00  0.00     0.012 A 
ATOM     97  C   UNL A   1      48.483  27.549  31.277  1.00  0.00     0.148 A 
ATOM     98  C   UNL A   1      48.935  25.272  32.859  1.00  0.00     0.002 A 
ATOM     99  C   UNL A   1      49.700  26.882  31.213  1.00  0.00     0.091 A 
ATOM    100  F   UNL A   1      48.240  28.651  30.554  1.00  0.00    -0.205 F 
ATOM    101  C   UNL A   1      49.932  25.750  32.010  1.00  0.00     0.022 A 
BRANCH  99 102
ATOM    102  S   UNL A   1      51.006  27.365  30.077  1.00  0.00     0.127 S 
ATOM    103  O   UNL A   1      52.205  26.989  30.824  1.00  0.00    -0.237 OA
ATOM    104  O   UNL A   1      50.726  26.527  28.911  1.00  0.00    -0.237 OA
ATOM    105  O   UNL A   1      50.838  28.794  29.851  1.00  0.00    -0.744 OA
ENDBRANCH  99 102
ENDBRANCH  72  95
ENDBRANCH  46  47
ENDBRANCH  39  41
ENDBRANCH  38  39
ENDBRANCH  37  38
ENDBRANCH  36  37
ENDBRANCH   1  36
TORSDOF 22
ENDMDL
