MODEL 1
REMARK VINA RESULT:      -7.0      0.000      0.000
REMARK SMILES NS(=O)(=O)c1ccc(-n2nc(C(=O)NCCCCCCCCCCC(=O)OCCOCCOC(=O)c3ccc(-c4c5nc(c(-c6cccc(S(=O)(=O)[O-])c6F)c6ccc([nH]6)c(-c6cccc(S(=O)(=O)[O-])c6F)c6nc(c(-c7cccc(S(=O)(=O)[O-])c7F)c7ccc4[nH]7)C=C6)C=C5)cc3)cc2-c2ccccc2)cc1
REMARK SMILES IDX 23 1 22 2 21 3 20 4 19 5 18 6 17 7 16 8 15 9 14 10 12 11
REMARK SMILES IDX 13 12 11 14 9 15 10 16 100 17 99 18 8 19 5 20 6 21 108 22
REMARK SMILES IDX 7 23 107 24 2 25 3 26 4 27 1 28 101 31 102 32 106 33 103 34
REMARK SMILES IDX 105 35 104 36 24 37 25 38 26 39 27 40 28 41 29 42 30 43
REMARK SMILES IDX 31 44 32 45 33 46 34 47 35 48 36 49 37 50 98 51 38 52 97 53
REMARK SMILES IDX 39 54 40 55 41 56 91 57 42 58 96 59 90 60 92 61 43 62 95 63
REMARK SMILES IDX 89 64 88 65 44 67 76 68 56 69 75 70 57 71 60 72 74 73 93 74
REMARK SMILES IDX 58 75 59 76 73 78 94 79 61 80 45 81 46 82 54 83 47 84 49 85
REMARK SMILES IDX 55 86 48 87 50 88 51 89 52 90 53 91 77 92 78 93 86 94 79 95
REMARK SMILES IDX 81 96 87 97 80 98 82 99 83 100 84 101 85 102 62 103 63 104
REMARK SMILES IDX 71 105 64 106 66 107 72 108 65 109 67 110 68 111 69 112
REMARK SMILES IDX 70 113
REMARK H PARENT 14 13 1 29 1 30 92 66 60 77
REMARK Flexibility Score: inf
ROOT
ATOM      1  C   UNL A   1      45.852  19.577  24.924  1.00  0.00     0.012 C 
ENDROOT
BRANCH   1   2
ATOM      2  C   UNL A   1      45.779  21.002  25.477  1.00  0.00     0.001 C 
BRANCH   2   3
ATOM      3  C   UNL A   1      45.991  22.085  24.423  1.00  0.00     0.000 C 
BRANCH   3   4
ATOM      4  C   UNL A   1      44.672  22.696  23.949  1.00  0.00     0.000 C 
BRANCH   4   5
ATOM      5  C   UNL A   1      44.355  24.032  24.629  1.00  0.00     0.000 C 
BRANCH   5   6
ATOM      6  C   UNL A   1      45.367  24.408  25.717  1.00  0.00     0.000 C 
BRANCH   6   7
ATOM      7  C   UNL A   1      44.977  25.669  26.498  1.00  0.00     0.002 C 
BRANCH   7   8
ATOM      8  C   UNL A   1      45.450  25.641  27.954  1.00  0.00     0.021 C 
BRANCH   8   9
ATOM      9  C   UNL A   1      46.793  24.919  28.085  1.00  0.00     0.116 C 
BRANCH   9  10
ATOM     10  N   UNL A   1      47.842  25.901  28.243  1.00  0.00    -0.351 N 
ATOM     11  C   UNL A   1      48.232  26.663  29.315  1.00  0.00     0.271 C 
ATOM     12  O   UNL A   1      49.059  27.550  29.089  1.00  0.00    -0.267 OA
ATOM     13  H   UNL A   1      48.376  26.050  27.430  1.00  0.00     0.163 HD
BRANCH  11  14
ATOM     14  C   UNL A   1      47.719  26.397  30.676  1.00  0.00     0.151 A 
ATOM     15  N   UNL A   1      46.380  26.670  32.326  1.00  0.00    -0.232 N 
ATOM     16  N   UNL A   1      46.446  26.722  30.982  1.00  0.00    -0.162 NA
ATOM     17  C   UNL A   1      47.485  26.045  32.877  1.00  0.00     0.075 A 
ATOM     18  C   UNL A   1      48.323  25.799  31.810  1.00  0.00     0.065 A 
BRANCH  15  19
ATOM     19  C   UNL A   1      45.229  27.141  32.997  1.00  0.00     0.065 A 
ATOM     20  C   UNL A   1      43.018  27.866  34.500  1.00  0.00     0.082 A 
ATOM     21  C   UNL A   1      44.213  28.575  34.651  1.00  0.00     0.024 A 
ATOM     22  C   UNL A   1      42.904  26.834  33.562  1.00  0.00     0.024 A 
ATOM     23  C   UNL A   1      45.327  28.202  33.905  1.00  0.00     0.030 A 
ATOM     24  C   UNL A   1      44.006  26.492  32.781  1.00  0.00     0.030 A 
BRANCH  20  25
ATOM     25  S   UNL A   1      41.665  28.222  35.573  1.00  0.00     0.238 S 
ATOM     26  O   UNL A   1      41.482  27.125  36.497  1.00  0.00    -0.207 OA
ATOM     27  O   UNL A   1      40.581  28.783  34.803  1.00  0.00    -0.207 OA
BRANCH  25  28
ATOM     28  N   UNL A   1      42.262  29.479  36.520  1.00  0.00    -0.225 NA
ATOM     29  H   UNL A   1      41.570  29.731  37.225  1.00  0.00     0.137 HD
ATOM     30  H   UNL A   1      42.456  30.287  35.929  1.00  0.00     0.137 HD
ENDBRANCH  25  28
ENDBRANCH  20  25
ENDBRANCH  15  19
BRANCH  17  31
ATOM     31  C   UNL A   1      47.646  25.650  34.270  1.00  0.00     0.000 A 
ATOM     32  C   UNL A   1      48.327  26.481  35.168  1.00  0.00     0.010 A 
ATOM     33  C   UNL A   1      47.117  24.435  34.722  1.00  0.00     0.010 A 
ATOM     34  C   UNL A   1      48.495  26.093  36.498  1.00  0.00     0.001 A 
ATOM     35  C   UNL A   1      47.290  24.046  36.051  1.00  0.00     0.001 A 
ATOM     36  C   UNL A   1      47.981  24.874  36.937  1.00  0.00     0.000 A 
ENDBRANCH  17  31
ENDBRANCH  11  14
ENDBRANCH   9  10
ENDBRANCH   8   9
ENDBRANCH   7   8
ENDBRANCH   6   7
ENDBRANCH   5   6
ENDBRANCH   4   5
ENDBRANCH   3   4
ENDBRANCH   2   3
ENDBRANCH   1   2
BRANCH   1  37
ATOM     37  C   UNL A   1      44.516  18.943  24.512  1.00  0.00     0.123 C 
BRANCH  37  38
ATOM     38  C   UNL A   1      43.594  18.439  25.607  1.00  0.00     0.305 C 
ATOM     39  O   UNL A   1      43.989  17.738  26.529  1.00  0.00    -0.252 OA
BRANCH  38  40
ATOM     40  O   UNL A   1      42.314  18.835  25.430  1.00  0.00    -0.463 OA
BRANCH  40  41
ATOM     41  C   UNL A   1      41.688  19.576  26.488  1.00  0.00     0.261 C 
BRANCH  41  42
ATOM     42  C   UNL A   1      42.122  21.038  26.411  1.00  0.00     0.202 C 
BRANCH  42  43
ATOM     43  O   UNL A   1      41.132  21.964  25.953  1.00  0.00    -0.374 OA
BRANCH  43  44
ATOM     44  C   UNL A   1      41.281  23.344  26.281  1.00  0.00     0.202 C 
BRANCH  44  45
ATOM     45  C   UNL A   1      41.951  23.676  27.610  1.00  0.00     0.261 C 
BRANCH  45  46
ATOM     46  O   UNL A   1      40.997  24.152  28.544  1.00  0.00    -0.460 OA
BRANCH  46  47
ATOM     47  C   UNL A   1      40.341  25.277  28.163  1.00  0.00     0.338 C 
ATOM     48  O   UNL A   1      39.202  25.373  27.778  1.00  0.00    -0.246 OA
BRANCH  47  49
ATOM     49  C   UNL A   1      41.311  26.383  28.208  1.00  0.00     0.060 A 
ATOM     50  C   UNL A   1      42.238  26.313  29.245  1.00  0.00     0.016 A 
ATOM     51  C   UNL A   1      41.044  27.573  27.514  1.00  0.00     0.016 A 
ATOM     52  C   UNL A   1      42.632  27.495  29.813  1.00  0.00     0.010 A 
ATOM     53  C   UNL A   1      41.437  28.754  28.077  1.00  0.00     0.010 A 
ATOM     54  C   UNL A   1      42.108  28.681  29.289  1.00  0.00    -0.014 A 
BRANCH  54  55
ATOM     55  C   UNL A   1      42.230  29.867  30.094  1.00  0.00     0.031 A 
ATOM     56  C   UNL A   1      40.940  30.324  30.634  1.00  0.00     0.074 A 
ATOM     57  C   UNL A   1      43.434  30.413  30.341  1.00  0.00     0.049 A 
ATOM     58  N   UNL A   1      40.291  31.393  30.316  1.00  0.00    -0.248 NA
ATOM     59  C   UNL A   1      40.190  29.376  31.470  1.00  0.00     0.031 C 
ATOM     60  C   UNL A   1      44.762  29.846  30.082  1.00  0.00     0.029 A 
ATOM     61  N   UNL A   1      43.711  31.543  31.036  1.00  0.00    -0.354 N 
ATOM     62  C   UNL A   1      39.140  31.353  31.091  1.00  0.00     0.074 A 
ATOM     63  C   UNL A   1      39.024  30.008  31.590  1.00  0.00     0.031 C 
ATOM     64  C   UNL A   1      45.667  30.490  30.856  1.00  0.00     0.029 A 
ATOM     65  C   UNL A   1      44.996  31.571  31.557  1.00  0.00     0.049 A 
ATOM     66  H   UNL A   1      43.062  32.273  31.159  1.00  0.00     0.167 HD
ATOM     67  C   UNL A   1      38.512  32.491  31.485  1.00  0.00     0.034 A 
ATOM     68  C   UNL A   1      45.401  32.339  32.598  1.00  0.00     0.034 A 
ATOM     69  C   UNL A   1      38.944  33.629  30.717  1.00  0.00     0.049 A 
ATOM     70  C   UNL A   1      44.417  33.444  32.739  1.00  0.00     0.074 A 
ATOM     71  C   UNL A   1      38.901  33.966  29.380  1.00  0.00     0.029 A 
ATOM     72  N   UNL A   1      39.888  34.449  31.290  1.00  0.00    -0.354 N 
ATOM     73  N   UNL A   1      44.242  34.370  31.837  1.00  0.00    -0.248 NA
ATOM     74  C   UNL A   1      43.302  33.253  33.657  1.00  0.00     0.031 C 
ATOM     75  C   UNL A   1      40.135  34.635  29.130  1.00  0.00     0.029 A 
ATOM     76  C   UNL A   1      40.837  34.716  30.336  1.00  0.00     0.049 A 
ATOM     77  H   UNL A   1      39.883  34.784  32.215  1.00  0.00     0.167 HD
ATOM     78  C   UNL A   1      42.864  34.554  31.783  1.00  0.00     0.074 A 
ATOM     79  C   UNL A   1      42.350  33.919  32.997  1.00  0.00     0.031 C 
ATOM     80  C   UNL A   1      42.241  34.925  30.625  1.00  0.00     0.034 A 
BRANCH  67  81
ATOM     81  C   UNL A   1      37.774  32.635  32.786  1.00  0.00     0.023 A 
ATOM     82  C   UNL A   1      36.605  33.424  32.785  1.00  0.00     0.012 A 
ATOM     83  C   UNL A   1      38.291  32.254  34.046  1.00  0.00     0.148 A 
ATOM     84  C   UNL A   1      36.003  33.838  33.978  1.00  0.00     0.002 A 
ATOM     85  C   UNL A   1      37.640  32.591  35.224  1.00  0.00     0.091 A 
ATOM     86  F   UNL A   1      39.497  31.682  34.136  1.00  0.00    -0.205 F 
ATOM     87  C   UNL A   1      36.512  33.411  35.199  1.00  0.00     0.022 A 
BRANCH  85  88
ATOM     88  S   UNL A   1      38.239  32.008  36.815  1.00  0.00     0.127 S 
ATOM     89  O   UNL A   1      37.161  32.429  37.704  1.00  0.00    -0.237 OA
ATOM     90  O   UNL A   1      38.334  30.566  36.588  1.00  0.00    -0.237 OA
ATOM     91  O   UNL A   1      39.526  32.666  37.005  1.00  0.00    -0.744 OA
ENDBRANCH  85  88
ENDBRANCH  67  81
BRANCH  68  92
ATOM     92  C   UNL A   1      46.338  31.957  33.683  1.00  0.00     0.023 A 
ATOM     93  C   UNL A   1      45.839  31.642  34.961  1.00  0.00     0.012 A 
ATOM     94  C   UNL A   1      47.693  31.655  33.407  1.00  0.00     0.148 A 
ATOM     95  C   UNL A   1      46.657  31.032  35.923  1.00  0.00     0.002 A 
ATOM     96  C   UNL A   1      48.506  31.068  34.370  1.00  0.00     0.091 A 
ATOM     97  F   UNL A   1      48.162  31.845  32.168  1.00  0.00    -0.205 F 
ATOM     98  C   UNL A   1      47.989  30.745  35.629  1.00  0.00     0.022 A 
BRANCH  96  99
ATOM     99  S   UNL A   1      50.229  30.670  34.037  1.00  0.00     0.127 S 
ATOM    100  O   UNL A   1      50.765  30.471  35.385  1.00  0.00    -0.237 OA
ATOM    101  O   UNL A   1      50.115  29.454  33.238  1.00  0.00    -0.237 OA
ATOM    102  O   UNL A   1      50.779  31.830  33.346  1.00  0.00    -0.744 OA
ENDBRANCH  96  99
ENDBRANCH  68  92
BRANCH  80 103
ATOM    103  C   UNL A   1      43.104  35.324  29.448  1.00  0.00     0.023 A 
ATOM    104  C   UNL A   1      43.628  36.628  29.313  1.00  0.00     0.012 A 
ATOM    105  C   UNL A   1      43.558  34.322  28.576  1.00  0.00     0.148 A 
ATOM    106  C   UNL A   1      44.564  36.931  28.321  1.00  0.00     0.002 A 
ATOM    107  C   UNL A   1      44.526  34.614  27.621  1.00  0.00     0.091 A 
ATOM    108  F   UNL A   1      43.061  33.084  28.718  1.00  0.00    -0.205 F 
ATOM    109  C   UNL A   1      45.024  35.919  27.484  1.00  0.00     0.022 A 
BRANCH 107 110
ATOM    110  S   UNL A   1      45.260  33.328  26.608  1.00  0.00     0.127 S 
ATOM    111  O   UNL A   1      45.508  32.272  27.586  1.00  0.00    -0.237 OA
ATOM    112  O   UNL A   1      44.194  33.035  25.647  1.00  0.00    -0.237 OA
ATOM    113  O   UNL A   1      46.448  33.924  26.008  1.00  0.00    -0.744 OA
ENDBRANCH 107 110
ENDBRANCH  80 103
ENDBRANCH  54  55
ENDBRANCH  47  49
ENDBRANCH  46  47
ENDBRANCH  45  46
ENDBRANCH  44  45
ENDBRANCH  43  44
ENDBRANCH  42  43
ENDBRANCH  41  42
ENDBRANCH  40  41
ENDBRANCH  38  40
ENDBRANCH  37  38
ENDBRANCH   1  37
TORSDOF 32
ENDMDL
MODEL 2
REMARK VINA RESULT:      -6.4      1.422      1.803
REMARK SMILES NS(=O)(=O)c1ccc(-n2nc(C(=O)NCCCCCCCCCCC(=O)OCCOCCOC(=O)c3ccc(-c4c5nc(c(-c6cccc(S(=O)(=O)[O-])c6F)c6ccc([nH]6)c(-c6cccc(S(=O)(=O)[O-])c6F)c6nc(c(-c7cccc(S(=O)(=O)[O-])c7F)c7ccc4[nH]7)C=C6)C=C5)cc3)cc2-c2ccccc2)cc1
REMARK SMILES IDX 23 1 22 2 21 3 20 4 19 5 18 6 17 7 16 8 15 9 14 10 12 11
REMARK SMILES IDX 13 12 11 14 9 15 10 16 100 17 99 18 8 19 5 20 6 21 108 22
REMARK SMILES IDX 7 23 107 24 2 25 3 26 4 27 1 28 101 31 102 32 106 33 103 34
REMARK SMILES IDX 105 35 104 36 24 37 25 38 26 39 27 40 28 41 29 42 30 43
REMARK SMILES IDX 31 44 32 45 33 46 34 47 35 48 36 49 37 50 98 51 38 52 97 53
REMARK SMILES IDX 39 54 40 55 41 56 91 57 42 58 96 59 90 60 92 61 43 62 95 63
REMARK SMILES IDX 89 64 88 65 44 67 76 68 56 69 75 70 57 71 60 72 74 73 93 74
REMARK SMILES IDX 58 75 59 76 73 78 94 79 61 80 45 81 46 82 54 83 47 84 49 85
REMARK SMILES IDX 55 86 48 87 50 88 51 89 52 90 53 91 77 92 78 93 86 94 79 95
REMARK SMILES IDX 81 96 87 97 80 98 82 99 83 100 84 101 85 102 62 103 63 104
REMARK SMILES IDX 71 105 64 106 66 107 72 108 65 109 67 110 68 111 69 112
REMARK SMILES IDX 70 113
REMARK H PARENT 14 13 1 29 1 30 92 66 60 77
REMARK Flexibility Score: inf
ROOT
ATOM      1  C   UNL A   1      45.632  19.529  25.167  1.00  0.00     0.012 C 
ENDROOT
BRANCH   1   2
ATOM      2  C   UNL A   1      45.545  21.002  25.572  1.00  0.00     0.001 C 
BRANCH   2   3
ATOM      3  C   UNL A   1      46.016  21.968  24.489  1.00  0.00     0.000 C 
BRANCH   3   4
ATOM      4  C   UNL A   1      44.896  22.893  24.011  1.00  0.00     0.000 C 
BRANCH   4   5
ATOM      5  C   UNL A   1      44.838  24.212  24.788  1.00  0.00     0.000 C 
BRANCH   5   6
ATOM      6  C   UNL A   1      45.855  24.279  25.935  1.00  0.00     0.000 C 
BRANCH   6   7
ATOM      7  C   UNL A   1      45.678  25.513  26.829  1.00  0.00     0.002 C 
BRANCH   7   8
ATOM      8  C   UNL A   1      46.442  25.405  28.153  1.00  0.00     0.021 C 
BRANCH   8   9
ATOM      9  C   UNL A   1      47.953  25.497  27.928  1.00  0.00     0.116 C 
BRANCH   9  10
ATOM     10  N   UNL A   1      48.451  26.696  28.562  1.00  0.00    -0.351 N 
ATOM     11  C   UNL A   1      48.043  27.381  29.678  1.00  0.00     0.271 C 
ATOM     12  O   UNL A   1      48.564  28.483  29.869  1.00  0.00    -0.267 OA
ATOM     13  H   UNL A   1      49.228  27.095  28.108  1.00  0.00     0.163 HD
BRANCH  11  14
ATOM     14  C   UNL A   1      47.065  26.802  30.623  1.00  0.00     0.151 A 
ATOM     15  N   UNL A   1      45.542  26.892  32.128  1.00  0.00    -0.232 N 
ATOM     16  N   UNL A   1      46.046  27.563  31.074  1.00  0.00    -0.162 NA
ATOM     17  C   UNL A   1      46.015  25.593  32.191  1.00  0.00     0.075 A 
ATOM     18  C   UNL A   1      46.945  25.504  31.178  1.00  0.00     0.065 A 
BRANCH  15  19
ATOM     19  C   UNL A   1      44.575  27.502  32.958  1.00  0.00     0.065 A 
ATOM     20  C   UNL A   1      42.871  28.696  34.787  1.00  0.00     0.082 A 
ATOM     21  C   UNL A   1      43.560  29.493  33.869  1.00  0.00     0.024 A 
ATOM     22  C   UNL A   1      42.985  27.302  34.761  1.00  0.00     0.024 A 
ATOM     23  C   UNL A   1      44.426  28.895  32.959  1.00  0.00     0.030 A 
ATOM     24  C   UNL A   1      43.815  26.698  33.818  1.00  0.00     0.030 A 
BRANCH  20  25
ATOM     25  S   UNL A   1      41.917  29.469  36.053  1.00  0.00     0.238 S 
ATOM     26  O   UNL A   1      41.058  30.471  35.463  1.00  0.00    -0.207 OA
ATOM     27  O   UNL A   1      42.764  29.738  37.190  1.00  0.00    -0.207 OA
BRANCH  25  28
ATOM     28  N   UNL A   1      40.869  28.241  36.532  1.00  0.00    -0.225 NA
ATOM     29  H   UNL A   1      40.249  28.003  35.758  1.00  0.00     0.137 HD
ATOM     30  H   UNL A   1      40.315  28.559  37.327  1.00  0.00     0.137 HD
ENDBRANCH  25  28
ENDBRANCH  20  25
ENDBRANCH  15  19
BRANCH  17  31
ATOM     31  C   UNL A   1      45.533  24.543  33.079  1.00  0.00     0.000 A 
ATOM     32  C   UNL A   1      44.452  23.736  32.701  1.00  0.00     0.010 A 
ATOM     33  C   UNL A   1      46.150  24.331  34.317  1.00  0.00     0.010 A 
ATOM     34  C   UNL A   1      43.981  22.743  33.560  1.00  0.00     0.001 A 
ATOM     35  C   UNL A   1      45.675  23.340  35.177  1.00  0.00     0.001 A 
ATOM     36  C   UNL A   1      44.590  22.549  34.799  1.00  0.00     0.000 A 
ENDBRANCH  17  31
ENDBRANCH  11  14
ENDBRANCH   9  10
ENDBRANCH   8   9
ENDBRANCH   7   8
ENDBRANCH   6   7
ENDBRANCH   5   6
ENDBRANCH   4   5
ENDBRANCH   3   4
ENDBRANCH   2   3
ENDBRANCH   1   2
BRANCH   1  37
ATOM     37  C   UNL A   1      44.315  18.866  24.741  1.00  0.00     0.123 C 
BRANCH  37  38
ATOM     38  C   UNL A   1      43.378  18.369  25.827  1.00  0.00     0.305 C 
ATOM     39  O   UNL A   1      43.751  17.634  26.733  1.00  0.00    -0.252 OA
BRANCH  38  40
ATOM     40  O   UNL A   1      42.112  18.812  25.663  1.00  0.00    -0.463 OA
BRANCH  40  41
ATOM     41  C   UNL A   1      41.594  19.737  26.631  1.00  0.00     0.261 C 
BRANCH  41  42
ATOM     42  C   UNL A   1      42.097  21.143  26.310  1.00  0.00     0.202 C 
BRANCH  42  43
ATOM     43  O   UNL A   1      41.091  22.127  26.050  1.00  0.00    -0.374 OA
BRANCH  43  44
ATOM     44  C   UNL A   1      41.375  23.493  26.348  1.00  0.00     0.202 C 
BRANCH  44  45
ATOM     45  C   UNL A   1      42.081  23.785  27.668  1.00  0.00     0.261 C 
BRANCH  45  46
ATOM     46  O   UNL A   1      41.173  24.334  28.608  1.00  0.00    -0.460 OA
BRANCH  46  47
ATOM     47  C   UNL A   1      40.529  25.453  28.189  1.00  0.00     0.338 C 
ATOM     48  O   UNL A   1      39.396  25.545  27.785  1.00  0.00    -0.246 OA
BRANCH  47  49
ATOM     49  C   UNL A   1      41.504  26.555  28.219  1.00  0.00     0.060 A 
ATOM     50  C   UNL A   1      42.354  26.560  29.323  1.00  0.00     0.016 A 
ATOM     51  C   UNL A   1      41.300  27.689  27.419  1.00  0.00     0.016 A 
ATOM     52  C   UNL A   1      42.719  27.780  29.825  1.00  0.00     0.010 A 
ATOM     53  C   UNL A   1      41.664  28.908  27.917  1.00  0.00     0.010 A 
ATOM     54  C   UNL A   1      42.246  28.925  29.176  1.00  0.00    -0.014 A 
BRANCH  54  55
ATOM     55  C   UNL A   1      42.322  30.168  29.895  1.00  0.00     0.031 A 
ATOM     56  C   UNL A   1      41.042  30.549  30.512  1.00  0.00     0.074 A 
ATOM     57  C   UNL A   1      43.487  30.831  30.006  1.00  0.00     0.049 A 
ATOM     58  N   UNL A   1      40.277  31.534  30.186  1.00  0.00    -0.248 NA
ATOM     59  C   UNL A   1      40.449  29.599  31.464  1.00  0.00     0.031 C 
ATOM     60  C   UNL A   1      44.837  30.363  29.673  1.00  0.00     0.029 A 
ATOM     61  N   UNL A   1      43.714  32.024  30.607  1.00  0.00    -0.354 N 
ATOM     62  C   UNL A   1      39.198  31.448  31.055  1.00  0.00     0.074 A 
ATOM     63  C   UNL A   1      39.244  30.136  31.642  1.00  0.00     0.031 C 
ATOM     64  C   UNL A   1      45.737  31.132  30.328  1.00  0.00     0.029 A 
ATOM     65  C   UNL A   1      45.028  32.198  31.016  1.00  0.00     0.049 A 
ATOM     66  H   UNL A   1      43.014  32.703  30.740  1.00  0.00     0.167 HD
ATOM     67  C   UNL A   1      38.502  32.553  31.431  1.00  0.00     0.034 A 
ATOM     68  C   UNL A   1      45.442  33.065  31.972  1.00  0.00     0.034 A 
ATOM     69  C   UNL A   1      38.768  33.669  30.562  1.00  0.00     0.049 A 
ATOM     70  C   UNL A   1      44.375  34.090  32.127  1.00  0.00     0.074 A 
ATOM     71  C   UNL A   1      38.590  33.910  29.215  1.00  0.00     0.029 A 
ATOM     72  N   UNL A   1      39.675  34.603  31.004  1.00  0.00    -0.354 N 
ATOM     73  N   UNL A   1      44.048  34.934  31.188  1.00  0.00    -0.248 NA
ATOM     74  C   UNL A   1      43.358  33.866  33.145  1.00  0.00     0.031 C 
ATOM     75  C   UNL A   1      39.735  34.664  28.823  1.00  0.00     0.029 A 
ATOM     76  C   UNL A   1      40.518  34.885  29.959  1.00  0.00     0.049 A 
ATOM     77  H   UNL A   1      39.712  34.999  31.904  1.00  0.00     0.167 HD
ATOM     78  C   UNL A   1      42.659  34.996  31.239  1.00  0.00     0.074 A 
ATOM     79  C   UNL A   1      42.300  34.403  32.527  1.00  0.00     0.031 C 
ATOM     80  C   UNL A   1      41.916  35.234  30.117  1.00  0.00     0.034 A 
BRANCH  67  81
ATOM     81  C   UNL A   1      37.857  32.721  32.778  1.00  0.00     0.023 A 
ATOM     82  C   UNL A   1      36.498  33.096  32.805  1.00  0.00     0.012 A 
ATOM     83  C   UNL A   1      38.564  32.776  34.002  1.00  0.00     0.148 A 
ATOM     84  C   UNL A   1      35.886  33.536  33.983  1.00  0.00     0.002 A 
ATOM     85  C   UNL A   1      37.929  33.126  35.186  1.00  0.00     0.091 A 
ATOM     86  F   UNL A   1      39.893  32.632  34.020  1.00  0.00    -0.205 F 
ATOM     87  C   UNL A   1      36.597  33.539  35.178  1.00  0.00     0.022 A 
BRANCH  85  88
ATOM     88  S   UNL A   1      38.804  33.086  36.754  1.00  0.00     0.127 S 
ATOM     89  O   UNL A   1      37.927  33.893  37.597  1.00  0.00    -0.237 OA
ATOM     90  O   UNL A   1      38.812  31.654  37.054  1.00  0.00    -0.237 OA
ATOM     91  O   UNL A   1      40.122  33.643  36.474  1.00  0.00    -0.744 OA
ENDBRANCH  85  88
ENDBRANCH  67  81
BRANCH  68  92
ATOM     92  C   UNL A   1      46.491  32.840  32.995  1.00  0.00     0.023 A 
ATOM     93  C   UNL A   1      47.001  31.544  33.202  1.00  0.00     0.012 A 
ATOM     94  C   UNL A   1      47.176  33.925  33.593  1.00  0.00     0.148 A 
ATOM     95  C   UNL A   1      48.161  31.339  33.963  1.00  0.00     0.002 A 
ATOM     96  C   UNL A   1      48.314  33.716  34.363  1.00  0.00     0.091 A 
ATOM     97  F   UNL A   1      46.775  35.174  33.325  1.00  0.00    -0.205 F 
ATOM     98  C   UNL A   1      48.817  32.423  34.543  1.00  0.00     0.022 A 
BRANCH  96  99
ATOM     99  S   UNL A   1      49.202  35.082  35.127  1.00  0.00     0.127 S 
ATOM    100  O   UNL A   1      48.439  35.295  36.358  1.00  0.00    -0.237 OA
ATOM    101  O   UNL A   1      50.532  34.512  35.322  1.00  0.00    -0.237 OA
ATOM    102  O   UNL A   1      49.122  36.188  34.181  1.00  0.00    -0.744 OA
ENDBRANCH  96  99
ENDBRANCH  68  92
BRANCH  80 103
ATOM    103  C   UNL A   1      42.645  35.624  28.850  1.00  0.00     0.023 A 
ATOM    104  C   UNL A   1      42.909  36.972  28.525  1.00  0.00     0.012 A 
ATOM    105  C   UNL A   1      43.247  34.615  28.081  1.00  0.00     0.148 A 
ATOM    106  C   UNL A   1      43.735  37.307  27.449  1.00  0.00     0.002 A 
ATOM    107  C   UNL A   1      44.107  34.950  27.041  1.00  0.00     0.091 A 
ATOM    108  F   UNL A   1      42.997  33.337  28.404  1.00  0.00    -0.205 F 
ATOM    109  C   UNL A   1      44.346  36.295  26.715  1.00  0.00     0.022 A 
BRANCH 107 110
ATOM    110  S   UNL A   1      45.032  33.698  26.150  1.00  0.00     0.127 S 
ATOM    111  O   UNL A   1      45.783  34.499  25.187  1.00  0.00    -0.237 OA
ATOM    112  O   UNL A   1      45.845  33.093  27.208  1.00  0.00    -0.237 OA
ATOM    113  O   UNL A   1      44.037  32.797  25.581  1.00  0.00    -0.744 OA
ENDBRANCH 107 110
ENDBRANCH  80 103
ENDBRANCH  54  55
ENDBRANCH  47  49
ENDBRANCH  46  47
ENDBRANCH  45  46
ENDBRANCH  44  45
ENDBRANCH  43  44
ENDBRANCH  42  43
ENDBRANCH  41  42
ENDBRANCH  40  41
ENDBRANCH  38  40
ENDBRANCH  37  38
ENDBRANCH   1  37
TORSDOF 32
ENDMDL
MODEL 3
REMARK VINA RESULT:      -5.7      3.490      8.804
REMARK SMILES NS(=O)(=O)c1ccc(-n2nc(C(=O)NCCCCCCCCCCC(=O)OCCOCCOC(=O)c3ccc(-c4c5nc(c(-c6cccc(S(=O)(=O)[O-])c6F)c6ccc([nH]6)c(-c6cccc(S(=O)(=O)[O-])c6F)c6nc(c(-c7cccc(S(=O)(=O)[O-])c7F)c7ccc4[nH]7)C=C6)C=C5)cc3)cc2-c2ccccc2)cc1
REMARK SMILES IDX 23 1 22 2 21 3 20 4 19 5 18 6 17 7 16 8 15 9 14 10 12 11
REMARK SMILES IDX 13 12 11 14 9 15 10 16 100 17 99 18 8 19 5 20 6 21 108 22
REMARK SMILES IDX 7 23 107 24 2 25 3 26 4 27 1 28 101 31 102 32 106 33 103 34
REMARK SMILES IDX 105 35 104 36 24 37 25 38 26 39 27 40 28 41 29 42 30 43
REMARK SMILES IDX 31 44 32 45 33 46 34 47 35 48 36 49 37 50 98 51 38 52 97 53
REMARK SMILES IDX 39 54 40 55 41 56 91 57 42 58 96 59 90 60 92 61 43 62 95 63
REMARK SMILES IDX 89 64 88 65 44 67 76 68 56 69 75 70 57 71 60 72 74 73 93 74
REMARK SMILES IDX 58 75 59 76 73 78 94 79 61 80 45 81 46 82 54 83 47 84 49 85
REMARK SMILES IDX 55 86 48 87 50 88 51 89 52 90 53 91 77 92 78 93 86 94 79 95
REMARK SMILES IDX 81 96 87 97 80 98 82 99 83 100 84 101 85 102 62 103 63 104
REMARK SMILES IDX 71 105 64 106 66 107 72 108 65 109 67 110 68 111 69 112
REMARK SMILES IDX 70 113
REMARK H PARENT 14 13 1 29 1 30 92 66 60 77
REMARK Flexibility Score: inf
ROOT
ATOM      1  C   UNL A   1      37.381  19.417  24.866  1.00  0.00     0.012 C 
ENDROOT
BRANCH   1   2
ATOM      2  C   UNL A   1      35.858  19.390  25.017  1.00  0.00     0.001 C 
BRANCH   2   3
ATOM      3  C   UNL A   1      35.157  20.603  24.415  1.00  0.00     0.000 C 
BRANCH   3   4
ATOM      4  C   UNL A   1      34.167  21.242  25.390  1.00  0.00     0.000 C 
BRANCH   4   5
ATOM      5  C   UNL A   1      34.854  21.913  26.584  1.00  0.00     0.000 C 
BRANCH   5   6
ATOM      6  C   UNL A   1      34.692  23.437  26.592  1.00  0.00     0.000 C 
BRANCH   6   7
ATOM      7  C   UNL A   1      35.722  24.160  25.714  1.00  0.00     0.002 C 
BRANCH   7   8
ATOM      8  C   UNL A   1      37.111  23.516  25.768  1.00  0.00     0.021 C 
BRANCH   8   9
ATOM      9  C   UNL A   1      38.130  24.453  26.420  1.00  0.00     0.116 C 
BRANCH   9  10
ATOM     10  N   UNL A   1      39.043  23.671  27.222  1.00  0.00    -0.351 N 
ATOM     11  C   UNL A   1      40.153  24.017  27.949  1.00  0.00     0.271 C 
ATOM     12  O   UNL A   1      40.835  23.088  28.389  1.00  0.00    -0.267 OA
ATOM     13  H   UNL A   1      38.827  22.711  27.252  1.00  0.00     0.163 HD
BRANCH  11  14
ATOM     14  C   UNL A   1      40.481  25.431  28.228  1.00  0.00     0.151 A 
ATOM     15  N   UNL A   1      40.014  27.488  28.604  1.00  0.00    -0.232 N 
ATOM     16  N   UNL A   1      39.545  26.236  28.771  1.00  0.00    -0.162 NA
ATOM     17  C   UNL A   1      41.347  27.499  28.232  1.00  0.00     0.075 A 
ATOM     18  C   UNL A   1      41.678  26.172  28.058  1.00  0.00     0.065 A 
BRANCH  15  19
ATOM     19  C   UNL A   1      39.187  28.597  28.892  1.00  0.00     0.065 A 
ATOM     20  C   UNL A   1      37.351  30.593  29.460  1.00  0.00     0.082 A 
ATOM     21  C   UNL A   1      38.094  30.026  30.501  1.00  0.00     0.024 A 
ATOM     22  C   UNL A   1      37.560  30.208  28.132  1.00  0.00     0.024 A 
ATOM     23  C   UNL A   1      39.006  29.015  30.217  1.00  0.00     0.030 A 
ATOM     24  C   UNL A   1      38.508  29.228  27.842  1.00  0.00     0.030 A 
BRANCH  20  25
ATOM     25  S   UNL A   1      36.071  31.742  29.844  1.00  0.00     0.238 S 
ATOM     26  O   UNL A   1      34.956  31.538  28.947  1.00  0.00    -0.207 OA
ATOM     27  O   UNL A   1      36.653  33.041  30.082  1.00  0.00    -0.207 OA
BRANCH  25  28
ATOM     28  N   UNL A   1      35.518  31.199  31.338  1.00  0.00    -0.225 NA
ATOM     29  H   UNL A   1      35.919  30.283  31.536  1.00  0.00     0.137 HD
ATOM     30  H   UNL A   1      34.500  31.127  31.317  1.00  0.00     0.137 HD
ENDBRANCH  25  28
ENDBRANCH  20  25
ENDBRANCH  15  19
BRANCH  17  31
ATOM     31  C   UNL A   1      42.210  28.670  28.157  1.00  0.00     0.000 A 
ATOM     32  C   UNL A   1      42.548  29.222  26.915  1.00  0.00     0.010 A 
ATOM     33  C   UNL A   1      42.707  29.253  29.328  1.00  0.00     0.010 A 
ATOM     34  C   UNL A   1      43.389  30.333  26.844  1.00  0.00     0.001 A 
ATOM     35  C   UNL A   1      43.552  30.362  29.255  1.00  0.00     0.001 A 
ATOM     36  C   UNL A   1      43.894  30.899  28.014  1.00  0.00     0.000 A 
ENDBRANCH  17  31
ENDBRANCH  11  14
ENDBRANCH   9  10
ENDBRANCH   8   9
ENDBRANCH   7   8
ENDBRANCH   6   7
ENDBRANCH   5   6
ENDBRANCH   4   5
ENDBRANCH   3   4
ENDBRANCH   2   3
ENDBRANCH   1   2
BRANCH   1  37
ATOM     37  C   UNL A   1      38.086  20.684  25.371  1.00  0.00     0.123 C 
BRANCH  37  38
ATOM     38  C   UNL A   1      39.563  20.596  25.708  1.00  0.00     0.305 C 
ATOM     39  O   UNL A   1      40.298  21.576  25.711  1.00  0.00    -0.252 OA
BRANCH  38  40
ATOM     40  O   UNL A   1      39.960  19.332  25.976  1.00  0.00    -0.463 OA
BRANCH  40  41
ATOM     41  C   UNL A   1      41.273  18.937  25.550  1.00  0.00     0.261 C 
BRANCH  41  42
ATOM     42  C   UNL A   1      42.276  19.222  26.665  1.00  0.00     0.202 C 
BRANCH  42  43
ATOM     43  O   UNL A   1      43.056  20.414  26.519  1.00  0.00    -0.374 OA
BRANCH  43  44
ATOM     44  C   UNL A   1      43.873  20.561  25.360  1.00  0.00     0.202 C 
BRANCH  44  45
ATOM     45  C   UNL A   1      44.347  21.969  25.016  1.00  0.00     0.261 C 
BRANCH  45  46
ATOM     46  O   UNL A   1      45.547  22.273  25.706  1.00  0.00    -0.460 OA
BRANCH  46  47
ATOM     47  C   UNL A   1      45.944  23.568  25.613  1.00  0.00     0.338 C 
ATOM     48  O   UNL A   1      46.056  24.236  24.614  1.00  0.00    -0.246 OA
BRANCH  47  49
ATOM     49  C   UNL A   1      46.320  24.007  26.966  1.00  0.00     0.060 A 
ATOM     50  C   UNL A   1      45.254  24.196  27.842  1.00  0.00     0.016 A 
ATOM     51  C   UNL A   1      47.589  24.560  27.192  1.00  0.00     0.016 A 
ATOM     52  C   UNL A   1      45.363  25.217  28.748  1.00  0.00     0.010 A 
ATOM     53  C   UNL A   1      47.701  25.579  28.096  1.00  0.00     0.010 A 
ATOM     54  C   UNL A   1      46.543  25.967  28.754  1.00  0.00    -0.014 A 
BRANCH  54  55
ATOM     55  C   UNL A   1      46.515  27.234  29.433  1.00  0.00     0.031 A 
ATOM     56  C   UNL A   1      47.092  28.324  28.631  1.00  0.00     0.074 A 
ATOM     57  C   UNL A   1      45.950  27.354  30.648  1.00  0.00     0.049 A 
ATOM     58  N   UNL A   1      48.189  28.965  28.851  1.00  0.00    -0.248 NA
ATOM     59  C   UNL A   1      46.481  28.585  27.320  1.00  0.00     0.031 C 
ATOM     60  C   UNL A   1      45.109  26.386  31.361  1.00  0.00     0.029 A 
ATOM     61  N   UNL A   1      45.882  28.457  31.431  1.00  0.00    -0.354 N 
ATOM     62  C   UNL A   1      48.287  29.872  27.805  1.00  0.00     0.074 A 
ATOM     63  C   UNL A   1      47.357  29.440  26.796  1.00  0.00     0.031 C 
ATOM     64  C   UNL A   1      44.402  27.042  32.310  1.00  0.00     0.029 A 
ATOM     65  C   UNL A   1      44.833  28.429  32.338  1.00  0.00     0.049 A 
ATOM     66  H   UNL A   1      46.517  29.207  31.363  1.00  0.00     0.167 HD
ATOM     67  C   UNL A   1      48.928  31.059  27.956  1.00  0.00     0.034 A 
ATOM     68  C   UNL A   1      44.284  29.517  32.933  1.00  0.00     0.034 A 
ATOM     69  C   UNL A   1      49.763  31.068  29.128  1.00  0.00     0.049 A 
ATOM     70  C   UNL A   1      45.277  30.619  32.837  1.00  0.00     0.074 A 
ATOM     71  C   UNL A   1      50.851  30.329  29.546  1.00  0.00     0.029 A 
ATOM     72  N   UNL A   1      49.256  31.675  30.253  1.00  0.00    -0.354 N 
ATOM     73  N   UNL A   1      46.435  30.598  33.438  1.00  0.00    -0.248 NA
ATOM     74  C   UNL A   1      45.185  31.523  31.699  1.00  0.00     0.031 C 
ATOM     75  C   UNL A   1      50.663  30.159  30.949  1.00  0.00     0.029 A 
ATOM     76  C   UNL A   1      49.502  30.845  31.317  1.00  0.00     0.049 A 
ATOM     77  H   UNL A   1      48.801  32.547  30.289  1.00  0.00     0.167 HD
ATOM     78  C   UNL A   1      47.326  31.122  32.507  1.00  0.00     0.074 A 
ATOM     79  C   UNL A   1      46.483  31.771  31.501  1.00  0.00     0.031 C 
ATOM     80  C   UNL A   1      48.632  30.723  32.469  1.00  0.00     0.034 A 
BRANCH  67  81
ATOM     81  C   UNL A   1      48.533  32.324  27.244  1.00  0.00     0.023 A 
ATOM     82  C   UNL A   1      49.517  32.961  26.460  1.00  0.00     0.012 A 
ATOM     83  C   UNL A   1      47.344  33.046  27.498  1.00  0.00     0.148 A 
ATOM     84  C   UNL A   1      49.338  34.263  25.983  1.00  0.00     0.002 A 
ATOM     85  C   UNL A   1      47.134  34.303  26.947  1.00  0.00     0.091 A 
ATOM     86  F   UNL A   1      46.458  32.595  28.392  1.00  0.00    -0.205 F 
ATOM     87  C   UNL A   1      48.140  34.931  26.215  1.00  0.00     0.022 A 
BRANCH  85  88
ATOM     88  S   UNL A   1      45.577  35.168  27.180  1.00  0.00     0.127 S 
ATOM     89  O   UNL A   1      44.612  34.131  26.828  1.00  0.00    -0.237 OA
ATOM     90  O   UNL A   1      45.635  35.509  28.602  1.00  0.00    -0.237 OA
ATOM     91  O   UNL A   1      45.640  36.320  26.288  1.00  0.00    -0.744 OA
ENDBRANCH  85  88
ENDBRANCH  67  81
BRANCH  68  92
ATOM     92  C   UNL A   1      42.848  29.754  33.218  1.00  0.00     0.023 A 
ATOM     93  C   UNL A   1      41.894  28.783  32.865  1.00  0.00     0.012 A 
ATOM     94  C   UNL A   1      42.436  30.813  34.062  1.00  0.00     0.148 A 
ATOM     95  C   UNL A   1      40.579  28.855  33.347  1.00  0.00     0.002 A 
ATOM     96  C   UNL A   1      41.127  30.892  34.524  1.00  0.00     0.091 A 
ATOM     97  F   UNL A   1      43.348  31.689  34.500  1.00  0.00    -0.205 F 
ATOM     98  C   UNL A   1      40.195  29.907  34.176  1.00  0.00     0.022 A 
BRANCH  96  99
ATOM     99  S   UNL A   1      40.583  32.226  35.602  1.00  0.00     0.127 S 
ATOM    100  O   UNL A   1      40.027  31.495  36.741  1.00  0.00    -0.237 OA
ATOM    101  O   UNL A   1      41.834  32.928  35.876  1.00  0.00    -0.237 OA
ATOM    102  O   UNL A   1      39.593  32.977  34.839  1.00  0.00    -0.744 OA
ENDBRANCH  96  99
ENDBRANCH  68  92
BRANCH  80 103
ATOM    103  C   UNL A   1      49.140  29.843  33.589  1.00  0.00     0.023 A 
ATOM    104  C   UNL A   1      49.545  30.373  34.833  1.00  0.00     0.012 A 
ATOM    105  C   UNL A   1      49.018  28.450  33.459  1.00  0.00     0.148 A 
ATOM    106  C   UNL A   1      49.841  29.538  35.913  1.00  0.00     0.002 A 
ATOM    107  C   UNL A   1      49.265  27.623  34.549  1.00  0.00     0.091 A 
ATOM    108  F   UNL A   1      48.623  27.955  32.276  1.00  0.00    -0.205 F 
ATOM    109  C   UNL A   1      49.687  28.162  35.775  1.00  0.00     0.022 A 
BRANCH 107 110
ATOM    110  S   UNL A   1      48.951  25.858  34.476  1.00  0.00     0.127 S 
ATOM    111  O   UNL A   1      49.388  25.525  33.123  1.00  0.00    -0.237 OA
ATOM    112  O   UNL A   1      49.810  25.339  35.543  1.00  0.00    -0.237 OA
ATOM    113  O   UNL A   1      47.525  25.697  34.735  1.00  0.00    -0.744 OA
ENDBRANCH 107 110
ENDBRANCH  80 103
ENDBRANCH  54  55
ENDBRANCH  47  49
ENDBRANCH  46  47
ENDBRANCH  45  46
ENDBRANCH  44  45
ENDBRANCH  43  44
ENDBRANCH  42  43
ENDBRANCH  41  42
ENDBRANCH  40  41
ENDBRANCH  38  40
ENDBRANCH  37  38
ENDBRANCH   1  37
TORSDOF 32
ENDMDL
