MODEL 1
REMARK VINA RESULT:     -11.8      0.000      0.000
REMARK SMILES O=C(OCCOCCOC(=O)C1(Cc2ccncc2)Cc2ccccc2C1)c1ccc(-c2c3nc(c(-c4cccc(S(=O)(=O)[O-])c4F)c4ccc([nH]4)c(-c4cccc(S(=O)(=O)[O-])c4F)c4nc(c(-c5cccc(S(=O)(=O)[O-])c5F)c5ccc2[nH]5)C=C4)C=C3)cc1
REMARK SMILES IDX 5 1 4 2 3 3 2 4 1 5 28 6 29 7 90 8 30 9 89 10 31 11 32 12
REMARK SMILES IDX 33 13 83 14 34 15 88 16 82 17 84 18 35 19 87 20 81 21 80 22
REMARK SMILES IDX 36 24 68 25 48 26 67 27 49 28 52 29 66 30 85 31 50 32 51 33
REMARK SMILES IDX 65 35 86 36 53 37 37 38 38 39 46 40 39 41 41 42 47 43 40 44
REMARK SMILES IDX 42 45 43 46 44 47 45 48 69 49 70 50 78 51 71 52 73 53 79 54
REMARK SMILES IDX 72 55 74 56 75 57 76 58 77 59 54 60 55 61 63 62 56 63 58 64
REMARK SMILES IDX 64 65 57 66 59 67 60 68 61 69 62 70 6 71 7 72 8 73 9 74
REMARK SMILES IDX 10 75 11 76 12 77 20 78 27 79 21 80 26 81 22 82 25 83 23 84
REMARK SMILES IDX 24 85 13 86 14 87 15 88 19 89 16 90 18 91 17 92
REMARK H PARENT 84 23 52 34
REMARK Flexibility Score: inf
ROOT
ATOM      1  C   UNL A   1      35.171  22.440  25.289  1.00  0.00     0.202 C 
ENDROOT
BRANCH   1   2
ATOM      2  C   UNL A   1      36.032  21.241  25.697  1.00  0.00     0.261 C 
BRANCH   2   3
ATOM      3  O   UNL A   1      37.305  21.267  25.045  1.00  0.00    -0.460 OA
BRANCH   3   4
ATOM      4  C   UNL A   1      38.460  21.105  25.741  1.00  0.00     0.338 C 
ATOM      5  O   UNL A   1      39.023  20.014  25.750  1.00  0.00    -0.246 OA
BRANCH   4   6
ATOM      6  C   UNL A   1      39.161  22.309  26.283  1.00  0.00     0.060 A 
ATOM      7  C   UNL A   1      40.282  22.282  27.124  1.00  0.00     0.016 A 
ATOM      8  C   UNL A   1      38.704  23.548  25.817  1.00  0.00     0.016 A 
ATOM      9  C   UNL A   1      40.928  23.442  27.504  1.00  0.00     0.010 A 
ATOM     10  C   UNL A   1      39.377  24.720  26.160  1.00  0.00     0.010 A 
ATOM     11  C   UNL A   1      40.502  24.661  26.992  1.00  0.00    -0.014 A 
BRANCH  11  12
ATOM     12  C   UNL A   1      41.255  25.862  27.372  1.00  0.00     0.031 A 
ATOM     13  C   UNL A   1      40.589  26.875  28.241  1.00  0.00     0.074 A 
ATOM     14  C   UNL A   1      42.542  25.969  26.993  1.00  0.00     0.049 A 
ATOM     15  N   UNL A   1      41.027  28.039  28.624  1.00  0.00    -0.248 NA
ATOM     16  C   UNL A   1      39.251  26.527  28.752  1.00  0.00     0.031 C 
ATOM     17  C   UNL A   1      43.280  24.967  26.215  1.00  0.00     0.029 A 
ATOM     18  N   UNL A   1      43.460  26.958  27.212  1.00  0.00    -0.354 N 
ATOM     19  C   UNL A   1      40.000  28.591  29.377  1.00  0.00     0.074 A 
ATOM     20  C   UNL A   1      38.922  27.628  29.410  1.00  0.00     0.031 C 
ATOM     21  C   UNL A   1      44.537  25.395  26.023  1.00  0.00     0.029 A 
ATOM     22  C   UNL A   1      44.668  26.728  26.594  1.00  0.00     0.049 A 
ATOM     23  H   UNL A   1      43.276  27.756  27.757  1.00  0.00     0.167 HD
ATOM     24  C   UNL A   1      39.973  29.799  29.978  1.00  0.00     0.034 A 
ATOM     25  C   UNL A   1      45.735  27.537  26.466  1.00  0.00     0.034 A 
ATOM     26  C   UNL A   1      41.072  30.722  29.927  1.00  0.00     0.049 A 
ATOM     27  C   UNL A   1      45.649  28.899  27.100  1.00  0.00     0.074 A 
ATOM     28  C   UNL A   1      41.158  31.994  30.458  1.00  0.00     0.029 A 
ATOM     29  N   UNL A   1      42.283  30.462  29.298  1.00  0.00    -0.354 N 
ATOM     30  N   UNL A   1      44.679  29.414  27.819  1.00  0.00    -0.248 NA
ATOM     31  C   UNL A   1      46.803  29.787  26.920  1.00  0.00     0.031 C 
ATOM     32  C   UNL A   1      42.414  32.514  30.128  1.00  0.00     0.029 A 
ATOM     33  C   UNL A   1      43.124  31.551  29.424  1.00  0.00     0.049 A 
ATOM     34  H   UNL A   1      42.509  29.626  28.831  1.00  0.00     0.167 HD
ATOM     35  C   UNL A   1      45.114  30.675  28.199  1.00  0.00     0.074 A 
ATOM     36  C   UNL A   1      46.451  30.830  27.659  1.00  0.00     0.031 C 
ATOM     37  C   UNL A   1      44.468  31.635  28.907  1.00  0.00     0.034 A 
BRANCH  24  38
ATOM     38  C   UNL A   1      38.711  30.184  30.696  1.00  0.00     0.023 A 
ATOM     39  C   UNL A   1      38.440  29.666  31.979  1.00  0.00     0.012 A 
ATOM     40  C   UNL A   1      37.789  31.061  30.094  1.00  0.00     0.148 A 
ATOM     41  C   UNL A   1      37.253  29.990  32.636  1.00  0.00     0.002 A 
ATOM     42  C   UNL A   1      36.630  31.414  30.773  1.00  0.00     0.091 A 
ATOM     43  F   UNL A   1      38.055  31.517  28.861  1.00  0.00    -0.205 F 
ATOM     44  C   UNL A   1      36.353  30.869  32.038  1.00  0.00     0.022 A 
BRANCH  42  45
ATOM     45  S   UNL A   1      35.437  32.583  30.115  1.00  0.00     0.127 S 
ATOM     46  O   UNL A   1      34.395  32.552  31.141  1.00  0.00    -0.237 OA
ATOM     47  O   UNL A   1      36.218  33.820  30.076  1.00  0.00    -0.237 OA
ATOM     48  O   UNL A   1      35.039  32.069  28.813  1.00  0.00    -0.744 OA
ENDBRANCH  42  45
ENDBRANCH  24  38
BRANCH  25  49
ATOM     49  C   UNL A   1      46.939  27.107  25.696  1.00  0.00     0.023 A 
ATOM     50  C   UNL A   1      47.911  26.296  26.313  1.00  0.00     0.012 A 
ATOM     51  C   UNL A   1      47.137  27.512  24.361  1.00  0.00     0.148 A 
ATOM     52  C   UNL A   1      49.077  25.937  25.632  1.00  0.00     0.002 A 
ATOM     53  C   UNL A   1      48.272  27.102  23.669  1.00  0.00     0.091 A 
ATOM     54  F   UNL A   1      46.215  28.299  23.789  1.00  0.00    -0.205 F 
ATOM     55  C   UNL A   1      49.254  26.333  24.309  1.00  0.00     0.022 A 
BRANCH  53  56
ATOM     56  S   UNL A   1      48.515  27.462  21.925  1.00  0.00     0.127 S 
ATOM     57  O   UNL A   1      47.303  28.210  21.602  1.00  0.00    -0.237 OA
ATOM     58  O   UNL A   1      49.744  28.258  21.947  1.00  0.00    -0.237 OA
ATOM     59  O   UNL A   1      48.657  26.166  21.274  1.00  0.00    -0.744 OA
ENDBRANCH  53  56
ENDBRANCH  25  49
BRANCH  37  60
ATOM     60  C   UNL A   1      45.221  32.909  29.168  1.00  0.00     0.023 A 
ATOM     61  C   UNL A   1      46.113  32.988  30.255  1.00  0.00     0.012 A 
ATOM     62  C   UNL A   1      45.089  34.003  28.293  1.00  0.00     0.148 A 
ATOM     63  C   UNL A   1      46.835  34.156  30.490  1.00  0.00     0.002 A 
ATOM     64  C   UNL A   1      45.855  35.141  28.499  1.00  0.00     0.091 A 
ATOM     65  F   UNL A   1      44.218  33.909  27.277  1.00  0.00    -0.205 F 
ATOM     66  C   UNL A   1      46.715  35.226  29.604  1.00  0.00     0.022 A 
BRANCH  64  67
ATOM     67  S   UNL A   1      45.849  36.518  27.348  1.00  0.00     0.127 S 
ATOM     68  O   UNL A   1      44.463  36.511  26.883  1.00  0.00    -0.237 OA
ATOM     69  O   UNL A   1      46.198  37.645  28.214  1.00  0.00    -0.237 OA
ATOM     70  O   UNL A   1      46.850  36.201  26.337  1.00  0.00    -0.744 OA
ENDBRANCH  64  67
ENDBRANCH  37  60
ENDBRANCH  11  12
ENDBRANCH   4   6
ENDBRANCH   3   4
ENDBRANCH   2   3
ENDBRANCH   1   2
BRANCH   1  71
ATOM     71  O   UNL A   1      33.812  22.318  25.695  1.00  0.00    -0.374 OA
BRANCH  71  72
ATOM     72  C   UNL A   1      32.871  22.125  24.646  1.00  0.00     0.202 C 
BRANCH  72  73
ATOM     73  C   UNL A   1      31.415  22.205  25.101  1.00  0.00     0.261 C 
BRANCH  73  74
ATOM     74  O   UNL A   1      30.924  23.555  25.026  1.00  0.00    -0.463 OA
BRANCH  74  75
ATOM     75  C   UNL A   1      31.170  24.380  26.089  1.00  0.00     0.313 C 
ATOM     76  O   UNL A   1      31.050  24.057  27.259  1.00  0.00    -0.252 OA
BRANCH  75  77
ATOM     77  C   UNL A   1      31.644  25.756  25.624  1.00  0.00     0.080 C 
ATOM     78  C   UNL A   1      30.910  26.843  26.484  1.00  0.00     0.055 C 
ATOM     79  C   UNL A   1      33.145  25.930  25.970  1.00  0.00     0.055 C 
ATOM     80  C   UNL A   1      31.957  27.891  26.643  1.00  0.00    -0.044 A 
ATOM     81  C   UNL A   1      33.221  27.381  26.340  1.00  0.00    -0.044 A 
ATOM     82  C   UNL A   1      31.778  29.190  27.080  1.00  0.00     0.004 A 
ATOM     83  C   UNL A   1      34.343  28.178  26.446  1.00  0.00     0.004 A 
ATOM     84  C   UNL A   1      32.905  30.000  27.192  1.00  0.00     0.000 A 
ATOM     85  C   UNL A   1      34.178  29.499  26.870  1.00  0.00     0.000 A 
BRANCH  77  86
ATOM     86  C   UNL A   1      31.368  26.077  24.120  1.00  0.00     0.055 C 
BRANCH  86  87
ATOM     87  C   UNL A   1      30.223  26.956  23.650  1.00  0.00    -0.044 A 
ATOM     88  C   UNL A   1      28.872  26.652  23.822  1.00  0.00     0.024 A 
ATOM     89  C   UNL A   1      30.531  28.227  23.136  1.00  0.00     0.024 A 
ATOM     90  C   UNL A   1      27.914  27.613  23.498  1.00  0.00     0.111 A 
ATOM     91  C   UNL A   1      29.509  29.117  22.839  1.00  0.00     0.111 A 
ATOM     92  N   UNL A   1      28.207  28.840  23.020  1.00  0.00    -0.265 NA
ENDBRANCH  86  87
ENDBRANCH  77  86
ENDBRANCH  75  77
ENDBRANCH  74  75
ENDBRANCH  73  74
ENDBRANCH  72  73
ENDBRANCH  71  72
ENDBRANCH   1  71
TORSDOF 19
ENDMDL
MODEL 2
REMARK VINA RESULT:     -11.6      0.624      7.546
REMARK SMILES O=C(OCCOCCOC(=O)C1(Cc2ccncc2)Cc2ccccc2C1)c1ccc(-c2c3nc(c(-c4cccc(S(=O)(=O)[O-])c4F)c4ccc([nH]4)c(-c4cccc(S(=O)(=O)[O-])c4F)c4nc(c(-c5cccc(S(=O)(=O)[O-])c5F)c5ccc2[nH]5)C=C4)C=C3)cc1
REMARK SMILES IDX 5 1 4 2 3 3 2 4 1 5 28 6 29 7 90 8 30 9 89 10 31 11 32 12
REMARK SMILES IDX 33 13 83 14 34 15 88 16 82 17 84 18 35 19 87 20 81 21 80 22
REMARK SMILES IDX 36 24 68 25 48 26 67 27 49 28 52 29 66 30 85 31 50 32 51 33
REMARK SMILES IDX 65 35 86 36 53 37 37 38 38 39 46 40 39 41 41 42 47 43 40 44
REMARK SMILES IDX 42 45 43 46 44 47 45 48 69 49 70 50 78 51 71 52 73 53 79 54
REMARK SMILES IDX 72 55 74 56 75 57 76 58 77 59 54 60 55 61 63 62 56 63 58 64
REMARK SMILES IDX 64 65 57 66 59 67 60 68 61 69 62 70 6 71 7 72 8 73 9 74
REMARK SMILES IDX 10 75 11 76 12 77 20 78 27 79 21 80 26 81 22 82 25 83 23 84
REMARK SMILES IDX 24 85 13 86 14 87 15 88 19 89 16 90 18 91 17 92
REMARK H PARENT 84 23 52 34
REMARK Flexibility Score: inf
ROOT
ATOM      1  C   UNL A   1      35.379  20.245  25.007  1.00  0.00     0.202 C 
ENDROOT
BRANCH   1   2
ATOM      2  C   UNL A   1      36.244  21.297  25.707  1.00  0.00     0.261 C 
BRANCH   2   3
ATOM      3  O   UNL A   1      37.567  21.330  25.164  1.00  0.00    -0.460 OA
BRANCH   3   4
ATOM      4  C   UNL A   1      38.663  21.268  25.966  1.00  0.00     0.338 C 
ATOM      5  O   UNL A   1      39.265  20.207  26.101  1.00  0.00    -0.246 OA
BRANCH   4   6
ATOM      6  C   UNL A   1      39.266  22.537  26.476  1.00  0.00     0.060 A 
ATOM      7  C   UNL A   1      40.380  22.620  27.322  1.00  0.00     0.016 A 
ATOM      8  C   UNL A   1      38.718  23.724  25.974  1.00  0.00     0.016 A 
ATOM      9  C   UNL A   1      40.934  23.837  27.671  1.00  0.00     0.010 A 
ATOM     10  C   UNL A   1      39.297  24.954  26.287  1.00  0.00     0.010 A 
ATOM     11  C   UNL A   1      40.417  25.005  27.124  1.00  0.00    -0.014 A 
BRANCH  11  12
ATOM     12  C   UNL A   1      41.074  26.271  27.473  1.00  0.00     0.031 A 
ATOM     13  C   UNL A   1      42.464  26.509  26.987  1.00  0.00     0.074 A 
ATOM     14  C   UNL A   1      40.373  27.202  28.147  1.00  0.00     0.049 A 
ATOM     15  N   UNL A   1      43.261  27.505  27.244  1.00  0.00    -0.248 NA
ATOM     16  C   UNL A   1      43.030  25.490  26.083  1.00  0.00     0.031 C 
ATOM     17  C   UNL A   1      38.977  27.064  28.574  1.00  0.00     0.029 A 
ATOM     18  N   UNL A   1      40.731  28.447  28.584  1.00  0.00    -0.354 N 
ATOM     19  C   UNL A   1      44.444  27.211  26.581  1.00  0.00     0.074 A 
ATOM     20  C   UNL A   1      44.257  25.952  25.896  1.00  0.00     0.031 C 
ATOM     21  C   UNL A   1      38.598  28.181  29.213  1.00  0.00     0.029 A 
ATOM     22  C   UNL A   1      39.743  29.075  29.306  1.00  0.00     0.049 A 
ATOM     23  H   UNL A   1      41.608  28.853  28.402  1.00  0.00     0.167 HD
ATOM     24  C   UNL A   1      45.581  27.938  26.559  1.00  0.00     0.034 A 
ATOM     25  C   UNL A   1      39.789  30.223  30.006  1.00  0.00     0.034 A 
ATOM     26  C   UNL A   1      45.721  29.191  27.246  1.00  0.00     0.049 A 
ATOM     27  C   UNL A   1      41.090  30.980  30.006  1.00  0.00     0.074 A 
ATOM     28  C   UNL A   1      46.831  30.008  27.339  1.00  0.00     0.029 A 
ATOM     29  N   UNL A   1      44.704  29.806  27.967  1.00  0.00    -0.354 N 
ATOM     30  N   UNL A   1      42.205  30.704  29.371  1.00  0.00    -0.248 NA
ATOM     31  C   UNL A   1      41.140  32.210  30.805  1.00  0.00     0.031 C 
ATOM     32  C   UNL A   1      46.493  31.105  28.137  1.00  0.00     0.029 A 
ATOM     33  C   UNL A   1      45.160  30.991  28.510  1.00  0.00     0.049 A 
ATOM     34  H   UNL A   1      43.793  29.450  28.074  1.00  0.00     0.167 HD
ATOM     35  C   UNL A   1      43.081  31.736  29.671  1.00  0.00     0.074 A 
ATOM     36  C   UNL A   1      42.353  32.662  30.518  1.00  0.00     0.031 C 
ATOM     37  C   UNL A   1      44.377  31.903  29.307  1.00  0.00     0.034 A 
BRANCH  24  38
ATOM     38  C   UNL A   1      46.748  27.371  25.802  1.00  0.00     0.023 A 
ATOM     39  C   UNL A   1      47.610  26.442  26.422  1.00  0.00     0.012 A 
ATOM     40  C   UNL A   1      46.993  27.763  24.473  1.00  0.00     0.148 A 
ATOM     41  C   UNL A   1      48.717  25.939  25.738  1.00  0.00     0.002 A 
ATOM     42  C   UNL A   1      48.071  27.224  23.784  1.00  0.00     0.091 A 
ATOM     43  F   UNL A   1      46.177  28.669  23.916  1.00  0.00    -0.205 F 
ATOM     44  C   UNL A   1      48.942  26.323  24.418  1.00  0.00     0.022 A 
BRANCH  42  45
ATOM     45  S   UNL A   1      48.414  27.608  22.064  1.00  0.00     0.127 S 
ATOM     46  O   UNL A   1      48.674  26.280  21.509  1.00  0.00    -0.237 OA
ATOM     47  O   UNL A   1      47.153  28.212  21.633  1.00  0.00    -0.237 OA
ATOM     48  O   UNL A   1      49.556  28.510  22.068  1.00  0.00    -0.744 OA
ENDBRANCH  42  45
ENDBRANCH  24  38
BRANCH  25  49
ATOM     49  C   UNL A   1      38.605  30.704  30.776  1.00  0.00     0.023 A 
ATOM     50  C   UNL A   1      38.477  30.379  32.141  1.00  0.00     0.012 A 
ATOM     51  C   UNL A   1      37.593  31.468  30.161  1.00  0.00     0.148 A 
ATOM     52  C   UNL A   1      37.345  30.762  32.863  1.00  0.00     0.002 A 
ATOM     53  C   UNL A   1      36.496  31.898  30.901  1.00  0.00     0.091 A 
ATOM     54  F   UNL A   1      37.715  31.757  28.857  1.00  0.00    -0.205 F 
ATOM     55  C   UNL A   1      36.359  31.528  32.246  1.00  0.00     0.022 A 
BRANCH  53  56
ATOM     56  S   UNL A   1      35.246  32.992  30.216  1.00  0.00     0.127 S 
ATOM     57  O   UNL A   1      34.418  33.271  31.386  1.00  0.00    -0.237 OA
ATOM     58  O   UNL A   1      36.052  34.120  29.747  1.00  0.00    -0.237 OA
ATOM     59  O   UNL A   1      34.606  32.234  29.149  1.00  0.00    -0.744 OA
ENDBRANCH  53  56
ENDBRANCH  25  49
BRANCH  37  60
ATOM     60  C   UNL A   1      45.063  33.150  29.791  1.00  0.00     0.023 A 
ATOM     61  C   UNL A   1      45.733  33.147  31.029  1.00  0.00     0.012 A 
ATOM     62  C   UNL A   1      45.094  34.301  28.983  1.00  0.00     0.148 A 
ATOM     63  C   UNL A   1      46.393  34.291  31.475  1.00  0.00     0.002 A 
ATOM     64  C   UNL A   1      45.803  35.416  29.406  1.00  0.00     0.091 A 
ATOM     65  F   UNL A   1      44.430  34.283  27.817  1.00  0.00    -0.205 F 
ATOM     66  C   UNL A   1      46.439  35.419  30.657  1.00  0.00     0.022 A 
BRANCH  64  67
ATOM     67  S   UNL A   1      46.008  36.867  28.371  1.00  0.00     0.127 S 
ATOM     68  O   UNL A   1      46.438  37.869  29.344  1.00  0.00    -0.237 OA
ATOM     69  O   UNL A   1      47.049  36.436  27.436  1.00  0.00    -0.237 OA
ATOM     70  O   UNL A   1      44.709  37.109  27.756  1.00  0.00    -0.744 OA
ENDBRANCH  64  67
ENDBRANCH  37  60
ENDBRANCH  11  12
ENDBRANCH   4   6
ENDBRANCH   3   4
ENDBRANCH   2   3
ENDBRANCH   1   2
BRANCH   1  71
ATOM     71  O   UNL A   1      34.028  20.655  24.835  1.00  0.00    -0.374 OA
BRANCH  71  72
ATOM     72  C   UNL A   1      33.477  21.425  25.896  1.00  0.00     0.202 C 
BRANCH  72  73
ATOM     73  C   UNL A   1      32.087  21.983  25.596  1.00  0.00     0.261 C 
BRANCH  73  74
ATOM     74  O   UNL A   1      32.157  23.371  25.223  1.00  0.00    -0.463 OA
BRANCH  74  75
ATOM     75  C   UNL A   1      31.788  24.298  26.159  1.00  0.00     0.313 C 
ATOM     76  O   UNL A   1      31.319  24.031  27.252  1.00  0.00    -0.252 OA
BRANCH  75  77
ATOM     77  C   UNL A   1      32.066  25.719  25.669  1.00  0.00     0.080 C 
ATOM     78  C   UNL A   1      31.189  26.708  26.513  1.00  0.00     0.055 C 
ATOM     79  C   UNL A   1      33.529  26.105  26.007  1.00  0.00     0.055 C 
ATOM     80  C   UNL A   1      32.081  27.894  26.650  1.00  0.00    -0.044 A 
ATOM     81  C   UNL A   1      33.402  27.559  26.352  1.00  0.00    -0.044 A 
ATOM     82  C   UNL A   1      31.724  29.162  27.066  1.00  0.00     0.004 A 
ATOM     83  C   UNL A   1      34.404  28.505  26.441  1.00  0.00     0.004 A 
ATOM     84  C   UNL A   1      32.727  30.122  27.161  1.00  0.00     0.000 A 
ATOM     85  C   UNL A   1      34.057  29.798  26.844  1.00  0.00     0.000 A 
BRANCH  77  86
ATOM     86  C   UNL A   1      31.747  25.973  24.160  1.00  0.00     0.055 C 
BRANCH  86  87
ATOM     87  C   UNL A   1      30.593  26.836  23.685  1.00  0.00    -0.044 A 
ATOM     88  C   UNL A   1      29.245  26.501  23.825  1.00  0.00     0.024 A 
ATOM     89  C   UNL A   1      30.884  28.122  23.199  1.00  0.00     0.024 A 
ATOM     90  C   UNL A   1      28.274  27.448  23.501  1.00  0.00     0.111 A 
ATOM     91  C   UNL A   1      29.849  28.996  22.899  1.00  0.00     0.111 A 
ATOM     92  N   UNL A   1      28.550  28.690  23.050  1.00  0.00    -0.265 NA
ENDBRANCH  86  87
ENDBRANCH  77  86
ENDBRANCH  75  77
ENDBRANCH  74  75
ENDBRANCH  73  74
ENDBRANCH  72  73
ENDBRANCH  71  72
ENDBRANCH   1  71
TORSDOF 19
ENDMDL
MODEL 3
REMARK VINA RESULT:     -11.5      1.639      1.869
REMARK SMILES O=C(OCCOCCOC(=O)C1(Cc2ccncc2)Cc2ccccc2C1)c1ccc(-c2c3nc(c(-c4cccc(S(=O)(=O)[O-])c4F)c4ccc([nH]4)c(-c4cccc(S(=O)(=O)[O-])c4F)c4nc(c(-c5cccc(S(=O)(=O)[O-])c5F)c5ccc2[nH]5)C=C4)C=C3)cc1
REMARK SMILES IDX 5 1 4 2 3 3 2 4 1 5 28 6 29 7 90 8 30 9 89 10 31 11 32 12
REMARK SMILES IDX 33 13 83 14 34 15 88 16 82 17 84 18 35 19 87 20 81 21 80 22
REMARK SMILES IDX 36 24 68 25 48 26 67 27 49 28 52 29 66 30 85 31 50 32 51 33
REMARK SMILES IDX 65 35 86 36 53 37 37 38 38 39 46 40 39 41 41 42 47 43 40 44
REMARK SMILES IDX 42 45 43 46 44 47 45 48 69 49 70 50 78 51 71 52 73 53 79 54
REMARK SMILES IDX 72 55 74 56 75 57 76 58 77 59 54 60 55 61 63 62 56 63 58 64
REMARK SMILES IDX 64 65 57 66 59 67 60 68 61 69 62 70 6 71 7 72 8 73 9 74
REMARK SMILES IDX 10 75 11 76 12 77 20 78 27 79 21 80 26 81 22 82 25 83 23 84
REMARK SMILES IDX 24 85 13 86 14 87 15 88 19 89 16 90 18 91 17 92
REMARK H PARENT 84 23 52 34
REMARK Flexibility Score: inf
ROOT
ATOM      1  C   UNL A   1      35.432  20.553  25.025  1.00  0.00     0.202 C 
ENDROOT
BRANCH   1   2
ATOM      2  C   UNL A   1      36.358  21.634  25.588  1.00  0.00     0.261 C 
BRANCH   2   3
ATOM      3  O   UNL A   1      37.683  21.512  25.063  1.00  0.00    -0.460 OA
BRANCH   3   4
ATOM      4  C   UNL A   1      38.755  21.336  25.879  1.00  0.00     0.338 C 
ATOM      5  O   UNL A   1      39.288  20.233  25.961  1.00  0.00    -0.246 OA
BRANCH   4   6
ATOM      6  C   UNL A   1      39.423  22.533  26.475  1.00  0.00     0.060 A 
ATOM      7  C   UNL A   1      40.455  22.494  27.423  1.00  0.00     0.016 A 
ATOM      8  C   UNL A   1      39.037  23.774  25.956  1.00  0.00     0.016 A 
ATOM      9  C   UNL A   1      41.084  23.647  27.853  1.00  0.00     0.010 A 
ATOM     10  C   UNL A   1      39.696  24.938  26.353  1.00  0.00     0.010 A 
ATOM     11  C   UNL A   1      40.732  24.868  27.291  1.00  0.00    -0.014 A 
BRANCH  11  12
ATOM     12  C   UNL A   1      41.468  26.059  27.732  1.00  0.00     0.031 A 
ATOM     13  C   UNL A   1      40.752  27.073  28.558  1.00  0.00     0.074 A 
ATOM     14  C   UNL A   1      42.780  26.155  27.445  1.00  0.00     0.049 A 
ATOM     15  N   UNL A   1      41.172  28.230  28.979  1.00  0.00    -0.248 NA
ATOM     16  C   UNL A   1      39.377  26.735  28.970  1.00  0.00     0.031 C 
ATOM     17  C   UNL A   1      43.562  25.151  26.716  1.00  0.00     0.029 A 
ATOM     18  N   UNL A   1      43.689  27.134  27.736  1.00  0.00    -0.354 N 
ATOM     19  C   UNL A   1      40.100  28.787  29.661  1.00  0.00     0.074 A 
ATOM     20  C   UNL A   1      39.013  27.835  29.611  1.00  0.00     0.031 C 
ATOM     21  C   UNL A   1      44.833  25.567  26.616  1.00  0.00     0.029 A 
ATOM     22  C   UNL A   1      44.936  26.895  27.204  1.00  0.00     0.049 A 
ATOM     23  H   UNL A   1      43.474  27.930  28.272  1.00  0.00     0.167 HD
ATOM     24  C   UNL A   1      40.041  29.992  30.267  1.00  0.00     0.034 A 
ATOM     25  C   UNL A   1      46.017  27.694  27.158  1.00  0.00     0.034 A 
ATOM     26  C   UNL A   1      41.150  30.904  30.301  1.00  0.00     0.049 A 
ATOM     27  C   UNL A   1      45.899  29.053  27.794  1.00  0.00     0.074 A 
ATOM     28  C   UNL A   1      41.210  32.172  30.845  1.00  0.00     0.029 A 
ATOM     29  N   UNL A   1      42.400  30.636  29.757  1.00  0.00    -0.354 N 
ATOM     30  N   UNL A   1      44.885  29.574  28.445  1.00  0.00    -0.248 NA
ATOM     31  C   UNL A   1      47.071  29.931  27.703  1.00  0.00     0.031 C 
ATOM     32  C   UNL A   1      42.491  32.681  30.609  1.00  0.00     0.029 A 
ATOM     33  C   UNL A   1      43.240  31.716  29.951  1.00  0.00     0.049 A 
ATOM     34  H   UNL A   1      42.651  29.800  29.302  1.00  0.00     0.167 HD
ATOM     35  C   UNL A   1      45.304  30.828  28.864  1.00  0.00     0.074 A 
ATOM     36  C   UNL A   1      46.678  30.973  28.422  1.00  0.00     0.031 C 
ATOM     37  C   UNL A   1      44.618  31.789  29.532  1.00  0.00     0.034 A 
BRANCH  24  38
ATOM     38  C   UNL A   1      38.735  30.385  30.896  1.00  0.00     0.023 A 
ATOM     39  C   UNL A   1      38.389  29.898  32.173  1.00  0.00     0.012 A 
ATOM     40  C   UNL A   1      37.846  31.239  30.216  1.00  0.00     0.148 A 
ATOM     41  C   UNL A   1      37.161  30.228  32.747  1.00  0.00     0.002 A 
ATOM     42  C   UNL A   1      36.646  31.600  30.814  1.00  0.00     0.091 A 
ATOM     43  F   UNL A   1      38.185  31.666  28.991  1.00  0.00    -0.205 F 
ATOM     44  C   UNL A   1      36.295  31.085  32.073  1.00  0.00     0.022 A 
BRANCH  42  45
ATOM     45  S   UNL A   1      35.489  32.743  30.054  1.00  0.00     0.127 S 
ATOM     46  O   UNL A   1      34.278  32.507  30.841  1.00  0.00    -0.237 OA
ATOM     47  O   UNL A   1      36.134  34.033  30.300  1.00  0.00    -0.237 OA
ATOM     48  O   UNL A   1      35.399  32.360  28.653  1.00  0.00    -0.744 OA
ENDBRANCH  42  45
ENDBRANCH  24  38
BRANCH  25  49
ATOM     49  C   UNL A   1      47.268  27.258  26.473  1.00  0.00     0.023 A 
ATOM     50  C   UNL A   1      47.462  27.556  25.110  1.00  0.00     0.012 A 
ATOM     51  C   UNL A   1      48.263  26.532  27.158  1.00  0.00     0.148 A 
ATOM     52  C   UNL A   1      48.595  27.099  24.433  1.00  0.00     0.002 A 
ATOM     53  C   UNL A   1      49.418  26.132  26.494  1.00  0.00     0.091 A 
ATOM     54  F   UNL A   1      48.062  26.238  28.451  1.00  0.00    -0.205 F 
ATOM     55  C   UNL A   1      49.576  26.395  25.126  1.00  0.00     0.022 A 
BRANCH  53  56
ATOM     56  S   UNL A   1      50.785  25.331  27.342  1.00  0.00     0.127 S 
ATOM     57  O   UNL A   1      50.119  24.201  27.983  1.00  0.00    -0.237 OA
ATOM     58  O   UNL A   1      51.669  24.978  26.230  1.00  0.00    -0.237 OA
ATOM     59  O   UNL A   1      51.332  26.340  28.240  1.00  0.00    -0.744 OA
ENDBRANCH  53  56
ENDBRANCH  25  49
BRANCH  37  60
ATOM     60  C   UNL A   1      45.363  33.054  29.854  1.00  0.00     0.023 A 
ATOM     61  C   UNL A   1      46.099  33.151  31.050  1.00  0.00     0.012 A 
ATOM     62  C   UNL A   1      45.381  34.120  28.935  1.00  0.00     0.148 A 
ATOM     63  C   UNL A   1      46.814  34.310  31.346  1.00  0.00     0.002 A 
ATOM     64  C   UNL A   1      46.143  35.247  29.209  1.00  0.00     0.091 A 
ATOM     65  F   UNL A   1      44.656  34.011  27.812  1.00  0.00    -0.205 F 
ATOM     66  C   UNL A   1      46.846  35.351  30.420  1.00  0.00     0.022 A 
BRANCH  64  67
ATOM     67  S   UNL A   1      46.332  36.583  28.027  1.00  0.00     0.127 S 
ATOM     68  O   UNL A   1      44.979  37.134  27.982  1.00  0.00    -0.237 OA
ATOM     69  O   UNL A   1      47.320  37.440  28.684  1.00  0.00    -0.237 OA
ATOM     70  O   UNL A   1      46.797  35.964  26.792  1.00  0.00    -0.744 OA
ENDBRANCH  64  67
ENDBRANCH  37  60
ENDBRANCH  11  12
ENDBRANCH   4   6
ENDBRANCH   3   4
ENDBRANCH   2   3
ENDBRANCH   1   2
BRANCH   1  71
ATOM     71  O   UNL A   1      34.127  20.581  25.593  1.00  0.00    -0.374 OA
BRANCH  71  72
ATOM     72  C   UNL A   1      33.442  21.824  25.502  1.00  0.00     0.202 C 
BRANCH  72  73
ATOM     73  C   UNL A   1      31.920  21.692  25.524  1.00  0.00     0.261 C 
BRANCH  73  74
ATOM     74  O   UNL A   1      31.288  22.925  25.138  1.00  0.00    -0.463 OA
BRANCH  74  75
ATOM     75  C   UNL A   1      31.061  23.854  26.116  1.00  0.00     0.313 C 
ATOM     76  O   UNL A   1      30.633  23.599  27.229  1.00  0.00    -0.252 OA
BRANCH  75  77
ATOM     77  C   UNL A   1      31.442  25.258  25.646  1.00  0.00     0.080 C 
ATOM     78  C   UNL A   1      30.703  26.297  26.558  1.00  0.00     0.055 C 
ATOM     79  C   UNL A   1      32.949  25.501  25.914  1.00  0.00     0.055 C 
ATOM     80  C   UNL A   1      31.705  27.394  26.675  1.00  0.00    -0.044 A 
ATOM     81  C   UNL A   1      32.973  26.951  26.299  1.00  0.00    -0.044 A 
ATOM     82  C   UNL A   1      31.486  28.677  27.139  1.00  0.00     0.004 A 
ATOM     83  C   UNL A   1      34.060  27.800  26.357  1.00  0.00     0.004 A 
ATOM     84  C   UNL A   1      32.576  29.541  27.202  1.00  0.00     0.000 A 
ATOM     85  C   UNL A   1      33.853  29.107  26.807  1.00  0.00     0.000 A 
BRANCH  77  86
ATOM     86  C   UNL A   1      31.071  25.581  24.163  1.00  0.00     0.055 C 
BRANCH  86  87
ATOM     87  C   UNL A   1      30.804  26.986  23.656  1.00  0.00    -0.044 A 
ATOM     88  C   UNL A   1      31.790  27.860  23.193  1.00  0.00     0.024 A 
ATOM     89  C   UNL A   1      29.469  27.394  23.505  1.00  0.00     0.024 A 
ATOM     90  C   UNL A   1      31.407  29.061  22.599  1.00  0.00     0.111 A 
ATOM     91  C   UNL A   1      29.183  28.612  22.904  1.00  0.00     0.111 A 
ATOM     92  N   UNL A   1      30.124  29.449  22.437  1.00  0.00    -0.265 NA
ENDBRANCH  86  87
ENDBRANCH  77  86
ENDBRANCH  75  77
ENDBRANCH  74  75
ENDBRANCH  73  74
ENDBRANCH  72  73
ENDBRANCH  71  72
ENDBRANCH   1  71
TORSDOF 19
ENDMDL
