MODEL 1
REMARK VINA RESULT:     -10.9      0.000      0.000
REMARK SMILES [NH3+][C@H](C(=O)OCCOCCOC(=O)c1ccc(-c2c3nc(c(-c4cccc(S(=O)(=O)[O-])c4F)c4ccc([nH]4)c(-c4cccc(S(=O)(=O)[O-])c4F)c4nc(c(-c5cccc(S(=O)(=O)[O-])c5F)c5ccc2[nH]5)C=C4)C=C3)cc1)c1cc(F)c(Cl)c(Cl)c1
REMARK SMILES IDX 9 1 8 2 7 3 6 4 5 5 3 6 4 7 2 8 1 9 77 13 78 14 85 15 79 16
REMARK SMILES IDX 83 17 80 18 81 19 84 20 82 21 10 22 11 23 12 24 13 25 14 26
REMARK SMILES IDX 15 27 76 28 16 29 75 30 17 31 18 32 19 33 69 34 20 35 74 36
REMARK SMILES IDX 68 37 70 38 21 39 73 40 67 41 66 42 22 44 54 45 34 46 53 47
REMARK SMILES IDX 35 48 38 49 52 50 71 51 36 52 37 53 51 55 72 56 39 57 23 58
REMARK SMILES IDX 24 59 32 60 25 61 27 62 33 63 26 64 28 65 29 66 30 67 31 68
REMARK SMILES IDX 55 69 56 70 64 71 57 72 59 73 65 74 58 75 60 76 61 77 62 78
REMARK SMILES IDX 63 79 40 80 41 81 49 82 42 83 44 84 50 85 43 86 45 87 46 88
REMARK SMILES IDX 47 89 48 90
REMARK H PARENT 1 10 1 11 1 12 70 43 38 54
REMARK Flexibility Score: inf
ROOT
ATOM      1  C   UNL A   1      35.533  21.126  24.981  1.00  0.00     0.202 C 
ENDROOT
BRANCH   1   2
ATOM      2  O   UNL A   1      34.359  20.357  25.230  1.00  0.00    -0.374 OA
BRANCH   2   3
ATOM      3  C   UNL A   1      33.155  20.707  24.545  1.00  0.00     0.202 C 
BRANCH   3   4
ATOM      4  C   UNL A   1      32.054  21.360  25.383  1.00  0.00     0.261 C 
BRANCH   4   5
ATOM      5  O   UNL A   1      32.248  22.780  25.470  1.00  0.00    -0.459 OA
BRANCH   5   6
ATOM      6  C   UNL A   1      31.420  23.444  26.330  1.00  0.00     0.369 C 
ATOM      7  O   UNL A   1      31.393  23.272  27.544  1.00  0.00    -0.245 OA
BRANCH   6   8
ATOM      8  C   UNL A   1      30.610  24.544  25.600  1.00  0.00     0.323 C 
BRANCH   8   9
ATOM      9  N   UNL A   1      29.559  25.155  26.436  1.00  0.00    -0.342 N 
ATOM     10  H   UNL A   1      28.851  25.578  25.836  1.00  0.00     0.345 HD
ATOM     11  H   UNL A   1      29.973  25.873  27.031  1.00  0.00     0.345 HD
ATOM     12  H   UNL A   1      29.128  24.437  27.018  1.00  0.00     0.345 HD
ENDBRANCH   8   9
BRANCH   8  13
ATOM     13  C   UNL A   1      31.491  25.610  24.980  1.00  0.00     0.025 A 
ATOM     14  C   UNL A   1      31.585  25.713  23.586  1.00  0.00     0.051 A 
ATOM     15  C   UNL A   1      32.225  26.512  25.769  1.00  0.00     0.032 A 
ATOM     16  C   UNL A   1      32.433  26.657  23.007  1.00  0.00     0.143 A 
ATOM     17  C   UNL A   1      33.084  27.450  25.181  1.00  0.00     0.063 A 
ATOM     18  F   UNL A   1      32.512  26.699  21.668  1.00  0.00    -0.205 F 
ATOM     19  C   UNL A   1      33.196  27.522  23.790  1.00  0.00     0.095 A 
ATOM     20  Cl  UNL A   1      33.997  28.466  26.238  1.00  0.00    -0.083 Cl
ATOM     21  Cl  UNL A   1      34.259  28.636  23.006  1.00  0.00    -0.079 Cl
ENDBRANCH   8  13
ENDBRANCH   6   8
ENDBRANCH   5   6
ENDBRANCH   4   5
ENDBRANCH   3   4
ENDBRANCH   2   3
ENDBRANCH   1   2
BRANCH   1  22
ATOM     22  C   UNL A   1      36.890  20.437  25.170  1.00  0.00     0.261 C 
BRANCH  22  23
ATOM     23  O   UNL A   1      38.007  21.329  25.006  1.00  0.00    -0.460 OA
BRANCH  23  24
ATOM     24  C   UNL A   1      39.040  21.086  25.852  1.00  0.00     0.338 C 
ATOM     25  O   UNL A   1      39.676  20.045  25.954  1.00  0.00    -0.246 OA
BRANCH  24  26
ATOM     26  C   UNL A   1      39.449  22.316  26.550  1.00  0.00     0.060 A 
ATOM     27  C   UNL A   1      38.823  23.511  26.170  1.00  0.00     0.016 A 
ATOM     28  C   UNL A   1      40.506  22.326  27.461  1.00  0.00     0.016 A 
ATOM     29  C   UNL A   1      39.286  24.728  26.662  1.00  0.00     0.010 A 
ATOM     30  C   UNL A   1      40.977  23.552  27.946  1.00  0.00     0.010 A 
ATOM     31  C   UNL A   1      40.394  24.759  27.517  1.00  0.00    -0.014 A 
BRANCH  31  32
ATOM     32  C   UNL A   1      41.024  26.064  27.837  1.00  0.00     0.031 A 
ATOM     33  C   UNL A   1      42.437  26.327  27.392  1.00  0.00     0.074 A 
ATOM     34  C   UNL A   1      40.335  27.017  28.490  1.00  0.00     0.049 A 
ATOM     35  N   UNL A   1      43.169  27.399  27.553  1.00  0.00    -0.248 NA
ATOM     36  C   UNL A   1      43.115  25.238  26.668  1.00  0.00     0.031 C 
ATOM     37  C   UNL A   1      38.960  26.885  28.968  1.00  0.00     0.029 A 
ATOM     38  N   UNL A   1      40.710  28.278  28.880  1.00  0.00    -0.354 N 
ATOM     39  C   UNL A   1      44.397  27.110  26.969  1.00  0.00     0.074 A 
ATOM     40  C   UNL A   1      44.318  25.757  26.464  1.00  0.00     0.031 C 
ATOM     41  C   UNL A   1      38.615  28.012  29.615  1.00  0.00     0.029 A 
ATOM     42  C   UNL A   1      39.749  28.935  29.611  1.00  0.00     0.049 A 
ATOM     43  H   UNL A   1      41.583  28.674  28.660  1.00  0.00     0.167 HD
ATOM     44  C   UNL A   1      45.485  27.906  26.845  1.00  0.00     0.034 A 
ATOM     45  C   UNL A   1      39.786  30.138  30.219  1.00  0.00     0.034 A 
ATOM     46  C   UNL A   1      45.559  29.258  27.328  1.00  0.00     0.049 A 
ATOM     47  C   UNL A   1      41.017  30.995  30.088  1.00  0.00     0.074 A 
ATOM     48  C   UNL A   1      46.605  30.157  27.214  1.00  0.00     0.029 A 
ATOM     49  N   UNL A   1      44.551  29.905  28.026  1.00  0.00    -0.354 N 
ATOM     50  N   UNL A   1      42.123  30.754  29.426  1.00  0.00    -0.248 NA
ATOM     51  C   UNL A   1      40.992  32.304  30.757  1.00  0.00     0.031 C 
ATOM     52  C   UNL A   1      46.236  31.342  27.860  1.00  0.00     0.029 A 
ATOM     53  C   UNL A   1      44.952  31.187  28.360  1.00  0.00     0.049 A 
ATOM     54  H   UNL A   1      43.678  29.510  28.253  1.00  0.00     0.167 HD
ATOM     55  C   UNL A   1      42.910  31.892  29.571  1.00  0.00     0.074 A 
ATOM     56  C   UNL A   1      42.145  32.830  30.366  1.00  0.00     0.031 C 
ATOM     57  C   UNL A   1      44.161  32.132  29.103  1.00  0.00     0.034 A 
BRANCH  44  58
ATOM     58  C   UNL A   1      46.680  27.344  26.122  1.00  0.00     0.023 A 
ATOM     59  C   UNL A   1      46.777  27.493  24.723  1.00  0.00     0.012 A 
ATOM     60  C   UNL A   1      47.729  26.722  26.826  1.00  0.00     0.148 A 
ATOM     61  C   UNL A   1      47.886  27.007  24.033  1.00  0.00     0.002 A 
ATOM     62  C   UNL A   1      48.850  26.275  26.135  1.00  0.00     0.091 A 
ATOM     63  F   UNL A   1      47.606  26.567  28.151  1.00  0.00    -0.205 F 
ATOM     64  C   UNL A   1      48.925  26.408  24.739  1.00  0.00     0.022 A 
BRANCH  62  65
ATOM     65  S   UNL A   1      50.269  25.553  26.965  1.00  0.00     0.127 S 
ATOM     66  O   UNL A   1      51.190  25.348  25.848  1.00  0.00    -0.237 OA
ATOM     67  O   UNL A   1      50.662  26.617  27.890  1.00  0.00    -0.237 OA
ATOM     68  O   UNL A   1      49.782  24.341  27.609  1.00  0.00    -0.744 OA
ENDBRANCH  62  65
ENDBRANCH  44  58
BRANCH  45  69
ATOM     69  C   UNL A   1      38.599  30.616  30.984  1.00  0.00     0.023 A 
ATOM     70  C   UNL A   1      38.530  30.398  32.372  1.00  0.00     0.012 A 
ATOM     71  C   UNL A   1      37.552  31.306  30.344  1.00  0.00     0.148 A 
ATOM     72  C   UNL A   1      37.426  30.834  33.106  1.00  0.00     0.002 A 
ATOM     73  C   UNL A   1      36.483  31.787  31.088  1.00  0.00     0.091 A 
ATOM     74  F   UNL A   1      37.626  31.484  29.017  1.00  0.00    -0.205 F 
ATOM     75  C   UNL A   1      36.409  31.540  32.467  1.00  0.00     0.022 A 
BRANCH  73  76
ATOM     76  S   UNL A   1      35.203  32.821  30.366  1.00  0.00     0.127 S 
ATOM     77  O   UNL A   1      35.972  33.978  29.916  1.00  0.00    -0.237 OA
ATOM     78  O   UNL A   1      34.690  31.966  29.296  1.00  0.00    -0.237 OA
ATOM     79  O   UNL A   1      34.250  33.068  31.440  1.00  0.00    -0.744 OA
ENDBRANCH  73  76
ENDBRANCH  45  69
BRANCH  57  80
ATOM     80  C   UNL A   1      44.780  33.472  29.408  1.00  0.00     0.023 A 
ATOM     81  C   UNL A   1      45.573  33.627  30.562  1.00  0.00     0.012 A 
ATOM     82  C   UNL A   1      44.642  34.552  28.513  1.00  0.00     0.148 A 
ATOM     83  C   UNL A   1      46.197  34.844  30.835  1.00  0.00     0.002 A 
ATOM     84  C   UNL A   1      45.304  35.747  28.768  1.00  0.00     0.091 A 
ATOM     85  F   UNL A   1      43.868  34.391  27.431  1.00  0.00    -0.205 F 
ATOM     86  C   UNL A   1      46.073  35.899  29.933  1.00  0.00     0.022 A 
BRANCH  84  87
ATOM     87  S   UNL A   1      45.275  37.126  27.616  1.00  0.00     0.127 S 
ATOM     88  O   UNL A   1      46.058  36.599  26.501  1.00  0.00    -0.237 OA
ATOM     89  O   UNL A   1      43.844  37.273  27.341  1.00  0.00    -0.237 OA
ATOM     90  O   UNL A   1      45.869  38.251  28.325  1.00  0.00    -0.744 OA
ENDBRANCH  84  87
ENDBRANCH  57  80
ENDBRANCH  31  32
ENDBRANCH  24  26
ENDBRANCH  23  24
ENDBRANCH  22  23
ENDBRANCH   1  22
TORSDOF 19
ENDMDL
MODEL 2
REMARK VINA RESULT:     -10.8      2.079      2.720
REMARK SMILES [NH3+][C@H](C(=O)OCCOCCOC(=O)c1ccc(-c2c3nc(c(-c4cccc(S(=O)(=O)[O-])c4F)c4ccc([nH]4)c(-c4cccc(S(=O)(=O)[O-])c4F)c4nc(c(-c5cccc(S(=O)(=O)[O-])c5F)c5ccc2[nH]5)C=C4)C=C3)cc1)c1cc(F)c(Cl)c(Cl)c1
REMARK SMILES IDX 9 1 8 2 7 3 6 4 5 5 3 6 4 7 2 8 1 9 77 13 78 14 85 15 79 16
REMARK SMILES IDX 83 17 80 18 81 19 84 20 82 21 10 22 11 23 12 24 13 25 14 26
REMARK SMILES IDX 15 27 76 28 16 29 75 30 17 31 18 32 19 33 69 34 20 35 74 36
REMARK SMILES IDX 68 37 70 38 21 39 73 40 67 41 66 42 22 44 54 45 34 46 53 47
REMARK SMILES IDX 35 48 38 49 52 50 71 51 36 52 37 53 51 55 72 56 39 57 23 58
REMARK SMILES IDX 24 59 32 60 25 61 27 62 33 63 26 64 28 65 29 66 30 67 31 68
REMARK SMILES IDX 55 69 56 70 64 71 57 72 59 73 65 74 58 75 60 76 61 77 62 78
REMARK SMILES IDX 63 79 40 80 41 81 49 82 42 83 44 84 50 85 43 86 45 87 46 88
REMARK SMILES IDX 47 89 48 90
REMARK H PARENT 1 10 1 11 1 12 70 43 38 54
REMARK Flexibility Score: inf
ROOT
ATOM      1  C   UNL A   1      36.052  20.925  25.081  1.00  0.00     0.202 C 
ENDROOT
BRANCH   1   2
ATOM      2  O   UNL A   1      36.009  22.248  25.610  1.00  0.00    -0.374 OA
BRANCH   2   3
ATOM      3  C   UNL A   1      35.467  23.291  24.799  1.00  0.00     0.202 C 
BRANCH   3   4
ATOM      4  C   UNL A   1      34.435  24.208  25.459  1.00  0.00     0.261 C 
BRANCH   4   5
ATOM      5  O   UNL A   1      33.299  24.401  24.602  1.00  0.00    -0.459 OA
BRANCH   5   6
ATOM      6  C   UNL A   1      32.088  24.051  25.128  1.00  0.00     0.369 C 
ATOM      7  O   UNL A   1      31.040  24.657  24.930  1.00  0.00    -0.245 OA
BRANCH   6   8
ATOM      8  C   UNL A   1      32.172  22.710  25.898  1.00  0.00     0.323 C 
BRANCH   8   9
ATOM      9  N   UNL A   1      31.082  22.520  26.873  1.00  0.00    -0.342 N 
ATOM     10  H   UNL A   1      30.188  22.490  26.383  1.00  0.00     0.345 HD
ATOM     11  H   UNL A   1      31.080  23.296  27.536  1.00  0.00     0.345 HD
ATOM     12  H   UNL A   1      31.224  21.644  27.376  1.00  0.00     0.345 HD
ENDBRANCH   8   9
BRANCH   8  13
ATOM     13  C   UNL A   1      32.285  21.509  24.980  1.00  0.00     0.025 A 
ATOM     14  C   UNL A   1      32.123  21.672  23.597  1.00  0.00     0.051 A 
ATOM     15  C   UNL A   1      32.550  20.222  25.476  1.00  0.00     0.032 A 
ATOM     16  C   UNL A   1      32.173  20.565  22.750  1.00  0.00     0.143 A 
ATOM     17  C   UNL A   1      32.586  19.113  24.620  1.00  0.00     0.063 A 
ATOM     18  F   UNL A   1      31.984  20.766  21.436  1.00  0.00    -0.205 F 
ATOM     19  C   UNL A   1      32.391  19.281  23.247  1.00  0.00     0.095 A 
ATOM     20  Cl  UNL A   1      32.849  17.563  25.335  1.00  0.00    -0.083 Cl
ATOM     21  Cl  UNL A   1      32.396  17.951  22.144  1.00  0.00    -0.079 Cl
ENDBRANCH   8  13
ENDBRANCH   6   8
ENDBRANCH   5   6
ENDBRANCH   4   5
ENDBRANCH   3   4
ENDBRANCH   2   3
ENDBRANCH   1   2
BRANCH   1  22
ATOM     22  C   UNL A   1      37.418  20.234  24.996  1.00  0.00     0.261 C 
BRANCH  22  23
ATOM     23  O   UNL A   1      38.524  21.154  25.035  1.00  0.00    -0.460 OA
BRANCH  23  24
ATOM     24  C   UNL A   1      39.393  20.935  26.053  1.00  0.00     0.338 C 
ATOM     25  O   UNL A   1      39.944  19.878  26.334  1.00  0.00    -0.246 OA
BRANCH  24  26
ATOM     26  C   UNL A   1      39.756  22.198  26.717  1.00  0.00     0.060 A 
ATOM     27  C   UNL A   1      39.117  23.364  26.274  1.00  0.00     0.016 A 
ATOM     28  C   UNL A   1      40.785  22.263  27.657  1.00  0.00     0.016 A 
ATOM     29  C   UNL A   1      39.541  24.608  26.734  1.00  0.00     0.010 A 
ATOM     30  C   UNL A   1      41.216  23.516  28.111  1.00  0.00     0.010 A 
ATOM     31  C   UNL A   1      40.622  24.694  27.620  1.00  0.00    -0.014 A 
BRANCH  31  32
ATOM     32  C   UNL A   1      41.215  26.022  27.910  1.00  0.00     0.031 A 
ATOM     33  C   UNL A   1      42.622  26.313  27.462  1.00  0.00     0.074 A 
ATOM     34  C   UNL A   1      40.499  26.972  28.538  1.00  0.00     0.049 A 
ATOM     35  N   UNL A   1      43.324  27.408  27.598  1.00  0.00    -0.248 NA
ATOM     36  C   UNL A   1      43.331  25.225  26.766  1.00  0.00     0.031 C 
ATOM     37  C   UNL A   1      39.126  26.815  29.015  1.00  0.00     0.029 A 
ATOM     38  N   UNL A   1      40.838  28.252  28.898  1.00  0.00    -0.354 N 
ATOM     39  C   UNL A   1      44.561  27.138  27.025  1.00  0.00     0.074 A 
ATOM     40  C   UNL A   1      44.521  25.771  26.553  1.00  0.00     0.031 C 
ATOM     41  C   UNL A   1      38.749  27.947  29.633  1.00  0.00     0.029 A 
ATOM     42  C   UNL A   1      39.857  28.901  29.609  1.00  0.00     0.049 A 
ATOM     43  H   UNL A   1      41.701  28.666  28.670  1.00  0.00     0.167 HD
ATOM     44  C   UNL A   1      45.628  27.960  26.885  1.00  0.00     0.034 A 
ATOM     45  C   UNL A   1      39.859  30.119  30.188  1.00  0.00     0.034 A 
ATOM     46  C   UNL A   1      45.664  29.325  27.335  1.00  0.00     0.049 A 
ATOM     47  C   UNL A   1      41.068  31.006  30.039  1.00  0.00     0.074 A 
ATOM     48  C   UNL A   1      46.686  30.248  27.202  1.00  0.00     0.029 A 
ATOM     49  N   UNL A   1      44.637  29.961  28.014  1.00  0.00    -0.354 N 
ATOM     50  N   UNL A   1      42.182  30.779  29.386  1.00  0.00    -0.248 NA
ATOM     51  C   UNL A   1      41.005  32.329  30.676  1.00  0.00     0.031 C 
ATOM     52  C   UNL A   1      46.283  31.439  27.818  1.00  0.00     0.029 A 
ATOM     53  C   UNL A   1      45.002  31.262  28.317  1.00  0.00     0.049 A 
ATOM     54  H   UNL A   1      43.774  29.548  28.249  1.00  0.00     0.167 HD
ATOM     55  C   UNL A   1      42.938  31.941  29.506  1.00  0.00     0.074 A 
ATOM     56  C   UNL A   1      42.145  32.877  30.275  1.00  0.00     0.031 C 
ATOM     57  C   UNL A   1      44.183  32.203  29.035  1.00  0.00     0.034 A 
BRANCH  44  58
ATOM     58  C   UNL A   1      46.840  27.413  26.179  1.00  0.00     0.023 A 
ATOM     59  C   UNL A   1      46.977  27.604  24.788  1.00  0.00     0.012 A 
ATOM     60  C   UNL A   1      47.866  26.764  26.893  1.00  0.00     0.148 A 
ATOM     61  C   UNL A   1      48.103  27.132  24.115  1.00  0.00     0.002 A 
ATOM     62  C   UNL A   1      49.003  26.331  26.221  1.00  0.00     0.091 A 
ATOM     63  F   UNL A   1      47.705  26.570  28.209  1.00  0.00    -0.205 F 
ATOM     64  C   UNL A   1      49.119  26.506  24.832  1.00  0.00     0.022 A 
BRANCH  62  65
ATOM     65  S   UNL A   1      50.396  25.577  27.067  1.00  0.00     0.127 S 
ATOM     66  O   UNL A   1      49.788  24.364  27.611  1.00  0.00    -0.237 OA
ATOM     67  O   UNL A   1      51.338  25.348  25.971  1.00  0.00    -0.237 OA
ATOM     68  O   UNL A   1      50.841  26.553  28.053  1.00  0.00    -0.744 OA
ENDBRANCH  62  65
ENDBRANCH  44  58
BRANCH  45  69
ATOM     69  C   UNL A   1      38.658  30.583  30.938  1.00  0.00     0.023 A 
ATOM     70  C   UNL A   1      38.571  30.358  32.324  1.00  0.00     0.012 A 
ATOM     71  C   UNL A   1      37.614  31.267  30.286  1.00  0.00     0.148 A 
ATOM     72  C   UNL A   1      37.453  30.781  33.044  1.00  0.00     0.002 A 
ATOM     73  C   UNL A   1      36.530  31.736  31.017  1.00  0.00     0.091 A 
ATOM     74  F   UNL A   1      37.706  31.451  28.961  1.00  0.00    -0.205 F 
ATOM     75  C   UNL A   1      36.439  31.481  32.393  1.00  0.00     0.022 A 
BRANCH  73  76
ATOM     76  S   UNL A   1      35.252  32.761  30.281  1.00  0.00     0.127 S 
ATOM     77  O   UNL A   1      36.032  33.878  29.755  1.00  0.00    -0.237 OA
ATOM     78  O   UNL A   1      34.692  31.867  29.268  1.00  0.00    -0.237 OA
ATOM     79  O   UNL A   1      34.336  33.080  31.367  1.00  0.00    -0.744 OA
ENDBRANCH  73  76
ENDBRANCH  45  69
BRANCH  57  80
ATOM     80  C   UNL A   1      44.765  33.565  29.309  1.00  0.00     0.023 A 
ATOM     81  C   UNL A   1      45.447  33.802  30.519  1.00  0.00     0.012 A 
ATOM     82  C   UNL A   1      44.705  34.585  28.337  1.00  0.00     0.148 A 
ATOM     83  C   UNL A   1      46.037  35.041  30.769  1.00  0.00     0.002 A 
ATOM     84  C   UNL A   1      45.335  35.801  28.575  1.00  0.00     0.091 A 
ATOM     85  F   UNL A   1      44.035  34.347  27.201  1.00  0.00    -0.205 F 
ATOM     86  C   UNL A   1      45.992  36.035  29.793  1.00  0.00     0.022 A 
BRANCH  84  87
ATOM     87  S   UNL A   1      45.405  37.103  27.338  1.00  0.00     0.127 S 
ATOM     88  O   UNL A   1      43.988  37.366  27.101  1.00  0.00    -0.237 OA
ATOM     89  O   UNL A   1      46.113  38.170  28.049  1.00  0.00    -0.237 OA
ATOM     90  O   UNL A   1      46.139  36.543  26.211  1.00  0.00    -0.744 OA
ENDBRANCH  84  87
ENDBRANCH  57  80
ENDBRANCH  31  32
ENDBRANCH  24  26
ENDBRANCH  23  24
ENDBRANCH  22  23
ENDBRANCH   1  22
TORSDOF 19
ENDMDL
MODEL 3
REMARK VINA RESULT:     -10.8      5.002     10.221
REMARK SMILES [NH3+][C@H](C(=O)OCCOCCOC(=O)c1ccc(-c2c3nc(c(-c4cccc(S(=O)(=O)[O-])c4F)c4ccc([nH]4)c(-c4cccc(S(=O)(=O)[O-])c4F)c4nc(c(-c5cccc(S(=O)(=O)[O-])c5F)c5ccc2[nH]5)C=C4)C=C3)cc1)c1cc(F)c(Cl)c(Cl)c1
REMARK SMILES IDX 9 1 8 2 7 3 6 4 5 5 3 6 4 7 2 8 1 9 77 13 78 14 85 15 79 16
REMARK SMILES IDX 83 17 80 18 81 19 84 20 82 21 10 22 11 23 12 24 13 25 14 26
REMARK SMILES IDX 15 27 76 28 16 29 75 30 17 31 18 32 19 33 69 34 20 35 74 36
REMARK SMILES IDX 68 37 70 38 21 39 73 40 67 41 66 42 22 44 54 45 34 46 53 47
REMARK SMILES IDX 35 48 38 49 52 50 71 51 36 52 37 53 51 55 72 56 39 57 23 58
REMARK SMILES IDX 24 59 32 60 25 61 27 62 33 63 26 64 28 65 29 66 30 67 31 68
REMARK SMILES IDX 55 69 56 70 64 71 57 72 59 73 65 74 58 75 60 76 61 77 62 78
REMARK SMILES IDX 63 79 40 80 41 81 49 82 42 83 44 84 50 85 43 86 45 87 46 88
REMARK SMILES IDX 47 89 48 90
REMARK H PARENT 1 10 1 11 1 12 70 43 38 54
REMARK Flexibility Score: inf
ROOT
ATOM      1  C   UNL A   1      31.482  30.002  25.651  1.00  0.00     0.202 C 
ENDROOT
BRANCH   1   2
ATOM      2  O   UNL A   1      32.654  29.226  25.414  1.00  0.00    -0.374 OA
BRANCH   2   3
ATOM      3  C   UNL A   1      32.533  27.804  25.371  1.00  0.00     0.202 C 
BRANCH   3   4
ATOM      4  C   UNL A   1      31.395  27.186  26.187  1.00  0.00     0.261 C 
BRANCH   4   5
ATOM      5  O   UNL A   1      30.401  26.607  25.326  1.00  0.00    -0.459 OA
BRANCH   5   6
ATOM      6  C   UNL A   1      30.574  25.288  25.018  1.00  0.00     0.369 C 
ATOM      7  O   UNL A   1      30.555  24.829  23.881  1.00  0.00    -0.245 OA
BRANCH   6   8
ATOM      8  C   UNL A   1      30.936  24.456  26.273  1.00  0.00     0.323 C 
BRANCH   8   9
ATOM      9  N   UNL A   1      29.781  23.760  26.872  1.00  0.00    -0.342 N 
ATOM     10  H   UNL A   1      29.409  23.084  26.206  1.00  0.00     0.345 HD
ATOM     11  H   UNL A   1      29.058  24.440  27.106  1.00  0.00     0.345 HD
ATOM     12  H   UNL A   1      30.079  23.276  27.719  1.00  0.00     0.345 HD
ENDBRANCH   8   9
BRANCH   8  13
ATOM     13  C   UNL A   1      32.078  23.490  26.030  1.00  0.00     0.025 A 
ATOM     14  C   UNL A   1      33.402  23.929  26.157  1.00  0.00     0.051 A 
ATOM     15  C   UNL A   1      31.849  22.149  25.678  1.00  0.00     0.032 A 
ATOM     16  C   UNL A   1      34.459  23.062  25.884  1.00  0.00     0.143 A 
ATOM     17  C   UNL A   1      32.915  21.286  25.394  1.00  0.00     0.063 A 
ATOM     18  F   UNL A   1      35.711  23.536  25.992  1.00  0.00    -0.205 F 
ATOM     19  C   UNL A   1      34.232  21.744  25.492  1.00  0.00     0.095 A 
ATOM     20  Cl  UNL A   1      32.528  19.676  24.901  1.00  0.00    -0.083 Cl
ATOM     21  Cl  UNL A   1      35.588  20.737  25.127  1.00  0.00    -0.079 Cl
ENDBRANCH   8  13
ENDBRANCH   6   8
ENDBRANCH   5   6
ENDBRANCH   4   5
ENDBRANCH   3   4
ENDBRANCH   2   3
ENDBRANCH   1   2
BRANCH   1  22
ATOM     22  C   UNL A   1      31.664  31.404  26.247  1.00  0.00     0.261 C 
BRANCH  22  23
ATOM     23  O   UNL A   1      32.386  31.403  27.491  1.00  0.00    -0.460 OA
BRANCH  23  24
ATOM     24  C   UNL A   1      33.279  32.417  27.616  1.00  0.00     0.338 C 
ATOM     25  O   UNL A   1      33.035  33.617  27.603  1.00  0.00    -0.246 OA
BRANCH  24  26
ATOM     26  C   UNL A   1      34.616  31.902  27.953  1.00  0.00     0.060 A 
ATOM     27  C   UNL A   1      34.744  30.520  28.147  1.00  0.00     0.016 A 
ATOM     28  C   UNL A   1      35.691  32.758  28.201  1.00  0.00     0.016 A 
ATOM     29  C   UNL A   1      35.935  29.993  28.640  1.00  0.00     0.010 A 
ATOM     30  C   UNL A   1      36.884  32.226  28.705  1.00  0.00     0.010 A 
ATOM     31  C   UNL A   1      36.996  30.847  28.965  1.00  0.00    -0.014 A 
BRANCH  31  32
ATOM     32  C   UNL A   1      38.158  30.305  29.709  1.00  0.00     0.031 A 
ATOM     33  C   UNL A   1      38.407  30.766  31.120  1.00  0.00     0.074 A 
ATOM     34  C   UNL A   1      38.967  29.388  29.148  1.00  0.00     0.049 A 
ATOM     35  N   UNL A   1      39.352  30.410  31.952  1.00  0.00    -0.248 NA
ATOM     36  C   UNL A   1      37.466  31.759  31.666  1.00  0.00     0.031 C 
ATOM     37  C   UNL A   1      38.827  28.858  27.793  1.00  0.00     0.029 A 
ATOM     38  N   UNL A   1      40.079  28.757  29.646  1.00  0.00    -0.354 N 
ATOM     39  C   UNL A   1      39.132  31.146  33.111  1.00  0.00     0.074 A 
ATOM     40  C   UNL A   1      37.975  31.980  32.871  1.00  0.00     0.031 C 
ATOM     41  C   UNL A   1      39.835  28.001  27.556  1.00  0.00     0.029 A 
ATOM     42  C   UNL A   1      40.698  27.935  28.734  1.00  0.00     0.049 A 
ATOM     43  H   UNL A   1      40.402  28.880  30.567  1.00  0.00     0.167 HD
ATOM     44  C   UNL A   1      39.819  31.115  34.277  1.00  0.00     0.034 A 
ATOM     45  C   UNL A   1      41.839  27.224  28.834  1.00  0.00     0.034 A 
ATOM     46  C   UNL A   1      40.956  30.272  34.526  1.00  0.00     0.049 A 
ATOM     47  C   UNL A   1      42.599  27.225  30.135  1.00  0.00     0.074 A 
ATOM     48  C   UNL A   1      41.693  30.142  35.690  1.00  0.00     0.029 A 
ATOM     49  N   UNL A   1      41.530  29.423  33.593  1.00  0.00    -0.354 N 
ATOM     50  N   UNL A   1      42.307  27.831  31.260  1.00  0.00    -0.248 NA
ATOM     51  C   UNL A   1      43.826  26.417  30.191  1.00  0.00     0.031 C 
ATOM     52  C   UNL A   1      42.725  29.227  35.455  1.00  0.00     0.029 A 
ATOM     53  C   UNL A   1      42.619  28.772  34.150  1.00  0.00     0.049 A 
ATOM     54  H   UNL A   1      41.212  29.301  32.669  1.00  0.00     0.167 HD
ATOM     55  C   UNL A   1      43.293  27.452  32.166  1.00  0.00     0.074 A 
ATOM     56  C   UNL A   1      44.178  26.547  31.463  1.00  0.00     0.031 C 
ATOM     57  C   UNL A   1      43.460  27.831  33.457  1.00  0.00     0.034 A 
BRANCH  44  58
ATOM     58  C   UNL A   1      39.332  31.998  35.396  1.00  0.00     0.023 A 
ATOM     59  C   UNL A   1      38.406  31.487  36.328  1.00  0.00     0.012 A 
ATOM     60  C   UNL A   1      39.827  33.306  35.557  1.00  0.00     0.148 A 
ATOM     61  C   UNL A   1      37.959  32.274  37.389  1.00  0.00     0.002 A 
ATOM     62  C   UNL A   1      39.407  34.071  36.640  1.00  0.00     0.091 A 
ATOM     63  F   UNL A   1      40.686  33.782  34.646  1.00  0.00    -0.205 F 
ATOM     64  C   UNL A   1      38.467  33.560  37.550  1.00  0.00     0.022 A 
BRANCH  62  65
ATOM     65  S   UNL A   1      40.057  35.712  36.971  1.00  0.00     0.127 S 
ATOM     66  O   UNL A   1      41.491  35.447  37.071  1.00  0.00    -0.237 OA
ATOM     67  O   UNL A   1      39.656  36.451  35.773  1.00  0.00    -0.237 OA
ATOM     68  O   UNL A   1      39.413  36.157  38.199  1.00  0.00    -0.744 OA
ENDBRANCH  62  65
ENDBRANCH  44  58
BRANCH  45  69
ATOM     69  C   UNL A   1      42.316  26.423  27.671  1.00  0.00     0.023 A 
ATOM     70  C   UNL A   1      43.204  27.000  26.745  1.00  0.00     0.012 A 
ATOM     71  C   UNL A   1      41.910  25.087  27.495  1.00  0.00     0.148 A 
ATOM     72  C   UNL A   1      43.659  26.268  25.647  1.00  0.00     0.002 A 
ATOM     73  C   UNL A   1      42.410  24.346  26.431  1.00  0.00     0.091 A 
ATOM     74  F   UNL A   1      41.045  24.563  28.376  1.00  0.00    -0.205 F 
ATOM     75  C   UNL A   1      43.272  24.938  25.497  1.00  0.00     0.022 A 
BRANCH  73  76
ATOM     76  S   UNL A   1      42.070  22.592  26.245  1.00  0.00     0.127 S 
ATOM     77  O   UNL A   1      42.667  22.041  27.458  1.00  0.00    -0.237 OA
ATOM     78  O   UNL A   1      40.608  22.568  26.211  1.00  0.00    -0.237 OA
ATOM     79  O   UNL A   1      42.702  22.204  24.991  1.00  0.00    -0.744 OA
ENDBRANCH  73  76
ENDBRANCH  45  69
BRANCH  57  80
ATOM     80  C   UNL A   1      44.627  27.252  34.214  1.00  0.00     0.023 A 
ATOM     81  C   UNL A   1      45.860  27.933  34.224  1.00  0.00     0.012 A 
ATOM     82  C   UNL A   1      44.479  26.078  34.980  1.00  0.00     0.148 A 
ATOM     83  C   UNL A   1      46.937  27.440  34.961  1.00  0.00     0.002 A 
ATOM     84  C   UNL A   1      45.543  25.618  35.748  1.00  0.00     0.091 A 
ATOM     85  F   UNL A   1      43.304  25.433  34.944  1.00  0.00    -0.205 F 
ATOM     86  C   UNL A   1      46.775  26.291  35.732  1.00  0.00     0.022 A 
BRANCH  84  87
ATOM     87  S   UNL A   1      45.394  24.199  36.842  1.00  0.00     0.127 S 
ATOM     88  O   UNL A   1      46.763  24.058  37.334  1.00  0.00    -0.237 OA
ATOM     89  O   UNL A   1      44.433  24.674  37.839  1.00  0.00    -0.237 OA
ATOM     90  O   UNL A   1      44.909  23.105  36.012  1.00  0.00    -0.744 OA
ENDBRANCH  84  87
ENDBRANCH  57  80
ENDBRANCH  31  32
ENDBRANCH  24  26
ENDBRANCH  23  24
ENDBRANCH  22  23
ENDBRANCH   1  22
TORSDOF 19
ENDMDL
