MODEL 1
REMARK VINA RESULT:     -10.8      0.000      0.000
REMARK SMILES Cc1n[nH]c(C(=O)N2CCCC[C@H]2CCC(=O)OCCOCCOC(=O)c2ccc(-c3c4nc(c(-c5cccc(S(=O)(=O)[O-])c5F)c5ccc([nH]5)c(-c5cccc(S(=O)(=O)[O-])c5F)c5nc(c(-c6cccc(S(=O)(=O)[O-])c6F)c6ccc3[nH]6)C=C5)C=C4)cc2)n1
REMARK SMILES IDX 20 1 19 2 18 3 16 4 17 5 15 6 14 7 13 8 8 9 9 10 10 11 12 12
REMARK SMILES IDX 11 13 6 14 7 15 5 16 1 17 2 18 3 19 90 20 4 21 21 23 22 24
REMARK SMILES IDX 23 25 24 26 25 27 26 28 27 29 28 30 89 31 29 32 88 33 30 34
REMARK SMILES IDX 31 35 32 36 82 37 33 38 87 39 81 40 83 41 34 42 86 43 80 44
REMARK SMILES IDX 79 45 35 47 67 48 47 49 66 50 48 51 51 52 65 53 84 54 49 55
REMARK SMILES IDX 50 56 64 58 85 59 52 60 36 61 37 62 45 63 38 64 40 65 46 66
REMARK SMILES IDX 39 67 41 68 42 69 43 70 44 71 68 72 69 73 77 74 70 75 72 76
REMARK SMILES IDX 78 77 71 78 73 79 74 80 75 81 76 82 53 83 54 84 62 85 55 86
REMARK SMILES IDX 57 87 63 88 56 89 58 90 59 91 60 92 61 93
REMARK H PARENT 4 22 83 46 51 57
REMARK Flexibility Score: inf
ROOT
ATOM      1  C   UNL A   1      33.309  28.292  27.095  1.00  0.00     0.202 C 
ENDROOT
BRANCH   1   2
ATOM      2  C   UNL A   1      31.984  27.775  26.504  1.00  0.00     0.261 C 
BRANCH   2   3
ATOM      3  O   UNL A   1      32.147  26.720  25.524  1.00  0.00    -0.463 OA
BRANCH   3   4
ATOM      4  C   UNL A   1      33.129  26.809  24.598  1.00  0.00     0.305 C 
ATOM      5  O   UNL A   1      33.215  27.691  23.753  1.00  0.00    -0.252 OA
BRANCH   4   6
ATOM      6  C   UNL A   1      34.128  25.659  24.713  1.00  0.00     0.125 C 
BRANCH   6   7
ATOM      7  C   UNL A   1      33.722  24.330  24.048  1.00  0.00     0.037 C 
BRANCH   7   8
ATOM      8  C   UNL A   1      33.077  23.238  24.952  1.00  0.00     0.086 C 
ATOM      9  N   UNL A   1      33.284  21.879  24.390  1.00  0.00    -0.333 N 
ATOM     10  C   UNL A   1      34.638  21.351  24.506  1.00  0.00     0.120 C 
ATOM     11  C   UNL A   1      35.117  21.361  25.959  1.00  0.00     0.022 C 
ATOM     12  C   UNL A   1      33.545  23.247  26.417  1.00  0.00     0.025 C 
ATOM     13  C   UNL A   1      34.976  22.751  26.525  1.00  0.00     0.004 C 
BRANCH   9  14
ATOM     14  C   UNL A   1      32.304  20.899  24.663  1.00  0.00     0.291 C 
ATOM     15  O   UNL A   1      31.426  21.109  25.498  1.00  0.00    -0.265 OA
BRANCH  14  16
ATOM     16  C   UNL A   1      32.491  19.654  23.967  1.00  0.00     0.214 A 
ATOM     17  C   UNL A   1      33.957  16.498  23.398  1.00  0.00     0.092 C 
ATOM     18  C   UNL A   1      33.187  17.757  23.364  1.00  0.00     0.148 A 
ATOM     19  N   UNL A   1      32.459  18.151  22.307  1.00  0.00    -0.159 NA
ATOM     20  N   UNL A   1      33.155  18.616  24.428  1.00  0.00    -0.207 NA
ATOM     21  N   UNL A   1      32.090  19.380  22.698  1.00  0.00    -0.255 N 
ATOM     22  H   UNL A   1      31.587  20.010  22.131  1.00  0.00     0.192 HD
ENDBRANCH  14  16
ENDBRANCH   9  14
ENDBRANCH   7   8
ENDBRANCH   6   7
ENDBRANCH   4   6
ENDBRANCH   3   4
ENDBRANCH   2   3
ENDBRANCH   1   2
BRANCH   1  23
ATOM     23  O   UNL A   1      33.644  29.601  26.632  1.00  0.00    -0.374 OA
BRANCH  23  24
ATOM     24  C   UNL A   1      32.652  30.594  26.865  1.00  0.00     0.202 C 
BRANCH  24  25
ATOM     25  C   UNL A   1      33.231  31.915  27.350  1.00  0.00     0.261 C 
BRANCH  25  26
ATOM     26  O   UNL A   1      34.621  31.776  27.640  1.00  0.00    -0.460 OA
BRANCH  26  27
ATOM     27  C   UNL A   1      35.060  32.098  28.886  1.00  0.00     0.338 C 
ATOM     28  O   UNL A   1      34.526  32.823  29.691  1.00  0.00    -0.246 OA
BRANCH  27  29
ATOM     29  C   UNL A   1      36.351  31.387  29.053  1.00  0.00     0.060 A 
ATOM     30  C   UNL A   1      37.552  32.070  29.257  1.00  0.00     0.016 A 
ATOM     31  C   UNL A   1      36.318  29.987  29.084  1.00  0.00     0.016 A 
ATOM     32  C   UNL A   1      38.720  31.327  29.454  1.00  0.00     0.010 A 
ATOM     33  C   UNL A   1      37.437  29.277  29.437  1.00  0.00     0.010 A 
ATOM     34  C   UNL A   1      38.658  29.924  29.509  1.00  0.00    -0.014 A 
BRANCH  34  35
ATOM     35  C   UNL A   1      39.852  29.092  29.633  1.00  0.00     0.031 A 
ATOM     36  C   UNL A   1      40.324  28.858  31.022  1.00  0.00     0.074 A 
ATOM     37  C   UNL A   1      40.430  28.492  28.562  1.00  0.00     0.049 A 
ATOM     38  N   UNL A   1      41.349  29.405  31.588  1.00  0.00    -0.248 NA
ATOM     39  C   UNL A   1      39.500  28.053  31.935  1.00  0.00     0.031 C 
ATOM     40  C   UNL A   1      39.935  28.403  27.177  1.00  0.00     0.029 A 
ATOM     41  N   UNL A   1      41.556  27.730  28.505  1.00  0.00    -0.354 N 
ATOM     42  C   UNL A   1      41.455  28.805  32.841  1.00  0.00     0.074 A 
ATOM     43  C   UNL A   1      40.197  28.145  33.072  1.00  0.00     0.031 C 
ATOM     44  C   UNL A   1      40.599  27.433  26.510  1.00  0.00     0.029 A 
ATOM     45  C   UNL A   1      41.697  26.984  27.337  1.00  0.00     0.049 A 
ATOM     46  H   UNL A   1      42.219  27.708  29.232  1.00  0.00     0.167 HD
ATOM     47  C   UNL A   1      42.664  28.697  33.462  1.00  0.00     0.034 A 
ATOM     48  C   UNL A   1      42.651  26.061  27.059  1.00  0.00     0.034 A 
ATOM     49  C   UNL A   1      43.648  29.545  32.834  1.00  0.00     0.049 A 
ATOM     50  C   UNL A   1      43.797  26.362  27.943  1.00  0.00     0.074 A 
ATOM     51  C   UNL A   1      43.765  30.900  32.599  1.00  0.00     0.029 A 
ATOM     52  N   UNL A   1      44.518  28.935  31.963  1.00  0.00    -0.354 N 
ATOM     53  N   UNL A   1      44.499  27.455  27.849  1.00  0.00    -0.248 NA
ATOM     54  C   UNL A   1      43.860  25.673  29.218  1.00  0.00     0.031 C 
ATOM     55  C   UNL A   1      44.307  30.994  31.283  1.00  0.00     0.029 A 
ATOM     56  C   UNL A   1      44.579  29.702  30.830  1.00  0.00     0.049 A 
ATOM     57  H   UNL A   1      45.009  28.096  32.124  1.00  0.00     0.167 HD
ATOM     58  C   UNL A   1      44.688  27.844  29.168  1.00  0.00     0.074 A 
ATOM     59  C   UNL A   1      44.362  26.659  29.964  1.00  0.00     0.031 C 
ATOM     60  C   UNL A   1      44.803  29.162  29.506  1.00  0.00     0.034 A 
BRANCH  47  61
ATOM     61  C   UNL A   1      43.081  27.574  34.384  1.00  0.00     0.023 A 
ATOM     62  C   UNL A   1      43.299  27.896  35.744  1.00  0.00     0.012 A 
ATOM     63  C   UNL A   1      43.531  26.306  33.948  1.00  0.00     0.148 A 
ATOM     64  C   UNL A   1      43.972  27.025  36.610  1.00  0.00     0.002 A 
ATOM     65  C   UNL A   1      44.133  25.415  34.830  1.00  0.00     0.091 A 
ATOM     66  F   UNL A   1      43.505  26.000  32.649  1.00  0.00    -0.205 F 
ATOM     67  C   UNL A   1      44.384  25.781  36.154  1.00  0.00     0.022 A 
BRANCH  65  68
ATOM     68  S   UNL A   1      44.647  23.771  34.314  1.00  0.00     0.127 S 
ATOM     69  O   UNL A   1      45.064  23.184  35.585  1.00  0.00    -0.237 OA
ATOM     70  O   UNL A   1      43.404  23.232  33.762  1.00  0.00    -0.237 OA
ATOM     71  O   UNL A   1      45.697  23.981  33.328  1.00  0.00    -0.744 OA
ENDBRANCH  65  68
ENDBRANCH  47  61
BRANCH  48  72
ATOM     72  C   UNL A   1      42.562  24.789  26.304  1.00  0.00     0.023 A 
ATOM     73  C   UNL A   1      43.611  24.408  25.442  1.00  0.00     0.012 A 
ATOM     74  C   UNL A   1      41.611  23.809  26.669  1.00  0.00     0.148 A 
ATOM     75  C   UNL A   1      43.736  23.086  24.995  1.00  0.00     0.002 A 
ATOM     76  C   UNL A   1      41.740  22.496  26.225  1.00  0.00     0.091 A 
ATOM     77  F   UNL A   1      40.637  24.147  27.525  1.00  0.00    -0.205 F 
ATOM     78  C   UNL A   1      42.810  22.128  25.397  1.00  0.00     0.022 A 
BRANCH  76  79
ATOM     79  S   UNL A   1      40.607  21.191  26.726  1.00  0.00     0.127 S 
ATOM     80  O   UNL A   1      41.187  20.020  26.067  1.00  0.00    -0.237 OA
ATOM     81  O   UNL A   1      40.750  21.207  28.179  1.00  0.00    -0.237 OA
ATOM     82  O   UNL A   1      39.300  21.580  26.212  1.00  0.00    -0.744 OA
ENDBRANCH  76  79
ENDBRANCH  48  72
BRANCH  60  83
ATOM     83  C   UNL A   1      44.967  30.170  28.394  1.00  0.00     0.023 A 
ATOM     84  C   UNL A   1      43.877  30.813  27.768  1.00  0.00     0.012 A 
ATOM     85  C   UNL A   1      46.269  30.608  28.101  1.00  0.00     0.148 A 
ATOM     86  C   UNL A   1      44.086  31.858  26.860  1.00  0.00     0.002 A 
ATOM     87  C   UNL A   1      46.470  31.677  27.237  1.00  0.00     0.091 A 
ATOM     88  F   UNL A   1      47.292  29.986  28.703  1.00  0.00    -0.205 F 
ATOM     89  C   UNL A   1      45.383  32.300  26.606  1.00  0.00     0.022 A 
BRANCH  87  90
ATOM     90  S   UNL A   1      48.104  32.366  26.974  1.00  0.00     0.127 S 
ATOM     91  O   UNL A   1      48.864  31.195  26.541  1.00  0.00    -0.237 OA
ATOM     92  O   UNL A   1      47.860  33.360  25.927  1.00  0.00    -0.237 OA
ATOM     93  O   UNL A   1      48.512  32.938  28.253  1.00  0.00    -0.744 OA
ENDBRANCH  87  90
ENDBRANCH  60  83
ENDBRANCH  34  35
ENDBRANCH  27  29
ENDBRANCH  26  27
ENDBRANCH  25  26
ENDBRANCH  24  25
ENDBRANCH  23  24
ENDBRANCH   1  23
TORSDOF 21
ENDMDL
MODEL 2
REMARK VINA RESULT:     -10.6      3.718      9.116
REMARK SMILES Cc1n[nH]c(C(=O)N2CCCC[C@H]2CCC(=O)OCCOCCOC(=O)c2ccc(-c3c4nc(c(-c5cccc(S(=O)(=O)[O-])c5F)c5ccc([nH]5)c(-c5cccc(S(=O)(=O)[O-])c5F)c5nc(c(-c6cccc(S(=O)(=O)[O-])c6F)c6ccc3[nH]6)C=C5)C=C4)cc2)n1
REMARK SMILES IDX 20 1 19 2 18 3 16 4 17 5 15 6 14 7 13 8 8 9 9 10 10 11 12 12
REMARK SMILES IDX 11 13 6 14 7 15 5 16 1 17 2 18 3 19 90 20 4 21 21 23 22 24
REMARK SMILES IDX 23 25 24 26 25 27 26 28 27 29 28 30 89 31 29 32 88 33 30 34
REMARK SMILES IDX 31 35 32 36 82 37 33 38 87 39 81 40 83 41 34 42 86 43 80 44
REMARK SMILES IDX 79 45 35 47 67 48 47 49 66 50 48 51 51 52 65 53 84 54 49 55
REMARK SMILES IDX 50 56 64 58 85 59 52 60 36 61 37 62 45 63 38 64 40 65 46 66
REMARK SMILES IDX 39 67 41 68 42 69 43 70 44 71 68 72 69 73 77 74 70 75 72 76
REMARK SMILES IDX 78 77 71 78 73 79 74 80 75 81 76 82 53 83 54 84 62 85 55 86
REMARK SMILES IDX 57 87 63 88 56 89 58 90 59 91 60 92 61 93
REMARK H PARENT 4 22 83 46 51 57
REMARK Flexibility Score: inf
ROOT
ATOM      1  C   UNL A   1      35.486  20.861  25.320  1.00  0.00     0.202 C 
ENDROOT
BRANCH   1   2
ATOM      2  C   UNL A   1      34.119  20.837  24.612  1.00  0.00     0.261 C 
BRANCH   2   3
ATOM      3  O   UNL A   1      33.403  22.095  24.669  1.00  0.00    -0.463 OA
BRANCH   3   4
ATOM      4  C   UNL A   1      33.301  22.862  23.559  1.00  0.00     0.305 C 
ATOM      5  O   UNL A   1      34.208  23.060  22.761  1.00  0.00    -0.252 OA
BRANCH   4   6
ATOM      6  C   UNL A   1      31.909  23.476  23.416  1.00  0.00     0.125 C 
BRANCH   6   7
ATOM      7  C   UNL A   1      31.647  24.770  24.209  1.00  0.00     0.037 C 
BRANCH   7   8
ATOM      8  C   UNL A   1      32.427  26.049  23.783  1.00  0.00     0.086 C 
ATOM      9  N   UNL A   1      31.641  27.279  24.061  1.00  0.00    -0.333 N 
ATOM     10  C   UNL A   1      31.542  27.657  25.465  1.00  0.00     0.120 C 
ATOM     11  C   UNL A   1      32.925  27.803  26.102  1.00  0.00     0.022 C 
ATOM     12  C   UNL A   1      33.822  26.199  24.410  1.00  0.00     0.025 C 
ATOM     13  C   UNL A   1      33.713  26.535  25.886  1.00  0.00     0.004 C 
BRANCH   9  14
ATOM     14  C   UNL A   1      31.851  28.395  23.220  1.00  0.00     0.291 C 
ATOM     15  O   UNL A   1      32.978  28.667  22.812  1.00  0.00    -0.265 OA
BRANCH  14  16
ATOM     16  C   UNL A   1      30.679  29.196  22.985  1.00  0.00     0.214 A 
ATOM     17  C   UNL A   1      28.091  30.580  21.030  1.00  0.00     0.092 C 
ATOM     18  C   UNL A   1      29.050  30.183  22.080  1.00  0.00     0.148 A 
ATOM     19  N   UNL A   1      29.132  30.789  23.275  1.00  0.00    -0.159 NA
ATOM     20  N   UNL A   1      29.926  29.147  21.907  1.00  0.00    -0.207 NA
ATOM     21  N   UNL A   1      30.212  30.186  23.792  1.00  0.00    -0.255 N 
ATOM     22  H   UNL A   1      30.620  30.430  24.655  1.00  0.00     0.192 HD
ENDBRANCH  14  16
ENDBRANCH   9  14
ENDBRANCH   7   8
ENDBRANCH   6   7
ENDBRANCH   4   6
ENDBRANCH   3   4
ENDBRANCH   2   3
ENDBRANCH   1   2
BRANCH   1  23
ATOM     23  O   UNL A   1      36.545  21.281  24.458  1.00  0.00    -0.374 OA
BRANCH  23  24
ATOM     24  C   UNL A   1      37.521  22.118  25.068  1.00  0.00     0.202 C 
BRANCH  24  25
ATOM     25  C   UNL A   1      38.750  21.357  25.541  1.00  0.00     0.261 C 
BRANCH  25  26
ATOM     26  O   UNL A   1      39.368  22.031  26.636  1.00  0.00    -0.460 OA
BRANCH  26  27
ATOM     27  C   UNL A   1      40.690  22.333  26.550  1.00  0.00     0.338 C 
ATOM     28  O   UNL A   1      41.574  21.649  26.093  1.00  0.00    -0.246 OA
BRANCH  27  29
ATOM     29  C   UNL A   1      40.835  23.679  27.155  1.00  0.00     0.060 A 
ATOM     30  C   UNL A   1      41.913  24.011  27.979  1.00  0.00     0.016 A 
ATOM     31  C   UNL A   1      39.888  24.650  26.805  1.00  0.00     0.016 A 
ATOM     32  C   UNL A   1      42.004  25.316  28.472  1.00  0.00     0.010 A 
ATOM     33  C   UNL A   1      40.075  25.961  27.163  1.00  0.00     0.010 A 
ATOM     34  C   UNL A   1      41.057  26.279  28.084  1.00  0.00    -0.014 A 
BRANCH  34  35
ATOM     35  C   UNL A   1      41.054  27.635  28.627  1.00  0.00     0.031 A 
ATOM     36  C   UNL A   1      42.074  28.552  28.058  1.00  0.00     0.074 A 
ATOM     37  C   UNL A   1      40.118  28.056  29.514  1.00  0.00     0.049 A 
ATOM     38  N   UNL A   1      43.163  28.943  28.635  1.00  0.00    -0.248 NA
ATOM     39  C   UNL A   1      41.965  28.967  26.652  1.00  0.00     0.031 C 
ATOM     40  C   UNL A   1      38.897  27.365  29.965  1.00  0.00     0.029 A 
ATOM     41  N   UNL A   1      40.003  29.260  30.139  1.00  0.00    -0.354 N 
ATOM     42  C   UNL A   1      43.740  29.868  27.768  1.00  0.00     0.074 A 
ATOM     43  C   UNL A   1      43.078  29.691  26.502  1.00  0.00     0.031 C 
ATOM     44  C   UNL A   1      38.058  28.244  30.556  1.00  0.00     0.029 A 
ATOM     45  C   UNL A   1      38.759  29.499  30.721  1.00  0.00     0.049 A 
ATOM     46  H   UNL A   1      40.740  29.911  30.177  1.00  0.00     0.167 HD
ATOM     47  C   UNL A   1      44.536  30.867  28.244  1.00  0.00     0.034 A 
ATOM     48  C   UNL A   1      38.329  30.645  31.304  1.00  0.00     0.034 A 
ATOM     49  C   UNL A   1      44.932  30.612  29.607  1.00  0.00     0.049 A 
ATOM     50  C   UNL A   1      39.539  31.395  31.700  1.00  0.00     0.074 A 
ATOM     51  C   UNL A   1      45.620  29.605  30.254  1.00  0.00     0.029 A 
ATOM     52  N   UNL A   1      44.234  31.279  30.584  1.00  0.00    -0.354 N 
ATOM     53  N   UNL A   1      40.372  30.973  32.608  1.00  0.00    -0.248 NA
ATOM     54  C   UNL A   1      40.064  32.368  30.760  1.00  0.00     0.031 C 
ATOM     55  C   UNL A   1      44.914  29.412  31.478  1.00  0.00     0.029 A 
ATOM     56  C   UNL A   1      43.901  30.370  31.553  1.00  0.00     0.049 A 
ATOM     57  H   UNL A   1      44.012  32.239  30.587  1.00  0.00     0.167 HD
ATOM     58  C   UNL A   1      41.621  31.241  32.067  1.00  0.00     0.074 A 
ATOM     59  C   UNL A   1      41.368  32.189  30.980  1.00  0.00     0.031 C 
ATOM     60  C   UNL A   1      42.699  30.453  32.354  1.00  0.00     0.034 A 
BRANCH  47  61
ATOM     61  C   UNL A   1      44.666  32.249  27.643  1.00  0.00     0.023 A 
ATOM     62  C   UNL A   1      45.830  32.524  26.887  1.00  0.00     0.012 A 
ATOM     63  C   UNL A   1      43.862  33.356  28.001  1.00  0.00     0.148 A 
ATOM     64  C   UNL A   1      46.200  33.831  26.551  1.00  0.00     0.002 A 
ATOM     65  C   UNL A   1      44.194  34.646  27.600  1.00  0.00     0.091 A 
ATOM     66  F   UNL A   1      42.841  33.192  28.846  1.00  0.00    -0.205 F 
ATOM     67  C   UNL A   1      45.378  34.893  26.902  1.00  0.00     0.022 A 
BRANCH  65  68
ATOM     68  S   UNL A   1      43.149  36.057  27.982  1.00  0.00     0.127 S 
ATOM     69  O   UNL A   1      43.985  37.169  27.537  1.00  0.00    -0.237 OA
ATOM     70  O   UNL A   1      41.977  35.792  27.148  1.00  0.00    -0.237 OA
ATOM     71  O   UNL A   1      42.894  35.979  29.414  1.00  0.00    -0.744 OA
ENDBRANCH  65  68
ENDBRANCH  47  61
BRANCH  48  72
ATOM     72  C   UNL A   1      36.987  31.274  31.303  1.00  0.00     0.023 A 
ATOM     73  C   UNL A   1      36.463  31.813  32.497  1.00  0.00     0.012 A 
ATOM     74  C   UNL A   1      36.367  31.629  30.084  1.00  0.00     0.148 A 
ATOM     75  C   UNL A   1      35.387  32.710  32.474  1.00  0.00     0.002 A 
ATOM     76  C   UNL A   1      35.300  32.523  30.065  1.00  0.00     0.091 A 
ATOM     77  F   UNL A   1      36.885  31.161  28.941  1.00  0.00    -0.205 F 
ATOM     78  C   UNL A   1      34.815  33.077  31.259  1.00  0.00     0.022 A 
BRANCH  76  79
ATOM     79  S   UNL A   1      34.527  33.073  28.536  1.00  0.00     0.127 S 
ATOM     80  O   UNL A   1      33.628  31.958  28.236  1.00  0.00    -0.237 OA
ATOM     81  O   UNL A   1      33.858  34.300  28.959  1.00  0.00    -0.237 OA
ATOM     82  O   UNL A   1      35.613  33.240  27.579  1.00  0.00    -0.744 OA
ENDBRANCH  76  79
ENDBRANCH  48  72
BRANCH  60  83
ATOM     83  C   UNL A   1      42.562  29.434  33.459  1.00  0.00     0.023 A 
ATOM     84  C   UNL A   1      41.941  28.179  33.279  1.00  0.00     0.012 A 
ATOM     85  C   UNL A   1      43.240  29.687  34.662  1.00  0.00     0.148 A 
ATOM     86  C   UNL A   1      41.985  27.206  34.286  1.00  0.00     0.002 A 
ATOM     87  C   UNL A   1      43.324  28.702  35.639  1.00  0.00     0.091 A 
ATOM     88  F   UNL A   1      43.824  30.884  34.817  1.00  0.00    -0.205 F 
ATOM     89  C   UNL A   1      42.690  27.464  35.459  1.00  0.00     0.022 A 
BRANCH  87  90
ATOM     90  S   UNL A   1      44.323  28.932  37.110  1.00  0.00     0.127 S 
ATOM     91  O   UNL A   1      44.146  27.657  37.802  1.00  0.00    -0.237 OA
ATOM     92  O   UNL A   1      45.659  29.145  36.551  1.00  0.00    -0.237 OA
ATOM     93  O   UNL A   1      43.772  30.097  37.794  1.00  0.00    -0.744 OA
ENDBRANCH  87  90
ENDBRANCH  60  83
ENDBRANCH  34  35
ENDBRANCH  27  29
ENDBRANCH  26  27
ENDBRANCH  25  26
ENDBRANCH  24  25
ENDBRANCH  23  24
ENDBRANCH   1  23
TORSDOF 21
ENDMDL
MODEL 3
REMARK VINA RESULT:     -10.5      1.591      2.596
REMARK SMILES Cc1n[nH]c(C(=O)N2CCCC[C@H]2CCC(=O)OCCOCCOC(=O)c2ccc(-c3c4nc(c(-c5cccc(S(=O)(=O)[O-])c5F)c5ccc([nH]5)c(-c5cccc(S(=O)(=O)[O-])c5F)c5nc(c(-c6cccc(S(=O)(=O)[O-])c6F)c6ccc3[nH]6)C=C5)C=C4)cc2)n1
REMARK SMILES IDX 20 1 19 2 18 3 16 4 17 5 15 6 14 7 13 8 8 9 9 10 10 11 12 12
REMARK SMILES IDX 11 13 6 14 7 15 5 16 1 17 2 18 3 19 90 20 4 21 21 23 22 24
REMARK SMILES IDX 23 25 24 26 25 27 26 28 27 29 28 30 89 31 29 32 88 33 30 34
REMARK SMILES IDX 31 35 32 36 82 37 33 38 87 39 81 40 83 41 34 42 86 43 80 44
REMARK SMILES IDX 79 45 35 47 67 48 47 49 66 50 48 51 51 52 65 53 84 54 49 55
REMARK SMILES IDX 50 56 64 58 85 59 52 60 36 61 37 62 45 63 38 64 40 65 46 66
REMARK SMILES IDX 39 67 41 68 42 69 43 70 44 71 68 72 69 73 77 74 70 75 72 76
REMARK SMILES IDX 78 77 71 78 73 79 74 80 75 81 76 82 53 83 54 84 62 85 55 86
REMARK SMILES IDX 57 87 63 88 56 89 58 90 59 91 60 92 61 93
REMARK H PARENT 4 22 83 46 51 57
REMARK Flexibility Score: inf
ROOT
ATOM      1  C   UNL A   1      31.879  28.091  25.037  1.00  0.00     0.202 C 
ENDROOT
BRANCH   1   2
ATOM      2  C   UNL A   1      30.667  27.172  25.279  1.00  0.00     0.261 C 
BRANCH   2   3
ATOM      3  O   UNL A   1      30.791  26.328  26.450  1.00  0.00    -0.463 OA
BRANCH   3   4
ATOM      4  C   UNL A   1      31.044  25.007  26.303  1.00  0.00     0.305 C 
ATOM      5  O   UNL A   1      31.373  24.254  27.211  1.00  0.00    -0.252 OA
BRANCH   4   6
ATOM      6  C   UNL A   1      30.887  24.553  24.853  1.00  0.00     0.125 C 
BRANCH   6   7
ATOM      7  C   UNL A   1      31.149  23.062  24.570  1.00  0.00     0.037 C 
BRANCH   7   8
ATOM      8  C   UNL A   1      32.366  22.701  23.667  1.00  0.00     0.086 C 
ATOM      9  N   UNL A   1      33.636  22.723  24.436  1.00  0.00    -0.333 N 
ATOM     10  C   UNL A   1      33.832  21.611  25.358  1.00  0.00     0.120 C 
ATOM     11  C   UNL A   1      33.716  20.265  24.640  1.00  0.00     0.022 C 
ATOM     12  C   UNL A   1      32.253  21.355  22.933  1.00  0.00     0.025 C 
ATOM     13  C   UNL A   1      32.399  20.199  23.908  1.00  0.00     0.004 C 
BRANCH   9  14
ATOM     14  C   UNL A   1      34.819  23.055  23.739  1.00  0.00     0.291 C 
ATOM     15  O   UNL A   1      34.783  23.327  22.540  1.00  0.00    -0.265 OA
BRANCH  14  16
ATOM     16  C   UNL A   1      36.023  22.948  24.519  1.00  0.00     0.214 A 
ATOM     17  C   UNL A   1      38.587  24.146  26.623  1.00  0.00     0.092 C 
ATOM     18  C   UNL A   1      37.685  23.374  25.746  1.00  0.00     0.148 A 
ATOM     19  N   UNL A   1      37.995  22.170  25.241  1.00  0.00    -0.159 NA
ATOM     20  N   UNL A   1      36.447  23.837  25.391  1.00  0.00    -0.207 NA
ATOM     21  N   UNL A   1      36.955  21.963  24.420  1.00  0.00    -0.255 N 
ATOM     22  H   UNL A   1      36.875  21.188  23.817  1.00  0.00     0.192 HD
ENDBRANCH  14  16
ENDBRANCH   9  14
ENDBRANCH   7   8
ENDBRANCH   6   7
ENDBRANCH   4   6
ENDBRANCH   3   4
ENDBRANCH   2   3
ENDBRANCH   1   2
BRANCH   1  23
ATOM     23  O   UNL A   1      31.910  29.207  25.927  1.00  0.00    -0.374 OA
BRANCH  23  24
ATOM     24  C   UNL A   1      33.205  29.741  26.179  1.00  0.00     0.202 C 
BRANCH  24  25
ATOM     25  C   UNL A   1      33.211  30.809  27.261  1.00  0.00     0.261 C 
BRANCH  25  26
ATOM     26  O   UNL A   1      34.444  31.527  27.251  1.00  0.00    -0.460 OA
BRANCH  26  27
ATOM     27  C   UNL A   1      34.960  31.948  28.436  1.00  0.00     0.338 C 
ATOM     28  O   UNL A   1      34.531  32.815  29.160  1.00  0.00    -0.246 OA
BRANCH  27  29
ATOM     29  C   UNL A   1      36.181  31.136  28.654  1.00  0.00     0.060 A 
ATOM     30  C   UNL A   1      36.253  29.791  28.283  1.00  0.00     0.016 A 
ATOM     31  C   UNL A   1      37.307  31.788  29.173  1.00  0.00     0.016 A 
ATOM     32  C   UNL A   1      37.456  29.106  28.477  1.00  0.00     0.010 A 
ATOM     33  C   UNL A   1      38.520  31.151  29.209  1.00  0.00     0.010 A 
ATOM     34  C   UNL A   1      38.580  29.789  28.974  1.00  0.00    -0.014 A 
BRANCH  34  35
ATOM     35  C   UNL A   1      39.839  29.111  29.272  1.00  0.00     0.031 A 
ATOM     36  C   UNL A   1      40.078  28.813  30.708  1.00  0.00     0.074 A 
ATOM     37  C   UNL A   1      40.682  28.691  28.297  1.00  0.00     0.049 A 
ATOM     38  N   UNL A   1      40.893  29.433  31.496  1.00  0.00    -0.248 NA
ATOM     39  C   UNL A   1      39.226  27.827  31.389  1.00  0.00     0.031 C 
ATOM     40  C   UNL A   1      40.467  28.666  26.838  1.00  0.00     0.029 A 
ATOM     41  N   UNL A   1      41.899  28.090  28.409  1.00  0.00    -0.354 N 
ATOM     42  C   UNL A   1      40.854  28.740  32.704  1.00  0.00     0.074 A 
ATOM     43  C   UNL A   1      39.683  27.904  32.643  1.00  0.00     0.031 C 
ATOM     44  C   UNL A   1      41.375  27.856  26.250  1.00  0.00     0.029 A 
ATOM     45  C   UNL A   1      42.356  27.478  27.243  1.00  0.00     0.049 A 
ATOM     46  H   UNL A   1      42.413  28.087  29.247  1.00  0.00     0.167 HD
ATOM     47  C   UNL A   1      41.931  28.733  33.538  1.00  0.00     0.034 A 
ATOM     48  C   UNL A   1      43.469  26.716  27.095  1.00  0.00     0.034 A 
ATOM     49  C   UNL A   1      42.881  29.754  33.170  1.00  0.00     0.049 A 
ATOM     50  C   UNL A   1      44.378  27.080  28.202  1.00  0.00     0.074 A 
ATOM     51  C   UNL A   1      42.842  31.129  33.052  1.00  0.00     0.029 A 
ATOM     52  N   UNL A   1      43.973  29.344  32.445  1.00  0.00    -0.354 N 
ATOM     53  N   UNL A   1      44.920  28.259  28.318  1.00  0.00    -0.248 NA
ATOM     54  C   UNL A   1      44.306  26.290  29.417  1.00  0.00     0.031 C 
ATOM     55  C   UNL A   1      43.596  31.413  31.874  1.00  0.00     0.029 A 
ATOM     56  C   UNL A   1      44.130  30.213  31.399  1.00  0.00     0.049 A 
ATOM     57  H   UNL A   1      44.543  28.565  32.643  1.00  0.00     0.167 HD
ATOM     58  C   UNL A   1      44.807  28.546  29.671  1.00  0.00     0.074 A 
ATOM     59  C   UNL A   1      44.515  27.261  30.310  1.00  0.00     0.031 C 
ATOM     60  C   UNL A   1      44.667  29.831  30.111  1.00  0.00     0.034 A 
BRANCH  47  61
ATOM     61  C   UNL A   1      42.330  27.593  34.448  1.00  0.00     0.023 A 
ATOM     62  C   UNL A   1      42.241  27.811  35.843  1.00  0.00     0.012 A 
ATOM     63  C   UNL A   1      43.037  26.442  34.027  1.00  0.00     0.148 A 
ATOM     64  C   UNL A   1      42.862  26.960  36.765  1.00  0.00     0.002 A 
ATOM     65  C   UNL A   1      43.588  25.559  34.949  1.00  0.00     0.091 A 
ATOM     66  F   UNL A   1      43.299  26.259  32.731  1.00  0.00    -0.205 F 
ATOM     67  C   UNL A   1      43.531  25.829  36.318  1.00  0.00     0.022 A 
BRANCH  65  68
ATOM     68  S   UNL A   1      44.427  24.054  34.437  1.00  0.00     0.127 S 
ATOM     69  O   UNL A   1      44.815  23.483  35.725  1.00  0.00    -0.237 OA
ATOM     70  O   UNL A   1      43.356  23.340  33.742  1.00  0.00    -0.237 OA
ATOM     71  O   UNL A   1      45.516  24.487  33.572  1.00  0.00    -0.744 OA
ENDBRANCH  65  68
ENDBRANCH  47  61
BRANCH  48  72
ATOM     72  C   UNL A   1      43.703  25.518  26.256  1.00  0.00     0.023 A 
ATOM     73  C   UNL A   1      44.866  25.432  25.463  1.00  0.00     0.012 A 
ATOM     74  C   UNL A   1      42.957  24.337  26.474  1.00  0.00     0.148 A 
ATOM     75  C   UNL A   1      45.299  24.204  24.944  1.00  0.00     0.002 A 
ATOM     76  C   UNL A   1      43.392  23.119  25.959  1.00  0.00     0.091 A 
ATOM     77  F   UNL A   1      41.876  24.398  27.264  1.00  0.00    -0.205 F 
ATOM     78  C   UNL A   1      44.571  23.046  25.204  1.00  0.00     0.022 A 
BRANCH  76  79
ATOM     79  S   UNL A   1      42.527  21.573  26.277  1.00  0.00     0.127 S 
ATOM     80  O   UNL A   1      42.609  21.478  27.735  1.00  0.00    -0.237 OA
ATOM     81  O   UNL A   1      41.193  21.860  25.758  1.00  0.00    -0.237 OA
ATOM     82  O   UNL A   1      43.276  20.544  25.567  1.00  0.00    -0.744 OA
ENDBRANCH  76  79
ENDBRANCH  48  72
BRANCH  60  83
ATOM     83  C   UNL A   1      44.884  30.950  29.120  1.00  0.00     0.023 A 
ATOM     84  C   UNL A   1      43.850  31.483  28.320  1.00  0.00     0.012 A 
ATOM     85  C   UNL A   1      46.131  31.595  29.133  1.00  0.00     0.148 A 
ATOM     86  C   UNL A   1      44.065  32.626  27.539  1.00  0.00     0.002 A 
ATOM     87  C   UNL A   1      46.326  32.757  28.396  1.00  0.00     0.091 A 
ATOM     88  F   UNL A   1      47.101  31.075  29.898  1.00  0.00    -0.205 F 
ATOM     89  C   UNL A   1      45.299  33.271  27.590  1.00  0.00     0.022 A 
BRANCH  87  90
ATOM     90  S   UNL A   1      47.847  33.696  28.523  1.00  0.00     0.127 S 
ATOM     91  O   UNL A   1      47.916  33.973  29.957  1.00  0.00    -0.237 OA
ATOM     92  O   UNL A   1      48.845  32.743  28.035  1.00  0.00    -0.237 OA
ATOM     93  O   UNL A   1      47.673  34.865  27.668  1.00  0.00    -0.744 OA
ENDBRANCH  87  90
ENDBRANCH  60  83
ENDBRANCH  34  35
ENDBRANCH  27  29
ENDBRANCH  26  27
ENDBRANCH  25  26
ENDBRANCH  24  25
ENDBRANCH  23  24
ENDBRANCH   1  23
TORSDOF 21
ENDMDL
