MODEL 1
REMARK VINA RESULT:      -8.6      0.000      0.000
REMARK SMILES C[C@@H](CC(=O)OCCOCCOC(=O)c1ccc(-c2c3nc(c(-c4cccc(S(=O)(=O)[O-])c4F)c4ccc([nH]4)c(-c4cccc(S(=O)(=O)[O-])c4F)c4nc(c(-c5cccc(S(=O)(=O)[O-])c5F)c5ccc2[nH]5)C=C4)C=C3)cc1)NC(=O)/C=C/c1cccnc1
REMARK SMILES IDX 8 1 7 2 6 3 4 4 5 5 3 6 2 7 1 8 78 9 79 10 80 12 81 13 82 14
REMARK SMILES IDX 83 15 84 16 88 17 85 18 87 19 86 20 9 21 10 22 11 23 12 24
REMARK SMILES IDX 13 25 14 26 15 27 16 28 77 29 17 30 76 31 18 32 19 33 20 34
REMARK SMILES IDX 70 35 21 36 75 37 69 38 71 39 22 40 74 41 68 42 67 43 23 45
REMARK SMILES IDX 55 46 35 47 54 48 36 49 39 50 53 51 72 52 37 53 38 54 52 56
REMARK SMILES IDX 73 57 40 58 24 59 25 60 33 61 26 62 28 63 34 64 27 65 29 66
REMARK SMILES IDX 30 67 31 68 32 69 56 70 57 71 65 72 58 73 60 74 66 75 59 76
REMARK SMILES IDX 61 77 62 78 63 79 64 80 41 81 42 82 50 83 43 84 45 85 51 86
REMARK SMILES IDX 44 87 46 88 47 89 48 90 49 91
REMARK H PARENT 78 11 71 44 39 55
REMARK Flexibility Score: inf
ROOT
ATOM      1  C   UNL A   1      33.523  35.295  29.692  1.00  0.00     0.202 C 
ENDROOT
BRANCH   1   2
ATOM      2  C   UNL A   1      33.902  35.028  31.150  1.00  0.00     0.261 C 
BRANCH   2   3
ATOM      3  O   UNL A   1      34.891  33.987  31.265  1.00  0.00    -0.463 OA
BRANCH   3   4
ATOM      4  C   UNL A   1      34.624  32.999  32.150  1.00  0.00     0.307 C 
ATOM      5  O   UNL A   1      33.787  33.072  33.045  1.00  0.00    -0.252 OA
BRANCH   4   6
ATOM      6  C   UNL A   1      35.483  31.765  31.989  1.00  0.00     0.147 C 
BRANCH   6   7
ATOM      7  C   UNL A   1      36.804  31.596  32.755  1.00  0.00     0.090 C 
ATOM      8  C   UNL A   1      37.147  30.162  33.147  1.00  0.00     0.031 C 
BRANCH   7   9
ATOM      9  N   UNL A   1      36.881  32.483  33.915  1.00  0.00    -0.350 N 
ATOM     10  C   UNL A   1      37.723  33.498  34.244  1.00  0.00     0.244 C 
ATOM     11  H   UNL A   1      36.187  32.311  34.590  1.00  0.00     0.164 HD
ATOM     12  O   UNL A   1      37.534  34.110  35.295  1.00  0.00    -0.270 OA
BRANCH  10  13
ATOM     13  C   UNL A   1      38.933  33.818  33.446  1.00  0.00     0.072 C 
ATOM     14  C   UNL A   1      38.981  34.318  32.201  1.00  0.00     0.015 C 
BRANCH  14  15
ATOM     15  C   UNL A   1      40.212  34.582  31.433  1.00  0.00    -0.007 A 
ATOM     16  C   UNL A   1      41.483  34.685  32.007  1.00  0.00     0.011 A 
ATOM     17  C   UNL A   1      40.153  34.658  30.040  1.00  0.00     0.119 A 
ATOM     18  C   UNL A   1      42.605  34.861  31.196  1.00  0.00     0.021 A 
ATOM     19  N   UNL A   1      41.223  34.836  29.226  1.00  0.00    -0.264 NA
ATOM     20  C   UNL A   1      42.427  34.925  29.826  1.00  0.00     0.111 A 
ENDBRANCH  14  15
ENDBRANCH  10  13
ENDBRANCH   7   9
ENDBRANCH   6   7
ENDBRANCH   4   6
ENDBRANCH   3   4
ENDBRANCH   2   3
ENDBRANCH   1   2
BRANCH   1  21
ATOM     21  O   UNL A   1      32.862  34.222  29.022  1.00  0.00    -0.374 OA
BRANCH  21  22
ATOM     22  C   UNL A   1      33.611  33.507  28.037  1.00  0.00     0.202 C 
BRANCH  22  23
ATOM     23  C   UNL A   1      34.179  32.160  28.501  1.00  0.00     0.261 C 
BRANCH  23  24
ATOM     24  O   UNL A   1      34.504  31.313  27.379  1.00  0.00    -0.460 OA
BRANCH  24  25
ATOM     25  C   UNL A   1      34.729  30.016  27.703  1.00  0.00     0.338 C 
ATOM     26  O   UNL A   1      34.005  29.059  27.458  1.00  0.00    -0.246 OA
BRANCH  25  27
ATOM     27  C   UNL A   1      36.087  29.848  28.248  1.00  0.00     0.060 A 
ATOM     28  C   UNL A   1      37.169  30.153  27.411  1.00  0.00     0.016 A 
ATOM     29  C   UNL A   1      36.304  29.298  29.511  1.00  0.00     0.016 A 
ATOM     30  C   UNL A   1      38.474  29.886  27.828  1.00  0.00     0.010 A 
ATOM     31  C   UNL A   1      37.616  29.024  29.924  1.00  0.00     0.010 A 
ATOM     32  C   UNL A   1      38.707  29.293  29.077  1.00  0.00    -0.014 A 
BRANCH  32  33
ATOM     33  C   UNL A   1      40.087  28.898  29.463  1.00  0.00     0.031 A 
ATOM     34  C   UNL A   1      40.739  27.709  28.814  1.00  0.00     0.074 A 
ATOM     35  C   UNL A   1      40.758  29.601  30.394  1.00  0.00     0.049 A 
ATOM     36  N   UNL A   1      41.928  27.203  29.024  1.00  0.00    -0.248 NA
ATOM     37  C   UNL A   1      39.955  26.997  27.793  1.00  0.00     0.031 C 
ATOM     38  C   UNL A   1      40.243  30.775  31.095  1.00  0.00     0.029 A 
ATOM     39  N   UNL A   1      42.010  29.411  30.926  1.00  0.00    -0.354 N 
ATOM     40  C   UNL A   1      42.031  26.106  28.177  1.00  0.00     0.074 A 
ATOM     41  C   UNL A   1      40.779  26.013  27.456  1.00  0.00     0.031 C 
ATOM     42  C   UNL A   1      41.160  31.184  31.990  1.00  0.00     0.029 A 
ATOM     43  C   UNL A   1      42.314  30.288  31.940  1.00  0.00     0.049 A 
ATOM     44  H   UNL A   1      42.630  28.714  30.612  1.00  0.00     0.167 HD
ATOM     45  C   UNL A   1      43.078  25.264  28.002  1.00  0.00     0.034 A 
ATOM     46  C   UNL A   1      43.386  30.349  32.755  1.00  0.00     0.034 A 
ATOM     47  C   UNL A   1      44.331  25.361  28.702  1.00  0.00     0.049 A 
ATOM     48  C   UNL A   1      44.515  29.366  32.575  1.00  0.00     0.074 A 
ATOM     49  C   UNL A   1      45.469  24.590  28.539  1.00  0.00     0.029 A 
ATOM     50  N   UNL A   1      44.607  26.269  29.712  1.00  0.00    -0.354 N 
ATOM     51  N   UNL A   1      44.653  28.425  31.674  1.00  0.00    -0.248 NA
ATOM     52  C   UNL A   1      45.644  29.470  33.512  1.00  0.00     0.031 C 
ATOM     53  C   UNL A   1      46.425  25.014  29.470  1.00  0.00     0.029 A 
ATOM     54  C   UNL A   1      45.887  26.059  30.201  1.00  0.00     0.049 A 
ATOM     55  H   UNL A   1      43.985  26.960  30.035  1.00  0.00     0.167 HD
ATOM     56  C   UNL A   1      45.892  27.840  31.919  1.00  0.00     0.074 A 
ATOM     57  C   UNL A   1      46.476  28.552  33.037  1.00  0.00     0.031 C 
ATOM     58  C   UNL A   1      46.481  26.796  31.287  1.00  0.00     0.034 A 
BRANCH  45  59
ATOM     59  C   UNL A   1      42.931  24.171  26.976  1.00  0.00     0.023 A 
ATOM     60  C   UNL A   1      43.560  24.310  25.723  1.00  0.00     0.012 A 
ATOM     61  C   UNL A   1      42.239  22.982  27.276  1.00  0.00     0.148 A 
ATOM     62  C   UNL A   1      43.485  23.290  24.775  1.00  0.00     0.002 A 
ATOM     63  C   UNL A   1      42.198  21.956  26.339  1.00  0.00     0.091 A 
ATOM     64  F   UNL A   1      41.628  22.881  28.465  1.00  0.00    -0.205 F 
ATOM     65  C   UNL A   1      42.814  22.110  25.088  1.00  0.00     0.022 A 
BRANCH  63  66
ATOM     66  S   UNL A   1      41.416  20.373  26.676  1.00  0.00     0.127 S 
ATOM     67  O   UNL A   1      42.181  19.907  27.832  1.00  0.00    -0.237 OA
ATOM     68  O   UNL A   1      40.039  20.765  26.974  1.00  0.00    -0.237 OA
ATOM     69  O   UNL A   1      41.572  19.585  25.461  1.00  0.00    -0.744 OA
ENDBRANCH  63  66
ENDBRANCH  45  59
BRANCH  46  70
ATOM     70  C   UNL A   1      43.454  31.396  33.811  1.00  0.00     0.023 A 
ATOM     71  C   UNL A   1      44.178  32.580  33.573  1.00  0.00     0.012 A 
ATOM     72  C   UNL A   1      42.782  31.236  35.039  1.00  0.00     0.148 A 
ATOM     73  C   UNL A   1      44.249  33.576  34.548  1.00  0.00     0.002 A 
ATOM     74  C   UNL A   1      42.810  32.256  35.982  1.00  0.00     0.091 A 
ATOM     75  F   UNL A   1      42.121  30.090  35.257  1.00  0.00    -0.205 F 
ATOM     76  C   UNL A   1      43.556  33.420  35.746  1.00  0.00     0.022 A 
BRANCH  74  77
ATOM     77  S   UNL A   1      41.831  32.190  37.487  1.00  0.00     0.127 S 
ATOM     78  O   UNL A   1      42.550  31.189  38.269  1.00  0.00    -0.237 OA
ATOM     79  O   UNL A   1      41.945  33.562  37.984  1.00  0.00    -0.237 OA
ATOM     80  O   UNL A   1      40.487  31.822  37.062  1.00  0.00    -0.744 OA
ENDBRANCH  74  77
ENDBRANCH  46  70
BRANCH  58  81
ATOM     81  C   UNL A   1      47.833  26.348  31.783  1.00  0.00     0.023 A 
ATOM     82  C   UNL A   1      47.908  25.429  32.849  1.00  0.00     0.012 A 
ATOM     83  C   UNL A   1      49.020  26.776  31.155  1.00  0.00     0.148 A 
ATOM     84  C   UNL A   1      49.144  24.962  33.299  1.00  0.00     0.002 A 
ATOM     85  C   UNL A   1      50.245  26.274  31.581  1.00  0.00     0.091 A 
ATOM     86  F   UNL A   1      48.930  27.664  30.155  1.00  0.00    -0.205 F 
ATOM     87  C   UNL A   1      50.309  25.376  32.659  1.00  0.00     0.022 A 
BRANCH  85  88
ATOM     88  S   UNL A   1      51.793  26.683  30.763  1.00  0.00     0.127 S 
ATOM     89  O   UNL A   1      51.906  28.113  31.039  1.00  0.00    -0.237 OA
ATOM     90  O   UNL A   1      52.754  25.845  31.480  1.00  0.00    -0.237 OA
ATOM     91  O   UNL A   1      51.610  26.327  29.363  1.00  0.00    -0.744 OA
ENDBRANCH  85  88
ENDBRANCH  58  81
ENDBRANCH  32  33
ENDBRANCH  25  27
ENDBRANCH  24  25
ENDBRANCH  23  24
ENDBRANCH  22  23
ENDBRANCH  21  22
ENDBRANCH   1  21
TORSDOF 21
ENDMDL
MODEL 2
REMARK VINA RESULT:      -8.5      4.884      8.442
REMARK SMILES C[C@@H](CC(=O)OCCOCCOC(=O)c1ccc(-c2c3nc(c(-c4cccc(S(=O)(=O)[O-])c4F)c4ccc([nH]4)c(-c4cccc(S(=O)(=O)[O-])c4F)c4nc(c(-c5cccc(S(=O)(=O)[O-])c5F)c5ccc2[nH]5)C=C4)C=C3)cc1)NC(=O)/C=C/c1cccnc1
REMARK SMILES IDX 8 1 7 2 6 3 4 4 5 5 3 6 2 7 1 8 78 9 79 10 80 12 81 13 82 14
REMARK SMILES IDX 83 15 84 16 88 17 85 18 87 19 86 20 9 21 10 22 11 23 12 24
REMARK SMILES IDX 13 25 14 26 15 27 16 28 77 29 17 30 76 31 18 32 19 33 20 34
REMARK SMILES IDX 70 35 21 36 75 37 69 38 71 39 22 40 74 41 68 42 67 43 23 45
REMARK SMILES IDX 55 46 35 47 54 48 36 49 39 50 53 51 72 52 37 53 38 54 52 56
REMARK SMILES IDX 73 57 40 58 24 59 25 60 33 61 26 62 28 63 34 64 27 65 29 66
REMARK SMILES IDX 30 67 31 68 32 69 56 70 57 71 65 72 58 73 60 74 66 75 59 76
REMARK SMILES IDX 61 77 62 78 63 79 64 80 41 81 42 82 50 83 43 84 45 85 51 86
REMARK SMILES IDX 44 87 46 88 47 89 48 90 49 91
REMARK H PARENT 78 11 71 44 39 55
REMARK Flexibility Score: inf
ROOT
ATOM      1  C   UNL A   1      33.261  27.474  25.057  1.00  0.00     0.202 C 
ENDROOT
BRANCH   1   2
ATOM      2  C   UNL A   1      33.687  26.005  24.994  1.00  0.00     0.261 C 
BRANCH   2   3
ATOM      3  O   UNL A   1      33.379  25.305  26.215  1.00  0.00    -0.463 OA
BRANCH   3   4
ATOM      4  C   UNL A   1      33.737  24.002  26.268  1.00  0.00     0.307 C 
ATOM      5  O   UNL A   1      33.111  23.130  26.864  1.00  0.00    -0.252 OA
BRANCH   4   6
ATOM      6  C   UNL A   1      35.029  23.678  25.552  1.00  0.00     0.147 C 
BRANCH   6   7
ATOM      7  C   UNL A   1      35.084  22.654  24.408  1.00  0.00     0.090 C 
ATOM      8  C   UNL A   1      36.234  22.843  23.423  1.00  0.00     0.031 C 
BRANCH   7   9
ATOM      9  N   UNL A   1      33.807  22.554  23.702  1.00  0.00    -0.350 N 
ATOM     10  C   UNL A   1      32.851  21.589  23.660  1.00  0.00     0.244 C 
ATOM     11  H   UNL A   1      33.599  23.340  23.148  1.00  0.00     0.164 HD
ATOM     12  O   UNL A   1      31.837  21.785  22.990  1.00  0.00    -0.270 OA
BRANCH  10  13
ATOM     13  C   UNL A   1      33.035  20.259  24.294  1.00  0.00     0.072 C 
ATOM     14  C   UNL A   1      33.436  19.123  23.704  1.00  0.00     0.015 C 
BRANCH  14  15
ATOM     15  C   UNL A   1      33.566  17.813  24.369  1.00  0.00    -0.007 A 
ATOM     16  C   UNL A   1      34.771  17.113  24.488  1.00  0.00     0.011 A 
ATOM     17  C   UNL A   1      32.456  17.246  24.999  1.00  0.00     0.119 A 
ATOM     18  C   UNL A   1      34.818  15.915  25.201  1.00  0.00     0.021 A 
ATOM     19  N   UNL A   1      32.467  16.081  25.693  1.00  0.00    -0.264 NA
ATOM     20  C   UNL A   1      33.653  15.446  25.783  1.00  0.00     0.111 A 
ENDBRANCH  14  15
ENDBRANCH  10  13
ENDBRANCH   7   9
ENDBRANCH   6   7
ENDBRANCH   4   6
ENDBRANCH   3   4
ENDBRANCH   2   3
ENDBRANCH   1   2
BRANCH   1  21
ATOM     21  O   UNL A   1      31.868  27.718  24.862  1.00  0.00    -0.374 OA
BRANCH  21  22
ATOM     22  C   UNL A   1      31.406  29.056  25.064  1.00  0.00     0.202 C 
BRANCH  22  23
ATOM     23  C   UNL A   1      32.494  30.071  25.435  1.00  0.00     0.261 C 
BRANCH  23  24
ATOM     24  O   UNL A   1      32.501  30.336  26.853  1.00  0.00    -0.460 OA
BRANCH  24  25
ATOM     25  C   UNL A   1      33.201  31.441  27.212  1.00  0.00     0.338 C 
ATOM     26  O   UNL A   1      32.787  32.594  27.252  1.00  0.00    -0.246 OA
BRANCH  25  27
ATOM     27  C   UNL A   1      34.520  31.067  27.747  1.00  0.00     0.060 A 
ATOM     28  C   UNL A   1      34.727  29.725  28.096  1.00  0.00     0.016 A 
ATOM     29  C   UNL A   1      35.501  32.024  28.009  1.00  0.00     0.016 A 
ATOM     30  C   UNL A   1      35.909  29.341  28.731  1.00  0.00     0.010 A 
ATOM     31  C   UNL A   1      36.684  31.636  28.653  1.00  0.00     0.010 A 
ATOM     32  C   UNL A   1      36.886  30.298  29.040  1.00  0.00    -0.014 A 
BRANCH  32  33
ATOM     33  C   UNL A   1      38.085  29.905  29.825  1.00  0.00     0.031 A 
ATOM     34  C   UNL A   1      39.106  28.976  29.229  1.00  0.00     0.074 A 
ATOM     35  C   UNL A   1      38.263  30.377  31.074  1.00  0.00     0.049 A 
ATOM     36  N   UNL A   1      40.208  28.511  29.759  1.00  0.00    -0.248 NA
ATOM     37  C   UNL A   1      38.857  28.512  27.855  1.00  0.00     0.031 C 
ATOM     38  C   UNL A   1      37.352  31.287  31.767  1.00  0.00     0.029 A 
ATOM     39  N   UNL A   1      39.259  30.135  31.987  1.00  0.00    -0.354 N 
ATOM     40  C   UNL A   1      40.778  27.688  28.795  1.00  0.00     0.074 A 
ATOM     41  C   UNL A   1      39.893  27.709  27.649  1.00  0.00     0.031 C 
ATOM     42  C   UNL A   1      37.816  31.501  33.010  1.00  0.00     0.029 A 
ATOM     43  C   UNL A   1      39.041  30.728  33.208  1.00  0.00     0.049 A 
ATOM     44  H   UNL A   1      40.053  29.588  31.787  1.00  0.00     0.167 HD
ATOM     45  C   UNL A   1      41.940  26.993  28.851  1.00  0.00     0.034 A 
ATOM     46  C   UNL A   1      39.733  30.640  34.361  1.00  0.00     0.034 A 
ATOM     47  C   UNL A   1      42.831  26.982  29.979  1.00  0.00     0.049 A 
ATOM     48  C   UNL A   1      40.993  29.816  34.413  1.00  0.00     0.074 A 
ATOM     49  C   UNL A   1      44.062  26.357  30.096  1.00  0.00     0.029 A 
ATOM     50  N   UNL A   1      42.585  27.604  31.192  1.00  0.00    -0.354 N 
ATOM     51  N   UNL A   1      41.589  29.160  33.449  1.00  0.00    -0.248 NA
ATOM     52  C   UNL A   1      41.687  29.741  35.708  1.00  0.00     0.031 C 
ATOM     53  C   UNL A   1      44.547  26.580  31.391  1.00  0.00     0.029 A 
ATOM     54  C   UNL A   1      43.625  27.356  32.073  1.00  0.00     0.049 A 
ATOM     55  H   UNL A   1      41.786  28.142  31.398  1.00  0.00     0.167 HD
ATOM     56  C   UNL A   1      42.738  28.613  34.012  1.00  0.00     0.074 A 
ATOM     57  C   UNL A   1      42.769  29.038  35.396  1.00  0.00     0.031 C 
ATOM     58  C   UNL A   1      43.672  27.815  33.438  1.00  0.00     0.034 A 
BRANCH  45  59
ATOM     59  C   UNL A   1      42.341  26.205  27.632  1.00  0.00     0.023 A 
ATOM     60  C   UNL A   1      43.088  26.835  26.617  1.00  0.00     0.012 A 
ATOM     61  C   UNL A   1      42.046  24.832  27.526  1.00  0.00     0.148 A 
ATOM     62  C   UNL A   1      43.518  26.115  25.503  1.00  0.00     0.002 A 
ATOM     63  C   UNL A   1      42.510  24.113  26.429  1.00  0.00     0.091 A 
ATOM     64  F   UNL A   1      41.315  24.258  28.491  1.00  0.00    -0.205 F 
ATOM     65  C   UNL A   1      43.239  24.753  25.415  1.00  0.00     0.022 A 
BRANCH  63  66
ATOM     66  S   UNL A   1      42.257  22.342  26.262  1.00  0.00     0.127 S 
ATOM     67  O   UNL A   1      40.801  22.260  26.163  1.00  0.00    -0.237 OA
ATOM     68  O   UNL A   1      42.971  22.043  25.020  1.00  0.00    -0.237 OA
ATOM     69  O   UNL A   1      42.840  21.741  27.454  1.00  0.00    -0.744 OA
ENDBRANCH  63  66
ENDBRANCH  45  59
BRANCH  46  70
ATOM     70  C   UNL A   1      39.254  31.371  35.567  1.00  0.00     0.023 A 
ATOM     71  C   UNL A   1      38.232  30.814  36.360  1.00  0.00     0.012 A 
ATOM     72  C   UNL A   1      39.825  32.603  35.947  1.00  0.00     0.148 A 
ATOM     73  C   UNL A   1      37.773  31.481  37.496  1.00  0.00     0.002 A 
ATOM     74  C   UNL A   1      39.402  33.232  37.111  1.00  0.00     0.091 A 
ATOM     75  F   UNL A   1      40.777  33.129  35.164  1.00  0.00    -0.205 F 
ATOM     76  C   UNL A   1      38.366  32.682  37.879  1.00  0.00     0.022 A 
BRANCH  74  77
ATOM     77  S   UNL A   1      40.210  34.706  37.745  1.00  0.00     0.127 S 
ATOM     78  O   UNL A   1      39.086  35.444  38.311  1.00  0.00    -0.237 OA
ATOM     79  O   UNL A   1      41.139  34.145  38.727  1.00  0.00    -0.237 OA
ATOM     80  O   UNL A   1      40.861  35.319  36.594  1.00  0.00    -0.744 OA
ENDBRANCH  74  77
ENDBRANCH  46  70
BRANCH  58  81
ATOM     81  C   UNL A   1      44.814  27.340  34.301  1.00  0.00     0.023 A 
ATOM     82  C   UNL A   1      45.966  28.142  34.425  1.00  0.00     0.012 A 
ATOM     83  C   UNL A   1      44.722  26.144  35.040  1.00  0.00     0.148 A 
ATOM     84  C   UNL A   1      47.019  27.750  35.252  1.00  0.00     0.002 A 
ATOM     85  C   UNL A   1      45.758  25.781  35.895  1.00  0.00     0.091 A 
ATOM     86  F   UNL A   1      43.628  25.385  34.895  1.00  0.00    -0.205 F 
ATOM     87  C   UNL A   1      46.911  26.578  35.994  1.00  0.00     0.022 A 
BRANCH  85  88
ATOM     88  S   UNL A   1      45.672  24.332  36.955  1.00  0.00     0.127 S 
ATOM     89  O   UNL A   1      47.082  24.100  37.258  1.00  0.00    -0.237 OA
ATOM     90  O   UNL A   1      44.877  24.818  38.083  1.00  0.00    -0.237 OA
ATOM     91  O   UNL A   1      45.023  23.296  36.163  1.00  0.00    -0.744 OA
ENDBRANCH  85  88
ENDBRANCH  58  81
ENDBRANCH  32  33
ENDBRANCH  25  27
ENDBRANCH  24  25
ENDBRANCH  23  24
ENDBRANCH  22  23
ENDBRANCH  21  22
ENDBRANCH   1  21
TORSDOF 21
ENDMDL
MODEL 3
REMARK VINA RESULT:      -8.4      4.836     10.938
REMARK SMILES C[C@@H](CC(=O)OCCOCCOC(=O)c1ccc(-c2c3nc(c(-c4cccc(S(=O)(=O)[O-])c4F)c4ccc([nH]4)c(-c4cccc(S(=O)(=O)[O-])c4F)c4nc(c(-c5cccc(S(=O)(=O)[O-])c5F)c5ccc2[nH]5)C=C4)C=C3)cc1)NC(=O)/C=C/c1cccnc1
REMARK SMILES IDX 8 1 7 2 6 3 4 4 5 5 3 6 2 7 1 8 78 9 79 10 80 12 81 13 82 14
REMARK SMILES IDX 83 15 84 16 88 17 85 18 87 19 86 20 9 21 10 22 11 23 12 24
REMARK SMILES IDX 13 25 14 26 15 27 16 28 77 29 17 30 76 31 18 32 19 33 20 34
REMARK SMILES IDX 70 35 21 36 75 37 69 38 71 39 22 40 74 41 68 42 67 43 23 45
REMARK SMILES IDX 55 46 35 47 54 48 36 49 39 50 53 51 72 52 37 53 38 54 52 56
REMARK SMILES IDX 73 57 40 58 24 59 25 60 33 61 26 62 28 63 34 64 27 65 29 66
REMARK SMILES IDX 30 67 31 68 32 69 56 70 57 71 65 72 58 73 60 74 66 75 59 76
REMARK SMILES IDX 61 77 62 78 63 79 64 80 41 81 42 82 50 83 43 84 45 85 51 86
REMARK SMILES IDX 44 87 46 88 47 89 48 90 49 91
REMARK H PARENT 78 11 71 44 39 55
REMARK Flexibility Score: inf
ROOT
ATOM      1  C   UNL A   1      32.124  27.563  26.130  1.00  0.00     0.202 C 
ENDROOT
BRANCH   1   2
ATOM      2  C   UNL A   1      31.861  26.059  26.021  1.00  0.00     0.261 C 
BRANCH   2   3
ATOM      3  O   UNL A   1      32.987  25.285  26.479  1.00  0.00    -0.463 OA
BRANCH   3   4
ATOM      4  C   UNL A   1      32.758  23.972  26.710  1.00  0.00     0.307 C 
ATOM      5  O   UNL A   1      31.671  23.498  27.025  1.00  0.00    -0.252 OA
BRANCH   4   6
ATOM      6  C   UNL A   1      33.984  23.093  26.591  1.00  0.00     0.147 C 
BRANCH   6   7
ATOM      7  C   UNL A   1      34.524  22.642  25.226  1.00  0.00     0.090 C 
ATOM      8  C   UNL A   1      35.697  23.459  24.691  1.00  0.00     0.031 C 
BRANCH   7   9
ATOM      9  N   UNL A   1      33.463  22.541  24.224  1.00  0.00    -0.350 N 
ATOM     10  C   UNL A   1      32.601  21.544  23.892  1.00  0.00     0.244 C 
ATOM     11  H   UNL A   1      33.352  23.356  23.683  1.00  0.00     0.164 HD
ATOM     12  O   UNL A   1      31.771  21.746  23.007  1.00  0.00    -0.270 OA
BRANCH  10  13
ATOM     13  C   UNL A   1      32.702  20.181  24.471  1.00  0.00     0.072 C 
ATOM     14  C   UNL A   1      33.376  19.131  23.976  1.00  0.00     0.015 C 
BRANCH  14  15
ATOM     15  C   UNL A   1      33.413  17.782  24.569  1.00  0.00    -0.007 A 
ATOM     16  C   UNL A   1      32.348  17.209  25.273  1.00  0.00     0.011 A 
ATOM     17  C   UNL A   1      34.530  16.969  24.368  1.00  0.00     0.119 A 
ATOM     18  C   UNL A   1      32.440  15.896  25.735  1.00  0.00     0.021 A 
ATOM     19  N   UNL A   1      34.653  15.694  24.810  1.00  0.00    -0.264 NA
ATOM     20  C   UNL A   1      33.599  15.184  25.479  1.00  0.00     0.111 A 
ENDBRANCH  14  15
ENDBRANCH  10  13
ENDBRANCH   7   9
ENDBRANCH   6   7
ENDBRANCH   4   6
ENDBRANCH   3   4
ENDBRANCH   2   3
ENDBRANCH   1   2
BRANCH   1  21
ATOM     21  O   UNL A   1      31.224  28.399  25.403  1.00  0.00    -0.374 OA
BRANCH  21  22
ATOM     22  C   UNL A   1      31.550  29.787  25.313  1.00  0.00     0.202 C 
BRANCH  22  23
ATOM     23  C   UNL A   1      32.871  30.190  25.980  1.00  0.00     0.261 C 
BRANCH  23  24
ATOM     24  O   UNL A   1      32.646  30.773  27.280  1.00  0.00    -0.460 OA
BRANCH  24  25
ATOM     25  C   UNL A   1      33.430  31.844  27.556  1.00  0.00     0.338 C 
ATOM     26  O   UNL A   1      33.081  33.017  27.615  1.00  0.00    -0.246 OA
BRANCH  25  27
ATOM     27  C   UNL A   1      34.772  31.408  27.976  1.00  0.00     0.060 A 
ATOM     28  C   UNL A   1      34.946  30.058  28.312  1.00  0.00     0.016 A 
ATOM     29  C   UNL A   1      35.816  32.319  28.148  1.00  0.00     0.016 A 
ATOM     30  C   UNL A   1      36.160  29.620  28.842  1.00  0.00     0.010 A 
ATOM     31  C   UNL A   1      37.031  31.875  28.688  1.00  0.00     0.010 A 
ATOM     32  C   UNL A   1      37.203  30.529  29.062  1.00  0.00    -0.014 A 
BRANCH  32  33
ATOM     33  C   UNL A   1      38.446  30.081  29.741  1.00  0.00     0.031 A 
ATOM     34  C   UNL A   1      38.787  30.601  31.110  1.00  0.00     0.074 A 
ATOM     35  C   UNL A   1      39.273  29.208  29.135  1.00  0.00     0.049 A 
ATOM     36  N   UNL A   1      39.828  30.336  31.859  1.00  0.00    -0.248 NA
ATOM     37  C   UNL A   1      37.831  31.538  31.721  1.00  0.00     0.031 C 
ATOM     38  C   UNL A   1      39.058  28.625  27.813  1.00  0.00     0.029 A 
ATOM     39  N   UNL A   1      40.473  28.681  29.546  1.00  0.00    -0.354 N 
ATOM     40  C   UNL A   1      39.664  31.083  33.018  1.00  0.00     0.074 A 
ATOM     41  C   UNL A   1      38.427  31.821  32.872  1.00  0.00     0.031 C 
ATOM     42  C   UNL A   1      40.108  27.844  27.506  1.00  0.00     0.029 A 
ATOM     43  C   UNL A   1      41.078  27.890  28.599  1.00  0.00     0.049 A 
ATOM     44  H   UNL A   1      40.862  28.854  30.434  1.00  0.00     0.167 HD
ATOM     45  C   UNL A   1      40.460  31.137  34.114  1.00  0.00     0.034 A 
ATOM     46  C   UNL A   1      42.286  27.291  28.599  1.00  0.00     0.034 A 
ATOM     47  C   UNL A   1      41.681  30.394  34.273  1.00  0.00     0.049 A 
ATOM     48  C   UNL A   1      43.177  27.410  29.808  1.00  0.00     0.074 A 
ATOM     49  C   UNL A   1      42.515  30.338  35.377  1.00  0.00     0.029 A 
ATOM     50  N   UNL A   1      42.256  29.593  33.299  1.00  0.00    -0.354 N 
ATOM     51  N   UNL A   1      42.940  28.007  30.951  1.00  0.00    -0.248 NA
ATOM     52  C   UNL A   1      44.492  26.755  29.734  1.00  0.00     0.031 C 
ATOM     53  C   UNL A   1      43.610  29.525  35.060  1.00  0.00     0.029 A 
ATOM     54  C   UNL A   1      43.448  29.061  33.765  1.00  0.00     0.049 A 
ATOM     55  H   UNL A   1      41.874  29.427  32.407  1.00  0.00     0.167 HD
ATOM     56  C   UNL A   1      44.064  27.780  31.740  1.00  0.00     0.074 A 
ATOM     57  C   UNL A   1      44.970  26.968  30.954  1.00  0.00     0.031 C 
ATOM     58  C   UNL A   1      44.328  28.221  32.994  1.00  0.00     0.034 A 
BRANCH  45  59
ATOM     59  C   UNL A   1      40.016  32.010  35.257  1.00  0.00     0.023 A 
ATOM     60  C   UNL A   1      40.467  33.344  35.324  1.00  0.00     0.012 A 
ATOM     61  C   UNL A   1      39.101  31.539  36.218  1.00  0.00     0.148 A 
ATOM     62  C   UNL A   1      40.029  34.190  36.342  1.00  0.00     0.002 A 
ATOM     63  C   UNL A   1      38.641  32.400  37.209  1.00  0.00     0.091 A 
ATOM     64  F   UNL A   1      38.703  30.261  36.149  1.00  0.00    -0.205 F 
ATOM     65  C   UNL A   1      39.109  33.721  37.277  1.00  0.00     0.022 A 
BRANCH  63  66
ATOM     66  S   UNL A   1      37.405  31.907  38.416  1.00  0.00     0.127 S 
ATOM     67  O   UNL A   1      38.114  32.138  39.674  1.00  0.00    -0.237 OA
ATOM     68  O   UNL A   1      36.317  32.848  38.148  1.00  0.00    -0.237 OA
ATOM     69  O   UNL A   1      37.089  30.516  38.120  1.00  0.00    -0.744 OA
ENDBRANCH  63  66
ENDBRANCH  45  59
BRANCH  46  70
ATOM     70  C   UNL A   1      42.720  26.504  27.411  1.00  0.00     0.023 A 
ATOM     71  C   UNL A   1      43.553  27.101  26.446  1.00  0.00     0.012 A 
ATOM     72  C   UNL A   1      42.332  25.159  27.248  1.00  0.00     0.148 A 
ATOM     73  C   UNL A   1      43.975  26.379  25.329  1.00  0.00     0.002 A 
ATOM     74  C   UNL A   1      42.802  24.430  26.163  1.00  0.00     0.091 A 
ATOM     75  F   UNL A   1      41.516  24.617  28.163  1.00  0.00    -0.205 F 
ATOM     76  C   UNL A   1      43.611  25.041  25.194  1.00  0.00     0.022 A 
BRANCH  74  77
ATOM     77  S   UNL A   1      42.493  22.668  25.992  1.00  0.00     0.127 S 
ATOM     78  O   UNL A   1      43.293  22.117  27.082  1.00  0.00    -0.237 OA
ATOM     79  O   UNL A   1      41.044  22.594  26.189  1.00  0.00    -0.237 OA
ATOM     80  O   UNL A   1      42.928  22.325  24.645  1.00  0.00    -0.744 OA
ENDBRANCH  74  77
ENDBRANCH  46  70
BRANCH  58  81
ATOM     81  C   UNL A   1      45.653  27.841  33.607  1.00  0.00     0.023 A 
ATOM     82  C   UNL A   1      46.746  28.722  33.493  1.00  0.00     0.012 A 
ATOM     83  C   UNL A   1      45.798  26.654  34.353  1.00  0.00     0.148 A 
ATOM     84  C   UNL A   1      47.970  28.418  34.089  1.00  0.00     0.002 A 
ATOM     85  C   UNL A   1      47.008  26.378  34.980  1.00  0.00     0.091 A 
ATOM     86  F   UNL A   1      44.753  25.819  34.436  1.00  0.00    -0.205 F 
ATOM     87  C   UNL A   1      48.097  27.253  34.840  1.00  0.00     0.022 A 
BRANCH  85  88
ATOM     88  S   UNL A   1      47.242  24.944  36.039  1.00  0.00     0.127 S 
ATOM     89  O   UNL A   1      46.988  23.844  35.111  1.00  0.00    -0.237 OA
ATOM     90  O   UNL A   1      48.638  25.085  36.452  1.00  0.00    -0.237 OA
ATOM     91  O   UNL A   1      46.276  25.086  37.121  1.00  0.00    -0.744 OA
ENDBRANCH  85  88
ENDBRANCH  58  81
ENDBRANCH  32  33
ENDBRANCH  25  27
ENDBRANCH  24  25
ENDBRANCH  23  24
ENDBRANCH  22  23
ENDBRANCH  21  22
ENDBRANCH   1  21
TORSDOF 21
ENDMDL
