MODEL 1
REMARK VINA RESULT:      -9.4      0.000      0.000
REMARK SMILES CCC[NH+]1CCN(c2ccc(C(=O)OCCOCCOC(=O)c3ccc(-c4c5nc(c(-c6cccc(S(=O)(=O)[O-])c6F)c6ccc([nH]6)c(-c6cccc(S(=O)(=O)[O-])c6F)c6nc(c(-c7cccc(S(=O)(=O)[O-])c7F)c7ccc4[nH]7)C=C6)C=C5)cc3)cc2NS(=O)(=O)CC)CC1
REMARK SMILES IDX 17 1 16 2 15 3 14 4 12 5 13 6 11 7 8 8 9 9 87 10 10 11 86 12
REMARK SMILES IDX 7 13 4 14 5 15 95 16 6 18 94 19 3 20 2 21 1 22 88 23 89 25
REMARK SMILES IDX 90 26 91 27 92 28 93 29 18 30 19 31 20 32 21 33 22 34 23 35
REMARK SMILES IDX 24 36 85 37 25 38 84 39 26 40 27 41 28 42 78 43 29 44 83 45
REMARK SMILES IDX 77 46 79 47 30 48 82 49 76 50 75 51 31 53 63 54 43 55 62 56
REMARK SMILES IDX 44 57 47 58 61 59 80 60 45 61 46 62 60 64 81 65 48 66 32 67
REMARK SMILES IDX 33 68 41 69 34 70 36 71 42 72 35 73 37 74 38 75 39 76 40 77
REMARK SMILES IDX 64 78 65 79 73 80 66 81 68 82 74 83 67 84 69 85 70 86 71 87
REMARK SMILES IDX 72 88 49 89 50 90 58 91 51 92 53 93 59 94 52 95 54 96 55 97
REMARK SMILES IDX 56 98 57 99
REMARK H PARENT 4 17 88 24 79 52 47 63
REMARK Flexibility Score: inf
ROOT
ATOM      1  O   UNL A   1      34.052  32.854  29.382  1.00  0.00    -0.374 OA
ENDROOT
BRANCH   1   2
ATOM      2  C   UNL A   1      34.398  32.668  28.010  1.00  0.00     0.202 C 
BRANCH   2   3
ATOM      3  C   UNL A   1      34.487  31.212  27.542  1.00  0.00     0.261 C 
BRANCH   3   4
ATOM      4  O   UNL A   1      33.293  30.490  27.874  1.00  0.00    -0.460 OA
BRANCH   4   5
ATOM      5  C   UNL A   1      32.435  30.251  26.852  1.00  0.00     0.338 C 
ATOM      6  O   UNL A   1      31.769  31.073  26.242  1.00  0.00    -0.246 OA
BRANCH   5   7
ATOM      7  C   UNL A   1      32.532  28.824  26.455  1.00  0.00     0.062 A 
ATOM      8  C   UNL A   1      32.551  26.134  25.642  1.00  0.00     0.062 A 
ATOM      9  C   UNL A   1      31.653  26.569  26.619  1.00  0.00     0.029 A 
ATOM     10  C   UNL A   1      33.386  27.094  25.015  1.00  0.00     0.073 A 
ATOM     11  C   UNL A   1      31.629  27.911  27.011  1.00  0.00     0.018 A 
ATOM     12  C   UNL A   1      33.422  28.409  25.462  1.00  0.00     0.044 A 
BRANCH   8  13
ATOM     13  N   UNL A   1      32.660  24.804  25.260  1.00  0.00    -0.359 N 
ATOM     14  N   UNL A   1      33.103  22.050  24.375  1.00  0.00    -0.332 N 
ATOM     15  C   UNL A   1      32.138  22.978  23.735  1.00  0.00     0.283 C 
ATOM     16  C   UNL A   1      34.170  22.849  25.035  1.00  0.00     0.283 C 
ATOM     17  H   UNL A   1      33.497  21.467  23.636  1.00  0.00     0.348 HD
ATOM     18  C   UNL A   1      31.551  24.065  24.666  1.00  0.00     0.178 C 
ATOM     19  C   UNL A   1      33.671  23.986  25.961  1.00  0.00     0.178 C 
BRANCH  14  20
ATOM     20  C   UNL A   1      32.492  21.105  25.317  1.00  0.00     0.262 C 
BRANCH  20  21
ATOM     21  C   UNL A   1      32.474  19.646  24.840  1.00  0.00     0.058 C 
ATOM     22  C   UNL A   1      33.861  19.048  24.656  1.00  0.00     0.010 C 
ENDBRANCH  20  21
ENDBRANCH  14  20
ENDBRANCH   8  13
BRANCH  10  23
ATOM     23  N   UNL A   1      33.876  26.716  23.723  1.00  0.00    -0.281 N 
ATOM     24  H   UNL A   1      34.704  26.184  23.694  1.00  0.00     0.180 HD
BRANCH  23  25
ATOM     25  S   UNL A   1      33.170  27.099  22.274  1.00  0.00     0.232 S 
ATOM     26  O   UNL A   1      31.839  27.590  22.557  1.00  0.00    -0.207 OA
ATOM     27  O   UNL A   1      34.154  27.933  21.614  1.00  0.00    -0.207 OA
BRANCH  25  28
ATOM     28  C   UNL A   1      33.065  25.545  21.375  1.00  0.00     0.156 C 
ATOM     29  C   UNL A   1      32.317  25.617  20.057  1.00  0.00     0.023 C 
ENDBRANCH  25  28
ENDBRANCH  23  25
ENDBRANCH  10  23
ENDBRANCH   5   7
ENDBRANCH   4   5
ENDBRANCH   3   4
ENDBRANCH   2   3
ENDBRANCH   1   2
BRANCH   1  30
ATOM     30  C   UNL A   1      34.993  32.367  30.341  1.00  0.00     0.202 C 
BRANCH  30  31
ATOM     31  C   UNL A   1      35.702  33.436  31.184  1.00  0.00     0.261 C 
BRANCH  31  32
ATOM     32  O   UNL A   1      36.976  33.800  30.628  1.00  0.00    -0.460 OA
BRANCH  32  33
ATOM     33  C   UNL A   1      38.036  33.633  31.456  1.00  0.00     0.338 C 
ATOM     34  O   UNL A   1      38.057  33.033  32.519  1.00  0.00    -0.246 OA
BRANCH  33  35
ATOM     35  C   UNL A   1      39.253  34.139  30.793  1.00  0.00     0.060 A 
ATOM     36  C   UNL A   1      39.165  34.501  29.441  1.00  0.00     0.016 A 
ATOM     37  C   UNL A   1      40.467  34.222  31.473  1.00  0.00     0.016 A 
ATOM     38  C   UNL A   1      40.305  34.914  28.753  1.00  0.00     0.010 A 
ATOM     39  C   UNL A   1      41.608  34.634  30.783  1.00  0.00     0.010 A 
ATOM     40  C   UNL A   1      41.540  34.949  29.413  1.00  0.00    -0.014 A 
BRANCH  40  41
ATOM     41  C   UNL A   1      42.801  35.170  28.663  1.00  0.00     0.031 A 
ATOM     42  C   UNL A   1      43.753  34.018  28.507  1.00  0.00     0.074 A 
ATOM     43  C   UNL A   1      43.124  36.389  28.196  1.00  0.00     0.049 A 
ATOM     44  N   UNL A   1      44.979  34.012  28.058  1.00  0.00    -0.248 NA
ATOM     45  C   UNL A   1      43.258  32.695  28.927  1.00  0.00     0.031 C 
ATOM     46  C   UNL A   1      42.275  37.577  28.270  1.00  0.00     0.029 A 
ATOM     47  N   UNL A   1      44.281  36.836  27.607  1.00  0.00    -0.354 N 
ATOM     48  C   UNL A   1      45.421  32.700  28.189  1.00  0.00     0.074 A 
ATOM     49  C   UNL A   1      44.332  31.938  28.756  1.00  0.00     0.031 C 
ATOM     50  C   UNL A   1      42.959  38.630  27.789  1.00  0.00     0.029 A 
ATOM     51  C   UNL A   1      44.304  38.198  27.417  1.00  0.00     0.049 A 
ATOM     52  H   UNL A   1      45.021  36.240  27.347  1.00  0.00     0.167 HD
ATOM     53  C   UNL A   1      46.627  32.180  27.863  1.00  0.00     0.034 A 
ATOM     54  C   UNL A   1      45.312  39.008  27.032  1.00  0.00     0.034 A 
ATOM     55  C   UNL A   1      47.699  32.941  27.280  1.00  0.00     0.049 A 
ATOM     56  C   UNL A   1      46.658  38.410  26.711  1.00  0.00     0.074 A 
ATOM     57  C   UNL A   1      48.939  32.494  26.864  1.00  0.00     0.029 A 
ATOM     58  N   UNL A   1      47.664  34.306  27.050  1.00  0.00    -0.354 N 
ATOM     59  N   UNL A   1      47.034  37.155  26.747  1.00  0.00    -0.248 NA
ATOM     60  C   UNL A   1      47.715  39.337  26.276  1.00  0.00     0.031 C 
ATOM     61  C   UNL A   1      49.673  33.598  26.420  1.00  0.00     0.029 A 
ATOM     62  C   UNL A   1      48.868  34.724  26.512  1.00  0.00     0.049 A 
ATOM     63  H   UNL A   1      46.897  34.892  27.241  1.00  0.00     0.167 HD
ATOM     64  C   UNL A   1      48.348  37.135  26.291  1.00  0.00     0.074 A 
ATOM     65  C   UNL A   1      48.705  38.504  25.983  1.00  0.00     0.031 C 
ATOM     66  C   UNL A   1      49.185  36.080  26.146  1.00  0.00     0.034 A 
BRANCH  53  67
ATOM     67  C   UNL A   1      46.858  30.715  28.123  1.00  0.00     0.023 A 
ATOM     68  C   UNL A   1      47.309  30.286  29.387  1.00  0.00     0.012 A 
ATOM     69  C   UNL A   1      46.561  29.758  27.132  1.00  0.00     0.148 A 
ATOM     70  C   UNL A   1      47.491  28.929  29.651  1.00  0.00     0.002 A 
ATOM     71  C   UNL A   1      46.698  28.406  27.419  1.00  0.00     0.091 A 
ATOM     72  F   UNL A   1      46.153  30.188  25.929  1.00  0.00    -0.205 F 
ATOM     73  C   UNL A   1      47.174  27.990  28.673  1.00  0.00     0.022 A 
BRANCH  71  74
ATOM     74  S   UNL A   1      46.237  27.117  26.256  1.00  0.00     0.127 S 
ATOM     75  O   UNL A   1      46.553  25.908  27.017  1.00  0.00    -0.237 OA
ATOM     76  O   UNL A   1      44.807  27.367  26.074  1.00  0.00    -0.237 OA
ATOM     77  O   UNL A   1      47.050  27.335  25.068  1.00  0.00    -0.744 OA
ENDBRANCH  71  74
ENDBRANCH  53  67
BRANCH  54  78
ATOM     78  C   UNL A   1      45.091  40.478  26.925  1.00  0.00     0.023 A 
ATOM     79  C   UNL A   1      44.591  41.022  25.727  1.00  0.00     0.012 A 
ATOM     80  C   UNL A   1      45.371  41.338  28.005  1.00  0.00     0.148 A 
ATOM     81  C   UNL A   1      44.409  42.399  25.592  1.00  0.00     0.002 A 
ATOM     82  C   UNL A   1      45.131  42.701  27.884  1.00  0.00     0.091 A 
ATOM     83  F   UNL A   1      45.858  40.801  29.134  1.00  0.00    -0.205 F 
ATOM     84  C   UNL A   1      44.669  43.236  26.673  1.00  0.00     0.022 A 
BRANCH  82  85
ATOM     85  S   UNL A   1      45.315  43.837  29.262  1.00  0.00     0.127 S 
ATOM     86  O   UNL A   1      46.688  43.573  29.686  1.00  0.00    -0.237 OA
ATOM     87  O   UNL A   1      45.107  45.131  28.611  1.00  0.00    -0.237 OA
ATOM     88  O   UNL A   1      44.277  43.468  30.215  1.00  0.00    -0.744 OA
ENDBRANCH  82  85
ENDBRANCH  54  78
BRANCH  66  89
ATOM     89  C   UNL A   1      50.551  36.326  25.558  1.00  0.00     0.023 A 
ATOM     90  C   UNL A   1      50.798  36.063  24.197  1.00  0.00     0.012 A 
ATOM     91  C   UNL A   1      51.552  36.941  26.339  1.00  0.00     0.148 A 
ATOM     92  C   UNL A   1      52.028  36.391  23.627  1.00  0.00     0.002 A 
ATOM     93  C   UNL A   1      52.753  37.312  25.751  1.00  0.00     0.091 A 
ATOM     94  F   UNL A   1      51.297  37.169  27.635  1.00  0.00    -0.205 F 
ATOM     95  C   UNL A   1      52.998  37.028  24.399  1.00  0.00     0.022 A 
BRANCH  93  96
ATOM     96  S   UNL A   1      54.018  38.231  26.637  1.00  0.00     0.127 S 
ATOM     97  O   UNL A   1      55.023  38.435  25.594  1.00  0.00    -0.237 OA
ATOM     98  O   UNL A   1      53.298  39.440  27.035  1.00  0.00    -0.237 OA
ATOM     99  O   UNL A   1      54.438  37.381  27.743  1.00  0.00    -0.744 OA
ENDBRANCH  93  96
ENDBRANCH  66  89
ENDBRANCH  40  41
ENDBRANCH  33  35
ENDBRANCH  32  33
ENDBRANCH  31  32
ENDBRANCH  30  31
ENDBRANCH   1  30
TORSDOF 23
ENDMDL
MODEL 2
REMARK VINA RESULT:      -9.2      2.618      8.005
REMARK SMILES CCC[NH+]1CCN(c2ccc(C(=O)OCCOCCOC(=O)c3ccc(-c4c5nc(c(-c6cccc(S(=O)(=O)[O-])c6F)c6ccc([nH]6)c(-c6cccc(S(=O)(=O)[O-])c6F)c6nc(c(-c7cccc(S(=O)(=O)[O-])c7F)c7ccc4[nH]7)C=C6)C=C5)cc3)cc2NS(=O)(=O)CC)CC1
REMARK SMILES IDX 17 1 16 2 15 3 14 4 12 5 13 6 11 7 8 8 9 9 87 10 10 11 86 12
REMARK SMILES IDX 7 13 4 14 5 15 95 16 6 18 94 19 3 20 2 21 1 22 88 23 89 25
REMARK SMILES IDX 90 26 91 27 92 28 93 29 18 30 19 31 20 32 21 33 22 34 23 35
REMARK SMILES IDX 24 36 85 37 25 38 84 39 26 40 27 41 28 42 78 43 29 44 83 45
REMARK SMILES IDX 77 46 79 47 30 48 82 49 76 50 75 51 31 53 63 54 43 55 62 56
REMARK SMILES IDX 44 57 47 58 61 59 80 60 45 61 46 62 60 64 81 65 48 66 32 67
REMARK SMILES IDX 33 68 41 69 34 70 36 71 42 72 35 73 37 74 38 75 39 76 40 77
REMARK SMILES IDX 64 78 65 79 73 80 66 81 68 82 74 83 67 84 69 85 70 86 71 87
REMARK SMILES IDX 72 88 49 89 50 90 58 91 51 92 53 93 59 94 52 95 54 96 55 97
REMARK SMILES IDX 56 98 57 99
REMARK H PARENT 4 17 88 24 79 52 47 63
REMARK Flexibility Score: inf
ROOT
ATOM      1  O   UNL A   1      34.421  33.453  29.174  1.00  0.00    -0.374 OA
ENDROOT
BRANCH   1   2
ATOM      2  C   UNL A   1      35.336  32.911  28.221  1.00  0.00     0.202 C 
BRANCH   2   3
ATOM      3  C   UNL A   1      34.942  31.559  27.621  1.00  0.00     0.261 C 
BRANCH   3   4
ATOM      4  O   UNL A   1      33.652  31.142  28.091  1.00  0.00    -0.460 OA
BRANCH   4   5
ATOM      5  C   UNL A   1      32.616  31.318  27.235  1.00  0.00     0.338 C 
ATOM      6  O   UNL A   1      32.009  32.356  27.017  1.00  0.00    -0.246 OA
BRANCH   5   7
ATOM      7  C   UNL A   1      32.411  30.074  26.452  1.00  0.00     0.062 A 
ATOM      8  C   UNL A   1      31.940  27.650  25.111  1.00  0.00     0.062 A 
ATOM      9  C   UNL A   1      32.727  27.675  26.265  1.00  0.00     0.029 A 
ATOM     10  C   UNL A   1      31.320  28.853  24.688  1.00  0.00     0.073 A 
ATOM     11  C   UNL A   1      32.947  28.878  26.944  1.00  0.00     0.018 A 
ATOM     12  C   UNL A   1      31.606  30.061  25.313  1.00  0.00     0.044 A 
BRANCH   8  13
ATOM     13  N   UNL A   1      31.739  26.498  24.364  1.00  0.00    -0.359 N 
ATOM     14  N   UNL A   1      31.276  24.206  22.604  1.00  0.00    -0.332 N 
ATOM     15  C   UNL A   1      30.356  24.607  23.697  1.00  0.00     0.283 C 
ATOM     16  C   UNL A   1      32.043  25.400  22.160  1.00  0.00     0.283 C 
ATOM     17  H   UNL A   1      30.702  23.844  21.843  1.00  0.00     0.348 HD
ATOM     18  C   UNL A   1      31.023  25.339  24.886  1.00  0.00     0.178 C 
ATOM     19  C   UNL A   1      32.716  26.216  23.292  1.00  0.00     0.178 C 
BRANCH  14  20
ATOM     20  C   UNL A   1      32.178  23.101  22.955  1.00  0.00     0.262 C 
BRANCH  20  21
ATOM     21  C   UNL A   1      33.566  23.176  22.303  1.00  0.00     0.058 C 
ATOM     22  C   UNL A   1      34.710  22.935  23.277  1.00  0.00     0.010 C 
ENDBRANCH  20  21
ENDBRANCH  14  20
ENDBRANCH   8  13
BRANCH  10  23
ATOM     23  N   UNL A   1      30.161  28.679  23.864  1.00  0.00    -0.281 N 
ATOM     24  H   UNL A   1      29.731  27.793  23.874  1.00  0.00     0.180 HD
BRANCH  23  25
ATOM     25  S   UNL A   1      29.483  29.840  22.896  1.00  0.00     0.232 S 
ATOM     26  O   UNL A   1      29.355  31.043  23.687  1.00  0.00    -0.207 OA
ATOM     27  O   UNL A   1      30.295  29.812  21.696  1.00  0.00    -0.207 OA
BRANCH  25  28
ATOM     28  C   UNL A   1      27.851  29.211  22.477  1.00  0.00     0.156 C 
ATOM     29  C   UNL A   1      27.276  28.213  23.464  1.00  0.00     0.023 C 
ENDBRANCH  25  28
ENDBRANCH  23  25
ENDBRANCH  10  23
ENDBRANCH   5   7
ENDBRANCH   4   5
ENDBRANCH   3   4
ENDBRANCH   2   3
ENDBRANCH   1   2
BRANCH   1  30
ATOM     30  C   UNL A   1      34.725  33.209  30.549  1.00  0.00     0.202 C 
BRANCH  30  31
ATOM     31  C   UNL A   1      36.197  32.910  30.865  1.00  0.00     0.261 C 
BRANCH  31  32
ATOM     32  O   UNL A   1      36.333  31.899  31.878  1.00  0.00    -0.460 OA
BRANCH  32  33
ATOM     33  C   UNL A   1      36.775  30.696  31.436  1.00  0.00     0.338 C 
ATOM     34  O   UNL A   1      36.107  29.697  31.220  1.00  0.00    -0.246 OA
BRANCH  33  35
ATOM     35  C   UNL A   1      38.197  30.810  31.065  1.00  0.00     0.060 A 
ATOM     36  C   UNL A   1      39.127  31.060  32.084  1.00  0.00     0.016 A 
ATOM     37  C   UNL A   1      38.609  30.710  29.736  1.00  0.00     0.016 A 
ATOM     38  C   UNL A   1      40.473  31.249  31.771  1.00  0.00     0.010 A 
ATOM     39  C   UNL A   1      39.957  30.901  29.424  1.00  0.00     0.010 A 
ATOM     40  C   UNL A   1      40.888  31.205  30.435  1.00  0.00    -0.014 A 
BRANCH  40  41
ATOM     41  C   UNL A   1      42.260  31.614  30.047  1.00  0.00     0.031 A 
ATOM     42  C   UNL A   1      42.539  33.076  29.838  1.00  0.00     0.074 A 
ATOM     43  C   UNL A   1      43.217  30.699  29.814  1.00  0.00     0.049 A 
ATOM     44  N   UNL A   1      43.594  33.654  29.329  1.00  0.00    -0.248 NA
ATOM     45  C   UNL A   1      41.477  34.012  30.246  1.00  0.00     0.031 C 
ATOM     46  C   UNL A   1      43.072  29.256  30.002  1.00  0.00     0.029 A 
ATOM     47  N   UNL A   1      44.490  30.850  29.323  1.00  0.00    -0.354 N 
ATOM     48  C   UNL A   1      43.305  35.013  29.307  1.00  0.00     0.074 A 
ATOM     49  C   UNL A   1      41.978  35.176  29.856  1.00  0.00     0.031 C 
ATOM     50  C   UNL A   1      44.195  28.649  29.584  1.00  0.00     0.029 A 
ATOM     51  C   UNL A   1      45.118  29.654  29.060  1.00  0.00     0.049 A 
ATOM     52  H   UNL A   1      44.911  31.727  29.173  1.00  0.00     0.167 HD
ATOM     53  C   UNL A   1      44.079  36.034  28.869  1.00  0.00     0.034 A 
ATOM     54  C   UNL A   1      46.281  29.400  28.427  1.00  0.00     0.034 A 
ATOM     55  C   UNL A   1      45.406  35.865  28.343  1.00  0.00     0.049 A 
ATOM     56  C   UNL A   1      47.109  30.551  27.914  1.00  0.00     0.074 A 
ATOM     57  C   UNL A   1      46.292  36.841  27.925  1.00  0.00     0.029 A 
ATOM     58  N   UNL A   1      46.029  34.644  28.146  1.00  0.00    -0.354 N 
ATOM     59  N   UNL A   1      46.868  31.838  27.986  1.00  0.00    -0.248 NA
ATOM     60  C   UNL A   1      48.379  30.218  27.250  1.00  0.00     0.031 C 
ATOM     61  C   UNL A   1      47.437  36.207  27.433  1.00  0.00     0.029 A 
ATOM     62  C   UNL A   1      47.284  34.839  27.596  1.00  0.00     0.049 A 
ATOM     63  H   UNL A   1      45.638  33.768  28.365  1.00  0.00     0.167 HD
ATOM     64  C   UNL A   1      47.976  32.467  27.427  1.00  0.00     0.074 A 
ATOM     65  C   UNL A   1      48.891  31.421  27.021  1.00  0.00     0.031 C 
ATOM     66  C   UNL A   1      48.212  33.791  27.260  1.00  0.00     0.034 A 
BRANCH  53  67
ATOM     67  C   UNL A   1      43.517  37.428  28.942  1.00  0.00     0.023 A 
ATOM     68  C   UNL A   1      43.763  38.229  30.075  1.00  0.00     0.012 A 
ATOM     69  C   UNL A   1      42.801  37.968  27.855  1.00  0.00     0.148 A 
ATOM     70  C   UNL A   1      43.279  39.535  30.138  1.00  0.00     0.002 A 
ATOM     71  C   UNL A   1      42.363  39.285  27.905  1.00  0.00     0.091 A 
ATOM     72  F   UNL A   1      42.560  37.183  26.795  1.00  0.00    -0.205 F 
ATOM     73  C   UNL A   1      42.591  40.066  29.050  1.00  0.00     0.022 A 
BRANCH  71  74
ATOM     74  S   UNL A   1      41.543  40.087  26.524  1.00  0.00     0.127 S 
ATOM     75  O   UNL A   1      40.759  41.118  27.205  1.00  0.00    -0.237 OA
ATOM     76  O   UNL A   1      42.675  40.595  25.748  1.00  0.00    -0.237 OA
ATOM     77  O   UNL A   1      40.764  39.051  25.860  1.00  0.00    -0.744 OA
ENDBRANCH  71  74
ENDBRANCH  53  67
BRANCH  54  78
ATOM     78  C   UNL A   1      46.741  27.995  28.241  1.00  0.00     0.023 A 
ATOM     79  C   UNL A   1      47.517  27.377  29.240  1.00  0.00     0.012 A 
ATOM     80  C   UNL A   1      46.410  27.268  27.081  1.00  0.00     0.148 A 
ATOM     81  C   UNL A   1      47.987  26.075  29.071  1.00  0.00     0.002 A 
ATOM     82  C   UNL A   1      46.831  25.951  26.946  1.00  0.00     0.091 A 
ATOM     83  F   UNL A   1      45.680  27.878  26.136  1.00  0.00    -0.205 F 
ATOM     84  C   UNL A   1      47.636  25.359  27.930  1.00  0.00     0.022 A 
BRANCH  82  85
ATOM     85  S   UNL A   1      46.321  24.911  25.574  1.00  0.00     0.127 S 
ATOM     86  O   UNL A   1      44.876  25.123  25.561  1.00  0.00    -0.237 OA
ATOM     87  O   UNL A   1      47.045  25.518  24.456  1.00  0.00    -0.237 OA
ATOM     88  O   UNL A   1      46.761  23.566  25.918  1.00  0.00    -0.744 OA
ENDBRANCH  82  85
ENDBRANCH  54  78
BRANCH  66  89
ATOM     89  C   UNL A   1      49.539  34.213  26.684  1.00  0.00     0.023 A 
ATOM     90  C   UNL A   1      49.660  34.496  25.310  1.00  0.00     0.012 A 
ATOM     91  C   UNL A   1      50.634  34.448  27.540  1.00  0.00     0.148 A 
ATOM     92  C   UNL A   1      50.859  34.989  24.794  1.00  0.00     0.002 A 
ATOM     93  C   UNL A   1      51.806  34.988  27.028  1.00  0.00     0.091 A 
ATOM     94  F   UNL A   1      50.498  34.158  28.842  1.00  0.00    -0.205 F 
ATOM     95  C   UNL A   1      51.925  35.249  25.654  1.00  0.00     0.022 A 
BRANCH  93  96
ATOM     96  S   UNL A   1      53.191  35.456  28.073  1.00  0.00     0.127 S 
ATOM     97  O   UNL A   1      54.113  36.040  27.101  1.00  0.00    -0.237 OA
ATOM     98  O   UNL A   1      52.576  36.419  28.986  1.00  0.00    -0.237 OA
ATOM     99  O   UNL A   1      53.654  34.228  28.706  1.00  0.00    -0.744 OA
ENDBRANCH  93  96
ENDBRANCH  66  89
ENDBRANCH  40  41
ENDBRANCH  33  35
ENDBRANCH  32  33
ENDBRANCH  31  32
ENDBRANCH  30  31
ENDBRANCH   1  30
TORSDOF 23
ENDMDL
MODEL 3
REMARK VINA RESULT:      -8.9      2.765      8.131
REMARK SMILES CCC[NH+]1CCN(c2ccc(C(=O)OCCOCCOC(=O)c3ccc(-c4c5nc(c(-c6cccc(S(=O)(=O)[O-])c6F)c6ccc([nH]6)c(-c6cccc(S(=O)(=O)[O-])c6F)c6nc(c(-c7cccc(S(=O)(=O)[O-])c7F)c7ccc4[nH]7)C=C6)C=C5)cc3)cc2NS(=O)(=O)CC)CC1
REMARK SMILES IDX 17 1 16 2 15 3 14 4 12 5 13 6 11 7 8 8 9 9 87 10 10 11 86 12
REMARK SMILES IDX 7 13 4 14 5 15 95 16 6 18 94 19 3 20 2 21 1 22 88 23 89 25
REMARK SMILES IDX 90 26 91 27 92 28 93 29 18 30 19 31 20 32 21 33 22 34 23 35
REMARK SMILES IDX 24 36 85 37 25 38 84 39 26 40 27 41 28 42 78 43 29 44 83 45
REMARK SMILES IDX 77 46 79 47 30 48 82 49 76 50 75 51 31 53 63 54 43 55 62 56
REMARK SMILES IDX 44 57 47 58 61 59 80 60 45 61 46 62 60 64 81 65 48 66 32 67
REMARK SMILES IDX 33 68 41 69 34 70 36 71 42 72 35 73 37 74 38 75 39 76 40 77
REMARK SMILES IDX 64 78 65 79 73 80 66 81 68 82 74 83 67 84 69 85 70 86 71 87
REMARK SMILES IDX 72 88 49 89 50 90 58 91 51 92 53 93 59 94 52 95 54 96 55 97
REMARK SMILES IDX 56 98 57 99
REMARK H PARENT 4 17 88 24 79 52 47 63
REMARK Flexibility Score: inf
ROOT
ATOM      1  O   UNL A   1      33.641  32.420  27.910  1.00  0.00    -0.374 OA
ENDROOT
BRANCH   1   2
ATOM      2  C   UNL A   1      33.380  31.158  27.295  1.00  0.00     0.202 C 
BRANCH   2   3
ATOM      3  C   UNL A   1      31.942  30.941  26.816  1.00  0.00     0.261 C 
BRANCH   3   4
ATOM      4  O   UNL A   1      31.647  29.542  26.688  1.00  0.00    -0.460 OA
BRANCH   4   5
ATOM      5  C   UNL A   1      31.760  29.019  25.443  1.00  0.00     0.338 C 
ATOM      6  O   UNL A   1      31.571  29.594  24.382  1.00  0.00    -0.246 OA
BRANCH   5   7
ATOM      7  C   UNL A   1      32.316  27.646  25.538  1.00  0.00     0.062 A 
ATOM      8  C   UNL A   1      33.203  24.984  25.700  1.00  0.00     0.062 A 
ATOM      9  C   UNL A   1      32.323  25.493  26.658  1.00  0.00     0.029 A 
ATOM     10  C   UNL A   1      33.566  25.811  24.607  1.00  0.00     0.073 A 
ATOM     11  C   UNL A   1      31.865  26.811  26.569  1.00  0.00     0.018 A 
ATOM     12  C   UNL A   1      33.179  27.146  24.562  1.00  0.00     0.044 A 
BRANCH   8  13
ATOM     13  N   UNL A   1      33.736  23.705  25.774  1.00  0.00    -0.359 N 
ATOM     14  N   UNL A   1      34.779  20.996  26.149  1.00  0.00    -0.332 N 
ATOM     15  C   UNL A   1      35.635  22.202  26.034  1.00  0.00     0.283 C 
ATOM     16  C   UNL A   1      33.442  21.405  26.655  1.00  0.00     0.283 C 
ATOM     17  H   UNL A   1      35.234  20.363  26.807  1.00  0.00     0.348 HD
ATOM     18  C   UNL A   1      35.035  23.362  25.205  1.00  0.00     0.178 C 
ATOM     19  C   UNL A   1      32.779  22.587  25.904  1.00  0.00     0.178 C 
BRANCH  14  20
ATOM     20  C   UNL A   1      34.659  20.226  24.905  1.00  0.00     0.262 C 
BRANCH  20  21
ATOM     21  C   UNL A   1      33.487  19.233  24.877  1.00  0.00     0.058 C 
ATOM     22  C   UNL A   1      32.533  19.451  23.712  1.00  0.00     0.010 C 
ENDBRANCH  20  21
ENDBRANCH  14  20
ENDBRANCH   8  13
BRANCH  10  23
ATOM     23  N   UNL A   1      34.012  25.110  23.440  1.00  0.00    -0.281 N 
ATOM     24  H   UNL A   1      34.937  24.771  23.446  1.00  0.00     0.180 HD
BRANCH  23  25
ATOM     25  S   UNL A   1      33.107  24.821  22.084  1.00  0.00     0.232 S 
ATOM     26  O   UNL A   1      33.415  25.861  21.127  1.00  0.00    -0.207 OA
ATOM     27  O   UNL A   1      33.360  23.426  21.785  1.00  0.00    -0.207 OA
BRANCH  25  28
ATOM     28  C   UNL A   1      31.396  24.974  22.617  1.00  0.00     0.156 C 
ATOM     29  C   UNL A   1      30.794  23.712  23.207  1.00  0.00     0.023 C 
ENDBRANCH  25  28
ENDBRANCH  23  25
ENDBRANCH  10  23
ENDBRANCH   5   7
ENDBRANCH   4   5
ENDBRANCH   3   4
ENDBRANCH   2   3
ENDBRANCH   1   2
BRANCH   1  30
ATOM     30  C   UNL A   1      34.957  32.605  28.435  1.00  0.00     0.202 C 
BRANCH  30  31
ATOM     31  C   UNL A   1      35.669  31.334  28.919  1.00  0.00     0.261 C 
BRANCH  31  32
ATOM     32  O   UNL A   1      36.187  31.484  30.252  1.00  0.00    -0.460 OA
BRANCH  32  33
ATOM     33  C   UNL A   1      36.763  30.374  30.775  1.00  0.00     0.338 C 
ATOM     34  O   UNL A   1      36.198  29.391  31.228  1.00  0.00    -0.246 OA
BRANCH  33  35
ATOM     35  C   UNL A   1      38.219  30.435  30.553  1.00  0.00     0.060 A 
ATOM     36  C   UNL A   1      39.057  30.492  31.676  1.00  0.00     0.016 A 
ATOM     37  C   UNL A   1      38.755  30.472  29.265  1.00  0.00     0.016 A 
ATOM     38  C   UNL A   1      40.435  30.626  31.514  1.00  0.00     0.010 A 
ATOM     39  C   UNL A   1      40.134  30.607  29.104  1.00  0.00     0.010 A 
ATOM     40  C   UNL A   1      40.977  30.720  30.226  1.00  0.00    -0.014 A 
BRANCH  40  41
ATOM     41  C   UNL A   1      42.402  31.079  30.021  1.00  0.00     0.031 A 
ATOM     42  C   UNL A   1      42.780  32.533  30.015  1.00  0.00     0.074 A 
ATOM     43  C   UNL A   1      43.326  30.134  29.772  1.00  0.00     0.049 A 
ATOM     44  N   UNL A   1      43.911  33.094  29.680  1.00  0.00    -0.248 NA
ATOM     45  C   UNL A   1      41.734  33.485  30.430  1.00  0.00     0.031 C 
ATOM     46  C   UNL A   1      43.084  28.692  29.772  1.00  0.00     0.029 A 
ATOM     47  N   UNL A   1      44.648  30.255  29.425  1.00  0.00    -0.354 N 
ATOM     48  C   UNL A   1      43.700  34.463  29.793  1.00  0.00     0.074 A 
ATOM     49  C   UNL A   1      42.335  34.650  30.230  1.00  0.00     0.031 C 
ATOM     50  C   UNL A   1      44.209  28.063  29.392  1.00  0.00     0.029 A 
ATOM     51  C   UNL A   1      45.233  29.059  29.082  1.00  0.00     0.049 A 
ATOM     52  H   UNL A   1      45.130  31.114  29.421  1.00  0.00     0.167 HD
ATOM     53  C   UNL A   1      44.570  35.473  29.555  1.00  0.00     0.034 A 
ATOM     54  C   UNL A   1      46.440  28.802  28.535  1.00  0.00     0.034 A 
ATOM     55  C   UNL A   1      45.932  35.278  29.140  1.00  0.00     0.049 A 
ATOM     56  C   UNL A   1      47.376  29.946  28.243  1.00  0.00     0.074 A 
ATOM     57  C   UNL A   1      46.908  36.234  28.926  1.00  0.00     0.029 A 
ATOM     58  N   UNL A   1      46.504  34.049  28.858  1.00  0.00    -0.354 N 
ATOM     59  N   UNL A   1      47.200  31.229  28.446  1.00  0.00    -0.248 NA
ATOM     60  C   UNL A   1      48.687  29.607  27.667  1.00  0.00     0.031 C 
ATOM     61  C   UNL A   1      48.060  35.586  28.473  1.00  0.00     0.029 A 
ATOM     62  C   UNL A   1      47.817  34.221  28.456  1.00  0.00     0.049 A 
ATOM     63  H   UNL A   1      46.045  33.181  28.933  1.00  0.00     0.167 HD
ATOM     64  C   UNL A   1      48.391  31.843  28.072  1.00  0.00     0.074 A 
ATOM     65  C   UNL A   1      49.284  30.792  27.632  1.00  0.00     0.031 C 
ATOM     66  C   UNL A   1      48.715  33.159  28.087  1.00  0.00     0.034 A 
BRANCH  53  67
ATOM     67  C   UNL A   1      44.080  36.884  29.740  1.00  0.00     0.023 A 
ATOM     68  C   UNL A   1      44.362  37.577  30.935  1.00  0.00     0.012 A 
ATOM     69  C   UNL A   1      43.398  37.547  28.700  1.00  0.00     0.148 A 
ATOM     70  C   UNL A   1      43.945  38.897  31.103  1.00  0.00     0.002 A 
ATOM     71  C   UNL A   1      43.028  38.877  28.857  1.00  0.00     0.091 A 
ATOM     72  F   UNL A   1      43.121  36.863  27.580  1.00  0.00    -0.205 F 
ATOM     73  C   UNL A   1      43.291  39.549  30.061  1.00  0.00     0.022 A 
BRANCH  71  74
ATOM     74  S   UNL A   1      42.256  39.829  27.544  1.00  0.00     0.127 S 
ATOM     75  O   UNL A   1      41.315  40.657  28.297  1.00  0.00    -0.237 OA
ATOM     76  O   UNL A   1      43.396  40.556  26.983  1.00  0.00    -0.237 OA
ATOM     77  O   UNL A   1      41.649  38.858  26.645  1.00  0.00    -0.744 OA
ENDBRANCH  71  74
ENDBRANCH  53  67
BRANCH  54  78
ATOM     78  C   UNL A   1      46.838  27.399  28.227  1.00  0.00     0.023 A 
ATOM     79  C   UNL A   1      47.558  26.654  29.180  1.00  0.00     0.012 A 
ATOM     80  C   UNL A   1      46.506  26.801  26.996  1.00  0.00     0.148 A 
ATOM     81  C   UNL A   1      47.971  25.351  28.899  1.00  0.00     0.002 A 
ATOM     82  C   UNL A   1      46.869  25.483  26.747  1.00  0.00     0.091 A 
ATOM     83  F   UNL A   1      45.831  27.532  26.097  1.00  0.00    -0.205 F 
ATOM     84  C   UNL A   1      47.618  24.763  27.688  1.00  0.00     0.022 A 
BRANCH  82  85
ATOM     85  S   UNL A   1      46.348  24.603  25.271  1.00  0.00     0.127 S 
ATOM     86  O   UNL A   1      44.911  24.866  25.258  1.00  0.00    -0.237 OA
ATOM     87  O   UNL A   1      47.112  25.291  24.230  1.00  0.00    -0.237 OA
ATOM     88  O   UNL A   1      46.736  23.215  25.485  1.00  0.00    -0.744 OA
ENDBRANCH  82  85
ENDBRANCH  54  78
BRANCH  66  89
ATOM     89  C   UNL A   1      50.115  33.555  27.693  1.00  0.00     0.023 A 
ATOM     90  C   UNL A   1      51.158  33.517  28.637  1.00  0.00     0.012 A 
ATOM     91  C   UNL A   1      50.410  33.844  26.344  1.00  0.00     0.148 A 
ATOM     92  C   UNL A   1      52.471  33.779  28.249  1.00  0.00     0.002 A 
ATOM     93  C   UNL A   1      51.727  34.052  25.956  1.00  0.00     0.091 A 
ATOM     94  F   UNL A   1      49.398  33.887  25.466  1.00  0.00    -0.205 F 
ATOM     95  C   UNL A   1      52.758  34.031  26.908  1.00  0.00     0.022 A 
BRANCH  93  96
ATOM     96  S   UNL A   1      52.203  34.277  24.238  1.00  0.00     0.127 S 
ATOM     97  O   UNL A   1      51.660  33.068  23.619  1.00  0.00    -0.237 OA
ATOM     98  O   UNL A   1      51.503  35.511  23.885  1.00  0.00    -0.237 OA
ATOM     99  O   UNL A   1      53.656  34.378  24.229  1.00  0.00    -0.744 OA
ENDBRANCH  93  96
ENDBRANCH  66  89
ENDBRANCH  40  41
ENDBRANCH  33  35
ENDBRANCH  32  33
ENDBRANCH  31  32
ENDBRANCH  30  31
ENDBRANCH   1  30
TORSDOF 23
ENDMDL
