MODEL 1
REMARK VINA RESULT:     -10.2      0.000      0.000
REMARK SMILES CC(C)OCCS(=O)(=O)N1CCC[C@H](C(=O)OCCOCCOC(=O)c2ccc(-c3c4nc(c(-c5cccc(S(=O)(=O)[O-])c5F)c5ccc([nH]5)c(-c5cccc(S(=O)(=O)[O-])c5F)c5nc(c(-c6cccc(S(=O)(=O)[O-])c6F)c6ccc3[nH]6)C=C5)C=C4)cc2)C1
REMARK SMILES IDX 19 1 18 2 17 3 15 4 16 5 14 6 10 7 11 8 89 9 12 10 13 11
REMARK SMILES IDX 7 12 8 13 9 14 6 15 5 16 4 17 2 18 1 19 3 20 20 21 21 22
REMARK SMILES IDX 22 23 23 24 24 25 25 26 26 27 27 28 88 29 28 30 87 31 29 32
REMARK SMILES IDX 30 33 31 34 81 35 32 36 86 37 80 38 82 39 33 40 85 41 79 42
REMARK SMILES IDX 78 43 34 45 66 46 46 47 65 48 47 49 50 50 64 51 83 52 48 53
REMARK SMILES IDX 49 54 63 56 84 57 51 58 35 59 36 60 44 61 37 62 39 63 45 64
REMARK SMILES IDX 38 65 40 66 41 67 42 68 43 69 67 70 68 71 76 72 69 73 71 74
REMARK SMILES IDX 77 75 70 76 72 77 73 78 74 79 75 80 52 81 53 82 61 83 54 84
REMARK SMILES IDX 56 85 62 86 55 87 57 88 58 89 59 90 60 91
REMARK H PARENT 82 44 50 55
REMARK Flexibility Score: inf
ROOT
ATOM      1  C   UNL A   1      32.631  29.752  26.275  1.00  0.00     0.202 C 
ENDROOT
BRANCH   1   2
ATOM      2  C   UNL A   1      32.559  28.364  26.924  1.00  0.00     0.261 C 
BRANCH   2   3
ATOM      3  O   UNL A   1      33.473  27.415  26.345  1.00  0.00    -0.463 OA
BRANCH   3   4
ATOM      4  C   UNL A   1      33.206  27.081  25.062  1.00  0.00     0.310 C 
ATOM      5  O   UNL A   1      34.000  27.180  24.129  1.00  0.00    -0.252 OA
BRANCH   4   6
ATOM      6  C   UNL A   1      31.812  26.538  24.829  1.00  0.00     0.114 C 
ATOM      7  N   UNL A   1      31.658  24.016  25.188  1.00  0.00    -0.201 NA
ATOM      8  C   UNL A   1      31.013  23.870  23.869  1.00  0.00     0.102 C 
ATOM      9  C   UNL A   1      31.609  25.368  25.771  1.00  0.00     0.117 C 
ATOM     10  C   UNL A   1      31.566  24.912  22.904  1.00  0.00     0.018 C 
ATOM     11  C   UNL A   1      31.307  26.319  23.413  1.00  0.00     0.018 C 
BRANCH   7  12
ATOM     12  S   UNL A   1      31.444  22.720  26.292  1.00  0.00     0.216 S 
ATOM     13  O   UNL A   1      30.420  21.849  25.779  1.00  0.00    -0.212 OA
ATOM     14  O   UNL A   1      31.304  23.309  27.611  1.00  0.00    -0.212 OA
BRANCH  12  15
ATOM     15  C   UNL A   1      33.019  21.846  26.279  1.00  0.00     0.182 C 
BRANCH  15  16
ATOM     16  C   UNL A   1      34.258  22.622  25.812  1.00  0.00     0.178 C 
BRANCH  16  17
ATOM     17  O   UNL A   1      34.780  22.255  24.527  1.00  0.00    -0.378 OA
BRANCH  17  18
ATOM     18  C   UNL A   1      36.193  22.116  24.323  1.00  0.00     0.112 C 
ATOM     19  C   UNL A   1      36.654  22.950  23.129  1.00  0.00     0.038 C 
ATOM     20  C   UNL A   1      37.117  22.429  25.489  1.00  0.00     0.038 C 
ENDBRANCH  17  18
ENDBRANCH  16  17
ENDBRANCH  15  16
ENDBRANCH  12  15
ENDBRANCH   7  12
ENDBRANCH   4   6
ENDBRANCH   3   4
ENDBRANCH   2   3
ENDBRANCH   1   2
BRANCH   1  21
ATOM     21  O   UNL A   1      31.507  30.206  25.528  1.00  0.00    -0.374 OA
BRANCH  21  22
ATOM     22  C   UNL A   1      31.002  31.516  25.768  1.00  0.00     0.202 C 
BRANCH  22  23
ATOM     23  C   UNL A   1      31.451  32.264  27.033  1.00  0.00     0.261 C 
BRANCH  23  24
ATOM     24  O   UNL A   1      32.615  33.088  26.831  1.00  0.00    -0.460 OA
BRANCH  24  25
ATOM     25  C   UNL A   1      33.234  33.474  27.973  1.00  0.00     0.338 C 
ATOM     26  O   UNL A   1      32.765  34.172  28.857  1.00  0.00    -0.246 OA
BRANCH  25  27
ATOM     27  C   UNL A   1      34.527  32.790  28.140  1.00  0.00     0.060 A 
ATOM     28  C   UNL A   1      34.500  31.514  28.712  1.00  0.00     0.016 A 
ATOM     29  C   UNL A   1      35.739  33.452  27.935  1.00  0.00     0.016 A 
ATOM     30  C   UNL A   1      35.677  30.925  29.154  1.00  0.00     0.010 A 
ATOM     31  C   UNL A   1      36.927  32.856  28.383  1.00  0.00     0.010 A 
ATOM     32  C   UNL A   1      36.892  31.614  29.044  1.00  0.00    -0.014 A 
BRANCH  32  33
ATOM     33  C   UNL A   1      38.071  31.063  29.759  1.00  0.00     0.031 A 
ATOM     34  C   UNL A   1      38.336  31.468  31.186  1.00  0.00     0.074 A 
ATOM     35  C   UNL A   1      38.834  30.122  29.173  1.00  0.00     0.049 A 
ATOM     36  N   UNL A   1      39.251  31.031  32.013  1.00  0.00    -0.248 NA
ATOM     37  C   UNL A   1      37.450  32.493  31.763  1.00  0.00     0.031 C 
ATOM     38  C   UNL A   1      38.670  29.643  27.801  1.00  0.00     0.029 A 
ATOM     39  N   UNL A   1      39.896  29.404  29.658  1.00  0.00    -0.354 N 
ATOM     40  C   UNL A   1      39.063  31.732  33.199  1.00  0.00     0.074 A 
ATOM     41  C   UNL A   1      37.960  32.643  32.977  1.00  0.00     0.031 C 
ATOM     42  C   UNL A   1      39.610  28.717  27.548  1.00  0.00     0.029 A 
ATOM     43  C   UNL A   1      40.453  28.556  28.730  1.00  0.00     0.049 A 
ATOM     44  H   UNL A   1      40.227  29.485  30.581  1.00  0.00     0.167 HD
ATOM     45  C   UNL A   1      39.729  31.615  34.373  1.00  0.00     0.034 A 
ATOM     46  C   UNL A   1      41.535  27.758  28.817  1.00  0.00     0.034 A 
ATOM     47  C   UNL A   1      40.817  30.698  34.595  1.00  0.00     0.049 A 
ATOM     48  C   UNL A   1      42.273  27.665  30.126  1.00  0.00     0.074 A 
ATOM     49  C   UNL A   1      41.545  30.491  35.754  1.00  0.00     0.029 A 
ATOM     50  N   UNL A   1      41.342  29.843  33.638  1.00  0.00    -0.354 N 
ATOM     51  N   UNL A   1      42.020  28.264  31.263  1.00  0.00    -0.248 NA
ATOM     52  C   UNL A   1      43.425  26.752  30.171  1.00  0.00     0.031 C 
ATOM     53  C   UNL A   1      42.529  29.531  35.490  1.00  0.00     0.029 A 
ATOM     54  C   UNL A   1      42.388  29.111  34.177  1.00  0.00     0.049 A 
ATOM     55  H   UNL A   1      41.020  29.767  32.711  1.00  0.00     0.167 HD
ATOM     56  C   UNL A   1      42.960  27.781  32.167  1.00  0.00     0.074 A 
ATOM     57  C   UNL A   1      43.764  26.813  31.451  1.00  0.00     0.031 C 
ATOM     58  C   UNL A   1      43.156  28.122  33.465  1.00  0.00     0.034 A 
BRANCH  45  59
ATOM     59  C   UNL A   1      39.282  32.478  35.527  1.00  0.00     0.023 A 
ATOM     60  C   UNL A   1      38.403  31.947  36.494  1.00  0.00     0.012 A 
ATOM     61  C   UNL A   1      39.788  33.781  35.696  1.00  0.00     0.148 A 
ATOM     62  C   UNL A   1      38.013  32.709  37.595  1.00  0.00     0.002 A 
ATOM     63  C   UNL A   1      39.430  34.519  36.819  1.00  0.00     0.091 A 
ATOM     64  F   UNL A   1      40.609  34.275  34.758  1.00  0.00    -0.205 F 
ATOM     65  C   UNL A   1      38.535  33.990  37.762  1.00  0.00     0.022 A 
BRANCH  63  66
ATOM     66  S   UNL A   1      40.104  36.147  37.170  1.00  0.00     0.127 S 
ATOM     67  O   UNL A   1      41.482  35.822  37.538  1.00  0.00    -0.237 OA
ATOM     68  O   UNL A   1      39.961  36.823  35.880  1.00  0.00    -0.237 OA
ATOM     69  O   UNL A   1      39.289  36.700  38.242  1.00  0.00    -0.744 OA
ENDBRANCH  63  66
ENDBRANCH  45  59
BRANCH  46  70
ATOM     70  C   UNL A   1      41.985  26.981  27.628  1.00  0.00     0.023 A 
ATOM     71  C   UNL A   1      42.670  27.623  26.579  1.00  0.00     0.012 A 
ATOM     72  C   UNL A   1      41.728  25.599  27.537  1.00  0.00     0.148 A 
ATOM     73  C   UNL A   1      43.053  26.910  25.442  1.00  0.00     0.002 A 
ATOM     74  C   UNL A   1      42.166  24.884  26.431  1.00  0.00     0.091 A 
ATOM     75  F   UNL A   1      41.058  25.011  28.539  1.00  0.00    -0.205 F 
ATOM     76  C   UNL A   1      42.811  25.541  25.372  1.00  0.00     0.022 A 
BRANCH  74  77
ATOM     77  S   UNL A   1      42.006  23.100  26.317  1.00  0.00     0.127 S 
ATOM     78  O   UNL A   1      42.848  22.654  27.424  1.00  0.00    -0.237 OA
ATOM     79  O   UNL A   1      40.569  22.915  26.522  1.00  0.00    -0.237 OA
ATOM     80  O   UNL A   1      42.475  22.749  24.985  1.00  0.00    -0.744 OA
ENDBRANCH  74  77
ENDBRANCH  46  70
BRANCH  58  81
ATOM     81  C   UNL A   1      44.265  27.416  34.205  1.00  0.00     0.023 A 
ATOM     82  C   UNL A   1      45.531  28.024  34.323  1.00  0.00     0.012 A 
ATOM     83  C   UNL A   1      44.042  26.163  34.811  1.00  0.00     0.148 A 
ATOM     84  C   UNL A   1      46.574  27.372  34.981  1.00  0.00     0.002 A 
ATOM     85  C   UNL A   1      45.070  25.544  35.514  1.00  0.00     0.091 A 
ATOM     86  F   UNL A   1      42.836  25.592  34.678  1.00  0.00    -0.205 F 
ATOM     87  C   UNL A   1      46.340  26.139  35.584  1.00  0.00     0.022 A 
BRANCH  85  88
ATOM     88  S   UNL A   1      44.835  24.002  36.403  1.00  0.00     0.127 S 
ATOM     89  O   UNL A   1      46.201  23.482  36.463  1.00  0.00    -0.237 OA
ATOM     90  O   UNL A   1      44.301  24.462  37.685  1.00  0.00    -0.237 OA
ATOM     91  O   UNL A   1      43.901  23.218  35.607  1.00  0.00    -0.744 OA
ENDBRANCH  85  88
ENDBRANCH  58  81
ENDBRANCH  32  33
ENDBRANCH  25  27
ENDBRANCH  24  25
ENDBRANCH  23  24
ENDBRANCH  22  23
ENDBRANCH  21  22
ENDBRANCH   1  21
TORSDOF 22
ENDMDL
MODEL 2
REMARK VINA RESULT:     -10.2      2.133      8.253
REMARK SMILES CC(C)OCCS(=O)(=O)N1CCC[C@H](C(=O)OCCOCCOC(=O)c2ccc(-c3c4nc(c(-c5cccc(S(=O)(=O)[O-])c5F)c5ccc([nH]5)c(-c5cccc(S(=O)(=O)[O-])c5F)c5nc(c(-c6cccc(S(=O)(=O)[O-])c6F)c6ccc3[nH]6)C=C5)C=C4)cc2)C1
REMARK SMILES IDX 19 1 18 2 17 3 15 4 16 5 14 6 10 7 11 8 89 9 12 10 13 11
REMARK SMILES IDX 7 12 8 13 9 14 6 15 5 16 4 17 2 18 1 19 3 20 20 21 21 22
REMARK SMILES IDX 22 23 23 24 24 25 25 26 26 27 27 28 88 29 28 30 87 31 29 32
REMARK SMILES IDX 30 33 31 34 81 35 32 36 86 37 80 38 82 39 33 40 85 41 79 42
REMARK SMILES IDX 78 43 34 45 66 46 46 47 65 48 47 49 50 50 64 51 83 52 48 53
REMARK SMILES IDX 49 54 63 56 84 57 51 58 35 59 36 60 44 61 37 62 39 63 45 64
REMARK SMILES IDX 38 65 40 66 41 67 42 68 43 69 67 70 68 71 76 72 69 73 71 74
REMARK SMILES IDX 77 75 70 76 72 77 73 78 74 79 75 80 52 81 53 82 61 83 54 84
REMARK SMILES IDX 56 85 62 86 55 87 57 88 58 89 59 90 60 91
REMARK H PARENT 82 44 50 55
REMARK Flexibility Score: inf
ROOT
ATOM      1  C   UNL A   1      33.180  30.308  26.758  1.00  0.00     0.202 C 
ENDROOT
BRANCH   1   2
ATOM      2  C   UNL A   1      33.603  28.912  27.227  1.00  0.00     0.261 C 
BRANCH   2   3
ATOM      3  O   UNL A   1      32.491  28.033  27.481  1.00  0.00    -0.463 OA
BRANCH   3   4
ATOM      4  C   UNL A   1      32.433  26.947  26.676  1.00  0.00     0.310 C 
ATOM      5  O   UNL A   1      31.440  26.239  26.519  1.00  0.00    -0.252 OA
BRANCH   4   6
ATOM      6  C   UNL A   1      33.716  26.644  25.931  1.00  0.00     0.114 C 
ATOM      7  N   UNL A   1      33.323  26.071  23.476  1.00  0.00    -0.201 NA
ATOM      8  C   UNL A   1      34.130  24.846  23.635  1.00  0.00     0.102 C 
ATOM      9  C   UNL A   1      33.537  27.108  24.499  1.00  0.00     0.117 C 
ATOM     10  C   UNL A   1      33.948  24.286  25.041  1.00  0.00     0.018 C 
ATOM     11  C   UNL A   1      34.388  25.291  26.090  1.00  0.00     0.018 C 
BRANCH   7  12
ATOM     12  S   UNL A   1      33.106  26.640  21.871  1.00  0.00     0.216 S 
ATOM     13  O   UNL A   1      33.286  25.535  20.967  1.00  0.00    -0.212 OA
ATOM     14  O   UNL A   1      33.922  27.833  21.734  1.00  0.00    -0.212 OA
BRANCH  12  15
ATOM     15  C   UNL A   1      31.387  27.177  21.807  1.00  0.00     0.182 C 
BRANCH  15  16
ATOM     16  C   UNL A   1      31.001  28.419  22.622  1.00  0.00     0.178 C 
BRANCH  16  17
ATOM     17  O   UNL A   1      30.381  29.483  21.886  1.00  0.00    -0.378 OA
BRANCH  17  18
ATOM     18  C   UNL A   1      29.068  29.946  22.233  1.00  0.00     0.112 C 
ATOM     19  C   UNL A   1      28.538  30.917  21.181  1.00  0.00     0.038 C 
ATOM     20  C   UNL A   1      27.989  28.906  22.489  1.00  0.00     0.038 C 
ENDBRANCH  17  18
ENDBRANCH  16  17
ENDBRANCH  15  16
ENDBRANCH  12  15
ENDBRANCH   7  12
ENDBRANCH   4   6
ENDBRANCH   3   4
ENDBRANCH   2   3
ENDBRANCH   1   2
BRANCH   1  21
ATOM     21  O   UNL A   1      31.790  30.622  26.738  1.00  0.00    -0.374 OA
BRANCH  21  22
ATOM     22  C   UNL A   1      31.392  31.987  26.654  1.00  0.00     0.202 C 
BRANCH  22  23
ATOM     23  C   UNL A   1      32.451  33.083  26.852  1.00  0.00     0.261 C 
BRANCH  23  24
ATOM     24  O   UNL A   1      32.166  33.964  27.955  1.00  0.00    -0.460 OA
BRANCH  24  25
ATOM     25  C   UNL A   1      33.242  34.640  28.424  1.00  0.00     0.338 C 
ATOM     26  O   UNL A   1      33.281  35.815  28.753  1.00  0.00    -0.246 OA
BRANCH  25  27
ATOM     27  C   UNL A   1      34.374  33.734  28.682  1.00  0.00     0.060 A 
ATOM     28  C   UNL A   1      34.106  32.583  29.431  1.00  0.00     0.016 A 
ATOM     29  C   UNL A   1      35.688  34.096  28.379  1.00  0.00     0.016 A 
ATOM     30  C   UNL A   1      35.153  31.831  29.947  1.00  0.00     0.010 A 
ATOM     31  C   UNL A   1      36.743  33.334  28.902  1.00  0.00     0.010 A 
ATOM     32  C   UNL A   1      36.478  32.231  29.734  1.00  0.00    -0.014 A 
BRANCH  32  33
ATOM     33  C   UNL A   1      37.543  31.554  30.516  1.00  0.00     0.031 A 
ATOM     34  C   UNL A   1      38.379  30.480  29.869  1.00  0.00     0.074 A 
ATOM     35  C   UNL A   1      37.834  31.976  31.761  1.00  0.00     0.049 A 
ATOM     36  N   UNL A   1      39.413  29.837  30.348  1.00  0.00    -0.248 NA
ATOM     37  C   UNL A   1      38.008  30.082  28.501  1.00  0.00     0.031 C 
ATOM     38  C   UNL A   1      37.102  33.012  32.489  1.00  0.00     0.029 A 
ATOM     39  N   UNL A   1      38.819  31.583  32.630  1.00  0.00    -0.354 N 
ATOM     40  C   UNL A   1      39.810  28.952  29.350  1.00  0.00     0.074 A 
ATOM     41  C   UNL A   1      38.888  29.123  28.248  1.00  0.00     0.031 C 
ATOM     42  C   UNL A   1      37.656  33.165  33.703  1.00  0.00     0.029 A 
ATOM     43  C   UNL A   1      38.764  32.223  33.845  1.00  0.00     0.049 A 
ATOM     44  H   UNL A   1      39.501  30.910  32.405  1.00  0.00     0.167 HD
ATOM     45  C   UNL A   1      40.857  28.093  29.341  1.00  0.00     0.034 A 
ATOM     46  C   UNL A   1      39.509  32.052  34.954  1.00  0.00     0.034 A 
ATOM     47  C   UNL A   1      41.780  27.934  30.435  1.00  0.00     0.049 A 
ATOM     48  C   UNL A   1      40.651  31.072  34.927  1.00  0.00     0.074 A 
ATOM     49  C   UNL A   1      42.884  27.104  30.516  1.00  0.00     0.029 A 
ATOM     50  N   UNL A   1      41.704  28.612  31.643  1.00  0.00    -0.354 N 
ATOM     51  N   UNL A   1      41.069  30.316  33.941  1.00  0.00    -0.248 NA
ATOM     52  C   UNL A   1      41.450  30.953  36.155  1.00  0.00     0.031 C 
ATOM     53  C   UNL A   1      43.459  27.257  31.783  1.00  0.00     0.029 A 
ATOM     54  C   UNL A   1      42.736  28.214  32.477  1.00  0.00     0.049 A 
ATOM     55  H   UNL A   1      41.017  29.278  31.873  1.00  0.00     0.167 HD
ATOM     56  C   UNL A   1      42.194  29.653  34.419  1.00  0.00     0.074 A 
ATOM     57  C   UNL A   1      42.412  30.126  35.770  1.00  0.00     0.031 C 
ATOM     58  C   UNL A   1      42.965  28.721  33.805  1.00  0.00     0.034 A 
BRANCH  45  59
ATOM     59  C   UNL A   1      41.086  27.273  28.096  1.00  0.00     0.023 A 
ATOM     60  C   UNL A   1      41.703  27.868  26.975  1.00  0.00     0.012 A 
ATOM     61  C   UNL A   1      40.763  25.903  28.060  1.00  0.00     0.148 A 
ATOM     62  C   UNL A   1      41.968  27.118  25.829  1.00  0.00     0.002 A 
ATOM     63  C   UNL A   1      41.071  25.152  26.931  1.00  0.00     0.091 A 
ATOM     64  F   UNL A   1      40.163  25.359  29.128  1.00  0.00    -0.205 F 
ATOM     65  C   UNL A   1      41.662  25.759  25.812  1.00  0.00     0.022 A 
BRANCH  63  66
ATOM     66  S   UNL A   1      40.790  23.380  26.834  1.00  0.00     0.127 S 
ATOM     67  O   UNL A   1      39.367  23.325  26.495  1.00  0.00    -0.237 OA
ATOM     68  O   UNL A   1      41.690  22.986  25.749  1.00  0.00    -0.237 OA
ATOM     69  O   UNL A   1      41.138  22.843  28.141  1.00  0.00    -0.744 OA
ENDBRANCH  63  66
ENDBRANCH  45  59
BRANCH  46  70
ATOM     70  C   UNL A   1      39.198  32.830  36.188  1.00  0.00     0.023 A 
ATOM     71  C   UNL A   1      39.718  34.127  36.357  1.00  0.00     0.012 A 
ATOM     72  C   UNL A   1      38.389  32.274  37.199  1.00  0.00     0.148 A 
ATOM     73  C   UNL A   1      39.469  34.842  37.531  1.00  0.00     0.002 A 
ATOM     74  C   UNL A   1      38.096  33.015  38.336  1.00  0.00     0.091 A 
ATOM     75  F   UNL A   1      37.921  31.030  37.025  1.00  0.00    -0.205 F 
ATOM     76  C   UNL A   1      38.652  34.291  38.514  1.00  0.00     0.022 A 
BRANCH  74  77
ATOM     77  S   UNL A   1      36.953  32.431  39.591  1.00  0.00     0.127 S 
ATOM     78  O   UNL A   1      35.699  32.365  38.845  1.00  0.00    -0.237 OA
ATOM     79  O   UNL A   1      37.531  31.133  39.942  1.00  0.00    -0.237 OA
ATOM     80  O   UNL A   1      37.004  33.421  40.657  1.00  0.00    -0.744 OA
ENDBRANCH  74  77
ENDBRANCH  46  70
BRANCH  58  81
ATOM     81  C   UNL A   1      44.139  28.176  34.581  1.00  0.00     0.023 A 
ATOM     82  C   UNL A   1      45.366  28.870  34.582  1.00  0.00     0.012 A 
ATOM     83  C   UNL A   1      44.017  26.992  35.334  1.00  0.00     0.148 A 
ATOM     84  C   UNL A   1      46.467  28.365  35.273  1.00  0.00     0.002 A 
ATOM     85  C   UNL A   1      45.102  26.524  36.066  1.00  0.00     0.091 A 
ATOM     86  F   UNL A   1      42.847  26.336  35.311  1.00  0.00    -0.205 F 
ATOM     87  C   UNL A   1      46.332  27.199  36.021  1.00  0.00     0.022 A 
BRANCH  85  88
ATOM     88  S   UNL A   1      44.994  25.084  37.134  1.00  0.00     0.127 S 
ATOM     89  O   UNL A   1      44.938  23.994  36.160  1.00  0.00    -0.237 OA
ATOM     90  O   UNL A   1      46.246  25.164  37.888  1.00  0.00    -0.237 OA
ATOM     91  O   UNL A   1      43.794  25.269  37.937  1.00  0.00    -0.744 OA
ENDBRANCH  85  88
ENDBRANCH  58  81
ENDBRANCH  32  33
ENDBRANCH  25  27
ENDBRANCH  24  25
ENDBRANCH  23  24
ENDBRANCH  22  23
ENDBRANCH  21  22
ENDBRANCH   1  21
TORSDOF 22
ENDMDL
MODEL 3
REMARK VINA RESULT:     -10.0      1.540      2.149
REMARK SMILES CC(C)OCCS(=O)(=O)N1CCC[C@H](C(=O)OCCOCCOC(=O)c2ccc(-c3c4nc(c(-c5cccc(S(=O)(=O)[O-])c5F)c5ccc([nH]5)c(-c5cccc(S(=O)(=O)[O-])c5F)c5nc(c(-c6cccc(S(=O)(=O)[O-])c6F)c6ccc3[nH]6)C=C5)C=C4)cc2)C1
REMARK SMILES IDX 19 1 18 2 17 3 15 4 16 5 14 6 10 7 11 8 89 9 12 10 13 11
REMARK SMILES IDX 7 12 8 13 9 14 6 15 5 16 4 17 2 18 1 19 3 20 20 21 21 22
REMARK SMILES IDX 22 23 23 24 24 25 25 26 26 27 27 28 88 29 28 30 87 31 29 32
REMARK SMILES IDX 30 33 31 34 81 35 32 36 86 37 80 38 82 39 33 40 85 41 79 42
REMARK SMILES IDX 78 43 34 45 66 46 46 47 65 48 47 49 50 50 64 51 83 52 48 53
REMARK SMILES IDX 49 54 63 56 84 57 51 58 35 59 36 60 44 61 37 62 39 63 45 64
REMARK SMILES IDX 38 65 40 66 41 67 42 68 43 69 67 70 68 71 76 72 69 73 71 74
REMARK SMILES IDX 77 75 70 76 72 77 73 78 74 79 75 80 52 81 53 82 61 83 54 84
REMARK SMILES IDX 56 85 62 86 55 87 57 88 58 89 59 90 60 91
REMARK H PARENT 82 44 50 55
REMARK Flexibility Score: inf
ROOT
ATOM      1  C   UNL A   1      31.861  27.853  23.732  1.00  0.00     0.202 C 
ENDROOT
BRANCH   1   2
ATOM      2  C   UNL A   1      32.805  27.015  24.601  1.00  0.00     0.261 C 
BRANCH   2   3
ATOM      3  O   UNL A   1      32.299  26.775  25.928  1.00  0.00    -0.463 OA
BRANCH   3   4
ATOM      4  C   UNL A   1      31.367  25.798  26.010  1.00  0.00     0.310 C 
ATOM      5  O   UNL A   1      30.187  25.923  25.689  1.00  0.00    -0.252 OA
BRANCH   4   6
ATOM      6  C   UNL A   1      31.884  24.475  26.531  1.00  0.00     0.114 C 
ATOM      7  N   UNL A   1      32.184  22.735  24.688  1.00  0.00    -0.201 NA
ATOM      8  C   UNL A   1      31.400  21.766  25.478  1.00  0.00     0.102 C 
ATOM      9  C   UNL A   1      32.751  23.860  25.449  1.00  0.00     0.117 C 
ATOM     10  C   UNL A   1      30.324  22.498  26.273  1.00  0.00     0.018 C 
ATOM     11  C   UNL A   1      30.941  23.507  27.224  1.00  0.00     0.018 C 
BRANCH   7  12
ATOM     12  S   UNL A   1      33.191  22.082  23.460  1.00  0.00     0.216 S 
ATOM     13  O   UNL A   1      33.626  23.157  22.608  1.00  0.00    -0.212 OA
ATOM     14  O   UNL A   1      32.483  20.947  22.896  1.00  0.00    -0.212 OA
BRANCH  12  15
ATOM     15  C   UNL A   1      34.614  21.419  24.343  1.00  0.00     0.182 C 
BRANCH  15  16
ATOM     16  C   UNL A   1      34.408  20.135  25.158  1.00  0.00     0.178 C 
BRANCH  16  17
ATOM     17  O   UNL A   1      34.619  18.904  24.452  1.00  0.00    -0.378 OA
BRANCH  17  18
ATOM     18  C   UNL A   1      33.613  17.882  24.444  1.00  0.00     0.112 C 
ATOM     19  C   UNL A   1      33.162  17.573  23.019  1.00  0.00     0.038 C 
ATOM     20  C   UNL A   1      33.932  16.561  25.126  1.00  0.00     0.038 C 
ENDBRANCH  17  18
ENDBRANCH  16  17
ENDBRANCH  15  16
ENDBRANCH  12  15
ENDBRANCH   7  12
ENDBRANCH   4   6
ENDBRANCH   3   4
ENDBRANCH   2   3
ENDBRANCH   1   2
BRANCH   1  21
ATOM     21  O   UNL A   1      31.648  29.216  24.087  1.00  0.00    -0.374 OA
BRANCH  21  22
ATOM     22  C   UNL A   1      32.452  29.796  25.109  1.00  0.00     0.202 C 
BRANCH  22  23
ATOM     23  C   UNL A   1      31.802  30.775  26.099  1.00  0.00     0.261 C 
BRANCH  23  24
ATOM     24  O   UNL A   1      32.485  30.850  27.366  1.00  0.00    -0.460 OA
BRANCH  24  25
ATOM     25  C   UNL A   1      33.264  31.948  27.516  1.00  0.00     0.338 C 
ATOM     26  O   UNL A   1      32.887  33.104  27.612  1.00  0.00    -0.246 OA
BRANCH  25  27
ATOM     27  C   UNL A   1      34.672  31.579  27.745  1.00  0.00     0.060 A 
ATOM     28  C   UNL A   1      34.947  30.221  27.941  1.00  0.00     0.016 A 
ATOM     29  C   UNL A   1      35.657  32.543  27.963  1.00  0.00     0.016 A 
ATOM     30  C   UNL A   1      36.185  29.827  28.431  1.00  0.00     0.010 A 
ATOM     31  C   UNL A   1      36.906  32.142  28.459  1.00  0.00     0.010 A 
ATOM     32  C   UNL A   1      37.155  30.787  28.746  1.00  0.00    -0.014 A 
BRANCH  32  33
ATOM     33  C   UNL A   1      38.351  30.344  29.506  1.00  0.00     0.031 A 
ATOM     34  C   UNL A   1      38.554  30.813  30.923  1.00  0.00     0.074 A 
ATOM     35  C   UNL A   1      39.190  29.438  28.969  1.00  0.00     0.049 A 
ATOM     36  N   UNL A   1      39.478  30.469  31.784  1.00  0.00    -0.248 NA
ATOM     37  C   UNL A   1      37.587  31.794  31.445  1.00  0.00     0.031 C 
ATOM     38  C   UNL A   1      39.091  28.903  27.611  1.00  0.00     0.029 A 
ATOM     39  N   UNL A   1      40.287  28.811  29.501  1.00  0.00    -0.354 N 
ATOM     40  C   UNL A   1      39.214  31.195  32.940  1.00  0.00     0.074 A 
ATOM     41  C   UNL A   1      38.058  32.019  32.663  1.00  0.00     0.031 C 
ATOM     42  C   UNL A   1      40.098  28.037  27.411  1.00  0.00     0.029 A 
ATOM     43  C   UNL A   1      40.922  27.974  28.615  1.00  0.00     0.049 A 
ATOM     44  H   UNL A   1      40.590  28.947  30.427  1.00  0.00     0.167 HD
ATOM     45  C   UNL A   1      39.859  31.163  34.131  1.00  0.00     0.034 A 
ATOM     46  C   UNL A   1      42.054  27.256  28.753  1.00  0.00     0.034 A 
ATOM     47  C   UNL A   1      41.002  30.331  34.408  1.00  0.00     0.049 A 
ATOM     48  C   UNL A   1      42.766  27.258  30.079  1.00  0.00     0.074 A 
ATOM     49  C   UNL A   1      41.715  30.214  35.588  1.00  0.00     0.029 A 
ATOM     50  N   UNL A   1      41.606  29.483  33.492  1.00  0.00    -0.354 N 
ATOM     51  N   UNL A   1      42.446  27.876  31.190  1.00  0.00    -0.248 NA
ATOM     52  C   UNL A   1      43.976  26.429  30.181  1.00  0.00     0.031 C 
ATOM     53  C   UNL A   1      42.768  29.316  35.379  1.00  0.00     0.029 A 
ATOM     54  C   UNL A   1      42.687  28.844  34.078  1.00  0.00     0.049 A 
ATOM     55  H   UNL A   1      41.312  29.354  32.563  1.00  0.00     0.167 HD
ATOM     56  C   UNL A   1      43.395  27.490  32.129  1.00  0.00     0.074 A 
ATOM     57  C   UNL A   1      44.281  26.556  31.465  1.00  0.00     0.031 C 
ATOM     58  C   UNL A   1      43.537  27.887  33.419  1.00  0.00     0.034 A 
BRANCH  45  59
ATOM     59  C   UNL A   1      39.328  32.031  35.245  1.00  0.00     0.023 A 
ATOM     60  C   UNL A   1      38.359  31.513  36.129  1.00  0.00     0.012 A 
ATOM     61  C   UNL A   1      39.839  33.325  35.461  1.00  0.00     0.148 A 
ATOM     62  C   UNL A   1      37.887  32.280  37.194  1.00  0.00     0.002 A 
ATOM     63  C   UNL A   1      39.396  34.067  36.551  1.00  0.00     0.091 A 
ATOM     64  F   UNL A   1      40.747  33.807  34.601  1.00  0.00    -0.205 F 
ATOM     65  C   UNL A   1      38.413  33.551  37.411  1.00  0.00     0.022 A 
BRANCH  63  66
ATOM     66  S   UNL A   1      40.064  35.682  36.965  1.00  0.00     0.127 S 
ATOM     67  O   UNL A   1      39.685  36.468  35.790  1.00  0.00    -0.237 OA
ATOM     68  O   UNL A   1      39.326  36.016  38.184  1.00  0.00    -0.237 OA
ATOM     69  O   UNL A   1      41.495  35.494  37.150  1.00  0.00    -0.744 OA
ENDBRANCH  63  66
ENDBRANCH  45  59
BRANCH  46  70
ATOM     70  C   UNL A   1      42.584  26.472  27.601  1.00  0.00     0.023 A 
ATOM     71  C   UNL A   1      43.472  27.070  26.687  1.00  0.00     0.012 A 
ATOM     72  C   UNL A   1      42.200  25.130  27.412  1.00  0.00     0.148 A 
ATOM     73  C   UNL A   1      43.935  26.355  25.580  1.00  0.00     0.002 A 
ATOM     74  C   UNL A   1      42.714  24.407  26.344  1.00  0.00     0.091 A 
ATOM     75  F   UNL A   1      41.340  24.587  28.285  1.00  0.00    -0.205 F 
ATOM     76  C   UNL A   1      43.565  25.023  25.414  1.00  0.00     0.022 A 
BRANCH  74  77
ATOM     77  S   UNL A   1      42.388  22.655  26.127  1.00  0.00     0.127 S 
ATOM     78  O   UNL A   1      40.928  22.620  26.140  1.00  0.00    -0.237 OA
ATOM     79  O   UNL A   1      43.000  22.396  24.823  1.00  0.00    -0.237 OA
ATOM     80  O   UNL A   1      43.046  21.994  27.244  1.00  0.00    -0.744 OA
ENDBRANCH  74  77
ENDBRANCH  46  70
BRANCH  58  81
ATOM     81  C   UNL A   1      44.674  27.284  34.206  1.00  0.00     0.023 A 
ATOM     82  C   UNL A   1      45.932  27.919  34.224  1.00  0.00     0.012 A 
ATOM     83  C   UNL A   1      44.486  26.104  34.954  1.00  0.00     0.148 A 
ATOM     84  C   UNL A   1      47.000  27.360  34.926  1.00  0.00     0.002 A 
ATOM     85  C   UNL A   1      45.540  25.583  35.696  1.00  0.00     0.091 A 
ATOM     86  F   UNL A   1      43.287  25.505  34.914  1.00  0.00    -0.205 F 
ATOM     87  C   UNL A   1      46.801  26.200  35.669  1.00  0.00     0.022 A 
BRANCH  85  88
ATOM     88  S   UNL A   1      45.351  24.147  36.758  1.00  0.00     0.127 S 
ATOM     89  O   UNL A   1      44.757  23.175  35.841  1.00  0.00    -0.237 OA
ATOM     90  O   UNL A   1      46.734  23.860  37.139  1.00  0.00    -0.237 OA
ATOM     91  O   UNL A   1      44.498  24.571  37.859  1.00  0.00    -0.744 OA
ENDBRANCH  85  88
ENDBRANCH  58  81
ENDBRANCH  32  33
ENDBRANCH  25  27
ENDBRANCH  24  25
ENDBRANCH  23  24
ENDBRANCH  22  23
ENDBRANCH  21  22
ENDBRANCH   1  21
TORSDOF 22
ENDMDL
