MODEL 1
REMARK VINA RESULT:     -12.0      0.000      0.000
REMARK SMILES O=C(OCCOCCOC(=O)c1ccc(-c2c3nc(c(-c4cccc(S(=O)(=O)[O-])c4F)c4ccc([nH]4)c(-c4cccc(S(=O)(=O)[O-])c4F)c4nc(c(-c5cccc(S(=O)(=O)[O-])c5F)c5ccc2[nH]5)C=C4)C=C3)cc1)C1=Cc2c(ccc(Cl)c2-c2ccccc2)O[C@H]1C(F)(F)F
REMARK SMILES IDX 7 1 6 2 5 3 4 4 3 5 2 6 1 7 75 8 76 9 91 10 77 11 90 12
REMARK SMILES IDX 78 13 83 14 79 15 81 16 80 17 82 18 92 19 93 20 94 21 95 22
REMARK SMILES IDX 84 23 85 24 89 25 86 26 88 27 87 28 8 29 9 30 10 31 11 32
REMARK SMILES IDX 12 33 13 34 74 35 14 36 73 37 15 38 16 39 17 40 67 41 18 42
REMARK SMILES IDX 72 43 66 44 68 45 19 46 71 47 65 48 64 49 20 51 52 52 32 53
REMARK SMILES IDX 51 54 33 55 36 56 50 57 69 58 34 59 35 60 49 62 70 63 37 64
REMARK SMILES IDX 21 65 22 66 30 67 23 68 25 69 31 70 24 71 26 72 27 73 28 74
REMARK SMILES IDX 29 75 53 76 54 77 62 78 55 79 57 80 63 81 56 82 58 83 59 84
REMARK SMILES IDX 60 85 61 86 38 87 39 88 47 89 40 90 42 91 48 92 41 93 43 94
REMARK SMILES IDX 44 95 45 96 46 97
REMARK H PARENT 68 50 36 61
REMARK Flexibility Score: inf
ROOT
ATOM      1  C   UNL A   1      34.863  23.821  26.560  1.00  0.00     0.202 C 
ENDROOT
BRANCH   1   2
ATOM      2  O   UNL A   1      33.693  24.371  25.973  1.00  0.00    -0.374 OA
BRANCH   2   3
ATOM      3  C   UNL A   1      33.547  25.769  26.014  1.00  0.00     0.202 C 
BRANCH   3   4
ATOM      4  C   UNL A   1      32.323  26.389  26.726  1.00  0.00     0.261 C 
BRANCH   4   5
ATOM      5  O   UNL A   1      31.338  25.399  27.051  1.00  0.00    -0.460 OA
BRANCH   5   6
ATOM      6  C   UNL A   1      30.277  25.121  26.267  1.00  0.00     0.338 C 
ATOM      7  O   UNL A   1      29.212  24.780  26.775  1.00  0.00    -0.246 OA
BRANCH   6   8
ATOM      8  C   UNL A   1      30.382  25.159  24.791  1.00  0.00     0.087 C 
ATOM      9  C   UNL A   1      30.503  24.145  23.918  1.00  0.00     0.028 C 
ATOM     10  C   UNL A   1      30.051  26.471  24.152  1.00  0.00     0.316 C 
ATOM     11  C   UNL A   1      31.715  24.320  23.130  1.00  0.00     0.027 A 
ATOM     12  O   UNL A   1      30.813  26.622  22.895  1.00  0.00    -0.475 OA
ATOM     13  C   UNL A   1      31.819  25.679  22.674  1.00  0.00     0.128 A 
ATOM     14  C   UNL A   1      32.715  23.302  22.990  1.00  0.00     0.011 A 
ATOM     15  C   UNL A   1      32.957  26.089  22.025  1.00  0.00     0.049 A 
ATOM     16  C   UNL A   1      33.909  23.849  22.469  1.00  0.00     0.049 A 
ATOM     17  C   UNL A   1      34.008  25.180  21.959  1.00  0.00     0.025 A 
ATOM     18  Cl  UNL A   1      35.424  23.042  22.545  1.00  0.00    -0.084 Cl
BRANCH  10  19
ATOM     19  C   UNL A   1      28.507  26.494  23.973  1.00  0.00     0.430 C 
ATOM     20  F   UNL A   1      28.082  25.540  23.095  1.00  0.00    -0.167 F 
ATOM     21  F   UNL A   1      27.845  26.269  25.127  1.00  0.00    -0.167 F 
ATOM     22  F   UNL A   1      28.077  27.672  23.466  1.00  0.00    -0.167 F 
ENDBRANCH  10  19
BRANCH  14  23
ATOM     23  C   UNL A   1      32.525  21.785  23.388  1.00  0.00    -0.016 A 
ATOM     24  C   UNL A   1      32.718  21.216  25.102  1.00  0.00     0.009 A 
ATOM     25  C   UNL A   1      32.181  20.527  22.129  1.00  0.00     0.009 A 
ATOM     26  C   UNL A   1      32.648  19.457  25.550  1.00  0.00     0.001 A 
ATOM     27  C   UNL A   1      32.076  18.752  22.545  1.00  0.00     0.001 A 
ATOM     28  C   UNL A   1      32.310  18.214  24.270  1.00  0.00     0.000 A 
ENDBRANCH  14  23
ENDBRANCH   6   8
ENDBRANCH   5   6
ENDBRANCH   4   5
ENDBRANCH   3   4
ENDBRANCH   2   3
ENDBRANCH   1   2
BRANCH   1  29
ATOM     29  C   UNL A   1      35.565  22.442  26.007  1.00  0.00     0.261 C 
BRANCH  29  30
ATOM     30  O   UNL A   1      37.475  21.819  25.842  1.00  0.00    -0.460 OA
BRANCH  30  31
ATOM     31  C   UNL A   1      38.853  21.649  26.069  1.00  0.00     0.338 C 
ATOM     32  O   UNL A   1      39.580  20.684  25.845  1.00  0.00    -0.246 OA
BRANCH  31  33
ATOM     33  C   UNL A   1      39.402  22.844  26.693  1.00  0.00     0.060 A 
ATOM     34  C   UNL A   1      38.786  24.059  26.406  1.00  0.00     0.016 A 
ATOM     35  C   UNL A   1      40.520  22.744  27.530  1.00  0.00     0.016 A 
ATOM     36  C   UNL A   1      39.301  25.206  26.979  1.00  0.00     0.010 A 
ATOM     37  C   UNL A   1      40.992  23.875  28.161  1.00  0.00     0.010 A 
ATOM     38  C   UNL A   1      40.411  25.106  27.830  1.00  0.00    -0.014 A 
BRANCH  38  39
ATOM     39  C   UNL A   1      41.213  26.306  28.055  1.00  0.00     0.031 A 
ATOM     40  C   UNL A   1      40.532  27.402  28.814  1.00  0.00     0.074 A 
ATOM     41  C   UNL A   1      42.459  26.395  27.575  1.00  0.00     0.049 A 
ATOM     42  N   UNL A   1      40.987  28.570  29.158  1.00  0.00    -0.248 NA
ATOM     43  C   UNL A   1      39.138  27.148  29.237  1.00  0.00     0.031 C 
ATOM     44  C   UNL A   1      43.153  25.362  26.810  1.00  0.00     0.029 A 
ATOM     45  N   UNL A   1      43.352  27.425  27.646  1.00  0.00    -0.354 N 
ATOM     46  C   UNL A   1      39.933  29.195  29.810  1.00  0.00     0.074 A 
ATOM     47  C   UNL A   1      38.809  28.293  29.805  1.00  0.00     0.031 C 
ATOM     48  C   UNL A   1      44.372  25.813  26.471  1.00  0.00     0.029 A 
ATOM     49  C   UNL A   1      44.519  27.177  26.968  1.00  0.00     0.049 A 
ATOM     50  H   UNL A   1      43.176  28.260  28.135  1.00  0.00     0.167 HD
ATOM     51  C   UNL A   1      39.915  30.422  30.367  1.00  0.00     0.034 A 
ATOM     52  C   UNL A   1      45.569  27.993  26.766  1.00  0.00     0.034 A 
ATOM     53  C   UNL A   1      41.042  31.303  30.320  1.00  0.00     0.049 A 
ATOM     54  C   UNL A   1      45.514  29.364  27.383  1.00  0.00     0.074 A 
ATOM     55  C   UNL A   1      41.172  32.567  30.856  1.00  0.00     0.029 A 
ATOM     56  N   UNL A   1      42.231  31.011  29.664  1.00  0.00    -0.354 N 
ATOM     57  N   UNL A   1      44.558  29.911  28.099  1.00  0.00    -0.248 NA
ATOM     58  C   UNL A   1      46.692  30.217  27.199  1.00  0.00     0.031 C 
ATOM     59  C   UNL A   1      42.428  33.058  30.484  1.00  0.00     0.029 A 
ATOM     60  C   UNL A   1      43.100  32.077  29.769  1.00  0.00     0.049 A 
ATOM     61  H   UNL A   1      42.425  30.168  29.195  1.00  0.00     0.167 HD
ATOM     62  C   UNL A   1      45.038  31.153  28.494  1.00  0.00     0.074 A 
ATOM     63  C   UNL A   1      46.377  31.267  27.944  1.00  0.00     0.031 C 
ATOM     64  C   UNL A   1      44.439  32.117  29.237  1.00  0.00     0.034 A 
BRANCH  51  65
ATOM     65  C   UNL A   1      38.639  30.860  31.025  1.00  0.00     0.023 A 
ATOM     66  C   UNL A   1      38.427  30.619  32.400  1.00  0.00     0.012 A 
ATOM     67  C   UNL A   1      37.636  31.498  30.273  1.00  0.00     0.148 A 
ATOM     68  C   UNL A   1      37.223  30.976  33.005  1.00  0.00     0.002 A 
ATOM     69  C   UNL A   1      36.462  31.898  30.895  1.00  0.00     0.091 A 
ATOM     70  F   UNL A   1      37.838  31.676  28.960  1.00  0.00    -0.205 F 
ATOM     71  C   UNL A   1      36.246  31.625  32.256  1.00  0.00     0.022 A 
BRANCH  69  72
ATOM     72  S   UNL A   1      35.175  32.808  30.034  1.00  0.00     0.127 S 
ATOM     73  O   UNL A   1      34.229  33.078  31.116  1.00  0.00    -0.237 OA
ATOM     74  O   UNL A   1      35.904  33.980  29.552  1.00  0.00    -0.237 OA
ATOM     75  O   UNL A   1      34.685  31.921  28.988  1.00  0.00    -0.744 OA
ENDBRANCH  69  72
ENDBRANCH  51  65
BRANCH  52  76
ATOM     76  C   UNL A   1      46.754  27.520  26.000  1.00  0.00     0.023 A 
ATOM     77  C   UNL A   1      46.810  27.733  24.610  1.00  0.00     0.012 A 
ATOM     78  C   UNL A   1      47.831  26.880  26.641  1.00  0.00     0.148 A 
ATOM     79  C   UNL A   1      47.899  27.278  23.864  1.00  0.00     0.002 A 
ATOM     80  C   UNL A   1      48.937  26.476  25.901  1.00  0.00     0.091 A 
ATOM     81  F   UNL A   1      47.759  26.687  27.966  1.00  0.00    -0.205 F 
ATOM     82  C   UNL A   1      48.964  26.657  24.510  1.00  0.00     0.022 A 
BRANCH  80  83
ATOM     83  S   UNL A   1      50.405  25.777  26.662  1.00  0.00     0.127 S 
ATOM     84  O   UNL A   1      50.791  26.834  27.593  1.00  0.00    -0.237 OA
ATOM     85  O   UNL A   1      49.872  24.567  27.288  1.00  0.00    -0.237 OA
ATOM     86  O   UNL A   1      51.336  25.527  25.570  1.00  0.00    -0.744 OA
ENDBRANCH  80  83
ENDBRANCH  52  76
BRANCH  64  87
ATOM     87  C   UNL A   1      45.254  33.341  29.555  1.00  0.00     0.023 A 
ATOM     88  C   UNL A   1      46.089  33.365  30.687  1.00  0.00     0.012 A 
ATOM     89  C   UNL A   1      45.233  34.442  28.678  1.00  0.00     0.148 A 
ATOM     90  C   UNL A   1      46.859  34.492  30.968  1.00  0.00     0.002 A 
ATOM     91  C   UNL A   1      46.050  35.533  28.930  1.00  0.00     0.091 A 
ATOM     92  F   UNL A   1      44.417  34.400  27.614  1.00  0.00    -0.205 F 
ATOM     93  C   UNL A   1      46.849  35.569  30.084  1.00  0.00     0.022 A 
BRANCH  91  94
ATOM     94  S   UNL A   1      46.184  36.907  27.784  1.00  0.00     0.127 S 
ATOM     95  O   UNL A   1      47.232  37.713  28.408  1.00  0.00    -0.237 OA
ATOM     96  O   UNL A   1      46.584  36.238  26.545  1.00  0.00    -0.237 OA
ATOM     97  O   UNL A   1      44.865  37.523  27.737  1.00  0.00    -0.744 OA
ENDBRANCH  91  94
ENDBRANCH  64  87
ENDBRANCH  38  39
ENDBRANCH  31  33
ENDBRANCH  30  31
ENDBRANCH  29  30
ENDBRANCH   1  29
TORSDOF 19
ENDMDL
MODEL 2
REMARK VINA RESULT:     -11.5      4.980     11.644
REMARK SMILES O=C(OCCOCCOC(=O)c1ccc(-c2c3nc(c(-c4cccc(S(=O)(=O)[O-])c4F)c4ccc([nH]4)c(-c4cccc(S(=O)(=O)[O-])c4F)c4nc(c(-c5cccc(S(=O)(=O)[O-])c5F)c5ccc2[nH]5)C=C4)C=C3)cc1)C1=Cc2c(ccc(Cl)c2-c2ccccc2)O[C@H]1C(F)(F)F
REMARK SMILES IDX 7 1 6 2 5 3 4 4 3 5 2 6 1 7 75 8 76 9 91 10 77 11 90 12
REMARK SMILES IDX 78 13 83 14 79 15 81 16 80 17 82 18 92 19 93 20 94 21 95 22
REMARK SMILES IDX 84 23 85 24 89 25 86 26 88 27 87 28 8 29 9 30 10 31 11 32
REMARK SMILES IDX 12 33 13 34 74 35 14 36 73 37 15 38 16 39 17 40 67 41 18 42
REMARK SMILES IDX 72 43 66 44 68 45 19 46 71 47 65 48 64 49 20 51 52 52 32 53
REMARK SMILES IDX 51 54 33 55 36 56 50 57 69 58 34 59 35 60 49 62 70 63 37 64
REMARK SMILES IDX 21 65 22 66 30 67 23 68 25 69 31 70 24 71 26 72 27 73 28 74
REMARK SMILES IDX 29 75 53 76 54 77 62 78 55 79 57 80 63 81 56 82 58 83 59 84
REMARK SMILES IDX 60 85 61 86 38 87 39 88 47 89 40 90 42 91 48 92 41 93 43 94
REMARK SMILES IDX 44 95 45 96 46 97
REMARK H PARENT 68 50 36 61
REMARK Flexibility Score: inf
ROOT
ATOM      1  C   UNL A   1      44.104  21.453  25.984  1.00  0.00     0.202 C 
ENDROOT
BRANCH   1   2
ATOM      2  O   UNL A   1      44.164  22.846  26.257  1.00  0.00    -0.374 OA
BRANCH   2   3
ATOM      3  C   UNL A   1      44.966  23.258  27.336  1.00  0.00     0.202 C 
BRANCH   3   4
ATOM      4  C   UNL A   1      44.494  22.991  28.784  1.00  0.00     0.261 C 
BRANCH   4   5
ATOM      5  O   UNL A   1      44.463  24.194  29.564  1.00  0.00    -0.460 OA
BRANCH   5   6
ATOM      6  C   UNL A   1      44.330  24.206  30.906  1.00  0.00     0.338 C 
ATOM      7  O   UNL A   1      44.131  23.155  31.511  1.00  0.00    -0.246 OA
BRANCH   6   8
ATOM      8  C   UNL A   1      44.358  25.473  31.670  1.00  0.00     0.087 C 
ATOM      9  C   UNL A   1      44.809  25.711  32.913  1.00  0.00     0.028 C 
ATOM     10  C   UNL A   1      44.095  26.713  30.875  1.00  0.00     0.316 C 
ATOM     11  C   UNL A   1      43.735  26.270  33.723  1.00  0.00     0.027 A 
ATOM     12  O   UNL A   1      43.472  27.738  31.738  1.00  0.00    -0.475 OA
ATOM     13  C   UNL A   1      43.050  27.303  32.996  1.00  0.00     0.128 A 
ATOM     14  C   UNL A   1      43.346  25.729  34.993  1.00  0.00     0.011 A 
ATOM     15  C   UNL A   1      41.919  27.869  33.530  1.00  0.00     0.049 A 
ATOM     16  C   UNL A   1      42.090  26.242  35.386  1.00  0.00     0.049 A 
ATOM     17  C   UNL A   1      41.427  27.309  34.705  1.00  0.00     0.025 A 
ATOM     18  Cl  UNL A   1      41.129  25.533  36.622  1.00  0.00    -0.084 Cl
BRANCH  10  19
ATOM     19  C   UNL A   1      45.457  27.136  30.258  1.00  0.00     0.430 C 
ATOM     20  F   UNL A   1      45.482  28.462  29.938  1.00  0.00    -0.167 F 
ATOM     21  F   UNL A   1      46.495  26.928  31.095  1.00  0.00    -0.167 F 
ATOM     22  F   UNL A   1      45.713  26.478  29.103  1.00  0.00    -0.167 F 
ENDBRANCH  10  19
BRANCH  14  23
ATOM     23  C   UNL A   1      44.186  24.683  35.828  1.00  0.00    -0.016 A 
ATOM     24  C   UNL A   1      44.613  23.049  35.159  1.00  0.00     0.009 A 
ATOM     25  C   UNL A   1      44.696  25.043  37.530  1.00  0.00     0.009 A 
ATOM     26  C   UNL A   1      45.450  21.785  36.159  1.00  0.00     0.001 A 
ATOM     27  C   UNL A   1      45.562  23.807  38.557  1.00  0.00     0.001 A 
ATOM     28  C   UNL A   1      45.943  22.165  37.865  1.00  0.00     0.000 A 
ENDBRANCH  14  23
ENDBRANCH   6   8
ENDBRANCH   5   6
ENDBRANCH   4   5
ENDBRANCH   3   4
ENDBRANCH   2   3
ENDBRANCH   1   2
BRANCH   1  29
ATOM     29  C   UNL A   1      42.701  20.601  26.044  1.00  0.00     0.261 C 
BRANCH  29  30
ATOM     30  O   UNL A   1      40.755  21.122  26.102  1.00  0.00    -0.460 OA
BRANCH  30  31
ATOM     31  C   UNL A   1      39.572  21.879  26.195  1.00  0.00     0.338 C 
ATOM     32  O   UNL A   1      38.433  21.620  25.816  1.00  0.00    -0.246 OA
BRANCH  31  33
ATOM     33  C   UNL A   1      39.855  23.161  26.826  1.00  0.00     0.060 A 
ATOM     34  C   UNL A   1      39.025  24.231  26.505  1.00  0.00     0.016 A 
ATOM     35  C   UNL A   1      40.941  23.283  27.702  1.00  0.00     0.016 A 
ATOM     36  C   UNL A   1      39.285  25.458  27.084  1.00  0.00     0.010 A 
ATOM     37  C   UNL A   1      41.159  24.487  28.338  1.00  0.00     0.010 A 
ATOM     38  C   UNL A   1      40.362  25.579  27.974  1.00  0.00    -0.014 A 
BRANCH  38  39
ATOM     39  C   UNL A   1      40.906  26.914  28.215  1.00  0.00     0.031 A 
ATOM     40  C   UNL A   1      42.226  27.195  27.568  1.00  0.00     0.074 A 
ATOM     41  C   UNL A   1      40.254  27.789  28.989  1.00  0.00     0.049 A 
ATOM     42  N   UNL A   1      42.946  28.277  27.605  1.00  0.00    -0.248 NA
ATOM     43  C   UNL A   1      42.824  26.098  26.777  1.00  0.00     0.031 C 
ATOM     44  C   UNL A   1      38.977  27.549  29.656  1.00  0.00     0.029 A 
ATOM     45  N   UNL A   1      40.599  29.057  29.359  1.00  0.00    -0.354 N 
ATOM     46  C   UNL A   1      44.085  27.983  26.869  1.00  0.00     0.074 A 
ATOM     47  C   UNL A   1      43.978  26.622  26.407  1.00  0.00     0.031 C 
ATOM     48  C   UNL A   1      38.644  28.638  30.369  1.00  0.00     0.029 A 
ATOM     49  C   UNL A   1      39.706  29.629  30.229  1.00  0.00     0.049 A 
ATOM     50  H   UNL A   1      41.408  29.513  29.035  1.00  0.00     0.167 HD
ATOM     51  C   UNL A   1      45.130  28.791  26.601  1.00  0.00     0.034 A 
ATOM     52  C   UNL A   1      39.775  30.820  30.849  1.00  0.00     0.034 A 
ATOM     53  C   UNL A   1      45.216  30.127  27.109  1.00  0.00     0.049 A 
ATOM     54  C   UNL A   1      40.962  31.694  30.548  1.00  0.00     0.074 A 
ATOM     55  C   UNL A   1      46.207  31.065  26.905  1.00  0.00     0.029 A 
ATOM     56  N   UNL A   1      44.274  30.701  27.953  1.00  0.00    -0.354 N 
ATOM     57  N   UNL A   1      41.985  31.458  29.758  1.00  0.00    -0.248 NA
ATOM     58  C   UNL A   1      40.990  33.012  31.190  1.00  0.00     0.031 C 
ATOM     59  C   UNL A   1      45.885  32.194  27.667  1.00  0.00     0.029 A 
ATOM     60  C   UNL A   1      44.665  31.980  28.293  1.00  0.00     0.049 A 
ATOM     61  H   UNL A   1      43.450  30.261  28.262  1.00  0.00     0.167 HD
ATOM     62  C   UNL A   1      42.753  32.614  29.768  1.00  0.00     0.074 A 
ATOM     63  C   UNL A   1      42.066  33.553  30.636  1.00  0.00     0.031 C 
ATOM     64  C   UNL A   1      43.918  32.886  29.128  1.00  0.00     0.034 A 
BRANCH  51  65
ATOM     65  C   UNL A   1      46.242  28.226  25.766  1.00  0.00     0.023 A 
ATOM     66  C   UNL A   1      46.145  28.227  24.358  1.00  0.00     0.012 A 
ATOM     67  C   UNL A   1      47.381  27.675  26.380  1.00  0.00     0.148 A 
ATOM     68  C   UNL A   1      47.149  27.656  23.577  1.00  0.00     0.002 A 
ATOM     69  C   UNL A   1      48.401  27.156  25.594  1.00  0.00     0.091 A 
ATOM     70  F   UNL A   1      47.432  27.643  27.718  1.00  0.00    -0.205 F 
ATOM     71  C   UNL A   1      48.281  27.131  24.194  1.00  0.00     0.022 A 
BRANCH  69  72
ATOM     72  S   UNL A   1      49.930  26.527  26.291  1.00  0.00     0.127 S 
ATOM     73  O   UNL A   1      50.701  26.220  25.086  1.00  0.00    -0.237 OA
ATOM     74  O   UNL A   1      50.414  27.680  27.049  1.00  0.00    -0.237 OA
ATOM     75  O   UNL A   1      49.561  25.375  27.101  1.00  0.00    -0.744 OA
ENDBRANCH  69  72
ENDBRANCH  51  65
BRANCH  52  76
ATOM     76  C   UNL A   1      38.682  31.261  31.758  1.00  0.00     0.023 A 
ATOM     77  C   UNL A   1      38.797  31.033  33.142  1.00  0.00     0.012 A 
ATOM     78  C   UNL A   1      37.541  31.921  31.263  1.00  0.00     0.148 A 
ATOM     79  C   UNL A   1      37.776  31.414  34.014  1.00  0.00     0.002 A 
ATOM     80  C   UNL A   1      36.551  32.346  32.142  1.00  0.00     0.091 A 
ATOM     81  F   UNL A   1      37.450  32.129  29.942  1.00  0.00    -0.205 F 
ATOM     82  C   UNL A   1      36.657  32.076  33.515  1.00  0.00     0.022 A 
BRANCH  80  83
ATOM     83  S   UNL A   1      35.134  33.310  31.607  1.00  0.00     0.127 S 
ATOM     84  O   UNL A   1      34.041  32.653  32.319  1.00  0.00    -0.237 OA
ATOM     85  O   UNL A   1      35.476  34.645  32.099  1.00  0.00    -0.237 OA
ATOM     86  O   UNL A   1      35.101  33.195  30.156  1.00  0.00    -0.744 OA
ENDBRANCH  80  83
ENDBRANCH  52  76
BRANCH  64  87
ATOM     87  C   UNL A   1      44.478  34.273  29.288  1.00  0.00     0.023 A 
ATOM     88  C   UNL A   1      45.508  34.522  30.213  1.00  0.00     0.012 A 
ATOM     89  C   UNL A   1      44.017  35.312  28.458  1.00  0.00     0.148 A 
ATOM     90  C   UNL A   1      46.039  35.803  30.345  1.00  0.00     0.002 A 
ATOM     91  C   UNL A   1      44.595  36.569  28.549  1.00  0.00     0.091 A 
ATOM     92  F   UNL A   1      43.024  35.052  27.594  1.00  0.00    -0.205 F 
ATOM     93  C   UNL A   1      45.592  36.822  29.505  1.00  0.00     0.022 A 
BRANCH  91  94
ATOM     94  S   UNL A   1      44.161  37.901  27.429  1.00  0.00     0.127 S 
ATOM     95  O   UNL A   1      45.417  38.104  26.708  1.00  0.00    -0.237 OA
ATOM     96  O   UNL A   1      43.090  37.300  26.633  1.00  0.00    -0.237 OA
ATOM     97  O   UNL A   1      43.736  39.012  28.269  1.00  0.00    -0.744 OA
ENDBRANCH  91  94
ENDBRANCH  64  87
ENDBRANCH  38  39
ENDBRANCH  31  33
ENDBRANCH  30  31
ENDBRANCH  29  30
ENDBRANCH   1  29
TORSDOF 19
ENDMDL
MODEL 3
REMARK VINA RESULT:     -11.0      4.255      7.437
REMARK SMILES O=C(OCCOCCOC(=O)c1ccc(-c2c3nc(c(-c4cccc(S(=O)(=O)[O-])c4F)c4ccc([nH]4)c(-c4cccc(S(=O)(=O)[O-])c4F)c4nc(c(-c5cccc(S(=O)(=O)[O-])c5F)c5ccc2[nH]5)C=C4)C=C3)cc1)C1=Cc2c(ccc(Cl)c2-c2ccccc2)O[C@H]1C(F)(F)F
REMARK SMILES IDX 7 1 6 2 5 3 4 4 3 5 2 6 1 7 75 8 76 9 91 10 77 11 90 12
REMARK SMILES IDX 78 13 83 14 79 15 81 16 80 17 82 18 92 19 93 20 94 21 95 22
REMARK SMILES IDX 84 23 85 24 89 25 86 26 88 27 87 28 8 29 9 30 10 31 11 32
REMARK SMILES IDX 12 33 13 34 74 35 14 36 73 37 15 38 16 39 17 40 67 41 18 42
REMARK SMILES IDX 72 43 66 44 68 45 19 46 71 47 65 48 64 49 20 51 52 52 32 53
REMARK SMILES IDX 51 54 33 55 36 56 50 57 69 58 34 59 35 60 49 62 70 63 37 64
REMARK SMILES IDX 21 65 22 66 30 67 23 68 25 69 31 70 24 71 26 72 27 73 28 74
REMARK SMILES IDX 29 75 53 76 54 77 62 78 55 79 57 80 63 81 56 82 58 83 59 84
REMARK SMILES IDX 60 85 61 86 38 87 39 88 47 89 40 90 42 91 48 92 41 93 43 94
REMARK SMILES IDX 44 95 45 96 46 97
REMARK H PARENT 68 50 36 61
REMARK Flexibility Score: inf
ROOT
ATOM      1  C   UNL A   1      34.577  25.841  25.138  1.00  0.00     0.202 C 
ENDROOT
BRANCH   1   2
ATOM      2  O   UNL A   1      34.424  24.523  25.643  1.00  0.00    -0.374 OA
BRANCH   2   3
ATOM      3  C   UNL A   1      34.998  23.477  24.898  1.00  0.00     0.202 C 
BRANCH   3   4
ATOM      4  C   UNL A   1      35.562  23.763  23.487  1.00  0.00     0.261 C 
BRANCH   4   5
ATOM      5  O   UNL A   1      34.590  24.397  22.644  1.00  0.00    -0.460 OA
BRANCH   5   6
ATOM      6  C   UNL A   1      33.565  23.737  22.065  1.00  0.00     0.338 C 
ATOM      7  O   UNL A   1      33.573  23.535  20.854  1.00  0.00    -0.246 OA
BRANCH   6   8
ATOM      8  C   UNL A   1      32.391  23.300  22.853  1.00  0.00     0.087 C 
ATOM      9  C   UNL A   1      31.189  23.884  22.989  1.00  0.00     0.028 C 
ATOM     10  C   UNL A   1      32.442  21.894  23.364  1.00  0.00     0.316 C 
ATOM     11  C   UNL A   1      30.931  24.149  24.397  1.00  0.00     0.027 A 
ATOM     12  O   UNL A   1      31.672  21.790  24.620  1.00  0.00    -0.475 OA
ATOM     13  C   UNL A   1      31.265  22.998  25.190  1.00  0.00     0.128 A 
ATOM     14  C   UNL A   1      30.553  25.439  24.897  1.00  0.00     0.011 A 
ATOM     15  C   UNL A   1      31.222  23.083  26.559  1.00  0.00     0.049 A 
ATOM     16  C   UNL A   1      30.698  25.488  26.301  1.00  0.00     0.049 A 
ATOM     17  C   UNL A   1      30.973  24.339  27.105  1.00  0.00     0.025 A 
ATOM     18  Cl  UNL A   1      30.733  26.957  27.192  1.00  0.00    -0.084 Cl
BRANCH  10  19
ATOM     19  C   UNL A   1      31.919  20.991  22.213  1.00  0.00     0.430 C 
ATOM     20  F   UNL A   1      30.568  21.099  22.054  1.00  0.00    -0.167 F 
ATOM     21  F   UNL A   1      32.466  21.299  21.018  1.00  0.00    -0.167 F 
ATOM     22  F   UNL A   1      32.153  19.680  22.454  1.00  0.00    -0.167 F 
ENDBRANCH  10  19
BRANCH  14  23
ATOM     23  C   UNL A   1      30.069  26.649  24.005  1.00  0.00    -0.016 A 
ATOM     24  C   UNL A   1      31.247  27.756  23.177  1.00  0.00     0.009 A 
ATOM     25  C   UNL A   1      28.305  27.034  23.833  1.00  0.00     0.009 A 
ATOM     26  C   UNL A   1      30.709  29.236  22.270  1.00  0.00     0.001 A 
ATOM     27  C   UNL A   1      27.725  28.498  22.907  1.00  0.00     0.001 A 
ATOM     28  C   UNL A   1      28.937  29.605  22.118  1.00  0.00     0.000 A 
ENDBRANCH  14  23
ENDBRANCH   6   8
ENDBRANCH   5   6
ENDBRANCH   4   5
ENDBRANCH   3   4
ENDBRANCH   2   3
ENDBRANCH   1   2
BRANCH   1  29
ATOM     29  C   UNL A   1      33.813  27.136  25.802  1.00  0.00     0.261 C 
BRANCH  29  30
ATOM     30  O   UNL A   1      34.431  28.950  26.426  1.00  0.00    -0.460 OA
BRANCH  30  31
ATOM     31  C   UNL A   1      34.729  30.056  27.243  1.00  0.00     0.338 C 
ATOM     32  O   UNL A   1      34.118  31.109  27.406  1.00  0.00    -0.246 OA
BRANCH  31  33
ATOM     33  C   UNL A   1      35.989  29.831  27.937  1.00  0.00     0.060 A 
ATOM     34  C   UNL A   1      37.163  30.074  27.231  1.00  0.00     0.016 A 
ATOM     35  C   UNL A   1      35.985  29.369  29.259  1.00  0.00     0.016 A 
ATOM     36  C   UNL A   1      38.369  29.855  27.868  1.00  0.00     0.010 A 
ATOM     37  C   UNL A   1      37.184  29.219  29.923  1.00  0.00     0.010 A 
ATOM     38  C   UNL A   1      38.368  29.407  29.197  1.00  0.00    -0.014 A 
BRANCH  38  39
ATOM     39  C   UNL A   1      39.573  28.753  29.702  1.00  0.00     0.031 A 
ATOM     40  C   UNL A   1      40.165  29.359  30.935  1.00  0.00     0.074 A 
ATOM     41  C   UNL A   1      40.099  27.702  29.062  1.00  0.00     0.049 A 
ATOM     42  N   UNL A   1      41.221  29.000  31.602  1.00  0.00    -0.248 NA
ATOM     43  C   UNL A   1      39.473  30.543  31.490  1.00  0.00     0.031 C 
ATOM     44  C   UNL A   1      39.568  27.093  27.845  1.00  0.00     0.029 A 
ATOM     45  N   UNL A   1      41.219  26.976  29.345  1.00  0.00    -0.354 N 
ATOM     46  C   UNL A   1      41.334  29.925  32.632  1.00  0.00     0.074 A 
ATOM     47  C   UNL A   1      40.256  30.871  32.501  1.00  0.00     0.031 C 
ATOM     48  C   UNL A   1      40.372  26.082  27.475  1.00  0.00     0.029 A 
ATOM     49  C   UNL A   1      41.486  26.005  28.414  1.00  0.00     0.049 A 
ATOM     50  H   UNL A   1      41.780  27.135  30.139  1.00  0.00     0.167 HD
ATOM     51  C   UNL A   1      42.265  29.970  33.606  1.00  0.00     0.034 A 
ATOM     52  C   UNL A   1      42.538  25.171  28.340  1.00  0.00     0.034 A 
ATOM     53  C   UNL A   1      43.344  29.031  33.681  1.00  0.00     0.049 A 
ATOM     54  C   UNL A   1      43.573  25.257  29.429  1.00  0.00     0.074 A 
ATOM     55  C   UNL A   1      44.349  28.946  34.621  1.00  0.00     0.029 A 
ATOM     56  N   UNL A   1      43.567  28.026  32.748  1.00  0.00    -0.354 N 
ATOM     57  N   UNL A   1      43.616  26.059  30.468  1.00  0.00    -0.248 NA
ATOM     58  C   UNL A   1      44.682  24.301  29.360  1.00  0.00     0.031 C 
ATOM     59  C   UNL A   1      45.209  27.914  34.229  1.00  0.00     0.029 A 
ATOM     60  C   UNL A   1      44.704  27.320  33.081  1.00  0.00     0.049 A 
ATOM     61  H   UNL A   1      42.997  27.845  31.966  1.00  0.00     0.167 HD
ATOM     62  C   UNL A   1      44.728  25.674  31.204  1.00  0.00     0.074 A 
ATOM     63  C   UNL A   1      45.321  24.556  30.493  1.00  0.00     0.031 C 
ATOM     64  C   UNL A   1      45.224  26.187  32.358  1.00  0.00     0.034 A 
BRANCH  51  65
ATOM     65  C   UNL A   1      42.155  31.078  34.613  1.00  0.00     0.023 A 
ATOM     66  C   UNL A   1      41.417  30.889  35.801  1.00  0.00     0.012 A 
ATOM     67  C   UNL A   1      42.771  32.319  34.371  1.00  0.00     0.148 A 
ATOM     68  C   UNL A   1      41.266  31.931  36.715  1.00  0.00     0.002 A 
ATOM     69  C   UNL A   1      42.661  33.334  35.311  1.00  0.00     0.091 A 
ATOM     70  F   UNL A   1      43.428  32.492  33.216  1.00  0.00    -0.205 F 
ATOM     71  C   UNL A   1      41.897  33.148  36.476  1.00  0.00     0.022 A 
BRANCH  69  72
ATOM     72  S   UNL A   1      43.499  34.911  35.131  1.00  0.00     0.127 S 
ATOM     73  O   UNL A   1      42.940  35.673  36.248  1.00  0.00    -0.237 OA
ATOM     74  O   UNL A   1      44.901  34.529  35.291  1.00  0.00    -0.237 OA
ATOM     75  O   UNL A   1      43.148  35.406  33.807  1.00  0.00    -0.744 OA
ENDBRANCH  69  72
ENDBRANCH  51  65
BRANCH  52  76
ATOM     76  C   UNL A   1      42.633  24.173  27.239  1.00  0.00     0.023 A 
ATOM     77  C   UNL A   1      43.338  24.500  26.066  1.00  0.00     0.012 A 
ATOM     78  C   UNL A   1      42.045  22.899  27.355  1.00  0.00     0.148 A 
ATOM     79  C   UNL A   1      43.421  23.592  25.009  1.00  0.00     0.002 A 
ATOM     80  C   UNL A   1      42.176  21.980  26.321  1.00  0.00     0.091 A 
ATOM     81  F   UNL A   1      41.378  22.607  28.480  1.00  0.00    -0.205 F 
ATOM     82  C   UNL A   1      42.847  22.331  25.139  1.00  0.00     0.022 A 
BRANCH  80  83
ATOM     83  S   UNL A   1      41.575  20.292  26.446  1.00  0.00     0.127 S 
ATOM     84  O   UNL A   1      42.070  19.896  27.762  1.00  0.00    -0.237 OA
ATOM     85  O   UNL A   1      40.126  20.484  26.364  1.00  0.00    -0.237 OA
ATOM     86  O   UNL A   1      42.152  19.581  25.314  1.00  0.00    -0.744 OA
ENDBRANCH  80  83
ENDBRANCH  52  76
BRANCH  64  87
ATOM     87  C   UNL A   1      46.421  25.499  32.953  1.00  0.00     0.023 A 
ATOM     88  C   UNL A   1      46.258  24.536  33.966  1.00  0.00     0.012 A 
ATOM     89  C   UNL A   1      47.707  25.771  32.448  1.00  0.00     0.148 A 
ATOM     90  C   UNL A   1      47.368  23.885  34.502  1.00  0.00     0.002 A 
ATOM     91  C   UNL A   1      48.799  25.073  32.941  1.00  0.00     0.091 A 
ATOM     92  F   UNL A   1      47.837  26.705  31.493  1.00  0.00    -0.205 F 
ATOM     93  C   UNL A   1      48.634  24.144  33.981  1.00  0.00     0.022 A 
BRANCH  91  94
ATOM     94  S   UNL A   1      50.443  25.261  32.247  1.00  0.00     0.127 S 
ATOM     95  O   UNL A   1      50.525  26.709  32.067  1.00  0.00    -0.237 OA
ATOM     96  O   UNL A   1      51.291  24.728  33.313  1.00  0.00    -0.237 OA
ATOM     97  O   UNL A   1      50.453  24.476  31.019  1.00  0.00    -0.744 OA
ENDBRANCH  91  94
ENDBRANCH  64  87
ENDBRANCH  38  39
ENDBRANCH  31  33
ENDBRANCH  30  31
ENDBRANCH  29  30
ENDBRANCH   1  29
TORSDOF 19
ENDMDL
