MODEL 1
REMARK VINA RESULT:     -10.7      0.000      0.000
REMARK SMILES CC1(C)CC[N@H+](CCOc2ccc(C(=O)OCCOCCOC(=O)c3ccc(-c4c5nc(c(-c6cccc(S(=O)(=O)[O-])c6F)c6ccc([nH]6)c(-c6cccc(S(=O)(=O)[O-])c6F)c6nc(c(-c7cccc(S(=O)(=O)[O-])c7F)c7ccc4[nH]7)C=C6)C=C5)cc3)cc2)C1
REMARK SMILES IDX 18 1 17 2 16 3 14 4 15 5 13 6 10 7 11 8 89 9 12 10 88 11
REMARK SMILES IDX 9 12 8 13 7 14 6 15 1 16 2 17 3 18 4 19 90 20 5 21 19 23
REMARK SMILES IDX 20 24 21 25 22 26 23 27 24 28 25 29 26 30 87 31 27 32 86 33
REMARK SMILES IDX 28 34 29 35 30 36 80 37 31 38 85 39 79 40 81 41 32 42 84 43
REMARK SMILES IDX 78 44 77 45 33 47 65 48 45 49 64 50 46 51 49 52 63 53 82 54
REMARK SMILES IDX 47 55 48 56 62 58 83 59 50 60 34 61 35 62 43 63 36 64 38 65
REMARK SMILES IDX 44 66 37 67 39 68 40 69 41 70 42 71 66 72 67 73 75 74 68 75
REMARK SMILES IDX 70 76 76 77 69 78 71 79 72 80 73 81 74 82 51 83 52 84 60 85
REMARK SMILES IDX 53 86 55 87 61 88 54 89 56 90 57 91 58 92 59 93
REMARK H PARENT 6 22 81 46 49 57
REMARK Flexibility Score: inf
ROOT
ATOM      1  C   UNL A   1      30.056  31.946  24.792  1.00  0.00     0.202 C 
ENDROOT
BRANCH   1   2
ATOM      2  C   UNL A   1      29.091  31.656  23.640  1.00  0.00     0.261 C 
BRANCH   2   3
ATOM      3  O   UNL A   1      28.759  30.268  23.537  1.00  0.00    -0.460 OA
BRANCH   3   4
ATOM      4  C   UNL A   1      29.399  29.587  22.551  1.00  0.00     0.338 C 
ATOM      5  O   UNL A   1      29.593  29.964  21.410  1.00  0.00    -0.246 OA
BRANCH   4   6
ATOM      6  C   UNL A   1      29.788  28.237  23.041  1.00  0.00     0.060 A 
ATOM      7  C   UNL A   1      30.320  26.122  24.724  1.00  0.00     0.119 A 
ATOM      8  C   UNL A   1      29.017  26.307  24.264  1.00  0.00     0.047 A 
ATOM      9  C   UNL A   1      31.388  26.790  24.130  1.00  0.00     0.047 A 
ATOM     10  C   UNL A   1      28.748  27.378  23.415  1.00  0.00     0.019 A 
ATOM     11  C   UNL A   1      31.122  27.883  23.306  1.00  0.00     0.019 A 
BRANCH   7  12
ATOM     12  O   UNL A   1      30.581  25.424  25.874  1.00  0.00    -0.488 OA
BRANCH  12  13
ATOM     13  C   UNL A   1      32.009  25.282  26.103  1.00  0.00     0.290 C 
BRANCH  13  14
ATOM     14  C   UNL A   1      32.584  23.943  25.566  1.00  0.00     0.304 C 
BRANCH  14  15
ATOM     15  N   UNL A   1      33.695  23.910  24.594  1.00  0.00    -0.332 N 
ATOM     16  C   UNL A   1      36.638  22.763  23.335  1.00  0.00     0.017 C 
ATOM     17  C   UNL A   1      35.731  22.562  24.558  1.00  0.00     0.019 C 
ATOM     18  C   UNL A   1      36.147  21.277  25.287  1.00  0.00     0.017 C 
ATOM     19  C   UNL A   1      35.867  23.774  25.464  1.00  0.00     0.073 C 
ATOM     20  C   UNL A   1      34.219  22.580  24.227  1.00  0.00     0.268 C 
ATOM     21  C   UNL A   1      34.836  24.749  24.936  1.00  0.00     0.263 C 
ATOM     22  H   UNL A   1      33.209  24.293  23.782  1.00  0.00     0.348 HD
ENDBRANCH  14  15
ENDBRANCH  13  14
ENDBRANCH  12  13
ENDBRANCH   7  12
ENDBRANCH   4   6
ENDBRANCH   3   4
ENDBRANCH   2   3
ENDBRANCH   1   2
BRANCH   1  23
ATOM     23  O   UNL A   1      30.897  30.901  25.274  1.00  0.00    -0.374 OA
BRANCH  23  24
ATOM     24  C   UNL A   1      31.652  31.105  26.462  1.00  0.00     0.202 C 
BRANCH  24  25
ATOM     25  C   UNL A   1      32.090  32.519  26.880  1.00  0.00     0.261 C 
BRANCH  25  26
ATOM     26  O   UNL A   1      32.909  32.594  28.052  1.00  0.00    -0.460 OA
BRANCH  26  27
ATOM     27  C   UNL A   1      33.986  33.409  27.901  1.00  0.00     0.338 C 
ATOM     28  O   UNL A   1      33.973  34.605  27.663  1.00  0.00    -0.246 OA
BRANCH  27  29
ATOM     29  C   UNL A   1      35.229  32.681  28.205  1.00  0.00     0.060 A 
ATOM     30  C   UNL A   1      35.122  31.318  28.509  1.00  0.00     0.016 A 
ATOM     31  C   UNL A   1      36.455  33.340  28.306  1.00  0.00     0.016 A 
ATOM     32  C   UNL A   1      36.234  30.618  28.970  1.00  0.00     0.010 A 
ATOM     33  C   UNL A   1      37.570  32.636  28.774  1.00  0.00     0.010 A 
ATOM     34  C   UNL A   1      37.454  31.284  29.146  1.00  0.00    -0.014 A 
BRANCH  34  35
ATOM     35  C   UNL A   1      38.568  30.599  29.846  1.00  0.00     0.031 A 
ATOM     36  C   UNL A   1      38.918  31.014  31.250  1.00  0.00     0.074 A 
ATOM     37  C   UNL A   1      39.251  29.611  29.240  1.00  0.00     0.049 A 
ATOM     38  N   UNL A   1      39.873  30.578  32.028  1.00  0.00    -0.248 NA
ATOM     39  C   UNL A   1      38.079  32.061  31.858  1.00  0.00     0.031 C 
ATOM     40  C   UNL A   1      38.992  29.109  27.891  1.00  0.00     0.029 A 
ATOM     41  N   UNL A   1      40.316  28.864  29.679  1.00  0.00    -0.354 N 
ATOM     42  C   UNL A   1      39.765  31.307  33.207  1.00  0.00     0.074 A 
ATOM     43  C   UNL A   1      38.663  32.228  33.035  1.00  0.00     0.031 C 
ATOM     44  C   UNL A   1      39.891  28.153  27.601  1.00  0.00     0.029 A 
ATOM     45  C   UNL A   1      40.804  27.995  28.732  1.00  0.00     0.049 A 
ATOM     46  H   UNL A   1      40.693  28.943  30.584  1.00  0.00     0.167 HD
ATOM     47  C   UNL A   1      40.504  31.205  34.339  1.00  0.00     0.034 A 
ATOM     48  C   UNL A   1      41.879  27.185  28.767  1.00  0.00     0.034 A 
ATOM     49  C   UNL A   1      41.589  30.278  34.511  1.00  0.00     0.049 A 
ATOM     50  C   UNL A   1      42.715  27.129  30.020  1.00  0.00     0.074 A 
ATOM     51  C   UNL A   1      42.384  30.081  35.626  1.00  0.00     0.029 A 
ATOM     52  N   UNL A   1      42.038  29.396  33.541  1.00  0.00    -0.354 N 
ATOM     53  N   UNL A   1      42.541  27.754  31.161  1.00  0.00    -0.248 NA
ATOM     54  C   UNL A   1      43.880  26.232  30.002  1.00  0.00     0.031 C 
ATOM     55  C   UNL A   1      43.330  29.098  35.321  1.00  0.00     0.029 A 
ATOM     56  C   UNL A   1      43.104  28.658  34.026  1.00  0.00     0.049 A 
ATOM     57  H   UNL A   1      41.655  29.307  32.638  1.00  0.00     0.167 HD
ATOM     58  C   UNL A   1      43.545  27.294  32.005  1.00  0.00     0.074 A 
ATOM     59  C   UNL A   1      44.312  26.324  31.252  1.00  0.00     0.031 C 
ATOM     60  C   UNL A   1      43.819  27.652  33.284  1.00  0.00     0.034 A 
BRANCH  47  61
ATOM     61  C   UNL A   1      40.141  32.099  35.496  1.00  0.00     0.023 A 
ATOM     62  C   UNL A   1      40.831  33.316  35.676  1.00  0.00     0.012 A 
ATOM     63  C   UNL A   1      39.081  31.771  36.364  1.00  0.00     0.148 A 
ATOM     64  C   UNL A   1      40.490  34.178  36.717  1.00  0.00     0.002 A 
ATOM     65  C   UNL A   1      38.719  32.655  37.373  1.00  0.00     0.091 A 
ATOM     66  F   UNL A   1      38.450  30.601  36.188  1.00  0.00    -0.205 F 
ATOM     67  C   UNL A   1      39.429  33.854  37.557  1.00  0.00     0.022 A 
BRANCH  65  68
ATOM     68  S   UNL A   1      37.320  32.368  38.463  1.00  0.00     0.127 S 
ATOM     69  O   UNL A   1      36.230  32.995  37.716  1.00  0.00    -0.237 OA
ATOM     70  O   UNL A   1      37.265  30.906  38.511  1.00  0.00    -0.237 OA
ATOM     71  O   UNL A   1      37.657  33.006  39.727  1.00  0.00    -0.744 OA
ENDBRANCH  65  68
ENDBRANCH  47  61
BRANCH  48  72
ATOM     72  C   UNL A   1      42.221  26.335  27.590  1.00  0.00     0.023 A 
ATOM     73  C   UNL A   1      42.907  26.904  26.499  1.00  0.00     0.012 A 
ATOM     74  C   UNL A   1      41.865  24.974  27.542  1.00  0.00     0.148 A 
ATOM     75  C   UNL A   1      43.195  26.144  25.365  1.00  0.00     0.002 A 
ATOM     76  C   UNL A   1      42.206  24.207  26.433  1.00  0.00     0.091 A 
ATOM     77  F   UNL A   1      41.197  24.454  28.581  1.00  0.00    -0.205 F 
ATOM     78  C   UNL A   1      42.853  24.795  25.336  1.00  0.00     0.022 A 
BRANCH  76  79
ATOM     79  S   UNL A   1      41.917  22.436  26.365  1.00  0.00     0.127 S 
ATOM     80  O   UNL A   1      42.466  21.994  27.644  1.00  0.00    -0.237 OA
ATOM     81  O   UNL A   1      40.458  22.372  26.264  1.00  0.00    -0.237 OA
ATOM     82  O   UNL A   1      42.618  21.970  25.177  1.00  0.00    -0.744 OA
ENDBRANCH  76  79
ENDBRANCH  48  72
BRANCH  60  83
ATOM     83  C   UNL A   1      44.966  26.959  33.975  1.00  0.00     0.023 A 
ATOM     84  C   UNL A   1      46.279  27.443  33.814  1.00  0.00     0.012 A 
ATOM     85  C   UNL A   1      44.731  25.871  34.838  1.00  0.00     0.148 A 
ATOM     86  C   UNL A   1      47.345  26.832  34.473  1.00  0.00     0.002 A 
ATOM     87  C   UNL A   1      45.792  25.299  35.532  1.00  0.00     0.091 A 
ATOM     88  F   UNL A   1      43.477  25.415  34.967  1.00  0.00    -0.205 F 
ATOM     89  C   UNL A   1      47.101  25.769  35.339  1.00  0.00     0.022 A 
BRANCH  87  90
ATOM     90  S   UNL A   1      45.562  23.990  36.741  1.00  0.00     0.127 S 
ATOM     91  O   UNL A   1      45.116  22.881  35.898  1.00  0.00    -0.237 OA
ATOM     92  O   UNL A   1      46.908  23.837  37.291  1.00  0.00    -0.237 OA
ATOM     93  O   UNL A   1      44.574  24.489  37.689  1.00  0.00    -0.744 OA
ENDBRANCH  87  90
ENDBRANCH  60  83
ENDBRANCH  34  35
ENDBRANCH  27  29
ENDBRANCH  26  27
ENDBRANCH  25  26
ENDBRANCH  24  25
ENDBRANCH  23  24
ENDBRANCH   1  23
TORSDOF 21
ENDMDL
MODEL 2
REMARK VINA RESULT:     -10.2      2.578      7.938
REMARK SMILES CC1(C)CC[N@H+](CCOc2ccc(C(=O)OCCOCCOC(=O)c3ccc(-c4c5nc(c(-c6cccc(S(=O)(=O)[O-])c6F)c6ccc([nH]6)c(-c6cccc(S(=O)(=O)[O-])c6F)c6nc(c(-c7cccc(S(=O)(=O)[O-])c7F)c7ccc4[nH]7)C=C6)C=C5)cc3)cc2)C1
REMARK SMILES IDX 18 1 17 2 16 3 14 4 15 5 13 6 10 7 11 8 89 9 12 10 88 11
REMARK SMILES IDX 9 12 8 13 7 14 6 15 1 16 2 17 3 18 4 19 90 20 5 21 19 23
REMARK SMILES IDX 20 24 21 25 22 26 23 27 24 28 25 29 26 30 87 31 27 32 86 33
REMARK SMILES IDX 28 34 29 35 30 36 80 37 31 38 85 39 79 40 81 41 32 42 84 43
REMARK SMILES IDX 78 44 77 45 33 47 65 48 45 49 64 50 46 51 49 52 63 53 82 54
REMARK SMILES IDX 47 55 48 56 62 58 83 59 50 60 34 61 35 62 43 63 36 64 38 65
REMARK SMILES IDX 44 66 37 67 39 68 40 69 41 70 42 71 66 72 67 73 75 74 68 75
REMARK SMILES IDX 70 76 76 77 69 78 71 79 72 80 73 81 74 82 51 83 52 84 60 85
REMARK SMILES IDX 53 86 55 87 61 88 54 89 56 90 57 91 58 92 59 93
REMARK H PARENT 6 22 81 46 49 57
REMARK Flexibility Score: inf
ROOT
ATOM      1  C   UNL A   1      30.894  29.160  23.990  1.00  0.00     0.202 C 
ENDROOT
BRANCH   1   2
ATOM      2  C   UNL A   1      30.319  28.251  22.901  1.00  0.00     0.261 C 
BRANCH   2   3
ATOM      3  O   UNL A   1      30.741  26.891  23.040  1.00  0.00    -0.460 OA
BRANCH   3   4
ATOM      4  C   UNL A   1      29.959  26.116  23.836  1.00  0.00     0.338 C 
ATOM      5  O   UNL A   1      28.801  26.326  24.150  1.00  0.00    -0.246 OA
BRANCH   4   6
ATOM      6  C   UNL A   1      30.748  24.967  24.355  1.00  0.00     0.060 A 
ATOM      7  C   UNL A   1      31.498  22.400  25.018  1.00  0.00     0.119 A 
ATOM      8  C   UNL A   1      31.793  22.882  23.743  1.00  0.00     0.047 A 
ATOM      9  C   UNL A   1      31.109  23.268  26.035  1.00  0.00     0.047 A 
ATOM     10  C   UNL A   1      31.411  24.178  23.407  1.00  0.00     0.019 A 
ATOM     11  C   UNL A   1      30.695  24.556  25.697  1.00  0.00     0.019 A 
BRANCH   7  12
ATOM     12  O   UNL A   1      31.411  21.057  25.273  1.00  0.00    -0.488 OA
BRANCH  12  13
ATOM     13  C   UNL A   1      32.663  20.375  24.994  1.00  0.00     0.290 C 
BRANCH  13  14
ATOM     14  C   UNL A   1      33.615  20.319  26.219  1.00  0.00     0.304 C 
BRANCH  14  15
ATOM     15  N   UNL A   1      34.889  21.064  26.247  1.00  0.00    -0.332 N 
ATOM     16  C   UNL A   1      36.845  23.817  25.840  1.00  0.00     0.017 C 
ATOM     17  C   UNL A   1      35.393  23.368  25.612  1.00  0.00     0.019 C 
ATOM     18  C   UNL A   1      34.514  24.605  25.385  1.00  0.00     0.017 C 
ATOM     19  C   UNL A   1      35.357  22.442  24.410  1.00  0.00     0.073 C 
ATOM     20  C   UNL A   1      34.836  22.457  26.733  1.00  0.00     0.268 C 
ATOM     21  C   UNL A   1      35.626  21.069  24.989  1.00  0.00     0.263 C 
ATOM     22  H   UNL A   1      35.387  20.506  26.942  1.00  0.00     0.348 HD
ENDBRANCH  14  15
ENDBRANCH  13  14
ENDBRANCH  12  13
ENDBRANCH   7  12
ENDBRANCH   4   6
ENDBRANCH   3   4
ENDBRANCH   2   3
ENDBRANCH   1   2
BRANCH   1  23
ATOM     23  O   UNL A   1      32.133  28.813  24.602  1.00  0.00    -0.374 OA
BRANCH  23  24
ATOM     24  C   UNL A   1      32.194  28.655  26.014  1.00  0.00     0.202 C 
BRANCH  24  25
ATOM     25  C   UNL A   1      32.764  29.771  26.904  1.00  0.00     0.261 C 
BRANCH  25  26
ATOM     26  O   UNL A   1      34.148  29.646  27.249  1.00  0.00    -0.460 OA
BRANCH  26  27
ATOM     27  C   UNL A   1      34.704  30.814  27.664  1.00  0.00     0.338 C 
ATOM     28  O   UNL A   1      34.249  31.936  27.518  1.00  0.00    -0.246 OA
BRANCH  27  29
ATOM     29  C   UNL A   1      35.910  30.553  28.468  1.00  0.00     0.060 A 
ATOM     30  C   UNL A   1      37.109  31.138  28.043  1.00  0.00     0.016 A 
ATOM     31  C   UNL A   1      35.891  29.664  29.544  1.00  0.00     0.016 A 
ATOM     32  C   UNL A   1      38.308  30.792  28.660  1.00  0.00     0.010 A 
ATOM     33  C   UNL A   1      37.098  29.315  30.159  1.00  0.00     0.010 A 
ATOM     34  C   UNL A   1      38.315  29.846  29.693  1.00  0.00    -0.014 A 
BRANCH  34  35
ATOM     35  C   UNL A   1      39.607  29.313  30.192  1.00  0.00     0.031 A 
ATOM     36  C   UNL A   1      40.246  28.152  29.479  1.00  0.00     0.074 A 
ATOM     37  C   UNL A   1      40.207  29.868  31.260  1.00  0.00     0.049 A 
ATOM     38  N   UNL A   1      41.348  27.509  29.766  1.00  0.00    -0.248 NA
ATOM     39  C   UNL A   1      39.550  27.648  28.282  1.00  0.00     0.031 C 
ATOM     40  C   UNL A   1      39.695  31.007  32.021  1.00  0.00     0.029 A 
ATOM     41  N   UNL A   1      41.374  29.533  31.900  1.00  0.00    -0.354 N 
ATOM     42  C   UNL A   1      41.469  26.515  28.802  1.00  0.00     0.074 A 
ATOM     43  C   UNL A   1      40.318  26.626  27.933  1.00  0.00     0.031 C 
ATOM     44  C   UNL A   1      40.531  31.261  33.041  1.00  0.00     0.029 A 
ATOM     45  C   UNL A   1      41.621  30.288  33.022  1.00  0.00     0.049 A 
ATOM     46  H   UNL A   1      41.976  28.821  31.586  1.00  0.00     0.167 HD
ATOM     47  C   UNL A   1      42.459  25.603  28.642  1.00  0.00     0.034 A 
ATOM     48  C   UNL A   1      42.601  30.186  33.941  1.00  0.00     0.034 A 
ATOM     49  C   UNL A   1      43.608  25.505  29.500  1.00  0.00     0.049 A 
ATOM     50  C   UNL A   1      43.662  29.129  33.768  1.00  0.00     0.074 A 
ATOM     51  C   UNL A   1      44.678  24.632  29.410  1.00  0.00     0.029 A 
ATOM     52  N   UNL A   1      43.838  26.303  30.610  1.00  0.00    -0.354 N 
ATOM     53  N   UNL A   1      43.815  28.260  32.797  1.00  0.00    -0.248 NA
ATOM     54  C   UNL A   1      44.705  29.059  34.802  1.00  0.00     0.031 C 
ATOM     55  C   UNL A   1      45.541  24.885  30.480  1.00  0.00     0.029 A 
ATOM     56  C   UNL A   1      45.026  25.938  31.220  1.00  0.00     0.049 A 
ATOM     57  H   UNL A   1      43.243  27.024  30.921  1.00  0.00     0.167 HD
ATOM     58  C   UNL A   1      44.989  27.572  33.082  1.00  0.00     0.074 A 
ATOM     59  C   UNL A   1      45.518  28.139  34.304  1.00  0.00     0.031 C 
ATOM     60  C   UNL A   1      45.570  26.552  32.403  1.00  0.00     0.034 A 
BRANCH  47  61
ATOM     61  C   UNL A   1      42.359  24.657  27.474  1.00  0.00     0.023 A 
ATOM     62  C   UNL A   1      43.085  24.929  26.296  1.00  0.00     0.012 A 
ATOM     63  C   UNL A   1      41.604  23.472  27.561  1.00  0.00     0.148 A 
ATOM     64  C   UNL A   1      43.039  24.052  25.214  1.00  0.00     0.002 A 
ATOM     65  C   UNL A   1      41.596  22.580  26.495  1.00  0.00     0.091 A 
ATOM     66  F   UNL A   1      40.905  23.240  28.682  1.00  0.00    -0.205 F 
ATOM     67  C   UNL A   1      42.305  22.874  25.317  1.00  0.00     0.022 A 
BRANCH  65  68
ATOM     68  S   UNL A   1      40.743  21.000  26.554  1.00  0.00     0.127 S 
ATOM     69  O   UNL A   1      40.893  20.636  27.962  1.00  0.00    -0.237 OA
ATOM     70  O   UNL A   1      39.384  21.371  26.160  1.00  0.00    -0.237 OA
ATOM     71  O   UNL A   1      41.436  20.134  25.610  1.00  0.00    -0.744 OA
ENDBRANCH  65  68
ENDBRANCH  47  61
BRANCH  48  72
ATOM     72  C   UNL A   1      42.649  31.125  35.098  1.00  0.00     0.023 A 
ATOM     73  C   UNL A   1      42.025  30.767  36.309  1.00  0.00     0.012 A 
ATOM     74  C   UNL A   1      43.300  32.370  35.005  1.00  0.00     0.148 A 
ATOM     75  C   UNL A   1      42.012  31.647  37.392  1.00  0.00     0.002 A 
ATOM     76  C   UNL A   1      43.334  33.219  36.106  1.00  0.00     0.091 A 
ATOM     77  F   UNL A   1      43.873  32.702  33.840  1.00  0.00    -0.205 F 
ATOM     78  C   UNL A   1      42.673  32.869  37.293  1.00  0.00     0.022 A 
BRANCH  76  79
ATOM     79  S   UNL A   1      44.268  34.752  36.107  1.00  0.00     0.127 S 
ATOM     80  O   UNL A   1      44.078  35.218  37.478  1.00  0.00    -0.237 OA
ATOM     81  O   UNL A   1      45.620  34.283  35.796  1.00  0.00    -0.237 OA
ATOM     82  O   UNL A   1      43.669  35.577  35.067  1.00  0.00    -0.744 OA
ENDBRANCH  76  79
ENDBRANCH  48  72
BRANCH  60  83
ATOM     83  C   UNL A   1      46.874  26.011  32.933  1.00  0.00     0.023 A 
ATOM     84  C   UNL A   1      48.086  26.647  32.598  1.00  0.00     0.012 A 
ATOM     85  C   UNL A   1      46.889  24.915  33.817  1.00  0.00     0.148 A 
ATOM     86  C   UNL A   1      49.297  26.176  33.107  1.00  0.00     0.002 A 
ATOM     87  C   UNL A   1      48.094  24.484  34.361  1.00  0.00     0.091 A 
ATOM     88  F   UNL A   1      45.727  24.314  34.111  1.00  0.00    -0.205 F 
ATOM     89  C   UNL A   1      49.299  25.105  33.996  1.00  0.00     0.022 A 
BRANCH  87  90
ATOM     90  S   UNL A   1      48.186  23.175  35.588  1.00  0.00     0.127 S 
ATOM     91  O   UNL A   1      47.531  23.798  36.738  1.00  0.00    -0.237 OA
ATOM     92  O   UNL A   1      47.417  22.103  34.954  1.00  0.00    -0.237 OA
ATOM     93  O   UNL A   1      49.603  22.882  35.759  1.00  0.00    -0.744 OA
ENDBRANCH  87  90
ENDBRANCH  60  83
ENDBRANCH  34  35
ENDBRANCH  27  29
ENDBRANCH  26  27
ENDBRANCH  25  26
ENDBRANCH  24  25
ENDBRANCH  23  24
ENDBRANCH   1  23
TORSDOF 21
ENDMDL
MODEL 3
REMARK VINA RESULT:     -10.1      5.131     10.879
REMARK SMILES CC1(C)CC[N@H+](CCOc2ccc(C(=O)OCCOCCOC(=O)c3ccc(-c4c5nc(c(-c6cccc(S(=O)(=O)[O-])c6F)c6ccc([nH]6)c(-c6cccc(S(=O)(=O)[O-])c6F)c6nc(c(-c7cccc(S(=O)(=O)[O-])c7F)c7ccc4[nH]7)C=C6)C=C5)cc3)cc2)C1
REMARK SMILES IDX 18 1 17 2 16 3 14 4 15 5 13 6 10 7 11 8 89 9 12 10 88 11
REMARK SMILES IDX 9 12 8 13 7 14 6 15 1 16 2 17 3 18 4 19 90 20 5 21 19 23
REMARK SMILES IDX 20 24 21 25 22 26 23 27 24 28 25 29 26 30 87 31 27 32 86 33
REMARK SMILES IDX 28 34 29 35 30 36 80 37 31 38 85 39 79 40 81 41 32 42 84 43
REMARK SMILES IDX 78 44 77 45 33 47 65 48 45 49 64 50 46 51 49 52 63 53 82 54
REMARK SMILES IDX 47 55 48 56 62 58 83 59 50 60 34 61 35 62 43 63 36 64 38 65
REMARK SMILES IDX 44 66 37 67 39 68 40 69 41 70 42 71 66 72 67 73 75 74 68 75
REMARK SMILES IDX 70 76 76 77 69 78 71 79 72 80 73 81 74 82 51 83 52 84 60 85
REMARK SMILES IDX 53 86 55 87 61 88 54 89 56 90 57 91 58 92 59 93
REMARK H PARENT 6 22 81 46 49 57
REMARK Flexibility Score: inf
ROOT
ATOM      1  C   UNL A   1      35.247  20.364  25.559  1.00  0.00     0.202 C 
ENDROOT
BRANCH   1   2
ATOM      2  C   UNL A   1      34.626  21.651  25.011  1.00  0.00     0.261 C 
BRANCH   2   3
ATOM      3  O   UNL A   1      34.083  22.482  26.042  1.00  0.00    -0.460 OA
BRANCH   3   4
ATOM      4  C   UNL A   1      32.844  22.981  25.796  1.00  0.00     0.338 C 
ATOM      5  O   UNL A   1      31.819  22.344  25.629  1.00  0.00    -0.246 OA
BRANCH   4   6
ATOM      6  C   UNL A   1      32.910  24.463  25.683  1.00  0.00     0.060 A 
ATOM      7  C   UNL A   1      32.377  27.049  24.897  1.00  0.00     0.119 A 
ATOM      8  C   UNL A   1      31.646  26.499  25.949  1.00  0.00     0.047 A 
ATOM      9  C   UNL A   1      33.543  26.438  24.443  1.00  0.00     0.047 A 
ATOM     10  C   UNL A   1      31.913  25.191  26.344  1.00  0.00     0.019 A 
ATOM     11  C   UNL A   1      33.796  25.117  24.811  1.00  0.00     0.019 A 
BRANCH   7  12
ATOM     12  O   UNL A   1      31.893  28.099  24.161  1.00  0.00    -0.488 OA
BRANCH  12  13
ATOM     13  C   UNL A   1      31.008  27.647  23.101  1.00  0.00     0.290 C 
BRANCH  13  14
ATOM     14  C   UNL A   1      29.539  28.115  23.290  1.00  0.00     0.304 C 
BRANCH  14  15
ATOM     15  N   UNL A   1      28.912  29.090  22.376  1.00  0.00    -0.332 N 
ATOM     16  C   UNL A   1      27.963  32.205  21.393  1.00  0.00     0.017 C 
ATOM     17  C   UNL A   1      28.618  31.506  22.593  1.00  0.00     0.019 C 
ATOM     18  C   UNL A   1      29.274  32.561  23.494  1.00  0.00     0.017 C 
ATOM     19  C   UNL A   1      27.549  30.733  23.345  1.00  0.00     0.073 C 
ATOM     20  C   UNL A   1      29.607  30.381  22.200  1.00  0.00     0.268 C 
ATOM     21  C   UNL A   1      27.512  29.384  22.657  1.00  0.00     0.263 C 
ATOM     22  H   UNL A   1      28.992  28.568  21.503  1.00  0.00     0.348 HD
ENDBRANCH  14  15
ENDBRANCH  13  14
ENDBRANCH  12  13
ENDBRANCH   7  12
ENDBRANCH   4   6
ENDBRANCH   3   4
ENDBRANCH   2   3
ENDBRANCH   1   2
BRANCH   1  23
ATOM     23  O   UNL A   1      36.043  19.554  24.698  1.00  0.00    -0.374 OA
BRANCH  23  24
ATOM     24  C   UNL A   1      37.460  19.656  24.758  1.00  0.00     0.202 C 
BRANCH  24  25
ATOM     25  C   UNL A   1      38.134  20.945  25.259  1.00  0.00     0.261 C 
BRANCH  25  26
ATOM     26  O   UNL A   1      39.563  20.912  25.329  1.00  0.00    -0.460 OA
BRANCH  26  27
ATOM     27  C   UNL A   1      40.035  20.824  26.600  1.00  0.00     0.338 C 
ATOM     28  O   UNL A   1      40.304  19.804  27.213  1.00  0.00    -0.246 OA
BRANCH  27  29
ATOM     29  C   UNL A   1      40.330  22.164  27.135  1.00  0.00     0.060 A 
ATOM     30  C   UNL A   1      39.692  23.255  26.531  1.00  0.00     0.016 A 
ATOM     31  C   UNL A   1      41.295  22.360  28.124  1.00  0.00     0.016 A 
ATOM     32  C   UNL A   1      40.058  24.553  26.877  1.00  0.00     0.010 A 
ATOM     33  C   UNL A   1      41.664  23.664  28.466  1.00  0.00     0.010 A 
ATOM     34  C   UNL A   1      41.076  24.765  27.815  1.00  0.00    -0.014 A 
BRANCH  34  35
ATOM     35  C   UNL A   1      41.618  26.132  28.014  1.00  0.00     0.031 A 
ATOM     36  C   UNL A   1      42.995  26.457  27.500  1.00  0.00     0.074 A 
ATOM     37  C   UNL A   1      40.884  27.074  28.633  1.00  0.00     0.049 A 
ATOM     38  N   UNL A   1      43.673  27.570  27.598  1.00  0.00    -0.248 NA
ATOM     39  C   UNL A   1      43.702  25.384  26.779  1.00  0.00     0.031 C 
ATOM     40  C   UNL A   1      39.532  26.884  29.157  1.00  0.00     0.029 A 
ATOM     41  N   UNL A   1      41.185  28.377  28.943  1.00  0.00    -0.354 N 
ATOM     42  C   UNL A   1      44.891  27.329  26.972  1.00  0.00     0.074 A 
ATOM     43  C   UNL A   1      44.867  25.957  26.515  1.00  0.00     0.031 C 
ATOM     44  C   UNL A   1      39.128  28.022  29.745  1.00  0.00     0.029 A 
ATOM     45  C   UNL A   1      40.202  29.010  29.664  1.00  0.00     0.049 A 
ATOM     46  H   UNL A   1      42.024  28.816  28.673  1.00  0.00     0.167 HD
ATOM     47  C   UNL A   1      45.929  28.179  26.777  1.00  0.00     0.034 A 
ATOM     48  C   UNL A   1      40.183  30.238  30.218  1.00  0.00     0.034 A 
ATOM     49  C   UNL A   1      45.943  29.546  27.221  1.00  0.00     0.049 A 
ATOM     50  C   UNL A   1      41.372  31.146  30.031  1.00  0.00     0.074 A 
ATOM     51  C   UNL A   1      46.936  30.495  27.054  1.00  0.00     0.029 A 
ATOM     52  N   UNL A   1      44.920  30.160  27.926  1.00  0.00    -0.354 N 
ATOM     53  N   UNL A   1      42.475  30.936  29.353  1.00  0.00    -0.248 NA
ATOM     54  C   UNL A   1      41.301  32.473  30.660  1.00  0.00     0.031 C 
ATOM     55  C   UNL A   1      46.524  31.675  27.679  1.00  0.00     0.029 A 
ATOM     56  C   UNL A   1      45.260  31.472  28.209  1.00  0.00     0.049 A 
ATOM     57  H   UNL A   1      44.075  29.727  28.187  1.00  0.00     0.167 HD
ATOM     58  C   UNL A   1      43.207  32.116  29.439  1.00  0.00     0.074 A 
ATOM     59  C   UNL A   1      42.413  33.042  30.217  1.00  0.00     0.031 C 
ATOM     60  C   UNL A   1      44.432  32.402  28.933  1.00  0.00     0.034 A 
BRANCH  47  61
ATOM     61  C   UNL A   1      47.126  27.662  26.022  1.00  0.00     0.023 A 
ATOM     62  C   UNL A   1      47.199  27.849  24.626  1.00  0.00     0.012 A 
ATOM     63  C   UNL A   1      48.202  27.053  26.694  1.00  0.00     0.148 A 
ATOM     64  C   UNL A   1      48.312  27.413  23.908  1.00  0.00     0.002 A 
ATOM     65  C   UNL A   1      49.327  26.659  25.979  1.00  0.00     0.091 A 
ATOM     66  F   UNL A   1      48.105  26.866  28.018  1.00  0.00    -0.205 F 
ATOM     67  C   UNL A   1      49.379  26.829  24.585  1.00  0.00     0.022 A 
BRANCH  65  68
ATOM     68  S   UNL A   1      50.786  25.965  26.765  1.00  0.00     0.127 S 
ATOM     69  O   UNL A   1      51.660  25.736  25.615  1.00  0.00    -0.237 OA
ATOM     70  O   UNL A   1      51.208  27.054  27.645  1.00  0.00    -0.237 OA
ATOM     71  O   UNL A   1      50.338  24.764  27.455  1.00  0.00    -0.744 OA
ENDBRANCH  65  68
ENDBRANCH  47  61
BRANCH  48  72
ATOM     72  C   UNL A   1      38.989  30.703  30.982  1.00  0.00     0.023 A 
ATOM     73  C   UNL A   1      38.961  30.556  32.383  1.00  0.00     0.012 A 
ATOM     74  C   UNL A   1      37.882  31.279  30.331  1.00  0.00     0.148 A 
ATOM     75  C   UNL A   1      37.837  30.936  33.117  1.00  0.00     0.002 A 
ATOM     76  C   UNL A   1      36.787  31.709  31.074  1.00  0.00     0.091 A 
ATOM     77  F   UNL A   1      37.917  31.394  28.996  1.00  0.00    -0.205 F 
ATOM     78  C   UNL A   1      36.755  31.520  32.464  1.00  0.00     0.022 A 
BRANCH  76  79
ATOM     79  S   UNL A   1      35.407  32.584  30.331  1.00  0.00     0.127 S 
ATOM     80  O   UNL A   1      36.038  33.830  29.904  1.00  0.00    -0.237 OA
ATOM     81  O   UNL A   1      35.026  31.680  29.244  1.00  0.00    -0.237 OA
ATOM     82  O   UNL A   1      34.408  32.706  31.384  1.00  0.00    -0.744 OA
ENDBRANCH  76  79
ENDBRANCH  48  72
BRANCH  60  83
ATOM     83  C   UNL A   1      44.975  33.790  29.158  1.00  0.00     0.023 A 
ATOM     84  C   UNL A   1      45.683  34.084  30.341  1.00  0.00     0.012 A 
ATOM     85  C   UNL A   1      44.843  34.782  28.167  1.00  0.00     0.148 A 
ATOM     86  C   UNL A   1      46.219  35.355  30.548  1.00  0.00     0.002 A 
ATOM     87  C   UNL A   1      45.423  36.031  28.358  1.00  0.00     0.091 A 
ATOM     88  F   UNL A   1      44.152  34.488  27.056  1.00  0.00    -0.205 F 
ATOM     89  C   UNL A   1      46.099  36.323  29.554  1.00  0.00     0.022 A 
BRANCH  87  90
ATOM     90  S   UNL A   1      45.405  37.308  27.095  1.00  0.00     0.127 S 
ATOM     91  O   UNL A   1      43.970  37.501  26.888  1.00  0.00    -0.237 OA
ATOM     92  O   UNL A   1      46.079  38.418  27.767  1.00  0.00    -0.237 OA
ATOM     93  O   UNL A   1      46.131  36.759  25.957  1.00  0.00    -0.744 OA
ENDBRANCH  87  90
ENDBRANCH  60  83
ENDBRANCH  34  35
ENDBRANCH  27  29
ENDBRANCH  26  27
ENDBRANCH  25  26
ENDBRANCH  24  25
ENDBRANCH  23  24
ENDBRANCH   1  23
TORSDOF 21
ENDMDL
