MODEL 1
REMARK VINA RESULT:     -11.1      0.000      0.000
REMARK SMILES O=C(Cn1nc(C(=O)OCCOCCOC(=O)c2ccc(-c3c4nc(c(-c5cccc(S(=O)(=O)[O-])c5F)c5ccc([nH]5)c(-c5cccc(S(=O)(=O)[O-])c5F)c5nc(c(-c6cccc(S(=O)(=O)[O-])c6F)c6ccc3[nH]6)C=C5)C=C4)cc2)c2ccccc2c1=O)Nc1ccc2c(c1)C(=O)c1ccccc1C2=O
REMARK SMILES IDX 12 1 11 2 10 3 9 4 7 5 8 6 6 7 4 8 5 9 87 10 86 11 88 12
REMARK SMILES IDX 81 13 85 14 82 15 84 16 83 17 3 18 2 19 1 20 89 21 90 23
REMARK SMILES IDX 91 24 95 25 92 26 94 27 93 28 96 29 104 30 97 31 98 32
REMARK SMILES IDX 103 33 105 34 99 35 102 36 100 37 101 38 13 39 14 40 15 41
REMARK SMILES IDX 16 42 17 43 18 44 19 45 80 46 20 47 79 48 21 49 22 50 23 51
REMARK SMILES IDX 73 52 24 53 78 54 72 55 74 56 25 57 77 58 71 59 70 60 26 62
REMARK SMILES IDX 58 63 38 64 57 65 39 66 42 67 56 68 75 69 40 70 41 71 55 73
REMARK SMILES IDX 76 74 43 75 27 76 28 77 36 78 29 79 31 80 37 81 30 82 32 83
REMARK SMILES IDX 33 84 34 85 35 86 59 87 60 88 68 89 61 90 63 91 69 92 62 93
REMARK SMILES IDX 64 94 65 95 66 96 67 97 44 98 45 99 53 100 46 101 48 102
REMARK SMILES IDX 54 103 47 104 49 105 50 106 51 107 52 108
REMARK H PARENT 89 22 74 61 42 72
REMARK Flexibility Score: inf
ROOT
ATOM      1  O   UNL A   1      43.621  23.659  24.936  1.00  0.00    -0.374 OA
ENDROOT
BRANCH   1   2
ATOM      2  C   UNL A   1      43.941  25.048  24.995  1.00  0.00     0.202 C 
BRANCH   2   3
ATOM      3  C   UNL A   1      42.748  26.029  24.937  1.00  0.00     0.261 C 
BRANCH   3   4
ATOM      4  O   UNL A   1      42.656  26.813  26.142  1.00  0.00    -0.458 OA
BRANCH   4   5
ATOM      5  C   UNL A   1      41.485  26.710  26.804  1.00  0.00     0.359 C 
ATOM      6  O   UNL A   1      40.575  27.524  26.827  1.00  0.00    -0.244 OA
BRANCH   5   7
ATOM      7  C   UNL A   1      41.228  25.259  27.223  1.00  0.00     0.176 A 
ATOM      8  N   UNL A   1      40.173  23.205  26.964  1.00  0.00    -0.219 N 
ATOM      9  N   UNL A   1      40.292  24.556  26.641  1.00  0.00    -0.161 NA
ATOM     10  C   UNL A   1      41.082  22.534  27.782  1.00  0.00     0.275 A 
ATOM     11  C   UNL A   1      42.088  23.345  28.474  1.00  0.00     0.051 A 
ATOM     12  O   UNL A   1      41.072  21.318  27.963  1.00  0.00    -0.267 OA
ATOM     13  C   UNL A   1      42.139  24.711  28.251  1.00  0.00     0.022 A 
ATOM     14  C   UNL A   1      42.971  22.734  29.372  1.00  0.00     0.014 A 
ATOM     15  C   UNL A   1      43.038  25.491  28.996  1.00  0.00     0.011 A 
ATOM     16  C   UNL A   1      43.869  23.508  30.101  1.00  0.00     0.001 A 
ATOM     17  C   UNL A   1      43.885  24.890  29.931  1.00  0.00     0.001 A 
BRANCH   8  18
ATOM     18  C   UNL A   1      39.276  22.334  26.194  1.00  0.00     0.248 C 
BRANCH  18  19
ATOM     19  C   UNL A   1      37.919  22.849  25.787  1.00  0.00     0.246 C 
ATOM     20  O   UNL A   1      37.292  23.658  26.469  1.00  0.00    -0.273 OA
ATOM     21  N   UNL A   1      37.456  22.332  24.585  1.00  0.00    -0.324 N 
ATOM     22  H   UNL A   1      38.055  22.129  23.831  1.00  0.00     0.169 HD
BRANCH  21  23
ATOM     23  C   UNL A   1      36.081  22.123  24.523  1.00  0.00     0.042 A 
ATOM     24  C   UNL A   1      35.419  21.225  25.350  1.00  0.00     0.027 A 
ATOM     25  C   UNL A   1      35.413  22.844  23.545  1.00  0.00     0.039 A 
ATOM     26  C   UNL A   1      34.030  21.214  25.308  1.00  0.00     0.015 A 
ATOM     27  C   UNL A   1      34.054  22.727  23.437  1.00  0.00     0.036 A 
ATOM     28  C   UNL A   1      33.356  22.089  24.430  1.00  0.00     0.034 A 
ATOM     29  C   UNL A   1      33.411  23.502  22.402  1.00  0.00     0.194 C 
ATOM     30  C   UNL A   1      31.992  22.516  24.759  1.00  0.00     0.194 C 
ATOM     31  O   UNL A   1      33.706  23.464  21.223  1.00  0.00    -0.289 OA
ATOM     32  C   UNL A   1      32.506  24.475  22.922  1.00  0.00     0.034 A 
ATOM     33  C   UNL A   1      31.492  24.071  24.319  1.00  0.00     0.034 A 
ATOM     34  O   UNL A   1      31.441  21.696  25.483  1.00  0.00    -0.289 OA
ATOM     35  C   UNL A   1      32.478  26.085  22.265  1.00  0.00     0.013 A 
ATOM     36  C   UNL A   1      30.318  25.552  25.054  1.00  0.00     0.013 A 
ATOM     37  C   UNL A   1      31.500  27.418  22.944  1.00  0.00     0.001 A 
ATOM     38  C   UNL A   1      30.417  27.199  24.316  1.00  0.00     0.001 A 
ENDBRANCH  21  23
ENDBRANCH  18  19
ENDBRANCH   8  18
ENDBRANCH   5   7
ENDBRANCH   4   5
ENDBRANCH   3   4
ENDBRANCH   2   3
ENDBRANCH   1   2
BRANCH   1  39
ATOM     39  C   UNL A   1      44.295  22.778  25.842  1.00  0.00     0.202 C 
BRANCH  39  40
ATOM     40  C   UNL A   1      45.808  22.921  26.057  1.00  0.00     0.261 C 
BRANCH  40  41
ATOM     41  O   UNL A   1      46.120  23.552  27.315  1.00  0.00    -0.460 OA
BRANCH  41  42
ATOM     42  C   UNL A   1      47.189  24.401  27.260  1.00  0.00     0.338 C 
ATOM     43  O   UNL A   1      48.339  24.035  27.477  1.00  0.00    -0.246 OA
BRANCH  42  44
ATOM     44  C   UNL A   1      46.878  25.922  26.982  1.00  0.00     0.060 A 
ATOM     45  C   UNL A   1      47.059  26.687  28.613  1.00  0.00     0.016 A 
ATOM     46  C   UNL A   1      46.620  27.191  25.423  1.00  0.00     0.016 A 
ATOM     47  C   UNL A   1      46.966  28.456  28.704  1.00  0.00     0.010 A 
ATOM     48  C   UNL A   1      46.548  28.928  25.657  1.00  0.00     0.010 A 
ATOM     49  C   UNL A   1      46.649  29.512  27.263  1.00  0.00    -0.014 A 
BRANCH  49  50
ATOM     50  C   UNL A   1      45.982  30.832  27.445  1.00  0.00     0.031 A 
ATOM     51  C   UNL A   1      44.617  30.986  28.147  1.00  0.00     0.074 A 
ATOM     52  C   UNL A   1      46.794  31.867  27.225  1.00  0.00     0.049 A 
ATOM     53  N   UNL A   1      44.037  32.084  28.570  1.00  0.00    -0.248 NA
ATOM     54  C   UNL A   1      43.805  29.784  28.465  1.00  0.00     0.031 C 
ATOM     55  C   UNL A   1      48.125  31.760  26.627  1.00  0.00     0.029 A 
ATOM     56  N   UNL A   1      46.647  33.183  27.522  1.00  0.00    -0.354 N 
ATOM     57  C   UNL A   1      42.853  31.697  29.209  1.00  0.00     0.074 A 
ATOM     58  C   UNL A   1      42.767  30.269  29.131  1.00  0.00     0.031 C 
ATOM     59  C   UNL A   1      48.716  32.955  26.681  1.00  0.00     0.029 A 
ATOM     60  C   UNL A   1      47.731  33.923  27.145  1.00  0.00     0.049 A 
ATOM     61  H   UNL A   1      45.850  33.561  27.960  1.00  0.00     0.167 HD
ATOM     62  C   UNL A   1      41.917  32.474  29.802  1.00  0.00     0.034 A 
ATOM     63  C   UNL A   1      47.872  35.252  27.071  1.00  0.00     0.034 A 
ATOM     64  C   UNL A   1      42.014  33.904  29.824  1.00  0.00     0.049 A 
ATOM     65  C   UNL A   1      46.733  36.092  27.528  1.00  0.00     0.074 A 
ATOM     66  C   UNL A   1      41.105  34.821  30.316  1.00  0.00     0.029 A 
ATOM     67  N   UNL A   1      43.077  34.618  29.296  1.00  0.00    -0.354 N 
ATOM     68  N   UNL A   1      45.622  35.710  28.112  1.00  0.00    -0.248 NA
ATOM     69  C   UNL A   1      46.852  37.531  27.314  1.00  0.00     0.031 C 
ATOM     70  C   UNL A   1      41.591  36.096  30.023  1.00  0.00     0.029 A 
ATOM     71  C   UNL A   1      42.823  35.970  29.395  1.00  0.00     0.049 A 
ATOM     72  H   UNL A   1      43.891  34.221  28.909  1.00  0.00     0.167 HD
ATOM     73  C   UNL A   1      44.902  36.867  28.345  1.00  0.00     0.074 A 
ATOM     74  C   UNL A   1      45.716  37.964  27.847  1.00  0.00     0.031 C 
ATOM     75  C   UNL A   1      43.681  37.015  28.908  1.00  0.00     0.034 A 
BRANCH  62  76
ATOM     76  C   UNL A   1      40.688  31.859  30.432  1.00  0.00     0.023 A 
ATOM     77  C   UNL A   1      39.634  31.401  29.617  1.00  0.00     0.012 A 
ATOM     78  C   UNL A   1      40.674  31.548  31.809  1.00  0.00     0.148 A 
ATOM     79  C   UNL A   1      38.603  30.622  30.157  1.00  0.00     0.002 A 
ATOM     80  C   UNL A   1      39.658  30.756  32.336  1.00  0.00     0.091 A 
ATOM     81  F   UNL A   1      41.683  31.999  32.569  1.00  0.00    -0.205 F 
ATOM     82  C   UNL A   1      38.623  30.287  31.510  1.00  0.00     0.022 A 
BRANCH  80  83
ATOM     83  S   UNL A   1      39.617  30.230  34.055  1.00  0.00     0.127 S 
ATOM     84  O   UNL A   1      39.522  31.509  34.757  1.00  0.00    -0.237 OA
ATOM     85  O   UNL A   1      38.402  29.418  34.101  1.00  0.00    -0.237 OA
ATOM     86  O   UNL A   1      40.856  29.499  34.284  1.00  0.00    -0.744 OA
ENDBRANCH  80  83
ENDBRANCH  62  76
BRANCH  63  87
ATOM     87  C   UNL A   1      49.097  35.758  26.411  1.00  0.00     0.023 A 
ATOM     88  C   UNL A   1      49.157  35.834  25.013  1.00  0.00     0.012 A 
ATOM     89  C   UNL A   1      50.079  36.406  27.195  1.00  0.00     0.148 A 
ATOM     90  C   UNL A   1      50.168  36.576  24.401  1.00  0.00     0.002 A 
ATOM     91  C   UNL A   1      51.037  37.197  26.582  1.00  0.00     0.091 A 
ATOM     92  F   UNL A   1      49.983  36.321  28.530  1.00  0.00    -0.205 F 
ATOM     93  C   UNL A   1      51.089  37.276  25.183  1.00  0.00     0.022 A 
BRANCH  91  94
ATOM     94  S   UNL A   1      52.119  38.279  27.525  1.00  0.00     0.127 S 
ATOM     95  O   UNL A   1      51.157  39.070  28.286  1.00  0.00    -0.237 OA
ATOM     96  O   UNL A   1      52.895  37.323  28.317  1.00  0.00    -0.237 OA
ATOM     97  O   UNL A   1      52.907  39.010  26.540  1.00  0.00    -0.744 OA
ENDBRANCH  91  94
ENDBRANCH  63  87
BRANCH  75  98
ATOM     98  C   UNL A   1      43.167  38.411  29.041  1.00  0.00     0.023 A 
ATOM     99  C   UNL A   1      42.283  38.921  28.074  1.00  0.00     0.012 A 
ATOM    100  C   UNL A   1      43.490  39.170  30.180  1.00  0.00     0.148 A 
ATOM    101  C   UNL A   1      41.737  40.190  28.232  1.00  0.00     0.002 A 
ATOM    102  C   UNL A   1      42.912  40.416  30.349  1.00  0.00     0.091 A 
ATOM    103  F   UNL A   1      44.338  38.645  31.077  1.00  0.00    -0.205 F 
ATOM    104  C   UNL A   1      42.042  40.931  29.373  1.00  0.00     0.022 A 
BRANCH 102 105
ATOM    105  S   UNL A   1      43.196  41.413  31.812  1.00  0.00     0.127 S 
ATOM    106  O   UNL A   1      43.617  42.685  31.225  1.00  0.00    -0.237 OA
ATOM    107  O   UNL A   1      41.872  41.434  32.431  1.00  0.00    -0.237 OA
ATOM    108  O   UNL A   1      44.220  40.722  32.584  1.00  0.00    -0.744 OA
ENDBRANCH 102 105
ENDBRANCH  75  98
ENDBRANCH  49  50
ENDBRANCH  42  44
ENDBRANCH  41  42
ENDBRANCH  40  41
ENDBRANCH  39  40
ENDBRANCH   1  39
TORSDOF 20
ENDMDL
MODEL 2
REMARK VINA RESULT:     -10.8      4.718      6.981
REMARK SMILES O=C(Cn1nc(C(=O)OCCOCCOC(=O)c2ccc(-c3c4nc(c(-c5cccc(S(=O)(=O)[O-])c5F)c5ccc([nH]5)c(-c5cccc(S(=O)(=O)[O-])c5F)c5nc(c(-c6cccc(S(=O)(=O)[O-])c6F)c6ccc3[nH]6)C=C5)C=C4)cc2)c2ccccc2c1=O)Nc1ccc2c(c1)C(=O)c1ccccc1C2=O
REMARK SMILES IDX 12 1 11 2 10 3 9 4 7 5 8 6 6 7 4 8 5 9 87 10 86 11 88 12
REMARK SMILES IDX 81 13 85 14 82 15 84 16 83 17 3 18 2 19 1 20 89 21 90 23
REMARK SMILES IDX 91 24 95 25 92 26 94 27 93 28 96 29 104 30 97 31 98 32
REMARK SMILES IDX 103 33 105 34 99 35 102 36 100 37 101 38 13 39 14 40 15 41
REMARK SMILES IDX 16 42 17 43 18 44 19 45 80 46 20 47 79 48 21 49 22 50 23 51
REMARK SMILES IDX 73 52 24 53 78 54 72 55 74 56 25 57 77 58 71 59 70 60 26 62
REMARK SMILES IDX 58 63 38 64 57 65 39 66 42 67 56 68 75 69 40 70 41 71 55 73
REMARK SMILES IDX 76 74 43 75 27 76 28 77 36 78 29 79 31 80 37 81 30 82 32 83
REMARK SMILES IDX 33 84 34 85 35 86 59 87 60 88 68 89 61 90 63 91 69 92 62 93
REMARK SMILES IDX 64 94 65 95 66 96 67 97 44 98 45 99 53 100 46 101 48 102
REMARK SMILES IDX 54 103 47 104 49 105 50 106 51 107 52 108
REMARK H PARENT 89 22 74 61 42 72
REMARK Flexibility Score: inf
ROOT
ATOM      1  O   UNL A   1      39.885  29.328  28.543  1.00  0.00    -0.374 OA
ENDROOT
BRANCH   1   2
ATOM      2  C   UNL A   1      39.894  28.809  27.214  1.00  0.00     0.202 C 
BRANCH   2   3
ATOM      3  C   UNL A   1      41.271  28.746  26.513  1.00  0.00     0.261 C 
BRANCH   3   4
ATOM      4  O   UNL A   1      41.547  27.422  26.020  1.00  0.00    -0.458 OA
BRANCH   4   5
ATOM      5  C   UNL A   1      42.545  26.771  26.652  1.00  0.00     0.359 C 
ATOM      6  O   UNL A   1      43.292  27.217  27.509  1.00  0.00    -0.244 OA
BRANCH   5   7
ATOM      7  C   UNL A   1      42.399  25.256  26.472  1.00  0.00     0.176 A 
ATOM      8  N   UNL A   1      41.154  23.295  26.521  1.00  0.00    -0.219 N 
ATOM      9  N   UNL A   1      41.293  24.651  26.815  1.00  0.00    -0.161 NA
ATOM     10  C   UNL A   1      42.084  22.580  25.768  1.00  0.00     0.275 A 
ATOM     11  C   UNL A   1      43.345  23.253  25.443  1.00  0.00     0.051 A 
ATOM     12  O   UNL A   1      41.910  21.426  25.382  1.00  0.00    -0.267 OA
ATOM     13  C   UNL A   1      43.542  24.566  25.835  1.00  0.00     0.022 A 
ATOM     14  C   UNL A   1      44.347  22.553  24.761  1.00  0.00     0.014 A 
ATOM     15  C   UNL A   1      44.791  25.166  25.610  1.00  0.00     0.011 A 
ATOM     16  C   UNL A   1      45.581  23.154  24.529  1.00  0.00     0.001 A 
ATOM     17  C   UNL A   1      45.811  24.452  24.975  1.00  0.00     0.001 A 
BRANCH   8  18
ATOM     18  C   UNL A   1      39.860  22.625  26.703  1.00  0.00     0.248 C 
BRANCH  18  19
ATOM     19  C   UNL A   1      38.594  23.352  26.330  1.00  0.00     0.246 C 
ATOM     20  O   UNL A   1      38.270  24.418  26.852  1.00  0.00    -0.273 OA
ATOM     21  N   UNL A   1      37.843  22.715  25.351  1.00  0.00    -0.324 N 
ATOM     22  H   UNL A   1      38.256  22.214  24.612  1.00  0.00     0.169 HD
BRANCH  21  23
ATOM     23  C   UNL A   1      36.464  22.838  25.492  1.00  0.00     0.042 A 
ATOM     24  C   UNL A   1      35.733  22.093  26.407  1.00  0.00     0.027 A 
ATOM     25  C   UNL A   1      35.854  23.730  24.624  1.00  0.00     0.039 A 
ATOM     26  C   UNL A   1      34.389  22.410  26.571  1.00  0.00     0.015 A 
ATOM     27  C   UNL A   1      34.505  23.940  24.717  1.00  0.00     0.036 A 
ATOM     28  C   UNL A   1      33.824  23.450  25.802  1.00  0.00     0.034 A 
ATOM     29  C   UNL A   1      33.924  24.881  23.789  1.00  0.00     0.194 C 
ATOM     30  C   UNL A   1      32.663  24.174  26.329  1.00  0.00     0.194 C 
ATOM     31  O   UNL A   1      34.030  24.816  22.579  1.00  0.00    -0.289 OA
ATOM     32  C   UNL A   1      33.360  26.021  24.437  1.00  0.00     0.034 A 
ATOM     33  C   UNL A   1      32.490  25.818  25.968  1.00  0.00     0.034 A 
ATOM     34  O   UNL A   1      32.042  23.482  27.126  1.00  0.00    -0.289 OA
ATOM     35  C   UNL A   1      33.623  27.614  23.792  1.00  0.00     0.013 A 
ATOM     36  C   UNL A   1      31.820  27.506  26.869  1.00  0.00     0.013 A 
ATOM     37  C   UNL A   1      33.098  29.115  24.609  1.00  0.00     0.001 A 
ATOM     38  C   UNL A   1      32.201  29.108  26.125  1.00  0.00     0.001 A 
ENDBRANCH  21  23
ENDBRANCH  18  19
ENDBRANCH   8  18
ENDBRANCH   5   7
ENDBRANCH   4   5
ENDBRANCH   3   4
ENDBRANCH   2   3
ENDBRANCH   1   2
BRANCH   1  39
ATOM     39  C   UNL A   1      38.614  29.613  29.140  1.00  0.00     0.202 C 
BRANCH  39  40
ATOM     40  C   UNL A   1      37.918  28.544  29.992  1.00  0.00     0.261 C 
BRANCH  40  41
ATOM     41  O   UNL A   1      38.858  27.753  30.746  1.00  0.00    -0.460 OA
BRANCH  41  42
ATOM     42  C   UNL A   1      38.847  28.005  32.089  1.00  0.00     0.338 C 
ATOM     43  O   UNL A   1      38.151  27.372  32.876  1.00  0.00    -0.246 OA
BRANCH  42  44
ATOM     44  C   UNL A   1      39.716  29.218  32.595  1.00  0.00     0.060 A 
ATOM     45  C   UNL A   1      38.492  30.527  32.855  1.00  0.00     0.016 A 
ATOM     46  C   UNL A   1      41.599  29.618  33.231  1.00  0.00     0.016 A 
ATOM     47  C   UNL A   1      39.047  32.033  33.608  1.00  0.00     0.010 A 
ATOM     48  C   UNL A   1      42.012  31.157  33.963  1.00  0.00     0.010 A 
ATOM     49  C   UNL A   1      40.775  32.336  34.073  1.00  0.00    -0.014 A 
BRANCH  49  50
ATOM     50  C   UNL A   1      41.301  33.730  34.101  1.00  0.00     0.031 A 
ATOM     51  C   UNL A   1      41.596  34.482  35.415  1.00  0.00     0.074 A 
ATOM     52  C   UNL A   1      41.769  34.140  32.922  1.00  0.00     0.049 A 
ATOM     53  N   UNL A   1      42.262  35.600  35.583  1.00  0.00    -0.248 NA
ATOM     54  C   UNL A   1      41.145  33.918  36.712  1.00  0.00     0.031 C 
ATOM     55  C   UNL A   1      41.574  33.423  31.660  1.00  0.00     0.029 A 
ATOM     56  N   UNL A   1      42.536  35.212  32.601  1.00  0.00    -0.354 N 
ATOM     57  C   UNL A   1      42.327  35.831  36.962  1.00  0.00     0.074 A 
ATOM     58  C   UNL A   1      41.637  34.756  37.612  1.00  0.00     0.031 C 
ATOM     59  C   UNL A   1      42.283  34.031  30.709  1.00  0.00     0.029 A 
ATOM     60  C   UNL A   1      42.819  35.265  31.266  1.00  0.00     0.049 A 
ATOM     61  H   UNL A   1      42.854  35.876  33.255  1.00  0.00     0.167 HD
ATOM     62  C   UNL A   1      42.906  36.859  37.622  1.00  0.00     0.034 A 
ATOM     63  C   UNL A   1      43.350  36.262  30.546  1.00  0.00     0.034 A 
ATOM     64  C   UNL A   1      43.551  37.941  36.937  1.00  0.00     0.049 A 
ATOM     65  C   UNL A   1      43.783  37.483  31.275  1.00  0.00     0.074 A 
ATOM     66  C   UNL A   1      44.110  39.086  37.470  1.00  0.00     0.029 A 
ATOM     67  N   UNL A   1      43.686  38.017  35.561  1.00  0.00    -0.354 N 
ATOM     68  N   UNL A   1      43.821  37.689  32.570  1.00  0.00    -0.248 NA
ATOM     69  C   UNL A   1      44.233  38.608  30.460  1.00  0.00     0.031 C 
ATOM     70  C   UNL A   1      44.524  39.888  36.406  1.00  0.00     0.029 A 
ATOM     71  C   UNL A   1      44.268  39.218  35.217  1.00  0.00     0.049 A 
ATOM     72  H   UNL A   1      43.410  37.318  34.924  1.00  0.00     0.167 HD
ATOM     73  C   UNL A   1      44.308  38.972  32.733  1.00  0.00     0.074 A 
ATOM     74  C   UNL A   1      44.562  39.488  31.398  1.00  0.00     0.031 C 
ATOM     75  C   UNL A   1      44.521  39.667  33.875  1.00  0.00     0.034 A 
BRANCH  62  76
ATOM     76  C   UNL A   1      42.855  36.936  39.132  1.00  0.00     0.023 A 
ATOM     77  C   UNL A   1      43.974  36.545  39.894  1.00  0.00     0.012 A 
ATOM     78  C   UNL A   1      41.781  37.587  39.775  1.00  0.00     0.148 A 
ATOM     79  C   UNL A   1      44.035  36.826  41.264  1.00  0.00     0.002 A 
ATOM     80  C   UNL A   1      41.857  37.883  41.134  1.00  0.00     0.091 A 
ATOM     81  F   UNL A   1      40.723  37.945  39.034  1.00  0.00    -0.205 F 
ATOM     82  C   UNL A   1      42.987  37.508  41.879  1.00  0.00     0.022 A 
BRANCH  80  83
ATOM     83  S   UNL A   1      40.580  38.798  42.010  1.00  0.00     0.127 S 
ATOM     84  O   UNL A   1      39.388  38.003  41.718  1.00  0.00    -0.237 OA
ATOM     85  O   UNL A   1      41.040  38.720  43.396  1.00  0.00    -0.237 OA
ATOM     86  O   UNL A   1      40.576  40.137  41.437  1.00  0.00    -0.744 OA
ENDBRANCH  80  83
ENDBRANCH  62  76
BRANCH  63  87
ATOM     87  C   UNL A   1      43.329  36.106  29.073  1.00  0.00     0.023 A 
ATOM     88  C   UNL A   1      42.310  36.708  28.322  1.00  0.00     0.012 A 
ATOM     89  C   UNL A   1      44.472  35.588  28.423  1.00  0.00     0.148 A 
ATOM     90  C   UNL A   1      42.444  36.822  26.938  1.00  0.00     0.002 A 
ATOM     91  C   UNL A   1      44.628  35.767  27.058  1.00  0.00     0.091 A 
ATOM     92  F   UNL A   1      45.432  35.029  29.176  1.00  0.00    -0.205 F 
ATOM     93  C   UNL A   1      43.610  36.376  26.311  1.00  0.00     0.022 A 
BRANCH  91  94
ATOM     94  S   UNL A   1      46.179  35.404  26.225  1.00  0.00     0.127 S 
ATOM     95  O   UNL A   1      46.938  34.748  27.285  1.00  0.00    -0.237 OA
ATOM     96  O   UNL A   1      45.745  34.523  25.139  1.00  0.00    -0.237 OA
ATOM     97  O   UNL A   1      46.698  36.689  25.773  1.00  0.00    -0.744 OA
ENDBRANCH  91  94
ENDBRANCH  63  87
BRANCH  75  98
ATOM     98  C   UNL A   1      45.079  41.044  33.729  1.00  0.00     0.023 A 
ATOM     99  C   UNL A   1      46.457  41.215  33.508  1.00  0.00     0.012 A 
ATOM    100  C   UNL A   1      44.213  42.152  33.714  1.00  0.00     0.148 A 
ATOM    101  C   UNL A   1      46.973  42.488  33.291  1.00  0.00     0.002 A 
ATOM    102  C   UNL A   1      44.729  43.411  33.459  1.00  0.00     0.091 A 
ATOM    103  F   UNL A   1      42.906  41.944  33.930  1.00  0.00    -0.205 F 
ATOM    104  C   UNL A   1      46.110  43.582  33.255  1.00  0.00     0.022 A 
BRANCH 102 105
ATOM    105  S   UNL A   1      43.689  44.866  33.332  1.00  0.00     0.127 S 
ATOM    106  O   UNL A   1      44.515  45.877  33.991  1.00  0.00    -0.237 OA
ATOM    107  O   UNL A   1      43.562  45.027  31.885  1.00  0.00    -0.237 OA
ATOM    108  O   UNL A   1      42.447  44.540  34.022  1.00  0.00    -0.744 OA
ENDBRANCH 102 105
ENDBRANCH  75  98
ENDBRANCH  49  50
ENDBRANCH  42  44
ENDBRANCH  41  42
ENDBRANCH  40  41
ENDBRANCH  39  40
ENDBRANCH   1  39
TORSDOF 20
ENDMDL
MODEL 3
REMARK VINA RESULT:     -10.7      8.865     14.017
REMARK SMILES O=C(Cn1nc(C(=O)OCCOCCOC(=O)c2ccc(-c3c4nc(c(-c5cccc(S(=O)(=O)[O-])c5F)c5ccc([nH]5)c(-c5cccc(S(=O)(=O)[O-])c5F)c5nc(c(-c6cccc(S(=O)(=O)[O-])c6F)c6ccc3[nH]6)C=C5)C=C4)cc2)c2ccccc2c1=O)Nc1ccc2c(c1)C(=O)c1ccccc1C2=O
REMARK SMILES IDX 12 1 11 2 10 3 9 4 7 5 8 6 6 7 4 8 5 9 87 10 86 11 88 12
REMARK SMILES IDX 81 13 85 14 82 15 84 16 83 17 3 18 2 19 1 20 89 21 90 23
REMARK SMILES IDX 91 24 95 25 92 26 94 27 93 28 96 29 104 30 97 31 98 32
REMARK SMILES IDX 103 33 105 34 99 35 102 36 100 37 101 38 13 39 14 40 15 41
REMARK SMILES IDX 16 42 17 43 18 44 19 45 80 46 20 47 79 48 21 49 22 50 23 51
REMARK SMILES IDX 73 52 24 53 78 54 72 55 74 56 25 57 77 58 71 59 70 60 26 62
REMARK SMILES IDX 58 63 38 64 57 65 39 66 42 67 56 68 75 69 40 70 41 71 55 73
REMARK SMILES IDX 76 74 43 75 27 76 28 77 36 78 29 79 31 80 37 81 30 82 32 83
REMARK SMILES IDX 33 84 34 85 35 86 59 87 60 88 68 89 61 90 63 91 69 92 62 93
REMARK SMILES IDX 64 94 65 95 66 96 67 97 44 98 45 99 53 100 46 101 48 102
REMARK SMILES IDX 54 103 47 104 49 105 50 106 51 107 52 108
REMARK H PARENT 89 22 74 61 42 72
REMARK Flexibility Score: inf
ROOT
ATOM      1  O   UNL A   1      52.001  23.600  36.521  1.00  0.00    -0.374 OA
ENDROOT
BRANCH   1   2
ATOM      2  C   UNL A   1      52.033  22.563  35.543  1.00  0.00     0.202 C 
BRANCH   2   3
ATOM      3  C   UNL A   1      52.584  21.196  36.012  1.00  0.00     0.261 C 
BRANCH   3   4
ATOM      4  O   UNL A   1      51.667  20.542  36.909  1.00  0.00    -0.458 OA
BRANCH   4   5
ATOM      5  C   UNL A   1      50.721  19.787  36.312  1.00  0.00     0.359 C 
ATOM      6  O   UNL A   1      50.887  18.945  35.444  1.00  0.00    -0.244 OA
BRANCH   5   7
ATOM      7  C   UNL A   1      49.424  19.806  37.127  1.00  0.00     0.176 A 
ATOM      8  N   UNL A   1      48.209  19.376  39.061  1.00  0.00    -0.219 N 
ATOM      9  N   UNL A   1      49.368  19.230  38.299  1.00  0.00    -0.161 NA
ATOM     10  C   UNL A   1      47.155  20.210  38.691  1.00  0.00     0.275 A 
ATOM     11  C   UNL A   1      47.204  20.800  37.350  1.00  0.00     0.051 A 
ATOM     12  O   UNL A   1      46.192  20.458  39.414  1.00  0.00    -0.267 OA
ATOM     13  C   UNL A   1      48.299  20.564  36.537  1.00  0.00     0.022 A 
ATOM     14  C   UNL A   1      46.131  21.577  36.896  1.00  0.00     0.014 A 
ATOM     15  C   UNL A   1      48.288  21.049  35.219  1.00  0.00     0.011 A 
ATOM     16  C   UNL A   1      46.128  22.066  35.593  1.00  0.00     0.001 A 
ATOM     17  C   UNL A   1      47.196  21.781  34.747  1.00  0.00     0.001 A 
BRANCH   8  18
ATOM     18  C   UNL A   1      48.176  18.920  40.456  1.00  0.00     0.248 C 
BRANCH  18  19
ATOM     19  C   UNL A   1      47.286  17.764  40.834  1.00  0.00     0.246 C 
ATOM     20  O   UNL A   1      47.127  16.791  40.099  1.00  0.00    -0.273 OA
ATOM     21  N   UNL A   1      46.678  17.900  42.074  1.00  0.00    -0.324 N 
ATOM     22  H   UNL A   1      47.124  18.335  42.836  1.00  0.00     0.169 HD
BRANCH  21  23
ATOM     23  C   UNL A   1      45.391  17.377  42.161  1.00  0.00     0.042 A 
ATOM     24  C   UNL A   1      44.400  17.661  41.232  1.00  0.00     0.027 A 
ATOM     25  C   UNL A   1      45.147  16.579  43.269  1.00  0.00     0.039 A 
ATOM     26  C   UNL A   1      43.203  16.961  41.331  1.00  0.00     0.015 A 
ATOM     27  C   UNL A   1      43.919  15.994  43.415  1.00  0.00     0.036 A 
ATOM     28  C   UNL A   1      43.038  16.014  42.364  1.00  0.00     0.034 A 
ATOM     29  C   UNL A   1      43.721  15.172  44.585  1.00  0.00     0.194 C 
ATOM     30  C   UNL A   1      42.106  14.899  42.165  1.00  0.00     0.194 C 
ATOM     31  O   UNL A   1      43.900  15.543  45.730  1.00  0.00    -0.289 OA
ATOM     32  C   UNL A   1      43.472  13.804  44.266  1.00  0.00     0.034 A 
ATOM     33  C   UNL A   1      42.460  13.401  42.867  1.00  0.00     0.034 A 
ATOM     34  O   UNL A   1      41.245  15.191  41.345  1.00  0.00    -0.289 OA
ATOM     35  C   UNL A   1      44.248  12.537  45.169  1.00  0.00     0.013 A 
ATOM     36  C   UNL A   1      42.254  11.432  42.426  1.00  0.00     0.013 A 
ATOM     37  C   UNL A   1      44.131  10.804  44.752  1.00  0.00     0.001 A 
ATOM     38  C   UNL A   1      43.153  10.213  43.410  1.00  0.00     0.001 A 
ENDBRANCH  21  23
ENDBRANCH  18  19
ENDBRANCH   8  18
ENDBRANCH   5   7
ENDBRANCH   4   5
ENDBRANCH   3   4
ENDBRANCH   2   3
ENDBRANCH   1   2
BRANCH   1  39
ATOM     39  C   UNL A   1      51.151  24.727  36.273  1.00  0.00     0.202 C 
BRANCH  39  40
ATOM     40  C   UNL A   1      50.617  24.980  34.857  1.00  0.00     0.261 C 
BRANCH  40  41
ATOM     41  O   UNL A   1      49.192  25.199  34.846  1.00  0.00    -0.460 OA
BRANCH  41  42
ATOM     42  C   UNL A   1      48.654  25.289  33.593  1.00  0.00     0.338 C 
ATOM     43  O   UNL A   1      49.121  24.695  32.627  1.00  0.00    -0.246 OA
BRANCH  42  44
ATOM     44  C   UNL A   1      47.432  26.268  33.410  1.00  0.00     0.060 A 
ATOM     45  C   UNL A   1      45.997  25.184  33.616  1.00  0.00     0.016 A 
ATOM     46  C   UNL A   1      47.042  28.253  33.285  1.00  0.00     0.016 A 
ATOM     47  C   UNL A   1      44.395  25.943  33.661  1.00  0.00     0.010 A 
ATOM     48  C   UNL A   1      45.402  28.871  33.345  1.00  0.00     0.010 A 
ATOM     49  C   UNL A   1      44.132  27.728  33.458  1.00  0.00    -0.014 A 
BRANCH  49  50
ATOM     50  C   UNL A   1      42.847  28.228  32.894  1.00  0.00     0.031 A 
ATOM     51  C   UNL A   1      41.910  29.176  33.671  1.00  0.00     0.074 A 
ATOM     52  C   UNL A   1      42.737  28.032  31.580  1.00  0.00     0.049 A 
ATOM     53  N   UNL A   1      40.886  29.861  33.218  1.00  0.00    -0.248 NA
ATOM     54  C   UNL A   1      42.148  29.442  35.111  1.00  0.00     0.031 C 
ATOM     55  C   UNL A   1      43.645  27.198  30.790  1.00  0.00     0.029 A 
ATOM     56  N   UNL A   1      41.865  28.552  30.680  1.00  0.00    -0.354 N 
ATOM     57  C   UNL A   1      40.410  30.632  34.285  1.00  0.00     0.074 A 
ATOM     58  C   UNL A   1      41.234  30.348  35.424  1.00  0.00     0.031 C 
ATOM     59  C   UNL A   1      43.335  27.332  29.500  1.00  0.00     0.029 A 
ATOM     60  C   UNL A   1      42.106  28.108  29.411  1.00  0.00     0.049 A 
ATOM     61  H   UNL A   1      41.142  29.177  30.914  1.00  0.00     0.167 HD
ATOM     62  C   UNL A   1      39.368  31.494  34.309  1.00  0.00     0.034 A 
ATOM     63  C   UNL A   1      41.349  28.219  28.311  1.00  0.00     0.034 A 
ATOM     64  C   UNL A   1      38.538  31.721  33.163  1.00  0.00     0.049 A 
ATOM     65  C   UNL A   1      40.085  28.995  28.420  1.00  0.00     0.074 A 
ATOM     66  C   UNL A   1      37.403  32.503  33.063  1.00  0.00     0.029 A 
ATOM     67  N   UNL A   1      38.743  31.131  31.927  1.00  0.00    -0.354 N 
ATOM     68  N   UNL A   1      39.647  29.699  29.436  1.00  0.00    -0.248 NA
ATOM     69  C   UNL A   1      39.210  28.989  27.251  1.00  0.00     0.031 C 
ATOM     70  C   UNL A   1      36.884  32.331  31.779  1.00  0.00     0.029 A 
ATOM     71  C   UNL A   1      37.724  31.483  31.069  1.00  0.00     0.049 A 
ATOM     72  H   UNL A   1      39.504  30.549  31.696  1.00  0.00     0.167 HD
ATOM     73  C   UNL A   1      38.438  30.233  29.029  1.00  0.00     0.074 A 
ATOM     74  C   UNL A   1      38.225  29.776  27.666  1.00  0.00     0.031 C 
ATOM     75  C   UNL A   1      37.577  31.020  29.716  1.00  0.00     0.034 A 
BRANCH  62  76
ATOM     76  C   UNL A   1      39.001  32.228  35.580  1.00  0.00     0.023 A 
ATOM     77  C   UNL A   1      38.120  31.636  36.506  1.00  0.00     0.012 A 
ATOM     78  C   UNL A   1      39.691  33.405  35.945  1.00  0.00     0.148 A 
ATOM     79  C   UNL A   1      37.954  32.185  37.782  1.00  0.00     0.002 A 
ATOM     80  C   UNL A   1      39.536  33.934  37.224  1.00  0.00     0.091 A 
ATOM     81  F   UNL A   1      40.519  33.957  35.048  1.00  0.00    -0.205 F 
ATOM     82  C   UNL A   1      38.672  33.323  38.146  1.00  0.00     0.022 A 
BRANCH  80  83
ATOM     83  S   UNL A   1      40.452  35.369  37.806  1.00  0.00     0.127 S 
ATOM     84  O   UNL A   1      39.793  36.457  37.084  1.00  0.00    -0.237 OA
ATOM     85  O   UNL A   1      40.186  35.343  39.244  1.00  0.00    -0.237 OA
ATOM     86  O   UNL A   1      41.841  35.142  37.432  1.00  0.00    -0.744 OA
ENDBRANCH  80  83
ENDBRANCH  62  76
BRANCH  63  87
ATOM     87  C   UNL A   1      41.775  27.439  27.127  1.00  0.00     0.023 A 
ATOM     88  C   UNL A   1      42.571  28.042  26.142  1.00  0.00     0.012 A 
ATOM     89  C   UNL A   1      41.604  26.036  27.133  1.00  0.00     0.148 A 
ATOM     90  C   UNL A   1      43.218  27.250  25.193  1.00  0.00     0.002 A 
ATOM     91  C   UNL A   1      42.305  25.253  26.230  1.00  0.00     0.091 A 
ATOM     92  F   UNL A   1      40.844  25.494  28.097  1.00  0.00    -0.205 F 
ATOM     93  C   UNL A   1      43.106  25.859  25.252  1.00  0.00     0.022 A 
BRANCH  91  94
ATOM     94  S   UNL A   1      42.368  23.462  26.377  1.00  0.00     0.127 S 
ATOM     95  O   UNL A   1      42.956  23.294  27.702  1.00  0.00    -0.237 OA
ATOM     96  O   UNL A   1      40.954  23.097  26.277  1.00  0.00    -0.237 OA
ATOM     97  O   UNL A   1      43.179  23.001  25.257  1.00  0.00    -0.744 OA
ENDBRANCH  91  94
ENDBRANCH  63  87
BRANCH  75  98
ATOM     98  C   UNL A   1      36.346  31.458  28.994  1.00  0.00     0.023 A 
ATOM     99  C   UNL A   1      36.145  32.824  28.728  1.00  0.00     0.012 A 
ATOM    100  C   UNL A   1      35.446  30.498  28.499  1.00  0.00     0.148 A 
ATOM    101  C   UNL A   1      35.042  33.233  27.987  1.00  0.00     0.002 A 
ATOM    102  C   UNL A   1      34.371  30.910  27.729  1.00  0.00     0.091 A 
ATOM    103  F   UNL A   1      35.674  29.206  28.777  1.00  0.00    -0.205 F 
ATOM    104  C   UNL A   1      34.164  32.277  27.479  1.00  0.00     0.022 A 
BRANCH 102 105
ATOM    105  S   UNL A   1      33.226  29.749  26.983  1.00  0.00     0.127 S 
ATOM    106  O   UNL A   1      34.018  29.231  25.867  1.00  0.00    -0.237 OA
ATOM    107  O   UNL A   1      33.004  28.797  28.069  1.00  0.00    -0.237 OA
ATOM    108  O   UNL A   1      32.053  30.524  26.600  1.00  0.00    -0.744 OA
ENDBRANCH 102 105
ENDBRANCH  75  98
ENDBRANCH  49  50
ENDBRANCH  42  44
ENDBRANCH  41  42
ENDBRANCH  40  41
ENDBRANCH  39  40
ENDBRANCH   1  39
TORSDOF 20
ENDMDL
