MODEL 1
REMARK VINA RESULT:     -11.4      0.000      0.000
REMARK SMILES O=C(C[N@@H+]1C[C@@]2([N+](=O)[O-])CC=C(Cl)[C@@]([N+](=O)[O-])(C1)C2)OCCOCCOC(=O)c1ccc(-c2c3nc(c(-c4cccc(S(=O)(=O)[O-])c4F)c4ccc([nH]4)c(-c4cccc(S(=O)(=O)[O-])c4F)c4nc(c(-c5cccc(S(=O)(=O)[O-])c5F)c5ccc2[nH]5)C=C4)C=C3)cc1
REMARK SMILES IDX 24 1 23 2 22 3 21 4 20 5 2 6 1 7 3 8 4 9 5 10 18 11 6 13
REMARK SMILES IDX 14 14 10 15 19 16 12 17 11 18 13 19 7 20 8 21 9 22 15 23
REMARK SMILES IDX 16 24 17 25 25 26 26 27 27 28 28 29 29 30 30 31 91 32 31 33
REMARK SMILES IDX 90 34 32 35 33 36 34 37 84 38 35 39 89 40 83 41 85 42 36 43
REMARK SMILES IDX 88 44 82 45 81 46 37 48 69 49 49 50 68 51 50 52 53 53 67 54
REMARK SMILES IDX 86 55 51 56 52 57 66 59 87 60 54 61 38 62 39 63 47 64 40 65
REMARK SMILES IDX 42 66 48 67 41 68 43 69 44 70 45 71 46 72 70 73 71 74 79 75
REMARK SMILES IDX 72 76 74 77 80 78 73 79 75 80 76 81 77 82 78 83 55 84 56 85
REMARK SMILES IDX 64 86 57 87 59 88 65 89 58 90 60 91 61 92 62 93 63 94
REMARK H PARENT 4 12 85 47 53 58
REMARK Flexibility Score: inf
ROOT
ATOM      1  C   UNL A   1      35.486  20.993  25.447  1.00  0.00     0.202 C 
ENDROOT
BRANCH   1   2
ATOM      2  O   UNL A   1      35.404  22.173  26.244  1.00  0.00    -0.374 OA
BRANCH   2   3
ATOM      3  C   UNL A   1      34.327  22.274  27.154  1.00  0.00     0.202 C 
BRANCH   3   4
ATOM      4  C   UNL A   1      32.901  22.320  26.615  1.00  0.00     0.261 C 
BRANCH   4   5
ATOM      5  O   UNL A   1      31.977  23.383  26.961  1.00  0.00    -0.459 OA
BRANCH   5   6
ATOM      6  C   UNL A   1      30.669  23.646  26.882  1.00  0.00     0.361 C 
ATOM      7  O   UNL A   1      29.887  22.907  27.486  1.00  0.00    -0.245 OA
BRANCH   6   8
ATOM      8  C   UNL A   1      30.110  24.825  26.114  1.00  0.00     0.386 C 
BRANCH   8   9
ATOM      9  N   UNL A   1      31.061  25.688  25.397  1.00  0.00    -0.313 N 
ATOM     10  C   UNL A   1      30.684  27.097  25.360  1.00  0.00     0.350 C 
ATOM     11  C   UNL A   1      31.522  25.165  24.096  1.00  0.00     0.356 C 
ATOM     12  H   UNL A   1      31.893  25.654  25.987  1.00  0.00     0.349 HD
ATOM     13  C   UNL A   1      31.736  28.030  24.739  1.00  0.00     0.280 C 
ATOM     14  C   UNL A   1      32.670  26.060  23.549  1.00  0.00     0.311 C 
ATOM     15  C   UNL A   1      33.004  28.170  25.615  1.00  0.00     0.121 C 
ATOM     16  C   UNL A   1      32.121  27.498  23.352  1.00  0.00     0.191 C 
ATOM     17  C   UNL A   1      33.844  26.074  24.527  1.00  0.00     0.097 C 
ATOM     18  C   UNL A   1      33.985  27.035  25.458  1.00  0.00     0.004 C 
ATOM     19  Cl  UNL A   1      34.948  24.741  24.531  1.00  0.00    -0.081 Cl
BRANCH  13  20
ATOM     20  N   UNL A   1      31.052  29.385  24.625  1.00  0.00     0.032 N 
ATOM     21  O   UNL A   1      31.359  30.258  25.446  1.00  0.00    -0.264 OA
ATOM     22  O   UNL A   1      30.172  29.505  23.765  1.00  0.00    -0.264 OA
ENDBRANCH  13  20
BRANCH  14  23
ATOM     23  N   UNL A   1      33.136  25.556  22.190  1.00  0.00     0.038 N 
ATOM     24  O   UNL A   1      33.895  26.274  21.528  1.00  0.00    -0.263 OA
ATOM     25  O   UNL A   1      32.725  24.443  21.830  1.00  0.00    -0.263 OA
ENDBRANCH  14  23
ENDBRANCH   8   9
ENDBRANCH   6   8
ENDBRANCH   5   6
ENDBRANCH   4   5
ENDBRANCH   3   4
ENDBRANCH   2   3
ENDBRANCH   1   2
BRANCH   1  26
ATOM     26  C   UNL A   1      36.861  20.727  24.840  1.00  0.00     0.261 C 
BRANCH  26  27
ATOM     27  O   UNL A   1      37.789  21.734  25.260  1.00  0.00    -0.460 OA
BRANCH  27  28
ATOM     28  C   UNL A   1      38.864  21.300  25.960  1.00  0.00     0.338 C 
ATOM     29  O   UNL A   1      39.399  20.206  25.897  1.00  0.00    -0.246 OA
BRANCH  28  30
ATOM     30  C   UNL A   1      39.460  22.477  26.623  1.00  0.00     0.060 A 
ATOM     31  C   UNL A   1      38.943  23.749  26.324  1.00  0.00     0.016 A 
ATOM     32  C   UNL A   1      40.476  22.321  27.566  1.00  0.00     0.016 A 
ATOM     33  C   UNL A   1      39.468  24.878  26.945  1.00  0.00     0.010 A 
ATOM     34  C   UNL A   1      41.013  23.450  28.172  1.00  0.00     0.010 A 
ATOM     35  C   UNL A   1      40.539  24.730  27.831  1.00  0.00    -0.014 A 
BRANCH  35  36
ATOM     36  C   UNL A   1      41.359  25.893  28.220  1.00  0.00     0.031 A 
ATOM     37  C   UNL A   1      40.661  27.007  28.942  1.00  0.00     0.074 A 
ATOM     38  C   UNL A   1      42.640  26.002  27.837  1.00  0.00     0.049 A 
ATOM     39  N   UNL A   1      41.071  28.219  29.191  1.00  0.00    -0.248 NA
ATOM     40  C   UNL A   1      39.296  26.718  29.416  1.00  0.00     0.031 C 
ATOM     41  C   UNL A   1      43.403  24.974  27.133  1.00  0.00     0.029 A 
ATOM     42  N   UNL A   1      43.501  27.065  27.934  1.00  0.00    -0.354 N 
ATOM     43  C   UNL A   1      39.995  28.857  29.795  1.00  0.00     0.074 A 
ATOM     44  C   UNL A   1      38.916  27.898  29.874  1.00  0.00     0.031 C 
ATOM     45  C   UNL A   1      44.602  25.481  26.801  1.00  0.00     0.029 A 
ATOM     46  C   UNL A   1      44.668  26.875  27.234  1.00  0.00     0.049 A 
ATOM     47  H   UNL A   1      43.304  27.879  28.451  1.00  0.00     0.167 HD
ATOM     48  C   UNL A   1      39.914  30.132  30.236  1.00  0.00     0.034 A 
ATOM     49  C   UNL A   1      45.647  27.750  26.930  1.00  0.00     0.034 A 
ATOM     50  C   UNL A   1      41.000  31.067  30.152  1.00  0.00     0.049 A 
ATOM     51  C   UNL A   1      45.543  29.168  27.429  1.00  0.00     0.074 A 
ATOM     52  C   UNL A   1      41.060  32.361  30.632  1.00  0.00     0.029 A 
ATOM     53  N   UNL A   1      42.208  30.812  29.522  1.00  0.00    -0.354 N 
ATOM     54  N   UNL A   1      44.571  29.734  28.105  1.00  0.00    -0.248 NA
ATOM     55  C   UNL A   1      46.678  30.058  27.153  1.00  0.00     0.031 C 
ATOM     56  C   UNL A   1      42.292  32.903  30.255  1.00  0.00     0.029 A 
ATOM     57  C   UNL A   1      43.019  31.930  29.584  1.00  0.00     0.049 A 
ATOM     58  H   UNL A   1      42.454  29.960  29.095  1.00  0.00     0.167 HD
ATOM     59  C   UNL A   1      44.993  31.033  28.370  1.00  0.00     0.074 A 
ATOM     60  C   UNL A   1      46.310  31.168  27.782  1.00  0.00     0.031 C 
ATOM     61  C   UNL A   1      44.348  32.024  29.034  1.00  0.00     0.034 A 
BRANCH  48  62
ATOM     62  C   UNL A   1      38.604  30.577  30.829  1.00  0.00     0.023 A 
ATOM     63  C   UNL A   1      38.319  30.324  32.188  1.00  0.00     0.012 A 
ATOM     64  C   UNL A   1      37.652  31.247  30.038  1.00  0.00     0.148 A 
ATOM     65  C   UNL A   1      37.087  30.684  32.733  1.00  0.00     0.002 A 
ATOM     66  C   UNL A   1      36.449  31.650  30.602  1.00  0.00     0.091 A 
ATOM     67  F   UNL A   1      37.926  31.451  28.742  1.00  0.00    -0.205 F 
ATOM     68  C   UNL A   1      36.157  31.354  31.944  1.00  0.00     0.022 A 
BRANCH  66  69
ATOM     69  S   UNL A   1      35.226  32.593  29.687  1.00  0.00     0.127 S 
ATOM     70  O   UNL A   1      34.745  31.601  28.728  1.00  0.00    -0.237 OA
ATOM     71  O   UNL A   1      34.264  32.947  30.732  1.00  0.00    -0.237 OA
ATOM     72  O   UNL A   1      35.940  33.726  29.115  1.00  0.00    -0.744 OA
ENDBRANCH  66  69
ENDBRANCH  48  62
BRANCH  49  73
ATOM     73  C   UNL A   1      46.806  27.294  26.116  1.00  0.00     0.023 A 
ATOM     74  C   UNL A   1      46.824  27.538  24.730  1.00  0.00     0.012 A 
ATOM     75  C   UNL A   1      47.923  26.685  26.724  1.00  0.00     0.148 A 
ATOM     76  C   UNL A   1      47.928  27.169  23.960  1.00  0.00     0.002 A 
ATOM     77  C   UNL A   1      49.040  26.372  25.960  1.00  0.00     0.091 A 
ATOM     78  F   UNL A   1      47.879  26.457  28.044  1.00  0.00    -0.205 F 
ATOM     79  C   UNL A   1      49.040  26.600  24.576  1.00  0.00     0.022 A 
BRANCH  77  80
ATOM     80  S   UNL A   1      50.567  25.762  26.684  1.00  0.00     0.127 S 
ATOM     81  O   UNL A   1      50.117  24.541  27.348  1.00  0.00    -0.237 OA
ATOM     82  O   UNL A   1      51.394  25.551  25.495  1.00  0.00    -0.237 OA
ATOM     83  O   UNL A   1      51.037  26.820  27.568  1.00  0.00    -0.744 OA
ENDBRANCH  77  80
ENDBRANCH  49  73
BRANCH  61  84
ATOM     84  C   UNL A   1      45.070  33.331  29.228  1.00  0.00     0.023 A 
ATOM     85  C   UNL A   1      45.929  33.512  30.330  1.00  0.00     0.012 A 
ATOM     86  C   UNL A   1      44.986  34.334  28.240  1.00  0.00     0.148 A 
ATOM     87  C   UNL A   1      46.678  34.682  30.455  1.00  0.00     0.002 A 
ATOM     88  C   UNL A   1      45.775  35.472  28.345  1.00  0.00     0.091 A 
ATOM     89  F   UNL A   1      44.151  34.145  27.209  1.00  0.00    -0.205 F 
ATOM     90  C   UNL A   1      46.612  35.653  29.457  1.00  0.00     0.022 A 
BRANCH  88  91
ATOM     91  S   UNL A   1      45.839  36.722  27.056  1.00  0.00     0.127 S 
ATOM     92  O   UNL A   1      46.271  35.937  25.901  1.00  0.00    -0.237 OA
ATOM     93  O   UNL A   1      44.451  37.178  27.001  1.00  0.00    -0.237 OA
ATOM     94  O   UNL A   1      46.789  37.726  27.514  1.00  0.00    -0.744 OA
ENDBRANCH  88  91
ENDBRANCH  61  84
ENDBRANCH  35  36
ENDBRANCH  28  30
ENDBRANCH  27  28
ENDBRANCH  26  27
ENDBRANCH   1  26
TORSDOF 20
ENDMDL
MODEL 2
REMARK VINA RESULT:     -11.1      4.878     10.042
REMARK SMILES O=C(C[N@@H+]1C[C@@]2([N+](=O)[O-])CC=C(Cl)[C@@]([N+](=O)[O-])(C1)C2)OCCOCCOC(=O)c1ccc(-c2c3nc(c(-c4cccc(S(=O)(=O)[O-])c4F)c4ccc([nH]4)c(-c4cccc(S(=O)(=O)[O-])c4F)c4nc(c(-c5cccc(S(=O)(=O)[O-])c5F)c5ccc2[nH]5)C=C4)C=C3)cc1
REMARK SMILES IDX 24 1 23 2 22 3 21 4 20 5 2 6 1 7 3 8 4 9 5 10 18 11 6 13
REMARK SMILES IDX 14 14 10 15 19 16 12 17 11 18 13 19 7 20 8 21 9 22 15 23
REMARK SMILES IDX 16 24 17 25 25 26 26 27 27 28 28 29 29 30 30 31 91 32 31 33
REMARK SMILES IDX 90 34 32 35 33 36 34 37 84 38 35 39 89 40 83 41 85 42 36 43
REMARK SMILES IDX 88 44 82 45 81 46 37 48 69 49 49 50 68 51 50 52 53 53 67 54
REMARK SMILES IDX 86 55 51 56 52 57 66 59 87 60 54 61 38 62 39 63 47 64 40 65
REMARK SMILES IDX 42 66 48 67 41 68 43 69 44 70 45 71 46 72 70 73 71 74 79 75
REMARK SMILES IDX 72 76 74 77 80 78 73 79 75 80 76 81 77 82 78 83 55 84 56 85
REMARK SMILES IDX 64 86 57 87 59 88 65 89 58 90 60 91 61 92 62 93 63 94
REMARK H PARENT 4 12 85 47 53 58
REMARK Flexibility Score: inf
ROOT
ATOM      1  C   UNL A   1      31.929  29.524  25.590  1.00  0.00     0.202 C 
ENDROOT
BRANCH   1   2
ATOM      2  O   UNL A   1      30.904  29.155  24.669  1.00  0.00    -0.374 OA
BRANCH   2   3
ATOM      3  C   UNL A   1      31.245  29.098  23.299  1.00  0.00     0.202 C 
BRANCH   3   4
ATOM      4  C   UNL A   1      32.280  28.079  22.833  1.00  0.00     0.261 C 
BRANCH   4   5
ATOM      5  O   UNL A   1      31.918  26.909  22.056  1.00  0.00    -0.459 OA
BRANCH   5   6
ATOM      6  C   UNL A   1      32.503  25.832  21.524  1.00  0.00     0.361 C 
ATOM      7  O   UNL A   1      33.436  26.005  20.735  1.00  0.00    -0.245 OA
BRANCH   6   8
ATOM      8  C   UNL A   1      32.095  24.416  21.869  1.00  0.00     0.386 C 
BRANCH   8   9
ATOM      9  N   UNL A   1      32.407  23.924  23.220  1.00  0.00    -0.313 N 
ATOM     10  C   UNL A   1      32.994  22.589  23.253  1.00  0.00     0.350 C 
ATOM     11  C   UNL A   1      31.341  24.125  24.221  1.00  0.00     0.356 C 
ATOM     12  H   UNL A   1      33.154  24.547  23.526  1.00  0.00     0.349 HD
ATOM     13  C   UNL A   1      33.455  22.121  24.642  1.00  0.00     0.280 C 
ATOM     14  C   UNL A   1      31.873  23.758  25.635  1.00  0.00     0.311 C 
ATOM     15  C   UNL A   1      34.681  22.907  25.163  1.00  0.00     0.121 C 
ATOM     16  C   UNL A   1      32.289  22.263  25.631  1.00  0.00     0.191 C 
ATOM     17  C   UNL A   1      33.070  24.637  25.995  1.00  0.00     0.097 C 
ATOM     18  C   UNL A   1      34.337  24.241  25.778  1.00  0.00     0.004 C 
ATOM     19  Cl  UNL A   1      32.786  26.245  26.570  1.00  0.00    -0.081 Cl
BRANCH  13  20
ATOM     20  N   UNL A   1      33.835  20.657  24.466  1.00  0.00     0.032 N 
ATOM     21  O   UNL A   1      32.953  19.872  24.098  1.00  0.00    -0.264 OA
ATOM     22  O   UNL A   1      34.986  20.329  24.777  1.00  0.00    -0.264 OA
ENDBRANCH  13  20
BRANCH  14  23
ATOM     23  N   UNL A   1      30.776  23.927  26.676  1.00  0.00     0.038 N 
ATOM     24  O   UNL A   1      29.947  24.830  26.512  1.00  0.00    -0.263 OA
ATOM     25  O   UNL A   1      30.780  23.138  27.633  1.00  0.00    -0.263 OA
ENDBRANCH  14  23
ENDBRANCH   8   9
ENDBRANCH   6   8
ENDBRANCH   5   6
ENDBRANCH   4   5
ENDBRANCH   3   4
ENDBRANCH   2   3
ENDBRANCH   1   2
BRANCH   1  26
ATOM     26  C   UNL A   1      31.925  30.996  25.994  1.00  0.00     0.261 C 
BRANCH  26  27
ATOM     27  O   UNL A   1      32.502  31.151  27.296  1.00  0.00    -0.460 OA
BRANCH  27  28
ATOM     28  C   UNL A   1      33.212  32.286  27.503  1.00  0.00     0.338 C 
ATOM     29  O   UNL A   1      32.790  33.430  27.532  1.00  0.00    -0.246 OA
BRANCH  28  30
ATOM     30  C   UNL A   1      34.555  31.885  27.965  1.00  0.00     0.060 A 
ATOM     31  C   UNL A   1      34.753  30.557  28.380  1.00  0.00     0.016 A 
ATOM     32  C   UNL A   1      35.614  32.792  27.939  1.00  0.00     0.016 A 
ATOM     33  C   UNL A   1      36.012  30.140  28.804  1.00  0.00     0.010 A 
ATOM     34  C   UNL A   1      36.865  32.382  28.380  1.00  0.00     0.010 A 
ATOM     35  C   UNL A   1      37.054  31.069  28.852  1.00  0.00    -0.014 A 
BRANCH  35  36
ATOM     36  C   UNL A   1      38.278  30.787  29.625  1.00  0.00     0.031 A 
ATOM     37  C   UNL A   1      39.237  29.791  29.044  1.00  0.00     0.074 A 
ATOM     38  C   UNL A   1      38.464  31.304  30.850  1.00  0.00     0.049 A 
ATOM     39  N   UNL A   1      40.252  29.192  29.602  1.00  0.00    -0.248 NA
ATOM     40  C   UNL A   1      38.990  29.392  27.647  1.00  0.00     0.031 C 
ATOM     41  C   UNL A   1      37.589  32.276  31.498  1.00  0.00     0.029 A 
ATOM     42  N   UNL A   1      39.423  31.022  31.788  1.00  0.00    -0.354 N 
ATOM     43  C   UNL A   1      40.726  28.302  28.647  1.00  0.00     0.074 A 
ATOM     44  C   UNL A   1      39.890  28.439  27.477  1.00  0.00     0.031 C 
ATOM     45  C   UNL A   1      38.014  32.464  32.759  1.00  0.00     0.029 A 
ATOM     46  C   UNL A   1      39.161  31.593  33.011  1.00  0.00     0.049 A 
ATOM     47  H   UNL A   1      40.216  30.468  31.606  1.00  0.00     0.167 HD
ATOM     48  C   UNL A   1      41.764  27.441  28.744  1.00  0.00     0.034 A 
ATOM     49  C   UNL A   1      39.748  31.388  34.206  1.00  0.00     0.034 A 
ATOM     50  C   UNL A   1      42.586  27.323  29.915  1.00  0.00     0.049 A 
ATOM     51  C   UNL A   1      40.904  30.426  34.298  1.00  0.00     0.074 A 
ATOM     52  C   UNL A   1      43.709  26.541  30.104  1.00  0.00     0.029 A 
ATOM     53  N   UNL A   1      42.353  27.992  31.108  1.00  0.00    -0.354 N 
ATOM     54  N   UNL A   1      41.425  29.673  33.359  1.00  0.00    -0.248 NA
ATOM     55  C   UNL A   1      41.570  30.307  35.601  1.00  0.00     0.031 C 
ATOM     56  C   UNL A   1      44.131  26.705  31.426  1.00  0.00     0.029 A 
ATOM     57  C   UNL A   1      43.301  27.628  32.046  1.00  0.00     0.049 A 
ATOM     58  H   UNL A   1      41.621  28.631  31.264  1.00  0.00     0.167 HD
ATOM     59  C   UNL A   1      42.505  29.020  33.945  1.00  0.00     0.074 A 
ATOM     60  C   UNL A   1      42.563  29.470  35.321  1.00  0.00     0.031 C 
ATOM     61  C   UNL A   1      43.368  28.128  33.397  1.00  0.00     0.034 A 
BRANCH  48  62
ATOM     62  C   UNL A   1      42.046  26.560  27.557  1.00  0.00     0.023 A 
ATOM     63  C   UNL A   1      42.703  27.086  26.424  1.00  0.00     0.012 A 
ATOM     64  C   UNL A   1      41.656  25.207  27.562  1.00  0.00     0.148 A 
ATOM     65  C   UNL A   1      42.920  26.292  25.298  1.00  0.00     0.002 A 
ATOM     66  C   UNL A   1      41.924  24.410  26.458  1.00  0.00     0.091 A 
ATOM     67  F   UNL A   1      41.004  24.732  28.633  1.00  0.00    -0.205 F 
ATOM     68  C   UNL A   1      42.539  24.953  25.318  1.00  0.00     0.022 A 
BRANCH  66  69
ATOM     69  S   UNL A   1      41.547  22.655  26.425  1.00  0.00     0.127 S 
ATOM     70  O   UNL A   1      42.312  22.210  25.261  1.00  0.00    -0.237 OA
ATOM     71  O   UNL A   1      42.076  22.201  27.712  1.00  0.00    -0.237 OA
ATOM     72  O   UNL A   1      40.099  22.559  26.300  1.00  0.00    -0.744 OA
ENDBRANCH  66  69
ENDBRANCH  48  62
BRANCH  49  73
ATOM     73  C   UNL A   1      39.245  32.118  35.401  1.00  0.00     0.023 A 
ATOM     74  C   UNL A   1      38.367  31.476  36.292  1.00  0.00     0.012 A 
ATOM     75  C   UNL A   1      39.693  33.423  35.693  1.00  0.00     0.148 A 
ATOM     76  C   UNL A   1      37.931  32.124  37.449  1.00  0.00     0.002 A 
ATOM     77  C   UNL A   1      39.299  34.040  36.874  1.00  0.00     0.091 A 
ATOM     78  F   UNL A   1      40.524  34.016  34.825  1.00  0.00    -0.205 F 
ATOM     79  C   UNL A   1      38.406  33.399  37.746  1.00  0.00     0.022 A 
BRANCH  77  80
ATOM     80  S   UNL A   1      39.963  35.622  37.407  1.00  0.00     0.127 S 
ATOM     81  O   UNL A   1      39.277  35.821  38.681  1.00  0.00    -0.237 OA
ATOM     82  O   UNL A   1      41.392  35.321  37.514  1.00  0.00    -0.237 OA
ATOM     83  O   UNL A   1      39.622  36.570  36.356  1.00  0.00    -0.744 OA
ENDBRANCH  77  80
ENDBRANCH  49  73
BRANCH  61  84
ATOM     84  C   UNL A   1      44.495  27.616  34.254  1.00  0.00     0.023 A 
ATOM     85  C   UNL A   1      45.669  28.377  34.411  1.00  0.00     0.012 A 
ATOM     86  C   UNL A   1      44.329  26.431  35.000  1.00  0.00     0.148 A 
ATOM     87  C   UNL A   1      46.670  27.955  35.285  1.00  0.00     0.002 A 
ATOM     88  C   UNL A   1      45.306  26.047  35.908  1.00  0.00     0.091 A 
ATOM     89  F   UNL A   1      43.208  25.718  34.822  1.00  0.00    -0.205 F 
ATOM     90  C   UNL A   1      46.483  26.800  36.043  1.00  0.00     0.022 A 
BRANCH  88  91
ATOM     91  S   UNL A   1      45.102  24.638  37.003  1.00  0.00     0.127 S 
ATOM     92  O   UNL A   1      46.448  24.494  37.556  1.00  0.00    -0.237 OA
ATOM     93  O   UNL A   1      44.101  25.125  37.951  1.00  0.00    -0.237 OA
ATOM     94  O   UNL A   1      44.656  23.534  36.164  1.00  0.00    -0.744 OA
ENDBRANCH  88  91
ENDBRANCH  61  84
ENDBRANCH  35  36
ENDBRANCH  28  30
ENDBRANCH  27  28
ENDBRANCH  26  27
ENDBRANCH   1  26
TORSDOF 20
ENDMDL
MODEL 3
REMARK VINA RESULT:     -10.7      6.088      9.852
REMARK SMILES O=C(C[N@@H+]1C[C@@]2([N+](=O)[O-])CC=C(Cl)[C@@]([N+](=O)[O-])(C1)C2)OCCOCCOC(=O)c1ccc(-c2c3nc(c(-c4cccc(S(=O)(=O)[O-])c4F)c4ccc([nH]4)c(-c4cccc(S(=O)(=O)[O-])c4F)c4nc(c(-c5cccc(S(=O)(=O)[O-])c5F)c5ccc2[nH]5)C=C4)C=C3)cc1
REMARK SMILES IDX 24 1 23 2 22 3 21 4 20 5 2 6 1 7 3 8 4 9 5 10 18 11 6 13
REMARK SMILES IDX 14 14 10 15 19 16 12 17 11 18 13 19 7 20 8 21 9 22 15 23
REMARK SMILES IDX 16 24 17 25 25 26 26 27 27 28 28 29 29 30 30 31 91 32 31 33
REMARK SMILES IDX 90 34 32 35 33 36 34 37 84 38 35 39 89 40 83 41 85 42 36 43
REMARK SMILES IDX 88 44 82 45 81 46 37 48 69 49 49 50 68 51 50 52 53 53 67 54
REMARK SMILES IDX 86 55 51 56 52 57 66 59 87 60 54 61 38 62 39 63 47 64 40 65
REMARK SMILES IDX 42 66 48 67 41 68 43 69 44 70 45 71 46 72 70 73 71 74 79 75
REMARK SMILES IDX 72 76 74 77 80 78 73 79 75 80 76 81 77 82 78 83 55 84 56 85
REMARK SMILES IDX 64 86 57 87 59 88 65 89 58 90 60 91 61 92 62 93 63 94
REMARK H PARENT 4 12 85 47 53 58
REMARK Flexibility Score: inf
ROOT
ATOM      1  C   UNL A   1      33.013  35.167  28.573  1.00  0.00     0.202 C 
ENDROOT
BRANCH   1   2
ATOM      2  O   UNL A   1      33.853  34.110  29.032  1.00  0.00    -0.374 OA
BRANCH   2   3
ATOM      3  C   UNL A   1      33.885  32.921  28.269  1.00  0.00     0.202 C 
BRANCH   3   4
ATOM      4  C   UNL A   1      35.098  32.001  28.377  1.00  0.00     0.261 C 
BRANCH   4   5
ATOM      5  O   UNL A   1      35.027  30.589  28.056  1.00  0.00    -0.459 OA
BRANCH   5   6
ATOM      6  C   UNL A   1      34.402  29.782  27.194  1.00  0.00     0.361 C 
ATOM      7  O   UNL A   1      35.071  28.931  26.601  1.00  0.00    -0.245 OA
BRANCH   6   8
ATOM      8  C   UNL A   1      32.911  29.844  26.937  1.00  0.00     0.386 C 
BRANCH   8   9
ATOM      9  N   UNL A   1      32.364  28.982  25.878  1.00  0.00    -0.313 N 
ATOM     10  C   UNL A   1      31.435  29.655  24.977  1.00  0.00     0.350 C 
ATOM     11  C   UNL A   1      31.894  27.658  26.330  1.00  0.00     0.356 C 
ATOM     12  H   UNL A   1      33.181  28.772  25.305  1.00  0.00     0.349 HD
ATOM     13  C   UNL A   1      30.965  28.807  23.784  1.00  0.00     0.280 C 
ATOM     14  C   UNL A   1      31.540  26.779  25.097  1.00  0.00     0.311 C 
ATOM     15  C   UNL A   1      32.094  28.532  22.762  1.00  0.00     0.121 C 
ATOM     16  C   UNL A   1      30.403  27.477  24.305  1.00  0.00     0.191 C 
ATOM     17  C   UNL A   1      32.768  26.597  24.206  1.00  0.00     0.097 C 
ATOM     18  C   UNL A   1      33.008  27.396  23.151  1.00  0.00     0.004 C 
ATOM     19  Cl  UNL A   1      33.956  25.418  24.646  1.00  0.00    -0.081 Cl
BRANCH  13  20
ATOM     20  N   UNL A   1      29.872  29.628  23.115  1.00  0.00     0.032 N 
ATOM     21  O   UNL A   1      29.553  29.331  21.957  1.00  0.00    -0.264 OA
ATOM     22  O   UNL A   1      29.423  30.593  23.744  1.00  0.00    -0.264 OA
ENDBRANCH  13  20
BRANCH  14  23
ATOM     23  N   UNL A   1      31.021  25.420  25.545  1.00  0.00     0.038 N 
ATOM     24  O   UNL A   1      30.740  24.585  24.675  1.00  0.00    -0.263 OA
ATOM     25  O   UNL A   1      30.914  25.231  26.766  1.00  0.00    -0.263 OA
ENDBRANCH  14  23
ENDBRANCH   8   9
ENDBRANCH   6   8
ENDBRANCH   5   6
ENDBRANCH   4   5
ENDBRANCH   3   4
ENDBRANCH   2   3
ENDBRANCH   1   2
BRANCH   1  26
ATOM     26  C   UNL A   1      32.820  36.308  29.568  1.00  0.00     0.261 C 
BRANCH  26  27
ATOM     27  O   UNL A   1      32.184  35.823  30.757  1.00  0.00    -0.460 OA
BRANCH  27  28
ATOM     28  C   UNL A   1      32.780  36.151  31.929  1.00  0.00     0.338 C 
ATOM     29  O   UNL A   1      32.420  36.993  32.734  1.00  0.00    -0.246 OA
BRANCH  28  30
ATOM     30  C   UNL A   1      33.799  35.119  32.207  1.00  0.00     0.060 A 
ATOM     31  C   UNL A   1      33.422  33.987  32.950  1.00  0.00     0.016 A 
ATOM     32  C   UNL A   1      35.091  35.242  31.696  1.00  0.00     0.016 A 
ATOM     33  C   UNL A   1      34.352  32.987  33.215  1.00  0.00     0.010 A 
ATOM     34  C   UNL A   1      36.025  34.253  31.977  1.00  0.00     0.010 A 
ATOM     35  C   UNL A   1      35.667  33.146  32.770  1.00  0.00    -0.014 A 
BRANCH  35  36
ATOM     36  C   UNL A   1      36.755  32.321  33.327  1.00  0.00     0.031 A 
ATOM     37  C   UNL A   1      37.412  32.817  34.582  1.00  0.00     0.074 A 
ATOM     38  C   UNL A   1      37.218  31.244  32.675  1.00  0.00     0.049 A 
ATOM     39  N   UNL A   1      38.520  32.429  35.148  1.00  0.00    -0.248 NA
ATOM     40  C   UNL A   1      36.737  33.932  35.269  1.00  0.00     0.031 C 
ATOM     41  C   UNL A   1      36.648  30.687  31.451  1.00  0.00     0.029 A 
ATOM     42  N   UNL A   1      38.322  30.470  32.925  1.00  0.00    -0.354 N 
ATOM     43  C   UNL A   1      38.708  33.289  36.222  1.00  0.00     0.074 A 
ATOM     44  C   UNL A   1      37.601  34.219  36.228  1.00  0.00     0.031 C 
ATOM     45  C   UNL A   1      37.446  29.697  31.017  1.00  0.00     0.029 A 
ATOM     46  C   UNL A   1      38.597  29.585  31.910  1.00  0.00     0.049 A 
ATOM     47  H   UNL A   1      38.861  30.541  33.745  1.00  0.00     0.167 HD
ATOM     48  C   UNL A   1      39.719  33.305  37.118  1.00  0.00     0.034 A 
ATOM     49  C   UNL A   1      39.685  28.817  31.703  1.00  0.00     0.034 A 
ATOM     50  C   UNL A   1      40.807  32.369  37.098  1.00  0.00     0.049 A 
ATOM     51  C   UNL A   1      40.804  28.845  32.711  1.00  0.00     0.074 A 
ATOM     52  C   UNL A   1      41.849  32.240  37.996  1.00  0.00     0.029 A 
ATOM     53  N   UNL A   1      41.005  31.417  36.109  1.00  0.00    -0.354 N 
ATOM     54  N   UNL A   1      40.921  29.579  33.792  1.00  0.00    -0.248 NA
ATOM     55  C   UNL A   1      41.925  27.922  32.489  1.00  0.00     0.031 C 
ATOM     56  C   UNL A   1      42.701  31.236  37.526  1.00  0.00     0.029 A 
ATOM     57  C   UNL A   1      42.163  30.705  36.363  1.00  0.00     0.049 A 
ATOM     58  H   UNL A   1      40.409  31.269  35.340  1.00  0.00     0.167 HD
ATOM     59  C   UNL A   1      42.105  29.180  34.402  1.00  0.00     0.074 A 
ATOM     60  C   UNL A   1      42.668  28.136  33.568  1.00  0.00     0.031 C 
ATOM     61  C   UNL A   1      42.677  29.636  35.544  1.00  0.00     0.034 A 
BRANCH  48  62
ATOM     62  C   UNL A   1      39.691  34.377  38.175  1.00  0.00     0.023 A 
ATOM     63  C   UNL A   1      40.211  35.658  37.898  1.00  0.00     0.012 A 
ATOM     64  C   UNL A   1      39.149  34.112  39.447  1.00  0.00     0.148 A 
ATOM     65  C   UNL A   1      40.240  36.641  38.887  1.00  0.00     0.002 A 
ATOM     66  C   UNL A   1      39.132  35.113  40.409  1.00  0.00     0.091 A 
ATOM     67  F   UNL A   1      38.688  32.880  39.703  1.00  0.00    -0.205 F 
ATOM     68  C   UNL A   1      39.692  36.372  40.138  1.00  0.00     0.022 A 
BRANCH  66  69
ATOM     69  S   UNL A   1      38.373  34.885  42.020  1.00  0.00     0.127 S 
ATOM     70  O   UNL A   1      39.133  33.753  42.547  1.00  0.00    -0.237 OA
ATOM     71  O   UNL A   1      38.651  36.164  42.676  1.00  0.00    -0.237 OA
ATOM     72  O   UNL A   1      36.962  34.631  41.765  1.00  0.00    -0.744 OA
ENDBRANCH  66  69
ENDBRANCH  48  62
BRANCH  49  73
ATOM     73  C   UNL A   1      39.750  27.959  30.489  1.00  0.00     0.023 A 
ATOM     74  C   UNL A   1      38.983  26.782  30.425  1.00  0.00     0.012 A 
ATOM     75  C   UNL A   1      40.515  28.346  29.369  1.00  0.00     0.148 A 
ATOM     76  C   UNL A   1      38.986  25.995  29.272  1.00  0.00     0.002 A 
ATOM     77  C   UNL A   1      40.470  27.588  28.206  1.00  0.00     0.091 A 
ATOM     78  F   UNL A   1      41.243  29.467  29.457  1.00  0.00    -0.205 F 
ATOM     79  C   UNL A   1      39.718  26.404  28.160  1.00  0.00     0.022 A 
BRANCH  77  80
ATOM     80  S   UNL A   1      41.269  28.105  26.683  1.00  0.00     0.127 S 
ATOM     81  O   UNL A   1      41.163  26.899  25.865  1.00  0.00    -0.237 OA
ATOM     82  O   UNL A   1      40.412  29.214  26.262  1.00  0.00    -0.237 OA
ATOM     83  O   UNL A   1      42.622  28.492  27.056  1.00  0.00    -0.744 OA
ENDBRANCH  77  80
ENDBRANCH  49  73
BRANCH  61  84
ATOM     84  C   UNL A   1      43.948  28.977  36.011  1.00  0.00     0.023 A 
ATOM     85  C   UNL A   1      45.198  29.553  35.714  1.00  0.00     0.012 A 
ATOM     86  C   UNL A   1      43.886  27.847  36.853  1.00  0.00     0.148 A 
ATOM     87  C   UNL A   1      46.369  29.002  36.232  1.00  0.00     0.002 A 
ATOM     88  C   UNL A   1      45.052  27.337  37.408  1.00  0.00     0.091 A 
ATOM     89  F   UNL A   1      42.686  27.308  37.109  1.00  0.00    -0.205 F 
ATOM     90  C   UNL A   1      46.295  27.905  37.090  1.00  0.00     0.022 A 
BRANCH  88  91
ATOM     91  S   UNL A   1      45.043  25.998  38.606  1.00  0.00     0.127 S 
ATOM     92  O   UNL A   1      44.394  26.630  39.753  1.00  0.00    -0.237 OA
ATOM     93  O   UNL A   1      44.235  24.984  37.929  1.00  0.00    -0.237 OA
ATOM     94  O   UNL A   1      46.437  25.628  38.808  1.00  0.00    -0.744 OA
ENDBRANCH  88  91
ENDBRANCH  61  84
ENDBRANCH  35  36
ENDBRANCH  28  30
ENDBRANCH  27  28
ENDBRANCH  26  27
ENDBRANCH   1  26
TORSDOF 20
ENDMDL
