MODEL 1
REMARK VINA RESULT:     -10.6      0.000      0.000
REMARK SMILES Cc1ccc(NC(=O)C[C@H]([NH2+]Cc2cccnc2)C(=O)OCCOCCOC(=O)c2ccc(-c3c4nc(c(-c5cccc(S(=O)(=O)[O-])c5F)c5ccc([nH]5)c(-c5cccc(S(=O)(=O)[O-])c5F)c5nc(c(-c6cccc(S(=O)(=O)[O-])c6F)c6ccc3[nH]6)C=C5)C=C4)cc2)cc1Cl
REMARK SMILES IDX 24 1 23 2 22 3 21 4 19 5 20 6 10 7 9 8 7 9 6 10 8 12 5 13
REMARK SMILES IDX 1 14 2 15 3 16 94 17 4 18 93 19 95 20 11 21 12 24 13 25
REMARK SMILES IDX 14 26 18 27 15 28 17 29 16 30 25 31 26 32 27 33 28 34 29 35
REMARK SMILES IDX 30 36 31 37 92 38 32 39 91 40 33 41 34 42 35 43 85 44 36 45
REMARK SMILES IDX 90 46 84 47 86 48 37 49 89 50 83 51 82 52 38 54 70 55 50 56
REMARK SMILES IDX 69 57 51 58 54 59 68 60 87 61 52 62 53 63 67 65 88 66 55 67
REMARK SMILES IDX 39 68 40 69 48 70 41 71 43 72 49 73 42 74 44 75 45 76 46 77
REMARK SMILES IDX 47 78 71 79 72 80 80 81 73 82 75 83 81 84 74 85 76 86 77 87
REMARK SMILES IDX 78 88 79 89 56 90 57 91 65 92 58 93 60 94 66 95 59 96 61 97
REMARK SMILES IDX 62 98 63 99 64 100
REMARK H PARENT 6 11 11 22 11 23 86 53 54 64
REMARK Flexibility Score: inf
ROOT
ATOM      1  O   UNL A   1      36.935  22.857  24.248  1.00  0.00    -0.374 OA
ENDROOT
BRANCH   1   2
ATOM      2  C   UNL A   1      36.430  23.725  25.265  1.00  0.00     0.202 C 
BRANCH   2   3
ATOM      3  C   UNL A   1      35.064  24.298  24.898  1.00  0.00     0.261 C 
BRANCH   3   4
ATOM      4  O   UNL A   1      34.166  24.313  26.024  1.00  0.00    -0.459 OA
BRANCH   4   5
ATOM      5  C   UNL A   1      33.797  23.136  26.581  1.00  0.00     0.365 C 
ATOM      6  O   UNL A   1      34.099  22.770  27.712  1.00  0.00    -0.245 OA
BRANCH   5   7
ATOM      7  C   UNL A   1      32.907  22.293  25.640  1.00  0.00     0.303 C 
BRANCH   7   8
ATOM      8  C   UNL A   1      31.466  22.800  25.562  1.00  0.00     0.177 C 
BRANCH   8   9
ATOM      9  C   UNL A   1      30.740  23.606  26.631  1.00  0.00     0.231 C 
ATOM     10  N   UNL A   1      30.679  24.960  26.712  1.00  0.00    -0.326 N 
ATOM     11  H   UNL A   1      30.645  25.262  27.647  1.00  0.00     0.169 HD
ATOM     12  O   UNL A   1      30.363  22.987  27.639  1.00  0.00    -0.274 OA
BRANCH  10  13
ATOM     13  C   UNL A   1      30.653  26.044  25.820  1.00  0.00     0.042 A 
ATOM     14  C   UNL A   1      30.488  29.125  22.759  1.00  0.00     0.046 C 
ATOM     15  C   UNL A   1      30.553  28.070  23.826  1.00  0.00    -0.032 A 
ATOM     16  C   UNL A   1      29.740  26.936  23.738  1.00  0.00     0.007 A 
ATOM     17  C   UNL A   1      31.421  28.168  24.918  1.00  0.00     0.046 A 
ATOM     18  C   UNL A   1      29.794  25.938  24.721  1.00  0.00     0.026 A 
ATOM     19  C   UNL A   1      31.499  27.140  25.870  1.00  0.00     0.047 A 
ATOM     20  Cl  UNL A   1      32.432  29.557  25.131  1.00  0.00    -0.084 Cl
ENDBRANCH  10  13
ENDBRANCH   8   9
ENDBRANCH   7   8
BRANCH   7  21
ATOM     21  N   UNL A   1      33.072  20.844  25.884  1.00  0.00    -0.330 N 
ATOM     22  H   UNL A   1      32.785  20.651  26.844  1.00  0.00     0.347 HD
ATOM     23  H   UNL A   1      34.054  20.636  25.705  1.00  0.00     0.347 HD
BRANCH  21  24
ATOM     24  C   UNL A   1      32.303  19.972  24.998  1.00  0.00     0.299 C 
BRANCH  24  25
ATOM     25  C   UNL A   1      32.913  18.599  24.904  1.00  0.00     0.024 A 
ATOM     26  C   UNL A   1      33.886  18.286  23.951  1.00  0.00     0.013 A 
ATOM     27  C   UNL A   1      32.549  17.587  25.790  1.00  0.00     0.120 A 
ATOM     28  C   UNL A   1      34.441  17.007  23.920  1.00  0.00     0.021 A 
ATOM     29  N   UNL A   1      33.053  16.330  25.769  1.00  0.00    -0.264 NA
ATOM     30  C   UNL A   1      33.997  16.074  24.841  1.00  0.00     0.111 A 
ENDBRANCH  24  25
ENDBRANCH  21  24
ENDBRANCH   7  21
ENDBRANCH   5   7
ENDBRANCH   4   5
ENDBRANCH   3   4
ENDBRANCH   2   3
ENDBRANCH   1   2
BRANCH   1  31
ATOM     31  C   UNL A   1      37.415  21.595  24.717  1.00  0.00     0.202 C 
BRANCH  31  32
ATOM     32  C   UNL A   1      38.268  21.747  25.975  1.00  0.00     0.261 C 
BRANCH  32  33
ATOM     33  O   UNL A   1      39.614  21.318  25.696  1.00  0.00    -0.460 OA
BRANCH  33  34
ATOM     34  C   UNL A   1      40.385  21.140  26.787  1.00  0.00     0.338 C 
ATOM     35  O   UNL A   1      40.528  20.108  27.430  1.00  0.00    -0.246 OA
BRANCH  34  36
ATOM     36  C   UNL A   1      41.176  22.353  27.048  1.00  0.00     0.060 A 
ATOM     37  C   UNL A   1      41.664  22.538  28.343  1.00  0.00     0.016 A 
ATOM     38  C   UNL A   1      41.321  23.355  26.087  1.00  0.00     0.016 A 
ATOM     39  C   UNL A   1      42.213  23.767  28.706  1.00  0.00     0.010 A 
ATOM     40  C   UNL A   1      41.897  24.579  26.445  1.00  0.00     0.010 A 
ATOM     41  C   UNL A   1      42.281  24.816  27.776  1.00  0.00    -0.014 A 
BRANCH  41  42
ATOM     42  C   UNL A   1      42.576  26.189  28.265  1.00  0.00     0.031 A 
ATOM     43  C   UNL A   1      43.982  26.728  28.152  1.00  0.00     0.074 A 
ATOM     44  C   UNL A   1      41.598  26.980  28.743  1.00  0.00     0.049 A 
ATOM     45  N   UNL A   1      44.427  27.934  28.396  1.00  0.00    -0.248 NA
ATOM     46  C   UNL A   1      45.024  25.786  27.709  1.00  0.00     0.031 C 
ATOM     47  C   UNL A   1      40.206  26.579  28.939  1.00  0.00     0.029 A 
ATOM     48  N   UNL A   1      41.630  28.293  29.148  1.00  0.00    -0.354 N 
ATOM     49  C   UNL A   1      45.797  27.890  28.157  1.00  0.00     0.074 A 
ATOM     50  C   UNL A   1      46.116  26.531  27.781  1.00  0.00     0.031 C 
ATOM     51  C   UNL A   1      39.516  27.625  29.426  1.00  0.00     0.029 A 
ATOM     52  C   UNL A   1      40.413  28.769  29.575  1.00  0.00     0.049 A 
ATOM     53  H   UNL A   1      42.448  28.840  29.135  1.00  0.00     0.167 HD
ATOM     54  C   UNL A   1      46.705  28.894  28.206  1.00  0.00     0.034 A 
ATOM     55  C   UNL A   1      40.060  29.992  30.019  1.00  0.00     0.034 A 
ATOM     56  C   UNL A   1      46.388  30.258  28.527  1.00  0.00     0.049 A 
ATOM     57  C   UNL A   1      41.079  31.103  30.026  1.00  0.00     0.074 A 
ATOM     58  C   UNL A   1      47.228  31.357  28.538  1.00  0.00     0.029 A 
ATOM     59  N   UNL A   1      45.131  30.712  28.891  1.00  0.00    -0.354 N 
ATOM     60  N   UNL A   1      42.332  31.077  29.644  1.00  0.00    -0.248 NA
ATOM     61  C   UNL A   1      40.620  32.425  30.481  1.00  0.00     0.031 C 
ATOM     62  C   UNL A   1      46.479  32.477  28.917  1.00  0.00     0.029 A 
ATOM     63  C   UNL A   1      45.171  32.074  29.132  1.00  0.00     0.049 A 
ATOM     64  H   UNL A   1      44.327  30.149  28.968  1.00  0.00     0.167 HD
ATOM     65  C   UNL A   1      42.801  32.380  29.778  1.00  0.00     0.074 A 
ATOM     66  C   UNL A   1      41.689  33.176  30.256  1.00  0.00     0.031 C 
ATOM     67  C   UNL A   1      44.043  32.870  29.544  1.00  0.00     0.034 A 
BRANCH  54  68
ATOM     68  C   UNL A   1      48.127  28.564  27.841  1.00  0.00     0.023 A 
ATOM     69  C   UNL A   1      48.542  28.692  26.500  1.00  0.00     0.012 A 
ATOM     70  C   UNL A   1      49.063  28.181  28.821  1.00  0.00     0.148 A 
ATOM     71  C   UNL A   1      49.859  28.418  26.135  1.00  0.00     0.002 A 
ATOM     72  C   UNL A   1      50.384  27.946  28.455  1.00  0.00     0.091 A 
ATOM     73  F   UNL A   1      48.644  28.038  30.087  1.00  0.00    -0.205 F 
ATOM     74  C   UNL A   1      50.781  28.056  27.112  1.00  0.00     0.022 A 
BRANCH  72  75
ATOM     75  S   UNL A   1      51.658  27.542  29.656  1.00  0.00     0.127 S 
ATOM     76  O   UNL A   1      51.213  26.232  30.129  1.00  0.00    -0.237 OA
ATOM     77  O   UNL A   1      52.867  27.514  28.832  1.00  0.00    -0.237 OA
ATOM     78  O   UNL A   1      51.625  28.612  30.643  1.00  0.00    -0.744 OA
ENDBRANCH  72  75
ENDBRANCH  54  68
BRANCH  55  79
ATOM     79  C   UNL A   1      38.648  30.254  30.416  1.00  0.00     0.023 A 
ATOM     80  C   UNL A   1      38.214  29.906  31.709  1.00  0.00     0.012 A 
ATOM     81  C   UNL A   1      37.742  30.864  29.528  1.00  0.00     0.148 A 
ATOM     82  C   UNL A   1      36.895  30.138  32.104  1.00  0.00     0.002 A 
ATOM     83  C   UNL A   1      36.444  31.140  29.944  1.00  0.00     0.091 A 
ATOM     84  F   UNL A   1      38.167  31.167  28.292  1.00  0.00    -0.205 F 
ATOM     85  C   UNL A   1      36.014  30.765  31.226  1.00  0.00     0.022 A 
BRANCH  83  86
ATOM     86  S   UNL A   1      35.290  32.058  28.918  1.00  0.00     0.127 S 
ATOM     87  O   UNL A   1      34.883  31.047  27.947  1.00  0.00    -0.237 OA
ATOM     88  O   UNL A   1      34.256  32.437  29.882  1.00  0.00    -0.237 OA
ATOM     89  O   UNL A   1      36.052  33.181  28.390  1.00  0.00    -0.744 OA
ENDBRANCH  83  86
ENDBRANCH  55  79
BRANCH  67  90
ATOM     90  C   UNL A   1      44.276  34.341  29.774  1.00  0.00     0.023 A 
ATOM     91  C   UNL A   1      44.732  34.784  31.031  1.00  0.00     0.012 A 
ATOM     92  C   UNL A   1      44.121  35.271  28.728  1.00  0.00     0.148 A 
ATOM     93  C   UNL A   1      45.001  36.133  31.252  1.00  0.00     0.002 A 
ATOM     94  C   UNL A   1      44.431  36.610  28.943  1.00  0.00     0.091 A 
ATOM     95  F   UNL A   1      43.667  34.837  27.543  1.00  0.00    -0.205 F 
ATOM     96  C   UNL A   1      44.863  37.044  30.207  1.00  0.00     0.022 A 
BRANCH  94  97
ATOM     97  S   UNL A   1      44.367  37.827  27.622  1.00  0.00     0.127 S 
ATOM     98  O   UNL A   1      44.565  39.075  28.355  1.00  0.00    -0.237 OA
ATOM     99  O   UNL A   1      45.492  37.434  26.772  1.00  0.00    -0.237 OA
ATOM    100  O   UNL A   1      43.060  37.658  26.999  1.00  0.00    -0.744 OA
ENDBRANCH  94  97
ENDBRANCH  67  90
ENDBRANCH  41  42
ENDBRANCH  34  36
ENDBRANCH  33  34
ENDBRANCH  32  33
ENDBRANCH  31  32
ENDBRANCH   1  31
TORSDOF 23
ENDMDL
MODEL 2
REMARK VINA RESULT:     -10.5      2.361      8.613
REMARK SMILES Cc1ccc(NC(=O)C[C@H]([NH2+]Cc2cccnc2)C(=O)OCCOCCOC(=O)c2ccc(-c3c4nc(c(-c5cccc(S(=O)(=O)[O-])c5F)c5ccc([nH]5)c(-c5cccc(S(=O)(=O)[O-])c5F)c5nc(c(-c6cccc(S(=O)(=O)[O-])c6F)c6ccc3[nH]6)C=C5)C=C4)cc2)cc1Cl
REMARK SMILES IDX 24 1 23 2 22 3 21 4 19 5 20 6 10 7 9 8 7 9 6 10 8 12 5 13
REMARK SMILES IDX 1 14 2 15 3 16 94 17 4 18 93 19 95 20 11 21 12 24 13 25
REMARK SMILES IDX 14 26 18 27 15 28 17 29 16 30 25 31 26 32 27 33 28 34 29 35
REMARK SMILES IDX 30 36 31 37 92 38 32 39 91 40 33 41 34 42 35 43 85 44 36 45
REMARK SMILES IDX 90 46 84 47 86 48 37 49 89 50 83 51 82 52 38 54 70 55 50 56
REMARK SMILES IDX 69 57 51 58 54 59 68 60 87 61 52 62 53 63 67 65 88 66 55 67
REMARK SMILES IDX 39 68 40 69 48 70 41 71 43 72 49 73 42 74 44 75 45 76 46 77
REMARK SMILES IDX 47 78 71 79 72 80 80 81 73 82 75 83 81 84 74 85 76 86 77 87
REMARK SMILES IDX 78 88 79 89 56 90 57 91 65 92 58 93 60 94 66 95 59 96 61 97
REMARK SMILES IDX 62 98 63 99 64 100
REMARK H PARENT 6 11 11 22 11 23 86 53 54 64
REMARK Flexibility Score: inf
ROOT
ATOM      1  O   UNL A   1      35.946  21.447  26.251  1.00  0.00    -0.374 OA
ENDROOT
BRANCH   1   2
ATOM      2  C   UNL A   1      35.299  22.638  26.704  1.00  0.00     0.202 C 
BRANCH   2   3
ATOM      3  C   UNL A   1      34.066  22.329  27.549  1.00  0.00     0.261 C 
BRANCH   3   4
ATOM      4  O   UNL A   1      32.893  22.130  26.737  1.00  0.00    -0.459 OA
BRANCH   4   5
ATOM      5  C   UNL A   1      32.300  23.208  26.171  1.00  0.00     0.365 C 
ATOM      6  O   UNL A   1      32.561  24.375  26.442  1.00  0.00    -0.245 OA
BRANCH   5   7
ATOM      7  C   UNL A   1      31.260  22.811  25.099  1.00  0.00     0.303 C 
BRANCH   7   8
ATOM      8  C   UNL A   1      31.817  21.852  24.047  1.00  0.00     0.177 C 
BRANCH   8   9
ATOM      9  C   UNL A   1      33.290  21.575  23.777  1.00  0.00     0.231 C 
ATOM     10  N   UNL A   1      34.000  20.505  24.218  1.00  0.00    -0.326 N 
ATOM     11  H   UNL A   1      34.937  20.743  24.393  1.00  0.00     0.169 HD
ATOM     12  O   UNL A   1      33.959  22.510  23.309  1.00  0.00    -0.274 OA
BRANCH  10  13
ATOM     13  C   UNL A   1      33.754  19.150  24.493  1.00  0.00     0.042 A 
ATOM     14  C   UNL A   1      32.668  15.082  25.570  1.00  0.00     0.046 C 
ATOM     15  C   UNL A   1      33.058  16.482  25.195  1.00  0.00    -0.032 A 
ATOM     16  C   UNL A   1      32.073  17.460  25.024  1.00  0.00     0.007 A 
ATOM     17  C   UNL A   1      34.392  16.862  25.020  1.00  0.00     0.046 A 
ATOM     18  C   UNL A   1      32.420  18.774  24.682  1.00  0.00     0.026 A 
ATOM     19  C   UNL A   1      34.729  18.192  24.723  1.00  0.00     0.047 A 
ATOM     20  Cl  UNL A   1      35.674  15.709  25.168  1.00  0.00    -0.084 Cl
ENDBRANCH  10  13
ENDBRANCH   8   9
ENDBRANCH   7   8
BRANCH   7  21
ATOM     21  N   UNL A   1      30.532  23.990  24.581  1.00  0.00    -0.330 N 
ATOM     22  H   UNL A   1      30.872  24.814  25.079  1.00  0.00     0.347 HD
ATOM     23  H   UNL A   1      29.542  23.802  24.735  1.00  0.00     0.347 HD
BRANCH  21  24
ATOM     24  C   UNL A   1      30.683  24.235  23.148  1.00  0.00     0.299 C 
BRANCH  24  25
ATOM     25  C   UNL A   1      31.696  25.313  22.872  1.00  0.00     0.024 A 
ATOM     26  C   UNL A   1      31.874  26.399  23.734  1.00  0.00     0.013 A 
ATOM     27  C   UNL A   1      32.523  25.255  21.752  1.00  0.00     0.120 A 
ATOM     28  C   UNL A   1      32.844  27.360  23.449  1.00  0.00     0.021 A 
ATOM     29  N   UNL A   1      33.456  26.184  21.438  1.00  0.00    -0.264 NA
ATOM     30  C   UNL A   1      33.603  27.209  22.302  1.00  0.00     0.111 A 
ENDBRANCH  24  25
ENDBRANCH  21  24
ENDBRANCH   7  21
ENDBRANCH   5   7
ENDBRANCH   4   5
ENDBRANCH   3   4
ENDBRANCH   2   3
ENDBRANCH   1   2
BRANCH   1  31
ATOM     31  C   UNL A   1      37.042  21.659  25.356  1.00  0.00     0.202 C 
BRANCH  31  32
ATOM     32  C   UNL A   1      38.045  20.508  25.410  1.00  0.00     0.261 C 
BRANCH  32  33
ATOM     33  O   UNL A   1      39.383  21.040  25.420  1.00  0.00    -0.460 OA
BRANCH  33  34
ATOM     34  C   UNL A   1      40.012  20.956  26.609  1.00  0.00     0.338 C 
ATOM     35  O   UNL A   1      40.418  19.941  27.159  1.00  0.00    -0.246 OA
BRANCH  34  36
ATOM     36  C   UNL A   1      40.288  22.305  27.130  1.00  0.00     0.060 A 
ATOM     37  C   UNL A   1      39.587  23.371  26.563  1.00  0.00     0.016 A 
ATOM     38  C   UNL A   1      41.307  22.539  28.054  1.00  0.00     0.016 A 
ATOM     39  C   UNL A   1      39.971  24.679  26.848  1.00  0.00     0.010 A 
ATOM     40  C   UNL A   1      41.674  23.856  28.360  1.00  0.00     0.010 A 
ATOM     41  C   UNL A   1      41.055  24.932  27.703  1.00  0.00    -0.014 A 
BRANCH  41  42
ATOM     42  C   UNL A   1      41.633  26.301  27.742  1.00  0.00     0.031 A 
ATOM     43  C   UNL A   1      40.913  27.385  28.508  1.00  0.00     0.074 A 
ATOM     44  C   UNL A   1      42.818  26.570  27.166  1.00  0.00     0.049 A 
ATOM     45  N   UNL A   1      41.302  28.605  28.776  1.00  0.00    -0.248 NA
ATOM     46  C   UNL A   1      39.579  27.055  29.036  1.00  0.00     0.031 C 
ATOM     47  C   UNL A   1      43.604  25.630  26.369  1.00  0.00     0.029 A 
ATOM     48  N   UNL A   1      43.570  27.720  27.167  1.00  0.00    -0.354 N 
ATOM     49  C   UNL A   1      40.258  29.192  29.485  1.00  0.00     0.074 A 
ATOM     50  C   UNL A   1      39.204  28.206  29.575  1.00  0.00     0.031 C 
ATOM     51  C   UNL A   1      44.729  26.240  25.959  1.00  0.00     0.029 A 
ATOM     52  C   UNL A   1      44.746  27.612  26.463  1.00  0.00     0.049 A 
ATOM     53  H   UNL A   1      43.292  28.544  27.628  1.00  0.00     0.167 HD
ATOM     54  C   UNL A   1      40.191  30.423  30.044  1.00  0.00     0.034 A 
ATOM     55  C   UNL A   1      45.731  28.511  26.264  1.00  0.00     0.034 A 
ATOM     56  C   UNL A   1      41.254  31.389  30.005  1.00  0.00     0.049 A 
ATOM     57  C   UNL A   1      45.653  29.860  26.931  1.00  0.00     0.074 A 
ATOM     58  C   UNL A   1      41.304  32.638  30.599  1.00  0.00     0.029 A 
ATOM     59  N   UNL A   1      42.455  31.217  29.337  1.00  0.00    -0.354 N 
ATOM     60  N   UNL A   1      44.728  30.336  27.728  1.00  0.00    -0.248 NA
ATOM     61  C   UNL A   1      46.780  30.779  26.708  1.00  0.00     0.031 C 
ATOM     62  C   UNL A   1      42.535  33.224  30.283  1.00  0.00     0.029 A 
ATOM     63  C   UNL A   1      43.253  32.335  29.500  1.00  0.00     0.049 A 
ATOM     64  H   UNL A   1      42.703  30.416  28.820  1.00  0.00     0.167 HD
ATOM     65  C   UNL A   1      45.175  31.590  28.129  1.00  0.00     0.074 A 
ATOM     66  C   UNL A   1      46.466  31.792  27.505  1.00  0.00     0.031 C 
ATOM     67  C   UNL A   1      44.565  32.500  28.928  1.00  0.00     0.034 A 
BRANCH  54  68
ATOM     68  C   UNL A   1      38.943  30.773  30.808  1.00  0.00     0.023 A 
ATOM     69  C   UNL A   1      38.891  30.528  32.195  1.00  0.00     0.012 A 
ATOM     70  C   UNL A   1      37.847  31.389  30.174  1.00  0.00     0.148 A 
ATOM     71  C   UNL A   1      37.759  30.864  32.935  1.00  0.00     0.002 A 
ATOM     72  C   UNL A   1      36.735  31.756  30.924  1.00  0.00     0.091 A 
ATOM     73  F   UNL A   1      37.903  31.590  28.849  1.00  0.00    -0.205 F 
ATOM     74  C   UNL A   1      36.686  31.487  32.303  1.00  0.00     0.022 A 
BRANCH  72  75
ATOM     75  S   UNL A   1      35.335  32.625  30.209  1.00  0.00     0.127 S 
ATOM     76  O   UNL A   1      35.957  33.872  29.766  1.00  0.00    -0.237 OA
ATOM     77  O   UNL A   1      34.929  31.728  29.127  1.00  0.00    -0.237 OA
ATOM     78  O   UNL A   1      34.359  32.756  31.283  1.00  0.00    -0.744 OA
ENDBRANCH  72  75
ENDBRANCH  54  68
BRANCH  55  79
ATOM     79  C   UNL A   1      46.925  28.130  25.457  1.00  0.00     0.023 A 
ATOM     80  C   UNL A   1      46.827  28.078  24.054  1.00  0.00     0.012 A 
ATOM     81  C   UNL A   1      48.159  27.841  26.071  1.00  0.00     0.148 A 
ATOM     82  C   UNL A   1      47.931  27.721  23.276  1.00  0.00     0.002 A 
ATOM     83  C   UNL A   1      49.267  27.537  25.289  1.00  0.00     0.091 A 
ATOM     84  F   UNL A   1      48.226  27.873  27.411  1.00  0.00    -0.205 F 
ATOM     85  C   UNL A   1      49.152  27.462  23.893  1.00  0.00     0.022 A 
BRANCH  83  86
ATOM     86  S   UNL A   1      50.902  27.316  26.000  1.00  0.00     0.127 S 
ATOM     87  O   UNL A   1      50.722  26.107  26.798  1.00  0.00    -0.237 OA
ATOM     88  O   UNL A   1      51.735  27.148  24.808  1.00  0.00    -0.237 OA
ATOM     89  O   UNL A   1      51.168  28.540  26.744  1.00  0.00    -0.744 OA
ENDBRANCH  83  86
ENDBRANCH  55  79
BRANCH  67  90
ATOM     90  C   UNL A   1      45.286  33.794  29.201  1.00  0.00     0.023 A 
ATOM     91  C   UNL A   1      46.147  33.887  30.312  1.00  0.00     0.012 A 
ATOM     92  C   UNL A   1      45.175  34.886  28.319  1.00  0.00     0.148 A 
ATOM     93  C   UNL A   1      46.863  35.058  30.557  1.00  0.00     0.002 A 
ATOM     94  C   UNL A   1      45.924  36.036  28.546  1.00  0.00     0.091 A 
ATOM     95  F   UNL A   1      44.336  34.788  27.277  1.00  0.00    -0.205 F 
ATOM     96  C   UNL A   1      46.762  36.127  29.669  1.00  0.00     0.022 A 
BRANCH  94  97
ATOM     97  S   UNL A   1      45.917  37.419  27.398  1.00  0.00     0.127 S 
ATOM     98  O   UNL A   1      46.402  36.790  26.171  1.00  0.00    -0.237 OA
ATOM     99  O   UNL A   1      44.505  37.801  27.369  1.00  0.00    -0.237 OA
ATOM    100  O   UNL A   1      46.796  38.420  27.987  1.00  0.00    -0.744 OA
ENDBRANCH  94  97
ENDBRANCH  67  90
ENDBRANCH  41  42
ENDBRANCH  34  36
ENDBRANCH  33  34
ENDBRANCH  32  33
ENDBRANCH  31  32
ENDBRANCH   1  31
TORSDOF 23
ENDMDL
MODEL 3
REMARK VINA RESULT:     -10.5      1.992      2.447
REMARK SMILES Cc1ccc(NC(=O)C[C@H]([NH2+]Cc2cccnc2)C(=O)OCCOCCOC(=O)c2ccc(-c3c4nc(c(-c5cccc(S(=O)(=O)[O-])c5F)c5ccc([nH]5)c(-c5cccc(S(=O)(=O)[O-])c5F)c5nc(c(-c6cccc(S(=O)(=O)[O-])c6F)c6ccc3[nH]6)C=C5)C=C4)cc2)cc1Cl
REMARK SMILES IDX 24 1 23 2 22 3 21 4 19 5 20 6 10 7 9 8 7 9 6 10 8 12 5 13
REMARK SMILES IDX 1 14 2 15 3 16 94 17 4 18 93 19 95 20 11 21 12 24 13 25
REMARK SMILES IDX 14 26 18 27 15 28 17 29 16 30 25 31 26 32 27 33 28 34 29 35
REMARK SMILES IDX 30 36 31 37 92 38 32 39 91 40 33 41 34 42 35 43 85 44 36 45
REMARK SMILES IDX 90 46 84 47 86 48 37 49 89 50 83 51 82 52 38 54 70 55 50 56
REMARK SMILES IDX 69 57 51 58 54 59 68 60 87 61 52 62 53 63 67 65 88 66 55 67
REMARK SMILES IDX 39 68 40 69 48 70 41 71 43 72 49 73 42 74 44 75 45 76 46 77
REMARK SMILES IDX 47 78 71 79 72 80 80 81 73 82 75 83 81 84 74 85 76 86 77 87
REMARK SMILES IDX 78 88 79 89 56 90 57 91 65 92 58 93 60 94 66 95 59 96 61 97
REMARK SMILES IDX 62 98 63 99 64 100
REMARK H PARENT 6 11 11 22 11 23 86 53 54 64
REMARK Flexibility Score: inf
ROOT
ATOM      1  O   UNL A   1      37.162  22.513  24.776  1.00  0.00    -0.374 OA
ENDROOT
BRANCH   1   2
ATOM      2  C   UNL A   1      36.506  23.172  25.861  1.00  0.00     0.202 C 
BRANCH   2   3
ATOM      3  C   UNL A   1      35.383  24.086  25.376  1.00  0.00     0.261 C 
BRANCH   3   4
ATOM      4  O   UNL A   1      34.249  24.061  26.263  1.00  0.00    -0.459 OA
BRANCH   4   5
ATOM      5  C   UNL A   1      33.490  22.941  26.322  1.00  0.00     0.365 C 
ATOM      6  O   UNL A   1      33.466  22.159  27.267  1.00  0.00    -0.245 OA
BRANCH   5   7
ATOM      7  C   UNL A   1      32.611  22.759  25.065  1.00  0.00     0.303 C 
BRANCH   7   8
ATOM      8  C   UNL A   1      31.120  22.957  25.339  1.00  0.00     0.177 C 
BRANCH   8   9
ATOM      9  C   UNL A   1      30.519  23.785  26.468  1.00  0.00     0.231 C 
ATOM     10  N   UNL A   1      30.521  25.139  26.558  1.00  0.00    -0.326 N 
ATOM     11  H   UNL A   1      30.577  25.437  27.494  1.00  0.00     0.169 HD
ATOM     12  O   UNL A   1      30.201  23.176  27.502  1.00  0.00    -0.274 OA
BRANCH  10  13
ATOM     13  C   UNL A   1      30.466  26.230  25.675  1.00  0.00     0.042 A 
ATOM     14  C   UNL A   1      30.212  29.330  22.640  1.00  0.00     0.046 C 
ATOM     15  C   UNL A   1      30.308  28.269  23.697  1.00  0.00    -0.032 A 
ATOM     16  C   UNL A   1      29.506  27.126  23.616  1.00  0.00     0.007 A 
ATOM     17  C   UNL A   1      31.195  28.369  24.774  1.00  0.00     0.046 A 
ATOM     18  C   UNL A   1      29.589  26.122  24.590  1.00  0.00     0.026 A 
ATOM     19  C   UNL A   1      31.301  27.335  25.717  1.00  0.00     0.047 A 
ATOM     20  Cl  UNL A   1      32.193  29.767  24.979  1.00  0.00    -0.084 Cl
ENDBRANCH  10  13
ENDBRANCH   8   9
ENDBRANCH   7   8
BRANCH   7  21
ATOM     21  N   UNL A   1      32.976  21.537  24.314  1.00  0.00    -0.330 N 
ATOM     22  H   UNL A   1      33.987  21.417  24.381  1.00  0.00     0.347 HD
ATOM     23  H   UNL A   1      32.646  21.681  23.361  1.00  0.00     0.347 HD
BRANCH  21  24
ATOM     24  C   UNL A   1      32.342  20.306  24.784  1.00  0.00     0.299 C 
BRANCH  24  25
ATOM     25  C   UNL A   1      32.951  19.089  24.140  1.00  0.00     0.024 A 
ATOM     26  C   UNL A   1      34.067  18.446  24.680  1.00  0.00     0.013 A 
ATOM     27  C   UNL A   1      32.401  18.534  22.985  1.00  0.00     0.120 A 
ATOM     28  C   UNL A   1      34.579  17.306  24.062  1.00  0.00     0.021 A 
ATOM     29  N   UNL A   1      32.890  17.443  22.351  1.00  0.00    -0.264 NA
ATOM     30  C   UNL A   1      33.961  16.847  22.911  1.00  0.00     0.111 A 
ENDBRANCH  24  25
ENDBRANCH  21  24
ENDBRANCH   7  21
ENDBRANCH   5   7
ENDBRANCH   4   5
ENDBRANCH   3   4
ENDBRANCH   2   3
ENDBRANCH   1   2
BRANCH   1  31
ATOM     31  C   UNL A   1      37.801  21.280  25.117  1.00  0.00     0.202 C 
BRANCH  31  32
ATOM     32  C   UNL A   1      39.041  21.507  25.980  1.00  0.00     0.261 C 
BRANCH  32  33
ATOM     33  O   UNL A   1      40.163  20.821  25.396  1.00  0.00    -0.460 OA
BRANCH  33  34
ATOM     34  C   UNL A   1      41.101  20.423  26.279  1.00  0.00     0.338 C 
ATOM     35  O   UNL A   1      41.303  19.284  26.678  1.00  0.00    -0.246 OA
BRANCH  34  36
ATOM     36  C   UNL A   1      41.981  21.552  26.621  1.00  0.00     0.060 A 
ATOM     37  C   UNL A   1      42.272  21.756  27.971  1.00  0.00     0.016 A 
ATOM     38  C   UNL A   1      42.401  22.472  25.659  1.00  0.00     0.016 A 
ATOM     39  C   UNL A   1      42.901  22.933  28.372  1.00  0.00     0.010 A 
ATOM     40  C   UNL A   1      43.057  23.642  26.061  1.00  0.00     0.010 A 
ATOM     41  C   UNL A   1      43.246  23.912  27.427  1.00  0.00    -0.014 A 
BRANCH  41  42
ATOM     42  C   UNL A   1      43.623  25.269  27.904  1.00  0.00     0.031 A 
ATOM     43  C   UNL A   1      45.076  25.678  27.894  1.00  0.00     0.074 A 
ATOM     44  C   UNL A   1      42.685  26.158  28.279  1.00  0.00     0.049 A 
ATOM     45  N   UNL A   1      45.607  26.848  28.145  1.00  0.00    -0.248 NA
ATOM     46  C   UNL A   1      46.061  24.635  27.563  1.00  0.00     0.031 C 
ATOM     47  C   UNL A   1      41.251  25.887  28.368  1.00  0.00     0.029 A 
ATOM     48  N   UNL A   1      42.802  27.474  28.653  1.00  0.00    -0.354 N 
ATOM     49  C   UNL A   1      46.982  26.676  28.021  1.00  0.00     0.074 A 
ATOM     50  C   UNL A   1      47.207  25.283  27.707  1.00  0.00     0.031 C 
ATOM     51  C   UNL A   1      40.621  27.004  28.770  1.00  0.00     0.029 A 
ATOM     52  C   UNL A   1      41.603  28.069  28.965  1.00  0.00     0.049 A 
ATOM     53  H   UNL A   1      43.664  27.947  28.693  1.00  0.00     0.167 HD
ATOM     54  C   UNL A   1      47.969  27.598  28.121  1.00  0.00     0.034 A 
ATOM     55  C   UNL A   1      41.327  29.332  29.347  1.00  0.00     0.034 A 
ATOM     56  C   UNL A   1      47.752  28.994  28.379  1.00  0.00     0.049 A 
ATOM     57  C   UNL A   1      42.437  30.349  29.411  1.00  0.00     0.074 A 
ATOM     58  C   UNL A   1      48.684  30.015  28.433  1.00  0.00     0.029 A 
ATOM     59  N   UNL A   1      46.516  29.568  28.627  1.00  0.00    -0.354 N 
ATOM     60  N   UNL A   1      43.710  30.202  29.135  1.00  0.00    -0.248 NA
ATOM     61  C   UNL A   1      42.064  31.720  29.792  1.00  0.00     0.031 C 
ATOM     62  C   UNL A   1      48.011  31.208  28.720  1.00  0.00     0.029 A 
ATOM     63  C   UNL A   1      46.659  30.929  28.836  1.00  0.00     0.049 A 
ATOM     64  H   UNL A   1      45.661  29.080  28.651  1.00  0.00     0.167 HD
ATOM     65  C   UNL A   1      44.281  31.461  29.275  1.00  0.00     0.074 A 
ATOM     66  C   UNL A   1      43.211  32.367  29.639  1.00  0.00     0.031 C 
ATOM     67  C   UNL A   1      45.578  31.833  29.133  1.00  0.00     0.034 A 
BRANCH  54  68
ATOM     68  C   UNL A   1      49.381  27.133  27.884  1.00  0.00     0.023 A 
ATOM     69  C   UNL A   1      50.110  26.570  28.951  1.00  0.00     0.012 A 
ATOM     70  C   UNL A   1      49.968  27.201  26.606  1.00  0.00     0.148 A 
ATOM     71  C   UNL A   1      51.411  26.107  28.757  1.00  0.00     0.002 A 
ATOM     72  C   UNL A   1      51.252  26.704  26.411  1.00  0.00     0.091 A 
ATOM     73  F   UNL A   1      49.270  27.765  25.609  1.00  0.00    -0.205 F 
ATOM     74  C   UNL A   1      51.977  26.165  27.487  1.00  0.00     0.022 A 
BRANCH  72  75
ATOM     75  S   UNL A   1      52.038  26.672  24.796  1.00  0.00     0.127 S 
ATOM     76  O   UNL A   1      52.897  27.853  24.862  1.00  0.00    -0.237 OA
ATOM     77  O   UNL A   1      52.752  25.395  24.821  1.00  0.00    -0.237 OA
ATOM     78  O   UNL A   1      50.953  26.736  23.826  1.00  0.00    -0.744 OA
ENDBRANCH  72  75
ENDBRANCH  54  68
BRANCH  55  79
ATOM     79  C   UNL A   1      39.917  29.730  29.618  1.00  0.00     0.023 A 
ATOM     80  C   UNL A   1      39.078  30.091  28.546  1.00  0.00     0.012 A 
ATOM     81  C   UNL A   1      39.398  29.730  30.927  1.00  0.00     0.148 A 
ATOM     82  C   UNL A   1      37.754  30.470  28.776  1.00  0.00     0.002 A 
ATOM     83  C   UNL A   1      38.064  30.057  31.143  1.00  0.00     0.091 A 
ATOM     84  F   UNL A   1      40.218  29.405  31.937  1.00  0.00    -0.205 F 
ATOM     85  C   UNL A   1      37.244  30.441  30.071  1.00  0.00     0.022 A 
BRANCH  83  86
ATOM     86  S   UNL A   1      37.301  29.922  32.764  1.00  0.00     0.127 S 
ATOM     87  O   UNL A   1      35.962  30.448  32.510  1.00  0.00    -0.237 OA
ATOM     88  O   UNL A   1      37.359  28.481  33.012  1.00  0.00    -0.237 OA
ATOM     89  O   UNL A   1      38.141  30.715  33.653  1.00  0.00    -0.744 OA
ENDBRANCH  83  86
ENDBRANCH  55  79
BRANCH  67  90
ATOM     90  C   UNL A   1      45.922  33.285  29.344  1.00  0.00     0.023 A 
ATOM     91  C   UNL A   1      46.420  33.705  30.593  1.00  0.00     0.012 A 
ATOM     92  C   UNL A   1      45.831  34.213  28.288  1.00  0.00     0.148 A 
ATOM     93  C   UNL A   1      46.792  35.033  30.797  1.00  0.00     0.002 A 
ATOM     94  C   UNL A   1      46.243  35.526  28.487  1.00  0.00     0.091 A 
ATOM     95  F   UNL A   1      45.336  33.801  27.112  1.00  0.00    -0.205 F 
ATOM     96  C   UNL A   1      46.716  35.940  29.742  1.00  0.00     0.022 A 
BRANCH  94  97
ATOM     97  S   UNL A   1      46.260  36.730  27.152  1.00  0.00     0.127 S 
ATOM     98  O   UNL A   1      47.066  36.045  26.143  1.00  0.00    -0.237 OA
ATOM     99  O   UNL A   1      44.841  36.854  26.817  1.00  0.00    -0.237 OA
ATOM    100  O   UNL A   1      46.847  37.936  27.720  1.00  0.00    -0.744 OA
ENDBRANCH  94  97
ENDBRANCH  67  90
ENDBRANCH  41  42
ENDBRANCH  34  36
ENDBRANCH  33  34
ENDBRANCH  32  33
ENDBRANCH  31  32
ENDBRANCH   1  31
TORSDOF 23
ENDMDL
