MODEL 1
REMARK VINA RESULT:     -11.8      0.000      0.000
REMARK SMILES Cc1cc(OC(F)F)ccc1NC(=O)[C@@H]1CCCC[C@@H]1C(=O)OCCOCCOC(=O)c1ccc(-c2c3nc(c(-c4cccc(S(=O)(=O)[O-])c4F)c4ccc([nH]4)c(-c4cccc(S(=O)(=O)[O-])c4F)c4nc(c(-c5cccc(S(=O)(=O)[O-])c5F)c5ccc2[nH]5)C=C4)C=C3)cc1
REMARK SMILES IDX 25 1 24 2 23 3 21 4 22 5 20 6 15 7 16 8 17 9 19 10 18 11
REMARK SMILES IDX 13 12 12 13 14 15 11 16 1 17 2 18 3 19 4 20 10 21 9 22 5 23
REMARK SMILES IDX 6 24 7 25 8 26 26 27 27 28 28 29 29 30 30 31 31 32 32 33
REMARK SMILES IDX 33 34 94 35 34 36 93 37 35 38 36 39 37 40 87 41 38 42 92 43
REMARK SMILES IDX 86 44 88 45 39 46 91 47 85 48 84 49 40 51 72 52 52 53 71 54
REMARK SMILES IDX 53 55 56 56 70 57 89 58 54 59 55 60 69 62 90 63 57 64 41 65
REMARK SMILES IDX 42 66 50 67 43 68 45 69 51 70 44 71 46 72 47 73 48 74 49 75
REMARK SMILES IDX 73 76 74 77 82 78 75 79 77 80 83 81 76 82 78 83 79 84 80 85
REMARK SMILES IDX 81 86 58 87 59 88 67 89 60 90 62 91 68 92 61 93 63 94 64 95
REMARK SMILES IDX 65 96 66 97
REMARK H PARENT 12 14 88 50 56 61
REMARK Flexibility Score: inf
ROOT
ATOM      1  C   UNL A   1      33.133  29.386  24.965  1.00  0.00     0.202 C 
ENDROOT
BRANCH   1   2
ATOM      2  C   UNL A   1      33.846  28.068  25.081  1.00  0.00     0.261 C 
BRANCH   2   3
ATOM      3  O   UNL A   1      33.845  27.335  23.823  1.00  0.00    -0.463 OA
BRANCH   3   4
ATOM      4  C   UNL A   1      33.763  25.970  23.747  1.00  0.00     0.309 C 
ATOM      5  O   UNL A   1      34.537  25.169  24.212  1.00  0.00    -0.252 OA
BRANCH   4   6
ATOM      6  C   UNL A   1      32.563  25.562  22.910  1.00  0.00     0.111 C 
ATOM      7  C   UNL A   1      31.334  25.096  23.734  1.00  0.00     0.093 C 
ATOM      8  C   UNL A   1      31.428  23.600  24.131  1.00  0.00     0.014 C 
ATOM      9  C   UNL A   1      31.866  22.659  23.012  1.00  0.00     0.001 C 
ATOM     10  C   UNL A   1      32.930  24.561  21.797  1.00  0.00     0.016 C 
ATOM     11  C   UNL A   1      33.125  23.143  22.310  1.00  0.00     0.001 C 
BRANCH   7  12
ATOM     12  C   UNL A   1      30.973  25.974  24.975  1.00  0.00     0.228 C 
ATOM     13  N   UNL A   1      30.210  27.124  24.896  1.00  0.00    -0.326 N 
ATOM     14  H   UNL A   1      30.076  27.602  25.746  1.00  0.00     0.169 HD
ATOM     15  O   UNL A   1      31.402  25.678  26.098  1.00  0.00    -0.274 OA
BRANCH  13  16
ATOM     16  C   UNL A   1      29.595  27.710  23.772  1.00  0.00     0.044 A 
ATOM     17  C   UNL A   1      27.370  26.467  24.001  1.00  0.00     0.047 C 
ATOM     18  C   UNL A   1      28.206  27.645  23.594  1.00  0.00    -0.024 A 
ATOM     19  C   UNL A   1      27.587  28.704  22.901  1.00  0.00     0.052 A 
ATOM     20  C   UNL A   1      28.349  29.714  22.310  1.00  0.00     0.126 A 
ATOM     21  C   UNL A   1      30.335  28.506  22.910  1.00  0.00     0.030 A 
ATOM     22  C   UNL A   1      29.719  29.531  22.201  1.00  0.00     0.049 A 
BRANCH  20  23
ATOM     23  O   UNL A   1      27.672  30.806  21.850  1.00  0.00    -0.435 OA
BRANCH  23  24
ATOM     24  C   UNL A   1      28.432  31.725  21.056  1.00  0.00     0.542 C 
ATOM     25  F   UNL A   1      27.632  32.402  20.196  1.00  0.00    -0.167 F 
ATOM     26  F   UNL A   1      29.017  32.633  21.879  1.00  0.00    -0.167 F 
ENDBRANCH  23  24
ENDBRANCH  20  23
ENDBRANCH  13  16
ENDBRANCH   7  12
ENDBRANCH   4   6
ENDBRANCH   3   4
ENDBRANCH   2   3
ENDBRANCH   1   2
BRANCH   1  27
ATOM     27  O   UNL A   1      32.085  29.284  25.899  1.00  0.00    -0.374 OA
BRANCH  27  28
ATOM     28  C   UNL A   1      31.846  30.380  26.739  1.00  0.00     0.202 C 
BRANCH  28  29
ATOM     29  C   UNL A   1      33.090  31.238  26.878  1.00  0.00     0.261 C 
BRANCH  29  30
ATOM     30  O   UNL A   1      33.919  30.763  27.960  1.00  0.00    -0.460 OA
BRANCH  30  31
ATOM     31  C   UNL A   1      35.188  31.275  27.965  1.00  0.00     0.338 C 
ATOM     32  O   UNL A   1      35.457  32.404  27.587  1.00  0.00    -0.246 OA
BRANCH  31  33
ATOM     33  C   UNL A   1      36.181  30.204  28.288  1.00  0.00     0.060 A 
ATOM     34  C   UNL A   1      36.368  29.812  29.624  1.00  0.00     0.016 A 
ATOM     35  C   UNL A   1      37.144  29.887  27.335  1.00  0.00     0.016 A 
ATOM     36  C   UNL A   1      37.609  29.311  30.046  1.00  0.00     0.010 A 
ATOM     37  C   UNL A   1      38.396  29.516  27.781  1.00  0.00     0.010 A 
ATOM     38  C   UNL A   1      38.658  29.272  29.146  1.00  0.00    -0.014 A 
BRANCH  38  39
ATOM     39  C   UNL A   1      40.044  28.879  29.426  1.00  0.00     0.031 A 
ATOM     40  C   UNL A   1      40.319  27.440  29.189  1.00  0.00     0.074 A 
ATOM     41  C   UNL A   1      41.071  29.757  29.579  1.00  0.00     0.049 A 
ATOM     42  N   UNL A   1      41.488  26.921  29.181  1.00  0.00    -0.248 NA
ATOM     43  C   UNL A   1      39.270  26.456  28.905  1.00  0.00     0.031 C 
ATOM     44  C   UNL A   1      42.488  29.543  29.267  1.00  0.00     0.029 A 
ATOM     45  N   UNL A   1      41.095  31.065  30.090  1.00  0.00    -0.354 N 
ATOM     46  C   UNL A   1      41.397  25.675  28.610  1.00  0.00     0.074 A 
ATOM     47  C   UNL A   1      39.992  25.398  28.526  1.00  0.00     0.031 C 
ATOM     48  C   UNL A   1      43.236  30.472  29.887  1.00  0.00     0.029 A 
ATOM     49  C   UNL A   1      42.329  31.230  30.727  1.00  0.00     0.049 A 
ATOM     50  H   UNL A   1      40.380  31.738  30.014  1.00  0.00     0.167 HD
ATOM     51  C   UNL A   1      42.557  25.111  28.184  1.00  0.00     0.034 A 
ATOM     52  C   UNL A   1      42.421  31.412  32.072  1.00  0.00     0.034 A 
ATOM     53  C   UNL A   1      43.703  25.863  28.742  1.00  0.00     0.049 A 
ATOM     54  C   UNL A   1      43.285  30.317  32.610  1.00  0.00     0.074 A 
ATOM     55  C   UNL A   1      44.623  26.753  28.216  1.00  0.00     0.029 A 
ATOM     56  N   UNL A   1      43.791  25.990  30.132  1.00  0.00    -0.354 N 
ATOM     57  N   UNL A   1      43.266  29.104  32.117  1.00  0.00    -0.248 NA
ATOM     58  C   UNL A   1      44.436  30.571  33.474  1.00  0.00     0.031 C 
ATOM     59  C   UNL A   1      45.192  27.482  29.308  1.00  0.00     0.029 A 
ATOM     60  C   UNL A   1      44.632  27.027  30.497  1.00  0.00     0.049 A 
ATOM     61  H   UNL A   1      43.315  25.412  30.772  1.00  0.00     0.167 HD
ATOM     62  C   UNL A   1      44.437  28.488  32.442  1.00  0.00     0.074 A 
ATOM     63  C   UNL A   1      45.117  29.423  33.333  1.00  0.00     0.031 C 
ATOM     64  C   UNL A   1      44.892  27.321  31.903  1.00  0.00     0.034 A 
BRANCH  51  65
ATOM     65  C   UNL A   1      42.695  23.986  27.172  1.00  0.00     0.023 A 
ATOM     66  C   UNL A   1      43.363  24.303  25.968  1.00  0.00     0.012 A 
ATOM     67  C   UNL A   1      42.162  22.671  27.250  1.00  0.00     0.148 A 
ATOM     68  C   UNL A   1      43.497  23.393  24.913  1.00  0.00     0.002 A 
ATOM     69  C   UNL A   1      42.338  21.743  26.216  1.00  0.00     0.091 A 
ATOM     70  F   UNL A   1      41.422  22.303  28.295  1.00  0.00    -0.205 F 
ATOM     71  C   UNL A   1      42.996  22.108  25.040  1.00  0.00     0.022 A 
BRANCH  69  72
ATOM     72  S   UNL A   1      41.744  20.039  26.306  1.00  0.00     0.127 S 
ATOM     73  O   UNL A   1      42.224  19.616  27.623  1.00  0.00    -0.237 OA
ATOM     74  O   UNL A   1      40.295  20.210  26.216  1.00  0.00    -0.237 OA
ATOM     75  O   UNL A   1      42.344  19.329  25.184  1.00  0.00    -0.744 OA
ENDBRANCH  69  72
ENDBRANCH  51  65
BRANCH  52  76
ATOM     76  C   UNL A   1      41.249  32.142  32.640  1.00  0.00     0.023 A 
ATOM     77  C   UNL A   1      41.208  33.523  32.313  1.00  0.00     0.012 A 
ATOM     78  C   UNL A   1      40.044  31.517  33.018  1.00  0.00     0.148 A 
ATOM     79  C   UNL A   1      39.998  34.202  32.162  1.00  0.00     0.002 A 
ATOM     80  C   UNL A   1      38.839  32.225  32.911  1.00  0.00     0.091 A 
ATOM     81  F   UNL A   1      40.081  30.237  33.407  1.00  0.00    -0.205 F 
ATOM     82  C   UNL A   1      38.811  33.536  32.411  1.00  0.00     0.022 A 
BRANCH  80  83
ATOM     83  S   UNL A   1      37.237  31.536  33.354  1.00  0.00     0.127 S 
ATOM     84  O   UNL A   1      37.077  32.037  34.718  1.00  0.00    -0.237 OA
ATOM     85  O   UNL A   1      36.349  32.163  32.375  1.00  0.00    -0.237 OA
ATOM     86  O   UNL A   1      37.374  30.095  33.220  1.00  0.00    -0.744 OA
ENDBRANCH  80  83
ENDBRANCH  52  76
BRANCH  64  87
ATOM     87  C   UNL A   1      45.563  26.307  32.800  1.00  0.00     0.023 A 
ATOM     88  C   UNL A   1      46.965  26.299  32.973  1.00  0.00     0.012 A 
ATOM     89  C   UNL A   1      44.805  25.497  33.673  1.00  0.00     0.148 A 
ATOM     90  C   UNL A   1      47.590  25.496  33.922  1.00  0.00     0.002 A 
ATOM     91  C   UNL A   1      45.422  24.803  34.703  1.00  0.00     0.091 A 
ATOM     92  F   UNL A   1      43.478  25.394  33.515  1.00  0.00    -0.205 F 
ATOM     93  C   UNL A   1      46.816  24.770  34.810  1.00  0.00     0.022 A 
BRANCH  91  94
ATOM     94  S   UNL A   1      44.466  24.082  36.039  1.00  0.00     0.127 S 
ATOM     95  O   UNL A   1      45.485  23.307  36.744  1.00  0.00    -0.237 OA
ATOM     96  O   UNL A   1      43.993  25.268  36.753  1.00  0.00    -0.237 OA
ATOM     97  O   UNL A   1      43.412  23.314  35.390  1.00  0.00    -0.744 OA
ENDBRANCH  91  94
ENDBRANCH  64  87
ENDBRANCH  38  39
ENDBRANCH  31  33
ENDBRANCH  30  31
ENDBRANCH  29  30
ENDBRANCH  28  29
ENDBRANCH  27  28
ENDBRANCH   1  27
TORSDOF 21
ENDMDL
MODEL 2
REMARK VINA RESULT:     -11.6      3.734      8.795
REMARK SMILES Cc1cc(OC(F)F)ccc1NC(=O)[C@@H]1CCCC[C@@H]1C(=O)OCCOCCOC(=O)c1ccc(-c2c3nc(c(-c4cccc(S(=O)(=O)[O-])c4F)c4ccc([nH]4)c(-c4cccc(S(=O)(=O)[O-])c4F)c4nc(c(-c5cccc(S(=O)(=O)[O-])c5F)c5ccc2[nH]5)C=C4)C=C3)cc1
REMARK SMILES IDX 25 1 24 2 23 3 21 4 22 5 20 6 15 7 16 8 17 9 19 10 18 11
REMARK SMILES IDX 13 12 12 13 14 15 11 16 1 17 2 18 3 19 4 20 10 21 9 22 5 23
REMARK SMILES IDX 6 24 7 25 8 26 26 27 27 28 28 29 29 30 30 31 31 32 32 33
REMARK SMILES IDX 33 34 94 35 34 36 93 37 35 38 36 39 37 40 87 41 38 42 92 43
REMARK SMILES IDX 86 44 88 45 39 46 91 47 85 48 84 49 40 51 72 52 52 53 71 54
REMARK SMILES IDX 53 55 56 56 70 57 89 58 54 59 55 60 69 62 90 63 57 64 41 65
REMARK SMILES IDX 42 66 50 67 43 68 45 69 51 70 44 71 46 72 47 73 48 74 49 75
REMARK SMILES IDX 73 76 74 77 82 78 75 79 77 80 83 81 76 82 78 83 79 84 80 85
REMARK SMILES IDX 81 86 58 87 59 88 67 89 60 90 62 91 68 92 61 93 63 94 64 95
REMARK SMILES IDX 65 96 66 97
REMARK H PARENT 12 14 88 50 56 61
REMARK Flexibility Score: inf
ROOT
ATOM      1  C   UNL A   1      36.344  23.324  24.123  1.00  0.00     0.202 C 
ENDROOT
BRANCH   1   2
ATOM      2  C   UNL A   1      35.010  22.923  23.559  1.00  0.00     0.261 C 
BRANCH   2   3
ATOM      3  O   UNL A   1      33.950  23.833  23.966  1.00  0.00    -0.463 OA
BRANCH   3   4
ATOM      4  C   UNL A   1      33.411  24.780  23.138  1.00  0.00     0.309 C 
ATOM      5  O   UNL A   1      33.912  25.246  22.143  1.00  0.00    -0.252 OA
BRANCH   4   6
ATOM      6  C   UNL A   1      32.072  25.251  23.680  1.00  0.00     0.111 C 
ATOM      7  C   UNL A   1      32.114  25.750  25.148  1.00  0.00     0.093 C 
ATOM      8  C   UNL A   1      31.993  24.586  26.166  1.00  0.00     0.014 C 
ATOM      9  C   UNL A   1      30.910  23.558  25.850  1.00  0.00     0.001 C 
ATOM     10  C   UNL A   1      30.945  24.226  23.446  1.00  0.00     0.016 C 
ATOM     11  C   UNL A   1      30.990  23.057  24.417  1.00  0.00     0.001 C 
BRANCH   7  12
ATOM     12  C   UNL A   1      33.311  26.683  25.516  1.00  0.00     0.228 C 
ATOM     13  N   UNL A   1      33.424  27.987  25.072  1.00  0.00    -0.326 N 
ATOM     14  H   UNL A   1      34.239  28.461  25.353  1.00  0.00     0.169 HD
ATOM     15  O   UNL A   1      34.245  26.260  26.211  1.00  0.00    -0.274 OA
BRANCH  13  16
ATOM     16  C   UNL A   1      32.536  28.736  24.275  1.00  0.00     0.044 A 
ATOM     17  C   UNL A   1      33.943  28.640  22.139  1.00  0.00     0.047 C 
ATOM     18  C   UNL A   1      32.638  28.725  22.877  1.00  0.00    -0.024 A 
ATOM     19  C   UNL A   1      31.455  28.909  22.135  1.00  0.00     0.052 A 
ATOM     20  C   UNL A   1      30.251  29.213  22.772  1.00  0.00     0.126 A 
ATOM     21  C   UNL A   1      31.441  29.362  24.852  1.00  0.00     0.030 A 
ATOM     22  C   UNL A   1      30.284  29.572  24.111  1.00  0.00     0.049 A 
BRANCH  20  23
ATOM     23  O   UNL A   1      29.120  29.160  22.009  1.00  0.00    -0.435 OA
BRANCH  23  24
ATOM     24  C   UNL A   1      28.472  30.414  21.765  1.00  0.00     0.542 C 
ATOM     25  F   UNL A   1      27.805  30.394  20.585  1.00  0.00    -0.167 F 
ATOM     26  F   UNL A   1      27.563  30.634  22.749  1.00  0.00    -0.167 F 
ENDBRANCH  23  24
ENDBRANCH  20  23
ENDBRANCH  13  16
ENDBRANCH   7  12
ENDBRANCH   4   6
ENDBRANCH   3   4
ENDBRANCH   2   3
ENDBRANCH   1   2
BRANCH   1  27
ATOM     27  O   UNL A   1      36.579  22.376  25.136  1.00  0.00    -0.374 OA
BRANCH  27  28
ATOM     28  C   UNL A   1      37.453  21.317  24.855  1.00  0.00     0.202 C 
BRANCH  28  29
ATOM     29  C   UNL A   1      38.727  21.436  25.671  1.00  0.00     0.261 C 
BRANCH  29  30
ATOM     30  O   UNL A   1      38.700  22.624  26.490  1.00  0.00    -0.460 OA
BRANCH  30  31
ATOM     31  C   UNL A   1      39.918  23.227  26.650  1.00  0.00     0.338 C 
ATOM     32  O   UNL A   1      40.968  22.610  26.715  1.00  0.00    -0.246 OA
BRANCH  31  33
ATOM     33  C   UNL A   1      39.743  24.685  26.938  1.00  0.00     0.060 A 
ATOM     34  C   UNL A   1      40.472  25.631  26.198  1.00  0.00     0.016 A 
ATOM     35  C   UNL A   1      39.166  25.053  28.150  1.00  0.00     0.016 A 
ATOM     36  C   UNL A   1      40.813  26.865  26.770  1.00  0.00     0.010 A 
ATOM     37  C   UNL A   1      39.611  26.212  28.751  1.00  0.00     0.010 A 
ATOM     38  C   UNL A   1      40.479  27.107  28.090  1.00  0.00    -0.014 A 
BRANCH  38  39
ATOM     39  C   UNL A   1      40.837  28.288  28.886  1.00  0.00     0.031 A 
ATOM     40  C   UNL A   1      39.870  29.408  28.765  1.00  0.00     0.074 A 
ATOM     41  C   UNL A   1      41.764  28.287  29.880  1.00  0.00     0.049 A 
ATOM     42  N   UNL A   1      39.876  30.449  29.509  1.00  0.00    -0.248 NA
ATOM     43  C   UNL A   1      38.775  29.425  27.790  1.00  0.00     0.031 C 
ATOM     44  C   UNL A   1      41.793  29.131  31.080  1.00  0.00     0.029 A 
ATOM     45  N   UNL A   1      42.939  27.536  30.043  1.00  0.00    -0.354 N 
ATOM     46  C   UNL A   1      38.674  31.093  29.348  1.00  0.00     0.074 A 
ATOM     47  C   UNL A   1      38.055  30.466  28.214  1.00  0.00     0.031 C 
ATOM     48  C   UNL A   1      43.023  29.110  31.622  1.00  0.00     0.029 A 
ATOM     49  C   UNL A   1      43.857  28.356  30.706  1.00  0.00     0.049 A 
ATOM     50  H   UNL A   1      43.089  26.609  29.746  1.00  0.00     0.167 HD
ATOM     51  C   UNL A   1      38.336  32.004  30.297  1.00  0.00     0.034 A 
ATOM     52  C   UNL A   1      45.000  28.782  30.104  1.00  0.00     0.034 A 
ATOM     53  C   UNL A   1      39.523  32.315  31.123  1.00  0.00     0.049 A 
ATOM     54  C   UNL A   1      44.985  30.277  30.130  1.00  0.00     0.074 A 
ATOM     55  C   UNL A   1      39.918  31.988  32.409  1.00  0.00     0.029 A 
ATOM     56  N   UNL A   1      40.666  32.797  30.476  1.00  0.00    -0.354 N 
ATOM     57  N   UNL A   1      43.881  30.967  29.992  1.00  0.00    -0.248 NA
ATOM     58  C   UNL A   1      46.104  31.070  30.633  1.00  0.00     0.031 C 
ATOM     59  C   UNL A   1      41.332  32.190  32.491  1.00  0.00     0.029 A 
ATOM     60  C   UNL A   1      41.796  32.653  31.264  1.00  0.00     0.049 A 
ATOM     61  H   UNL A   1      40.668  33.190  29.573  1.00  0.00     0.167 HD
ATOM     62  C   UNL A   1      44.079  32.206  30.525  1.00  0.00     0.074 A 
ATOM     63  C   UNL A   1      45.496  32.244  30.869  1.00  0.00     0.031 C 
ATOM     64  C   UNL A   1      43.099  33.116  30.795  1.00  0.00     0.034 A 
BRANCH  51  65
ATOM     65  C   UNL A   1      36.939  32.524  30.592  1.00  0.00     0.023 A 
ATOM     66  C   UNL A   1      36.429  32.254  31.881  1.00  0.00     0.012 A 
ATOM     67  C   UNL A   1      36.046  33.180  29.702  1.00  0.00     0.148 A 
ATOM     68  C   UNL A   1      35.129  32.602  32.270  1.00  0.00     0.002 A 
ATOM     69  C   UNL A   1      34.763  33.573  30.105  1.00  0.00     0.091 A 
ATOM     70  F   UNL A   1      36.388  33.387  28.432  1.00  0.00    -0.205 F 
ATOM     71  C   UNL A   1      34.299  33.273  31.387  1.00  0.00     0.022 A 
BRANCH  69  72
ATOM     72  S   UNL A   1      33.624  34.477  29.033  1.00  0.00     0.127 S 
ATOM     73  O   UNL A   1      34.454  35.594  28.575  1.00  0.00    -0.237 OA
ATOM     74  O   UNL A   1      33.319  33.488  28.000  1.00  0.00    -0.237 OA
ATOM     75  O   UNL A   1      32.488  34.862  29.861  1.00  0.00    -0.744 OA
ENDBRANCH  69  72
ENDBRANCH  51  65
BRANCH  52  76
ATOM     76  C   UNL A   1      45.541  27.796  29.122  1.00  0.00     0.023 A 
ATOM     77  C   UNL A   1      45.967  26.572  29.700  1.00  0.00     0.012 A 
ATOM     78  C   UNL A   1      45.226  27.805  27.749  1.00  0.00     0.148 A 
ATOM     79  C   UNL A   1      45.881  25.366  29.000  1.00  0.00     0.002 A 
ATOM     80  C   UNL A   1      45.193  26.594  27.044  1.00  0.00     0.091 A 
ATOM     81  F   UNL A   1      44.902  28.968  27.173  1.00  0.00    -0.205 F 
ATOM     82  C   UNL A   1      45.443  25.373  27.689  1.00  0.00     0.022 A 
BRANCH  80  83
ATOM     83  S   UNL A   1      44.797  26.472  25.293  1.00  0.00     0.127 S 
ATOM     84  O   UNL A   1      46.126  26.564  24.692  1.00  0.00    -0.237 OA
ATOM     85  O   UNL A   1      44.188  25.145  25.204  1.00  0.00    -0.237 OA
ATOM     86  O   UNL A   1      43.896  27.578  25.012  1.00  0.00    -0.744 OA
ENDBRANCH  80  83
ENDBRANCH  52  76
BRANCH  64  87
ATOM     87  C   UNL A   1      43.348  34.576  30.502  1.00  0.00     0.023 A 
ATOM     88  C   UNL A   1      43.931  35.427  31.467  1.00  0.00     0.012 A 
ATOM     89  C   UNL A   1      43.231  35.082  29.188  1.00  0.00     0.148 A 
ATOM     90  C   UNL A   1      44.331  36.725  31.165  1.00  0.00     0.002 A 
ATOM     91  C   UNL A   1      43.753  36.325  28.865  1.00  0.00     0.091 A 
ATOM     92  F   UNL A   1      42.616  34.361  28.240  1.00  0.00    -0.205 F 
ATOM     93  C   UNL A   1      44.271  37.166  29.855  1.00  0.00     0.022 A 
BRANCH  91  94
ATOM     94  S   UNL A   1      43.959  36.828  27.154  1.00  0.00     0.127 S 
ATOM     95  O   UNL A   1      44.597  38.133  27.307  1.00  0.00    -0.237 OA
ATOM     96  O   UNL A   1      44.829  35.776  26.628  1.00  0.00    -0.237 OA
ATOM     97  O   UNL A   1      42.616  36.833  26.588  1.00  0.00    -0.744 OA
ENDBRANCH  91  94
ENDBRANCH  64  87
ENDBRANCH  38  39
ENDBRANCH  31  33
ENDBRANCH  30  31
ENDBRANCH  29  30
ENDBRANCH  28  29
ENDBRANCH  27  28
ENDBRANCH   1  27
TORSDOF 21
ENDMDL
MODEL 3
REMARK VINA RESULT:     -11.6      2.670      4.068
REMARK SMILES Cc1cc(OC(F)F)ccc1NC(=O)[C@@H]1CCCC[C@@H]1C(=O)OCCOCCOC(=O)c1ccc(-c2c3nc(c(-c4cccc(S(=O)(=O)[O-])c4F)c4ccc([nH]4)c(-c4cccc(S(=O)(=O)[O-])c4F)c4nc(c(-c5cccc(S(=O)(=O)[O-])c5F)c5ccc2[nH]5)C=C4)C=C3)cc1
REMARK SMILES IDX 25 1 24 2 23 3 21 4 22 5 20 6 15 7 16 8 17 9 19 10 18 11
REMARK SMILES IDX 13 12 12 13 14 15 11 16 1 17 2 18 3 19 4 20 10 21 9 22 5 23
REMARK SMILES IDX 6 24 7 25 8 26 26 27 27 28 28 29 29 30 30 31 31 32 32 33
REMARK SMILES IDX 33 34 94 35 34 36 93 37 35 38 36 39 37 40 87 41 38 42 92 43
REMARK SMILES IDX 86 44 88 45 39 46 91 47 85 48 84 49 40 51 72 52 52 53 71 54
REMARK SMILES IDX 53 55 56 56 70 57 89 58 54 59 55 60 69 62 90 63 57 64 41 65
REMARK SMILES IDX 42 66 50 67 43 68 45 69 51 70 44 71 46 72 47 73 48 74 49 75
REMARK SMILES IDX 73 76 74 77 82 78 75 79 77 80 83 81 76 82 78 83 79 84 80 85
REMARK SMILES IDX 81 86 58 87 59 88 67 89 60 90 62 91 68 92 61 93 63 94 64 95
REMARK SMILES IDX 65 96 66 97
REMARK H PARENT 12 14 88 50 56 61
REMARK Flexibility Score: inf
ROOT
ATOM      1  C   UNL A   1      32.857  29.561  24.934  1.00  0.00     0.202 C 
ENDROOT
BRANCH   1   2
ATOM      2  C   UNL A   1      33.561  28.234  24.898  1.00  0.00     0.261 C 
BRANCH   2   3
ATOM      3  O   UNL A   1      32.628  27.120  24.977  1.00  0.00    -0.463 OA
BRANCH   3   4
ATOM      4  C   UNL A   1      33.003  25.846  25.313  1.00  0.00     0.309 C 
ATOM      5  O   UNL A   1      34.076  25.493  25.738  1.00  0.00    -0.252 OA
BRANCH   4   6
ATOM      6  C   UNL A   1      31.878  24.870  25.009  1.00  0.00     0.111 C 
ATOM      7  C   UNL A   1      31.301  24.984  23.573  1.00  0.00     0.093 C 
ATOM      8  C   UNL A   1      30.223  26.093  23.462  1.00  0.00     0.014 C 
ATOM      9  C   UNL A   1      29.194  26.112  24.589  1.00  0.00     0.001 C 
ATOM     10  C   UNL A   1      30.773  24.888  26.083  1.00  0.00     0.016 C 
ATOM     11  C   UNL A   1      29.842  26.084  25.963  1.00  0.00     0.001 C 
BRANCH   7  12
ATOM     12  C   UNL A   1      32.352  25.119  22.426  1.00  0.00     0.228 C 
ATOM     13  N   UNL A   1      33.196  24.093  22.043  1.00  0.00    -0.326 N 
ATOM     14  H   UNL A   1      33.831  24.314  21.324  1.00  0.00     0.169 HD
ATOM     15  O   UNL A   1      32.492  26.194  21.827  1.00  0.00    -0.274 OA
BRANCH  13  16
ATOM     16  C   UNL A   1      33.276  22.775  22.534  1.00  0.00     0.044 A 
ATOM     17  C   UNL A   1      35.526  23.063  23.720  1.00  0.00     0.047 C 
ATOM     18  C   UNL A   1      34.168  22.442  23.563  1.00  0.00    -0.024 A 
ATOM     19  C   UNL A   1      33.803  21.392  24.428  1.00  0.00     0.052 A 
ATOM     20  C   UNL A   1      32.654  20.636  24.190  1.00  0.00     0.126 A 
ATOM     21  C   UNL A   1      32.354  21.823  22.125  1.00  0.00     0.030 A 
ATOM     22  C   UNL A   1      32.017  20.769  22.966  1.00  0.00     0.049 A 
BRANCH  20  23
ATOM     23  O   UNL A   1      32.257  19.789  25.185  1.00  0.00    -0.435 OA
BRANCH  23  24
ATOM     24  C   UNL A   1      32.783  18.459  25.121  1.00  0.00     0.542 C 
ATOM     25  F   UNL A   1      32.378  17.724  26.185  1.00  0.00    -0.167 F 
ATOM     26  F   UNL A   1      32.310  17.856  23.999  1.00  0.00    -0.167 F 
ENDBRANCH  23  24
ENDBRANCH  20  23
ENDBRANCH  13  16
ENDBRANCH   7  12
ENDBRANCH   4   6
ENDBRANCH   3   4
ENDBRANCH   2   3
ENDBRANCH   1   2
BRANCH   1  27
ATOM     27  O   UNL A   1      32.064  29.488  26.094  1.00  0.00    -0.374 OA
BRANCH  27  28
ATOM     28  C   UNL A   1      31.776  30.683  26.769  1.00  0.00     0.202 C 
BRANCH  28  29
ATOM     29  C   UNL A   1      33.041  31.485  27.011  1.00  0.00     0.261 C 
BRANCH  29  30
ATOM     30  O   UNL A   1      33.946  30.764  27.873  1.00  0.00    -0.460 OA
BRANCH  30  31
ATOM     31  C   UNL A   1      35.207  31.294  27.937  1.00  0.00     0.338 C 
ATOM     32  O   UNL A   1      35.461  32.453  27.658  1.00  0.00    -0.246 OA
BRANCH  31  33
ATOM     33  C   UNL A   1      36.213  30.215  28.185  1.00  0.00     0.060 A 
ATOM     34  C   UNL A   1      36.346  29.673  29.474  1.00  0.00     0.016 A 
ATOM     35  C   UNL A   1      37.231  30.035  27.253  1.00  0.00     0.016 A 
ATOM     36  C   UNL A   1      37.578  29.154  29.899  1.00  0.00     0.010 A 
ATOM     37  C   UNL A   1      38.469  29.642  27.717  1.00  0.00     0.010 A 
ATOM     38  C   UNL A   1      38.671  29.246  29.056  1.00  0.00    -0.014 A 
BRANCH  38  39
ATOM     39  C   UNL A   1      40.053  28.854  29.361  1.00  0.00     0.031 A 
ATOM     40  C   UNL A   1      40.332  27.415  29.132  1.00  0.00     0.074 A 
ATOM     41  C   UNL A   1      41.076  29.734  29.529  1.00  0.00     0.049 A 
ATOM     42  N   UNL A   1      41.502  26.897  29.145  1.00  0.00    -0.248 NA
ATOM     43  C   UNL A   1      39.289  26.429  28.833  1.00  0.00     0.031 C 
ATOM     44  C   UNL A   1      42.499  29.520  29.241  1.00  0.00     0.029 A 
ATOM     45  N   UNL A   1      41.091  31.043  30.035  1.00  0.00    -0.354 N 
ATOM     46  C   UNL A   1      41.421  25.649  28.576  1.00  0.00     0.074 A 
ATOM     47  C   UNL A   1      40.017  25.371  28.470  1.00  0.00     0.031 C 
ATOM     48  C   UNL A   1      43.236  30.451  29.870  1.00  0.00     0.029 A 
ATOM     49  C   UNL A   1      42.314  31.211  30.692  1.00  0.00     0.049 A 
ATOM     50  H   UNL A   1      40.376  31.715  29.946  1.00  0.00     0.167 HD
ATOM     51  C   UNL A   1      42.588  25.085  28.171  1.00  0.00     0.034 A 
ATOM     52  C   UNL A   1      42.383  31.397  32.038  1.00  0.00     0.034 A 
ATOM     53  C   UNL A   1      43.724  25.839  28.746  1.00  0.00     0.049 A 
ATOM     54  C   UNL A   1      43.239  30.304  32.593  1.00  0.00     0.074 A 
ATOM     55  C   UNL A   1      44.652  26.729  28.233  1.00  0.00     0.029 A 
ATOM     56  N   UNL A   1      43.789  25.970  30.137  1.00  0.00    -0.354 N 
ATOM     57  N   UNL A   1      43.229  29.090  32.104  1.00  0.00    -0.248 NA
ATOM     58  C   UNL A   1      44.375  30.561  33.476  1.00  0.00     0.031 C 
ATOM     59  C   UNL A   1      45.203  27.460  29.332  1.00  0.00     0.029 A 
ATOM     60  C   UNL A   1      44.623  27.009  30.513  1.00  0.00     0.049 A 
ATOM     61  H   UNL A   1      43.302  25.394  30.771  1.00  0.00     0.167 HD
ATOM     62  C   UNL A   1      44.395  28.476  32.450  1.00  0.00     0.074 A 
ATOM     63  C   UNL A   1      45.060  29.413  33.349  1.00  0.00     0.031 C 
ATOM     64  C   UNL A   1      44.860  27.307  31.922  1.00  0.00     0.034 A 
BRANCH  51  65
ATOM     65  C   UNL A   1      42.743  23.957  27.165  1.00  0.00     0.023 A 
ATOM     66  C   UNL A   1      43.428  24.273  25.970  1.00  0.00     0.012 A 
ATOM     67  C   UNL A   1      42.213  22.641  27.240  1.00  0.00     0.148 A 
ATOM     68  C   UNL A   1      43.579  23.359  24.920  1.00  0.00     0.002 A 
ATOM     69  C   UNL A   1      42.406  21.710  26.211  1.00  0.00     0.091 A 
ATOM     70  F   UNL A   1      41.459  22.274  28.275  1.00  0.00    -0.205 F 
ATOM     71  C   UNL A   1      43.080  22.073  25.043  1.00  0.00     0.022 A 
BRANCH  69  72
ATOM     72  S   UNL A   1      41.816  20.004  26.298  1.00  0.00     0.127 S 
ATOM     73  O   UNL A   1      42.257  19.595  27.633  1.00  0.00    -0.237 OA
ATOM     74  O   UNL A   1      40.370  20.169  26.163  1.00  0.00    -0.237 OA
ATOM     75  O   UNL A   1      42.453  19.287  25.201  1.00  0.00    -0.744 OA
ENDBRANCH  69  72
ENDBRANCH  51  65
BRANCH  52  76
ATOM     76  C   UNL A   1      41.202  32.128  32.585  1.00  0.00     0.023 A 
ATOM     77  C   UNL A   1      41.157  33.504  32.240  1.00  0.00     0.012 A 
ATOM     78  C   UNL A   1      39.996  31.501  32.957  1.00  0.00     0.148 A 
ATOM     79  C   UNL A   1      39.945  34.175  32.068  1.00  0.00     0.002 A 
ATOM     80  C   UNL A   1      38.789  32.201  32.829  1.00  0.00     0.091 A 
ATOM     81  F   UNL A   1      40.035  30.226  33.363  1.00  0.00    -0.205 F 
ATOM     82  C   UNL A   1      38.760  33.506  32.312  1.00  0.00     0.022 A 
BRANCH  80  83
ATOM     83  S   UNL A   1      37.186  31.510  33.264  1.00  0.00     0.127 S 
ATOM     84  O   UNL A   1      37.014  32.017  34.624  1.00  0.00    -0.237 OA
ATOM     85  O   UNL A   1      36.303  32.129  32.275  1.00  0.00    -0.237 OA
ATOM     86  O   UNL A   1      37.328  30.068  33.138  1.00  0.00    -0.744 OA
ENDBRANCH  80  83
ENDBRANCH  52  76
BRANCH  64  87
ATOM     87  C   UNL A   1      45.516  26.296  32.833  1.00  0.00     0.023 A 
ATOM     88  C   UNL A   1      46.908  26.324  33.073  1.00  0.00     0.012 A 
ATOM     89  C   UNL A   1      44.741  25.450  33.655  1.00  0.00     0.148 A 
ATOM     90  C   UNL A   1      47.510  25.522  34.037  1.00  0.00     0.002 A 
ATOM     91  C   UNL A   1      45.329  24.755  34.701  1.00  0.00     0.091 A 
ATOM     92  F   UNL A   1      43.426  25.312  33.432  1.00  0.00    -0.205 F 
ATOM     93  C   UNL A   1      46.716  24.758  34.874  1.00  0.00     0.022 A 
BRANCH  91  94
ATOM     94  S   UNL A   1      44.331  23.982  35.978  1.00  0.00     0.127 S 
ATOM     95  O   UNL A   1      43.543  23.031  35.198  1.00  0.00    -0.237 OA
ATOM     96  O   UNL A   1      45.349  23.377  36.838  1.00  0.00    -0.237 OA
ATOM     97  O   UNL A   1      43.590  25.071  36.601  1.00  0.00    -0.744 OA
ENDBRANCH  91  94
ENDBRANCH  64  87
ENDBRANCH  38  39
ENDBRANCH  31  33
ENDBRANCH  30  31
ENDBRANCH  29  30
ENDBRANCH  28  29
ENDBRANCH  27  28
ENDBRANCH   1  27
TORSDOF 21
ENDMDL
