MODEL 1
REMARK VINA RESULT:     -11.7      0.000      0.000
REMARK SMILES O=C(C[C@H]1CN(S(=O)(=O)c2ccc(F)c(F)c2)CCO1)OCCOCCOC(=O)c1ccc(-c2c3nc(c(-c4cccc(S(=O)(=O)[O-])c4F)c4ccc([nH]4)c(-c4cccc(S(=O)(=O)[O-])c4F)c4nc(c(-c5cccc(S(=O)(=O)[O-])c5F)c5ccc2[nH]5)C=C4)C=C3)cc1
REMARK SMILES IDX 24 1 23 2 22 3 21 4 2 5 1 6 3 7 4 8 5 9 20 10 6 11 19 12
REMARK SMILES IDX 18 13 7 14 8 15 9 16 10 17 11 18 17 19 12 20 15 21 13 22
REMARK SMILES IDX 16 23 14 24 25 25 26 26 27 27 28 28 29 29 30 30 31 31 92 32
REMARK SMILES IDX 32 33 91 34 33 35 34 36 35 37 85 38 36 39 90 40 84 41 86 42
REMARK SMILES IDX 37 43 89 44 83 45 82 46 38 48 70 49 50 50 69 51 51 52 54 53
REMARK SMILES IDX 68 54 87 55 52 56 53 57 67 59 88 60 55 61 39 62 40 63 48 64
REMARK SMILES IDX 41 65 43 66 49 67 42 68 44 69 45 70 46 71 47 72 71 73 72 74
REMARK SMILES IDX 80 75 73 76 75 77 81 78 74 79 76 80 77 81 78 82 79 83 56 84
REMARK SMILES IDX 57 85 65 86 58 87 60 88 66 89 59 90 61 91 62 92 63 93 64 94
REMARK H PARENT 86 47 54 58
REMARK Flexibility Score: inf
ROOT
ATOM      1  O   UNL A   1      32.779  29.509  24.935  1.00  0.00    -0.374 OA
ENDROOT
BRANCH   1   2
ATOM      2  C   UNL A   1      32.928  29.060  23.582  1.00  0.00     0.202 C 
BRANCH   2   3
ATOM      3  C   UNL A   1      33.825  27.829  23.426  1.00  0.00     0.261 C 
BRANCH   3   4
ATOM      4  O   UNL A   1      33.771  27.325  22.079  1.00  0.00    -0.463 OA
BRANCH   4   5
ATOM      5  C   UNL A   1      33.215  26.137  21.775  1.00  0.00     0.308 C 
ATOM      6  O   UNL A   1      33.152  25.756  20.609  1.00  0.00    -0.252 OA
BRANCH   5   7
ATOM      7  C   UNL A   1      32.675  25.306  22.901  1.00  0.00     0.156 C 
BRANCH   7   8
ATOM      8  C   UNL A   1      31.161  25.255  22.992  1.00  0.00     0.144 C 
ATOM      9  C   UNL A   1      30.659  24.003  23.742  1.00  0.00     0.135 C 
ATOM     10  O   UNL A   1      30.542  26.444  23.483  1.00  0.00    -0.375 OA
ATOM     11  N   UNL A   1      30.708  24.107  25.229  1.00  0.00    -0.193 NA
ATOM     12  C   UNL A   1      30.649  26.597  24.902  1.00  0.00     0.177 C 
ATOM     13  C   UNL A   1      30.028  25.400  25.631  1.00  0.00     0.131 C 
BRANCH  11  14
ATOM     14  S   UNL A   1      32.073  23.778  26.196  1.00  0.00     0.243 S 
ATOM     15  O   UNL A   1      33.089  24.777  25.962  1.00  0.00    -0.207 OA
ATOM     16  O   UNL A   1      31.549  23.603  27.537  1.00  0.00    -0.207 OA
BRANCH  14  17
ATOM     17  C   UNL A   1      32.808  22.216  25.741  1.00  0.00     0.085 A 
ATOM     18  C   UNL A   1      32.047  21.073  25.465  1.00  0.00     0.025 A 
ATOM     19  C   UNL A   1      34.184  22.207  25.467  1.00  0.00     0.064 A 
ATOM     20  C   UNL A   1      32.666  19.908  24.996  1.00  0.00     0.044 A 
ATOM     21  C   UNL A   1      34.781  21.058  24.959  1.00  0.00     0.160 A 
ATOM     22  C   UNL A   1      34.031  19.909  24.742  1.00  0.00     0.158 A 
ATOM     23  F   UNL A   1      36.086  21.076  24.654  1.00  0.00    -0.204 F 
ATOM     24  F   UNL A   1      34.612  18.804  24.256  1.00  0.00    -0.204 F 
ENDBRANCH  14  17
ENDBRANCH  11  14
ENDBRANCH   7   8
ENDBRANCH   5   7
ENDBRANCH   4   5
ENDBRANCH   3   4
ENDBRANCH   2   3
ENDBRANCH   1   2
BRANCH   1  25
ATOM     25  C   UNL A   1      31.502  30.084  25.258  1.00  0.00     0.202 C 
BRANCH  25  26
ATOM     26  C   UNL A   1      31.525  31.225  26.282  1.00  0.00     0.261 C 
BRANCH  26  27
ATOM     27  O   UNL A   1      32.577  31.016  27.234  1.00  0.00    -0.460 OA
BRANCH  27  28
ATOM     28  C   UNL A   1      33.346  32.101  27.477  1.00  0.00     0.338 C 
ATOM     29  O   UNL A   1      32.968  33.258  27.577  1.00  0.00    -0.246 OA
BRANCH  28  30
ATOM     30  C   UNL A   1      34.698  31.656  27.872  1.00  0.00     0.060 A 
ATOM     31  C   UNL A   1      34.866  30.283  28.101  1.00  0.00     0.016 A 
ATOM     32  C   UNL A   1      35.777  32.536  28.000  1.00  0.00     0.016 A 
ATOM     33  C   UNL A   1      36.087  29.795  28.542  1.00  0.00     0.010 A 
ATOM     34  C   UNL A   1      37.002  32.049  28.466  1.00  0.00     0.010 A 
ATOM     35  C   UNL A   1      37.132  30.691  28.799  1.00  0.00    -0.014 A 
BRANCH  35  36
ATOM     36  C   UNL A   1      38.198  30.239  29.715  1.00  0.00     0.031 A 
ATOM     37  C   UNL A   1      39.201  29.257  29.167  1.00  0.00     0.074 A 
ATOM     38  C   UNL A   1      38.323  30.742  30.954  1.00  0.00     0.049 A 
ATOM     39  N   UNL A   1      40.285  28.782  29.720  1.00  0.00    -0.248 NA
ATOM     40  C   UNL A   1      38.952  28.750  27.805  1.00  0.00     0.031 C 
ATOM     41  C   UNL A   1      37.415  31.707  31.572  1.00  0.00     0.029 A 
ATOM     42  N   UNL A   1      39.270  30.503  31.914  1.00  0.00    -0.354 N 
ATOM     43  C   UNL A   1      40.829  27.908  28.786  1.00  0.00     0.074 A 
ATOM     44  C   UNL A   1      39.954  27.904  27.638  1.00  0.00     0.031 C 
ATOM     45  C   UNL A   1      37.844  31.966  32.820  1.00  0.00     0.029 A 
ATOM     46  C   UNL A   1      39.049  31.183  33.087  1.00  0.00     0.049 A 
ATOM     47  H   UNL A   1      40.038  29.901  31.775  1.00  0.00     0.167 HD
ATOM     48  C   UNL A   1      41.969  27.186  28.868  1.00  0.00     0.034 A 
ATOM     49  C   UNL A   1      39.749  31.167  34.238  1.00  0.00     0.034 A 
ATOM     50  C   UNL A   1      42.842  27.212  30.005  1.00  0.00     0.049 A 
ATOM     51  C   UNL A   1      41.015  30.350  34.305  1.00  0.00     0.074 A 
ATOM     52  C   UNL A   1      44.038  26.545  30.189  1.00  0.00     0.029 A 
ATOM     53  N   UNL A   1      42.603  27.940  31.160  1.00  0.00    -0.354 N 
ATOM     54  N   UNL A   1      41.581  29.623  33.372  1.00  0.00    -0.248 NA
ATOM     55  C   UNL A   1      41.762  30.387  35.571  1.00  0.00     0.031 C 
ATOM     56  C   UNL A   1      44.515  26.857  31.465  1.00  0.00     0.029 A 
ATOM     57  C   UNL A   1      43.628  27.737  32.066  1.00  0.00     0.049 A 
ATOM     58  H   UNL A   1      41.819  28.516  31.314  1.00  0.00     0.167 HD
ATOM     59  C   UNL A   1      42.769  29.152  33.920  1.00  0.00     0.074 A 
ATOM     60  C   UNL A   1      42.848  29.691  35.263  1.00  0.00     0.031 C 
ATOM     61  C   UNL A   1      43.708  28.340  33.372  1.00  0.00     0.034 A 
BRANCH  48  62
ATOM     62  C   UNL A   1      42.332  26.329  27.687  1.00  0.00     0.023 A 
ATOM     63  C   UNL A   1      43.086  26.877  26.629  1.00  0.00     0.012 A 
ATOM     64  C   UNL A   1      41.945  24.976  27.632  1.00  0.00     0.148 A 
ATOM     65  C   UNL A   1      43.421  26.101  25.520  1.00  0.00     0.002 A 
ATOM     66  C   UNL A   1      42.320  24.197  26.545  1.00  0.00     0.091 A 
ATOM     67  F   UNL A   1      41.199  24.484  28.632  1.00  0.00    -0.205 F 
ATOM     68  C   UNL A   1      43.048  24.760  25.483  1.00  0.00     0.022 A 
BRANCH  66  69
ATOM     69  S   UNL A   1      41.946  22.444  26.439  1.00  0.00     0.127 S 
ATOM     70  O   UNL A   1      40.486  22.457  26.375  1.00  0.00    -0.237 OA
ATOM     71  O   UNL A   1      42.608  22.063  25.191  1.00  0.00    -0.237 OA
ATOM     72  O   UNL A   1      42.516  21.841  27.636  1.00  0.00    -0.744 OA
ENDBRANCH  66  69
ENDBRANCH  48  62
BRANCH  49  73
ATOM     73  C   UNL A   1      39.306  31.998  35.394  1.00  0.00     0.023 A 
ATOM     74  C   UNL A   1      38.413  31.456  36.339  1.00  0.00     0.012 A 
ATOM     75  C   UNL A   1      39.776  33.314  35.570  1.00  0.00     0.148 A 
ATOM     76  C   UNL A   1      37.975  32.218  37.423  1.00  0.00     0.002 A 
ATOM     77  C   UNL A   1      39.375  34.049  36.680  1.00  0.00     0.091 A 
ATOM     78  F   UNL A   1      40.608  33.819  34.650  1.00  0.00    -0.205 F 
ATOM     79  C   UNL A   1      38.463  33.510  37.598  1.00  0.00     0.022 A 
BRANCH  77  80
ATOM     80  S   UNL A   1      40.047  35.675  37.049  1.00  0.00     0.127 S 
ATOM     81  O   UNL A   1      41.477  35.394  37.142  1.00  0.00    -0.237 OA
ATOM     82  O   UNL A   1      39.644  36.443  35.869  1.00  0.00    -0.237 OA
ATOM     83  O   UNL A   1      39.400  36.093  38.285  1.00  0.00    -0.744 OA
ENDBRANCH  77  80
ENDBRANCH  49  73
BRANCH  61  84
ATOM     84  C   UNL A   1      44.923  28.020  34.200  1.00  0.00     0.023 A 
ATOM     85  C   UNL A   1      46.022  28.900  34.204  1.00  0.00     0.012 A 
ATOM     86  C   UNL A   1      44.939  26.885  35.036  1.00  0.00     0.148 A 
ATOM     87  C   UNL A   1      47.135  28.637  35.002  1.00  0.00     0.002 A 
ATOM     88  C   UNL A   1      46.031  26.657  35.865  1.00  0.00     0.091 A 
ATOM     89  F   UNL A   1      43.892  26.048  35.004  1.00  0.00    -0.205 F 
ATOM     90  C   UNL A   1      47.135  27.524  35.840  1.00  0.00     0.022 A 
BRANCH  88  91
ATOM     91  S   UNL A   1      46.059  25.303  37.044  1.00  0.00     0.127 S 
ATOM     92  O   UNL A   1      46.399  24.167  36.189  1.00  0.00    -0.237 OA
ATOM     93  O   UNL A   1      47.119  25.710  37.967  1.00  0.00    -0.237 OA
ATOM     94  O   UNL A   1      44.729  25.270  37.639  1.00  0.00    -0.744 OA
ENDBRANCH  88  91
ENDBRANCH  61  84
ENDBRANCH  35  36
ENDBRANCH  28  30
ENDBRANCH  27  28
ENDBRANCH  26  27
ENDBRANCH  25  26
ENDBRANCH   1  25
TORSDOF 20
ENDMDL
MODEL 2
REMARK VINA RESULT:     -11.3      5.258      8.409
REMARK SMILES O=C(C[C@H]1CN(S(=O)(=O)c2ccc(F)c(F)c2)CCO1)OCCOCCOC(=O)c1ccc(-c2c3nc(c(-c4cccc(S(=O)(=O)[O-])c4F)c4ccc([nH]4)c(-c4cccc(S(=O)(=O)[O-])c4F)c4nc(c(-c5cccc(S(=O)(=O)[O-])c5F)c5ccc2[nH]5)C=C4)C=C3)cc1
REMARK SMILES IDX 24 1 23 2 22 3 21 4 2 5 1 6 3 7 4 8 5 9 20 10 6 11 19 12
REMARK SMILES IDX 18 13 7 14 8 15 9 16 10 17 11 18 17 19 12 20 15 21 13 22
REMARK SMILES IDX 16 23 14 24 25 25 26 26 27 27 28 28 29 29 30 30 31 31 92 32
REMARK SMILES IDX 32 33 91 34 33 35 34 36 35 37 85 38 36 39 90 40 84 41 86 42
REMARK SMILES IDX 37 43 89 44 83 45 82 46 38 48 70 49 50 50 69 51 51 52 54 53
REMARK SMILES IDX 68 54 87 55 52 56 53 57 67 59 88 60 55 61 39 62 40 63 48 64
REMARK SMILES IDX 41 65 43 66 49 67 42 68 44 69 45 70 46 71 47 72 71 73 72 74
REMARK SMILES IDX 80 75 73 76 75 77 81 78 74 79 76 80 77 81 78 82 79 83 56 84
REMARK SMILES IDX 57 85 65 86 58 87 60 88 66 89 59 90 61 91 62 92 63 93 64 94
REMARK H PARENT 86 47 54 58
REMARK Flexibility Score: inf
ROOT
ATOM      1  O   UNL A   1      39.231  21.116  26.282  1.00  0.00    -0.374 OA
ENDROOT
BRANCH   1   2
ATOM      2  C   UNL A   1      38.268  21.867  25.531  1.00  0.00     0.202 C 
BRANCH   2   3
ATOM      3  C   UNL A   1      37.430  21.022  24.568  1.00  0.00     0.261 C 
BRANCH   3   4
ATOM      4  O   UNL A   1      36.158  21.648  24.315  1.00  0.00    -0.463 OA
BRANCH   4   5
ATOM      5  C   UNL A   1      36.041  22.782  23.599  1.00  0.00     0.308 C 
ATOM      6  O   UNL A   1      36.724  22.960  22.594  1.00  0.00    -0.252 OA
BRANCH   5   7
ATOM      7  C   UNL A   1      35.059  23.813  24.072  1.00  0.00     0.156 C 
BRANCH   7   8
ATOM      8  C   UNL A   1      33.981  24.180  23.070  1.00  0.00     0.144 C 
ATOM      9  C   UNL A   1      33.199  22.946  22.570  1.00  0.00     0.135 C 
ATOM     10  O   UNL A   1      33.102  25.227  23.480  1.00  0.00    -0.375 OA
ATOM     11  N   UNL A   1      32.128  22.472  23.493  1.00  0.00    -0.193 NA
ATOM     12  C   UNL A   1      32.115  24.805  24.427  1.00  0.00     0.177 C 
ATOM     13  C   UNL A   1      31.265  23.662  23.859  1.00  0.00     0.131 C 
BRANCH  11  14
ATOM     14  S   UNL A   1      32.360  21.423  24.816  1.00  0.00     0.243 S 
ATOM     15  O   UNL A   1      33.470  21.884  25.616  1.00  0.00    -0.207 OA
ATOM     16  O   UNL A   1      31.052  21.297  25.430  1.00  0.00    -0.207 OA
BRANCH  14  17
ATOM     17  C   UNL A   1      32.806  19.787  24.256  1.00  0.00     0.085 A 
ATOM     18  C   UNL A   1      32.183  19.164  23.167  1.00  0.00     0.025 A 
ATOM     19  C   UNL A   1      33.953  19.205  24.815  1.00  0.00     0.064 A 
ATOM     20  C   UNL A   1      32.652  17.933  22.693  1.00  0.00     0.044 A 
ATOM     21  C   UNL A   1      34.436  18.004  24.308  1.00  0.00     0.160 A 
ATOM     22  C   UNL A   1      33.781  17.361  23.266  1.00  0.00     0.158 A 
ATOM     23  F   UNL A   1      35.562  17.482  24.817  1.00  0.00    -0.204 F 
ATOM     24  F   UNL A   1      34.249  16.202  22.783  1.00  0.00    -0.204 F 
ENDBRANCH  14  17
ENDBRANCH  11  14
ENDBRANCH   7   8
ENDBRANCH   5   7
ENDBRANCH   4   5
ENDBRANCH   3   4
ENDBRANCH   2   3
ENDBRANCH   1   2
BRANCH   1  25
ATOM     25  C   UNL A   1      39.535  19.809  25.767  1.00  0.00     0.202 C 
BRANCH  25  26
ATOM     26  C   UNL A   1      40.896  19.232  26.177  1.00  0.00     0.261 C 
BRANCH  26  27
ATOM     27  O   UNL A   1      41.900  19.608  25.225  1.00  0.00    -0.460 OA
BRANCH  27  28
ATOM     28  C   UNL A   1      43.044  20.083  25.767  1.00  0.00     0.338 C 
ATOM     29  O   UNL A   1      44.170  19.637  25.608  1.00  0.00    -0.246 OA
BRANCH  28  30
ATOM     30  C   UNL A   1      42.777  21.400  26.381  1.00  0.00     0.060 A 
ATOM     31  C   UNL A   1      42.575  22.474  25.504  1.00  0.00     0.016 A 
ATOM     32  C   UNL A   1      42.704  21.589  27.765  1.00  0.00     0.016 A 
ATOM     33  C   UNL A   1      42.386  23.755  26.001  1.00  0.00     0.010 A 
ATOM     34  C   UNL A   1      42.537  22.882  28.268  1.00  0.00     0.010 A 
ATOM     35  C   UNL A   1      42.446  23.969  27.383  1.00  0.00    -0.014 A 
BRANCH  35  36
ATOM     36  C   UNL A   1      42.749  25.340  27.842  1.00  0.00     0.031 A 
ATOM     37  C   UNL A   1      44.170  25.816  27.688  1.00  0.00     0.074 A 
ATOM     38  C   UNL A   1      41.787  26.159  28.296  1.00  0.00     0.049 A 
ATOM     39  N   UNL A   1      44.679  26.997  27.913  1.00  0.00    -0.248 NA
ATOM     40  C   UNL A   1      45.149  24.824  27.205  1.00  0.00     0.031 C 
ATOM     41  C   UNL A   1      40.380  25.801  28.468  1.00  0.00     0.029 A 
ATOM     42  N   UNL A   1      41.857  27.467  28.699  1.00  0.00    -0.354 N 
ATOM     43  C   UNL A   1      46.034  26.882  27.623  1.00  0.00     0.074 A 
ATOM     44  C   UNL A   1      46.275  25.517  27.219  1.00  0.00     0.031 C 
ATOM     45  C   UNL A   1      39.720  26.865  28.959  1.00  0.00     0.029 A 
ATOM     46  C   UNL A   1      40.658  27.972  29.139  1.00  0.00     0.049 A 
ATOM     47  H   UNL A   1      42.688  27.994  28.674  1.00  0.00     0.167 HD
ATOM     48  C   UNL A   1      46.992  27.835  27.668  1.00  0.00     0.034 A 
ATOM     49  C   UNL A   1      40.363  29.192  29.629  1.00  0.00     0.034 A 
ATOM     50  C   UNL A   1      46.738  29.194  28.051  1.00  0.00     0.049 A 
ATOM     51  C   UNL A   1      41.450  30.236  29.673  1.00  0.00     0.074 A 
ATOM     52  C   UNL A   1      47.625  30.253  28.107  1.00  0.00     0.029 A 
ATOM     53  N   UNL A   1      45.504  29.677  28.457  1.00  0.00    -0.354 N 
ATOM     54  N   UNL A   1      42.699  30.149  29.281  1.00  0.00    -0.248 NA
ATOM     55  C   UNL A   1      41.077  31.563  30.185  1.00  0.00     0.031 C 
ATOM     56  C   UNL A   1      46.927  31.376  28.563  1.00  0.00     0.029 A 
ATOM     57  C   UNL A   1      45.603  31.020  28.769  1.00  0.00     0.049 A 
ATOM     58  H   UNL A   1      44.679  29.142  28.515  1.00  0.00     0.167 HD
ATOM     59  C   UNL A   1      43.247  31.414  29.457  1.00  0.00     0.074 A 
ATOM     60  C   UNL A   1      42.188  32.255  29.978  1.00  0.00     0.031 C 
ATOM     61  C   UNL A   1      44.513  31.845  29.224  1.00  0.00     0.034 A 
BRANCH  48  62
ATOM     62  C   UNL A   1      48.387  27.435  27.276  1.00  0.00     0.023 A 
ATOM     63  C   UNL A   1      49.231  26.821  28.223  1.00  0.00     0.012 A 
ATOM     64  C   UNL A   1      48.856  27.648  25.966  1.00  0.00     0.148 A 
ATOM     65  C   UNL A   1      50.533  26.454  27.881  1.00  0.00     0.002 A 
ATOM     66  C   UNL A   1      50.139  27.241  25.620  1.00  0.00     0.091 A 
ATOM     67  F   UNL A   1      48.050  28.265  25.090  1.00  0.00    -0.205 F 
ATOM     68  C   UNL A   1      50.982  26.654  26.578  1.00  0.00     0.022 A 
BRANCH  66  69
ATOM     69  S   UNL A   1      50.783  27.392  23.951  1.00  0.00     0.127 S 
ATOM     70  O   UNL A   1      50.940  28.840  23.825  1.00  0.00    -0.237 OA
ATOM     71  O   UNL A   1      52.039  26.647  24.036  1.00  0.00    -0.237 OA
ATOM     72  O   UNL A   1      49.781  26.792  23.080  1.00  0.00    -0.744 OA
ENDBRANCH  66  69
ENDBRANCH  48  62
BRANCH  49  73
ATOM     73  C   UNL A   1      38.971  29.512  30.053  1.00  0.00     0.023 A 
ATOM     74  C   UNL A   1      38.560  29.221  31.368  1.00  0.00     0.012 A 
ATOM     75  C   UNL A   1      38.058  30.116  29.166  1.00  0.00     0.148 A 
ATOM     76  C   UNL A   1      37.257  29.499  31.785  1.00  0.00     0.002 A 
ATOM     77  C   UNL A   1      36.778  30.438  29.604  1.00  0.00     0.091 A 
ATOM     78  F   UNL A   1      38.461  30.366  27.914  1.00  0.00    -0.205 F 
ATOM     79  C   UNL A   1      36.370  30.116  30.907  1.00  0.00     0.022 A 
BRANCH  77  80
ATOM     80  S   UNL A   1      35.611  31.342  28.579  1.00  0.00     0.127 S 
ATOM     81  O   UNL A   1      34.595  31.730  29.553  1.00  0.00    -0.237 OA
ATOM     82  O   UNL A   1      36.438  32.441  28.077  1.00  0.00    -0.237 OA
ATOM     83  O   UNL A   1      35.181  30.400  27.554  1.00  0.00    -0.744 OA
ENDBRANCH  77  80
ENDBRANCH  49  73
BRANCH  61  84
ATOM     84  C   UNL A   1      44.814  33.297  29.481  1.00  0.00     0.023 A 
ATOM     85  C   UNL A   1      45.315  33.699  30.735  1.00  0.00     0.012 A 
ATOM     86  C   UNL A   1      44.676  34.248  28.451  1.00  0.00     0.148 A 
ATOM     87  C   UNL A   1      45.640  35.034  30.970  1.00  0.00     0.002 A 
ATOM     88  C   UNL A   1      45.049  35.567  28.678  1.00  0.00     0.091 A 
ATOM     89  F   UNL A   1      44.179  33.850  27.271  1.00  0.00    -0.205 F 
ATOM     90  C   UNL A   1      45.519  35.965  29.941  1.00  0.00     0.022 A 
BRANCH  88  91
ATOM     91  S   UNL A   1      45.018  36.800  27.372  1.00  0.00     0.127 S 
ATOM     92  O   UNL A   1      45.576  37.969  28.051  1.00  0.00    -0.237 OA
ATOM     93  O   UNL A   1      45.894  36.208  26.360  1.00  0.00    -0.237 OA
ATOM     94  O   UNL A   1      43.624  36.910  26.966  1.00  0.00    -0.744 OA
ENDBRANCH  88  91
ENDBRANCH  61  84
ENDBRANCH  35  36
ENDBRANCH  28  30
ENDBRANCH  27  28
ENDBRANCH  26  27
ENDBRANCH  25  26
ENDBRANCH   1  25
TORSDOF 20
ENDMDL
MODEL 3
REMARK VINA RESULT:     -11.2      5.148     10.236
REMARK SMILES O=C(C[C@H]1CN(S(=O)(=O)c2ccc(F)c(F)c2)CCO1)OCCOCCOC(=O)c1ccc(-c2c3nc(c(-c4cccc(S(=O)(=O)[O-])c4F)c4ccc([nH]4)c(-c4cccc(S(=O)(=O)[O-])c4F)c4nc(c(-c5cccc(S(=O)(=O)[O-])c5F)c5ccc2[nH]5)C=C4)C=C3)cc1
REMARK SMILES IDX 24 1 23 2 22 3 21 4 2 5 1 6 3 7 4 8 5 9 20 10 6 11 19 12
REMARK SMILES IDX 18 13 7 14 8 15 9 16 10 17 11 18 17 19 12 20 15 21 13 22
REMARK SMILES IDX 16 23 14 24 25 25 26 26 27 27 28 28 29 29 30 30 31 31 92 32
REMARK SMILES IDX 32 33 91 34 33 35 34 36 35 37 85 38 36 39 90 40 84 41 86 42
REMARK SMILES IDX 37 43 89 44 83 45 82 46 38 48 70 49 50 50 69 51 51 52 54 53
REMARK SMILES IDX 68 54 87 55 52 56 53 57 67 59 88 60 55 61 39 62 40 63 48 64
REMARK SMILES IDX 41 65 43 66 49 67 42 68 44 69 45 70 46 71 47 72 71 73 72 74
REMARK SMILES IDX 80 75 73 76 75 77 81 78 74 79 76 80 77 81 78 82 79 83 56 84
REMARK SMILES IDX 57 85 65 86 58 87 60 88 66 89 59 90 61 91 62 92 63 93 64 94
REMARK H PARENT 86 47 54 58
REMARK Flexibility Score: inf
ROOT
ATOM      1  O   UNL A   1      35.722  21.431  25.785  1.00  0.00    -0.374 OA
ENDROOT
BRANCH   1   2
ATOM      2  C   UNL A   1      34.356  21.393  26.219  1.00  0.00     0.202 C 
BRANCH   2   3
ATOM      3  C   UNL A   1      33.348  21.141  25.095  1.00  0.00     0.261 C 
BRANCH   3   4
ATOM      4  O   UNL A   1      33.434  22.171  24.093  1.00  0.00    -0.463 OA
BRANCH   4   5
ATOM      5  C   UNL A   1      32.449  22.394  23.201  1.00  0.00     0.308 C 
ATOM      6  O   UNL A   1      31.969  21.467  22.555  1.00  0.00    -0.252 OA
BRANCH   5   7
ATOM      7  C   UNL A   1      31.969  23.805  23.024  1.00  0.00     0.156 C 
BRANCH   7   8
ATOM      8  C   UNL A   1      32.800  24.651  22.079  1.00  0.00     0.144 C 
ATOM      9  C   UNL A   1      31.999  25.829  21.485  1.00  0.00     0.135 C 
ATOM     10  O   UNL A   1      34.058  25.083  22.599  1.00  0.00    -0.375 OA
ATOM     11  N   UNL A   1      31.876  27.014  22.382  1.00  0.00    -0.193 NA
ATOM     12  C   UNL A   1      33.951  26.171  23.522  1.00  0.00     0.177 C 
ATOM     13  C   UNL A   1      33.264  27.377  22.870  1.00  0.00     0.131 C 
BRANCH  11  14
ATOM     14  S   UNL A   1      30.701  27.212  23.600  1.00  0.00     0.243 S 
ATOM     15  O   UNL A   1      29.663  26.221  23.443  1.00  0.00    -0.207 OA
ATOM     16  O   UNL A   1      31.451  27.260  24.841  1.00  0.00    -0.207 OA
BRANCH  14  17
ATOM     17  C   UNL A   1      29.892  28.796  23.446  1.00  0.00     0.085 A 
ATOM     18  C   UNL A   1      30.221  29.895  24.249  1.00  0.00     0.025 A 
ATOM     19  C   UNL A   1      29.038  28.979  22.349  1.00  0.00     0.064 A 
ATOM     20  C   UNL A   1      29.643  31.147  24.007  1.00  0.00     0.044 A 
ATOM     21  C   UNL A   1      28.502  30.237  22.092  1.00  0.00     0.160 A 
ATOM     22  C   UNL A   1      28.788  31.311  22.925  1.00  0.00     0.158 A 
ATOM     23  F   UNL A   1      27.728  30.412  21.011  1.00  0.00    -0.204 F 
ATOM     24  F   UNL A   1      28.267  32.520  22.674  1.00  0.00    -0.204 F 
ENDBRANCH  14  17
ENDBRANCH  11  14
ENDBRANCH   7   8
ENDBRANCH   5   7
ENDBRANCH   4   5
ENDBRANCH   3   4
ENDBRANCH   2   3
ENDBRANCH   1   2
BRANCH   1  25
ATOM     25  C   UNL A   1      36.128  20.353  24.926  1.00  0.00     0.202 C 
BRANCH  25  26
ATOM     26  C   UNL A   1      37.618  19.993  24.967  1.00  0.00     0.261 C 
BRANCH  26  27
ATOM     27  O   UNL A   1      38.396  21.146  25.316  1.00  0.00    -0.460 OA
BRANCH  27  28
ATOM     28  C   UNL A   1      39.439  20.897  26.140  1.00  0.00     0.338 C 
ATOM     29  O   UNL A   1      40.081  19.861  26.216  1.00  0.00    -0.246 OA
BRANCH  28  30
ATOM     30  C   UNL A   1      39.871  22.163  26.768  1.00  0.00     0.060 A 
ATOM     31  C   UNL A   1      39.195  23.325  26.370  1.00  0.00     0.016 A 
ATOM     32  C   UNL A   1      40.887  22.225  27.726  1.00  0.00     0.016 A 
ATOM     33  C   UNL A   1      39.586  24.561  26.861  1.00  0.00     0.010 A 
ATOM     34  C   UNL A   1      41.299  23.472  28.204  1.00  0.00     0.010 A 
ATOM     35  C   UNL A   1      40.690  24.641  27.718  1.00  0.00    -0.014 A 
BRANCH  35  36
ATOM     36  C   UNL A   1      41.380  25.943  27.812  1.00  0.00     0.031 A 
ATOM     37  C   UNL A   1      40.665  27.045  28.549  1.00  0.00     0.074 A 
ATOM     38  C   UNL A   1      42.623  26.117  27.337  1.00  0.00     0.049 A 
ATOM     39  N   UNL A   1      41.084  28.242  28.862  1.00  0.00    -0.248 NA
ATOM     40  C   UNL A   1      39.293  26.753  29.004  1.00  0.00     0.031 C 
ATOM     41  C   UNL A   1      43.406  25.111  26.622  1.00  0.00     0.029 A 
ATOM     42  N   UNL A   1      43.443  27.213  27.386  1.00  0.00    -0.354 N 
ATOM     43  C   UNL A   1      40.024  28.848  29.527  1.00  0.00     0.074 A 
ATOM     44  C   UNL A   1      38.937  27.898  29.561  1.00  0.00     0.031 C 
ATOM     45  C   UNL A   1      44.593  25.646  26.284  1.00  0.00     0.029 A 
ATOM     46  C   UNL A   1      44.648  27.029  26.754  1.00  0.00     0.049 A 
ATOM     47  H   UNL A   1      43.192  28.054  27.834  1.00  0.00     0.167 HD
ATOM     48  C   UNL A   1      39.965  30.081  30.079  1.00  0.00     0.034 A 
ATOM     49  C   UNL A   1      45.673  27.887  26.582  1.00  0.00     0.034 A 
ATOM     50  C   UNL A   1      41.058  31.010  30.056  1.00  0.00     0.049 A 
ATOM     51  C   UNL A   1      45.582  29.257  27.204  1.00  0.00     0.074 A 
ATOM     52  C   UNL A   1      41.124  32.276  30.607  1.00  0.00     0.029 A 
ATOM     53  N   UNL A   1      42.275  30.774  29.437  1.00  0.00    -0.354 N 
ATOM     54  N   UNL A   1      44.622  29.774  27.933  1.00  0.00    -0.248 NA
ATOM     55  C   UNL A   1      46.736  30.149  27.017  1.00  0.00     0.031 C 
ATOM     56  C   UNL A   1      42.379  32.813  30.306  1.00  0.00     0.029 A 
ATOM     57  C   UNL A   1      43.102  31.871  29.588  1.00  0.00     0.049 A 
ATOM     58  H   UNL A   1      42.516  29.946  28.960  1.00  0.00     0.167 HD
ATOM     59  C   UNL A   1      45.071  31.029  28.327  1.00  0.00     0.074 A 
ATOM     60  C   UNL A   1      46.399  31.188  27.768  1.00  0.00     0.031 C 
ATOM     61  C   UNL A   1      44.443  31.973  29.073  1.00  0.00     0.034 A 
BRANCH  48  62
ATOM     62  C   UNL A   1      38.685  30.474  30.761  1.00  0.00     0.023 A 
ATOM     63  C   UNL A   1      38.486  30.148  32.118  1.00  0.00     0.012 A 
ATOM     64  C   UNL A   1      37.687  31.183  30.067  1.00  0.00     0.148 A 
ATOM     65  C   UNL A   1      37.300  30.494  32.765  1.00  0.00     0.002 A 
ATOM     66  C   UNL A   1      36.525  31.562  30.729  1.00  0.00     0.091 A 
ATOM     67  F   UNL A   1      37.880  31.453  28.768  1.00  0.00    -0.205 F 
ATOM     68  C   UNL A   1      36.325  31.209  32.074  1.00  0.00     0.022 A 
BRANCH  66  69
ATOM     69  S   UNL A   1      35.244  32.546  29.944  1.00  0.00     0.127 S 
ATOM     70  O   UNL A   1      34.789  31.647  28.885  1.00  0.00    -0.237 OA
ATOM     71  O   UNL A   1      34.289  32.735  31.036  1.00  0.00    -0.237 OA
ATOM     72  O   UNL A   1      35.897  33.767  29.493  1.00  0.00    -0.744 OA
ENDBRANCH  66  69
ENDBRANCH  48  62
BRANCH  49  73
ATOM     73  C   UNL A   1      46.896  27.454  25.847  1.00  0.00     0.023 A 
ATOM     74  C   UNL A   1      46.999  27.699  24.464  1.00  0.00     0.012 A 
ATOM     75  C   UNL A   1      47.961  26.817  26.512  1.00  0.00     0.148 A 
ATOM     76  C   UNL A   1      48.128  27.292  23.751  1.00  0.00     0.002 A 
ATOM     77  C   UNL A   1      49.105  26.461  25.806  1.00  0.00     0.091 A 
ATOM     78  F   UNL A   1      47.836  26.574  27.824  1.00  0.00    -0.205 F 
ATOM     79  C   UNL A   1      49.184  26.683  24.423  1.00  0.00     0.022 A 
BRANCH  77  80
ATOM     80  S   UNL A   1      50.560  25.782  26.612  1.00  0.00     0.127 S 
ATOM     81  O   UNL A   1      50.041  24.535  27.168  1.00  0.00    -0.237 OA
ATOM     82  O   UNL A   1      51.481  25.620  25.486  1.00  0.00    -0.237 OA
ATOM     83  O   UNL A   1      50.972  26.786  27.583  1.00  0.00    -0.744 OA
ENDBRANCH  77  80
ENDBRANCH  49  73
BRANCH  61  84
ATOM     84  C   UNL A   1      45.197  33.241  29.371  1.00  0.00     0.023 A 
ATOM     85  C   UNL A   1      46.015  33.320  30.515  1.00  0.00     0.012 A 
ATOM     86  C   UNL A   1      45.154  34.325  28.472  1.00  0.00     0.148 A 
ATOM     87  C   UNL A   1      46.752  34.474  30.778  1.00  0.00     0.002 A 
ATOM     88  C   UNL A   1      45.931  35.452  28.715  1.00  0.00     0.091 A 
ATOM     89  F   UNL A   1      44.355  34.239  27.398  1.00  0.00    -0.205 F 
ATOM     90  C   UNL A   1      46.720  35.533  29.873  1.00  0.00     0.022 A 
BRANCH  88  91
ATOM     91  S   UNL A   1      46.021  36.812  27.546  1.00  0.00     0.127 S 
ATOM     92  O   UNL A   1      46.949  37.722  28.215  1.00  0.00    -0.237 OA
ATOM     93  O   UNL A   1      46.559  36.164  26.349  1.00  0.00    -0.237 OA
ATOM     94  O   UNL A   1      44.655  37.297  27.399  1.00  0.00    -0.744 OA
ENDBRANCH  88  91
ENDBRANCH  61  84
ENDBRANCH  35  36
ENDBRANCH  28  30
ENDBRANCH  27  28
ENDBRANCH  26  27
ENDBRANCH  25  26
ENDBRANCH   1  25
TORSDOF 20
ENDMDL
