MODEL 1
REMARK VINA RESULT:     -11.1      0.000      0.000
REMARK SMILES O=C(CC1(NC(=O)c2ccncc2Cl)CCCCC1)OCCOCCOC(=O)c1ccc(-c2c3nc(c(-c4cccc(S(=O)(=O)[O-])c4F)c4ccc([nH]4)c(-c4cccc(S(=O)(=O)[O-])c4F)c4nc(c(-c5cccc(S(=O)(=O)[O-])c5F)c5ccc2[nH]5)C=C4)C=C3)cc1
REMARK SMILES IDX 23 1 22 2 21 3 20 4 2 5 1 6 3 7 4 8 15 9 19 10 16 11 18 12
REMARK SMILES IDX 17 13 5 14 6 15 7 17 8 18 9 19 13 20 10 21 12 22 14 23 11 24
REMARK SMILES IDX 24 25 25 26 26 27 27 28 28 29 29 30 30 31 91 32 31 33 90 34
REMARK SMILES IDX 32 35 33 36 34 37 84 38 35 39 89 40 83 41 85 42 36 43 88 44
REMARK SMILES IDX 82 45 81 46 37 48 69 49 49 50 68 51 50 52 53 53 67 54 86 55
REMARK SMILES IDX 51 56 52 57 66 59 87 60 54 61 38 62 39 63 47 64 40 65 42 66
REMARK SMILES IDX 48 67 41 68 43 69 44 70 45 71 46 72 70 73 71 74 79 75 72 76
REMARK SMILES IDX 74 77 80 78 73 79 75 80 76 81 77 82 78 83 55 84 56 85 64 86
REMARK SMILES IDX 57 87 59 88 65 89 58 90 60 91 61 92 62 93 63 94
REMARK H PARENT 5 16 85 47 53 58
REMARK Flexibility Score: inf
ROOT
ATOM      1  O   UNL A   1      32.547  30.045  25.710  1.00  0.00    -0.374 OA
ENDROOT
BRANCH   1   2
ATOM      2  C   UNL A   1      32.633  28.881  26.522  1.00  0.00     0.202 C 
BRANCH   2   3
ATOM      3  C   UNL A   1      31.418  27.997  26.382  1.00  0.00     0.261 C 
BRANCH   3   4
ATOM      4  O   UNL A   1      31.529  26.794  27.164  1.00  0.00    -0.463 OA
BRANCH   4   5
ATOM      5  C   UNL A   1      31.933  25.586  26.720  1.00  0.00     0.308 C 
ATOM      6  O   UNL A   1      31.228  24.599  26.939  1.00  0.00    -0.252 OA
BRANCH   5   7
ATOM      7  C   UNL A   1      33.261  25.408  26.009  1.00  0.00     0.151 C 
BRANCH   7   8
ATOM      8  C   UNL A   1      33.508  24.144  25.151  1.00  0.00     0.051 C 
ATOM      9  C   UNL A   1      34.526  24.431  24.003  1.00  0.00     0.029 C 
ATOM     10  C   UNL A   1      34.176  23.034  26.044  1.00  0.00     0.029 C 
ATOM     11  C   UNL A   1      35.075  23.185  23.297  1.00  0.00     0.002 C 
ATOM     12  C   UNL A   1      34.697  21.804  25.316  1.00  0.00     0.002 C 
ATOM     13  C   UNL A   1      35.711  22.211  24.271  1.00  0.00     0.000 C 
BRANCH   8  14
ATOM     14  N   UNL A   1      32.242  23.653  24.495  1.00  0.00    -0.346 N 
ATOM     15  C   UNL A   1      31.295  24.087  23.583  1.00  0.00     0.253 C 
ATOM     16  H   UNL A   1      32.024  22.747  24.811  1.00  0.00     0.164 HD
ATOM     17  O   UNL A   1      30.554  23.208  23.126  1.00  0.00    -0.269 OA
BRANCH  15  18
ATOM     18  C   UNL A   1      30.936  25.484  23.209  1.00  0.00     0.061 A 
ATOM     19  C   UNL A   1      29.733  25.954  23.778  1.00  0.00     0.035 A 
ATOM     20  C   UNL A   1      31.563  26.313  22.284  1.00  0.00     0.072 A 
ATOM     21  C   UNL A   1      29.288  27.241  23.499  1.00  0.00     0.112 A 
ATOM     22  C   UNL A   1      31.053  27.599  22.093  1.00  0.00     0.132 A 
ATOM     23  Cl  UNL A   1      32.852  25.856  21.254  1.00  0.00    -0.082 Cl
ATOM     24  N   UNL A   1      29.942  28.089  22.684  1.00  0.00    -0.263 NA
ENDBRANCH  15  18
ENDBRANCH   8  14
ENDBRANCH   7   8
ENDBRANCH   5   7
ENDBRANCH   4   5
ENDBRANCH   3   4
ENDBRANCH   2   3
ENDBRANCH   1   2
BRANCH   1  25
ATOM     25  C   UNL A   1      31.385  30.846  25.942  1.00  0.00     0.202 C 
BRANCH  25  26
ATOM     26  C   UNL A   1      31.739  32.206  26.542  1.00  0.00     0.261 C 
BRANCH  26  27
ATOM     27  O   UNL A   1      32.669  32.038  27.623  1.00  0.00    -0.460 OA
BRANCH  27  28
ATOM     28  C   UNL A   1      33.640  32.976  27.724  1.00  0.00     0.338 C 
ATOM     29  O   UNL A   1      33.512  34.188  27.658  1.00  0.00    -0.246 OA
BRANCH  28  30
ATOM     30  C   UNL A   1      34.879  32.316  28.192  1.00  0.00     0.060 A 
ATOM     31  C   UNL A   1      34.833  30.935  28.440  1.00  0.00     0.016 A 
ATOM     32  C   UNL A   1      36.082  33.018  28.308  1.00  0.00     0.016 A 
ATOM     33  C   UNL A   1      35.976  30.265  28.861  1.00  0.00     0.010 A 
ATOM     34  C   UNL A   1      37.226  32.349  28.733  1.00  0.00     0.010 A 
ATOM     35  C   UNL A   1      37.161  30.984  29.054  1.00  0.00    -0.014 A 
BRANCH  35  36
ATOM     36  C   UNL A   1      38.273  30.361  29.796  1.00  0.00     0.031 A 
ATOM     37  C   UNL A   1      38.502  30.801  31.215  1.00  0.00     0.074 A 
ATOM     38  C   UNL A   1      39.048  29.432  29.212  1.00  0.00     0.049 A 
ATOM     39  N   UNL A   1      39.437  30.447  32.052  1.00  0.00    -0.248 NA
ATOM     40  C   UNL A   1      37.549  31.788  31.759  1.00  0.00     0.031 C 
ATOM     41  C   UNL A   1      38.903  28.952  27.839  1.00  0.00     0.029 A 
ATOM     42  N   UNL A   1      40.133  28.751  29.696  1.00  0.00    -0.354 N 
ATOM     43  C   UNL A   1      39.202  31.180  33.209  1.00  0.00     0.074 A 
ATOM     44  C   UNL A   1      38.052  32.019  32.962  1.00  0.00     0.031 C 
ATOM     45  C   UNL A   1      39.888  28.076  27.577  1.00  0.00     0.029 A 
ATOM     46  C   UNL A   1      40.743  27.957  28.755  1.00  0.00     0.049 A 
ATOM     47  H   UNL A   1      40.445  28.823  30.628  1.00  0.00     0.167 HD
ATOM     48  C   UNL A   1      39.878  31.143  34.380  1.00  0.00     0.034 A 
ATOM     49  C   UNL A   1      41.882  27.243  28.838  1.00  0.00     0.034 A 
ATOM     50  C   UNL A   1      41.017  30.296  34.606  1.00  0.00     0.049 A 
ATOM     51  C   UNL A   1      42.621  27.225  30.151  1.00  0.00     0.074 A 
ATOM     52  C   UNL A   1      41.769  30.150  35.756  1.00  0.00     0.029 A 
ATOM     53  N   UNL A   1      41.573  29.457  33.651  1.00  0.00    -0.354 N 
ATOM     54  N   UNL A   1      42.333  27.847  31.270  1.00  0.00    -0.248 NA
ATOM     55  C   UNL A   1      43.818  26.378  30.225  1.00  0.00     0.031 C 
ATOM     56  C   UNL A   1      42.799  29.242  35.487  1.00  0.00     0.029 A 
ATOM     57  C   UNL A   1      42.663  28.792  34.183  1.00  0.00     0.049 A 
ATOM     58  H   UNL A   1      41.242  29.351  32.730  1.00  0.00     0.167 HD
ATOM     59  C   UNL A   1      43.292  27.444  32.190  1.00  0.00     0.074 A 
ATOM     60  C   UNL A   1      44.149  26.496  31.503  1.00  0.00     0.031 C 
ATOM     61  C   UNL A   1      43.470  27.829  33.479  1.00  0.00     0.034 A 
BRANCH  48  62
ATOM     62  C   UNL A   1      39.387  32.017  35.504  1.00  0.00     0.023 A 
ATOM     63  C   UNL A   1      38.493  31.491  36.459  1.00  0.00     0.012 A 
ATOM     64  C   UNL A   1      39.846  33.341  35.643  1.00  0.00     0.148 A 
ATOM     65  C   UNL A   1      38.044  32.276  37.521  1.00  0.00     0.002 A 
ATOM     66  C   UNL A   1      39.431  34.101  36.730  1.00  0.00     0.091 A 
ATOM     67  F   UNL A   1      40.675  33.831  34.711  1.00  0.00    -0.205 F 
ATOM     68  C   UNL A   1      38.521  33.575  37.662  1.00  0.00     0.022 A 
BRANCH  66  69
ATOM     69  S   UNL A   1      40.041  35.760  37.047  1.00  0.00     0.127 S 
ATOM     70  O   UNL A   1      39.651  36.459  35.822  1.00  0.00    -0.237 OA
ATOM     71  O   UNL A   1      39.278  36.143  38.236  1.00  0.00    -0.237 OA
ATOM     72  O   UNL A   1      41.476  35.631  37.255  1.00  0.00    -0.744 OA
ENDBRANCH  66  69
ENDBRANCH  48  62
BRANCH  49  73
ATOM     73  C   UNL A   1      42.381  26.481  27.659  1.00  0.00     0.023 A 
ATOM     74  C   UNL A   1      43.209  27.112  26.710  1.00  0.00     0.012 A 
ATOM     75  C   UNL A   1      42.043  25.125  27.477  1.00  0.00     0.148 A 
ATOM     76  C   UNL A   1      43.655  26.421  25.584  1.00  0.00     0.002 A 
ATOM     77  C   UNL A   1      42.541  24.425  26.385  1.00  0.00     0.091 A 
ATOM     78  F   UNL A   1      41.241  24.544  28.380  1.00  0.00    -0.205 F 
ATOM     79  C   UNL A   1      43.331  25.076  25.425  1.00  0.00     0.022 A 
BRANCH  77  80
ATOM     80  S   UNL A   1      42.286  22.659  26.180  1.00  0.00     0.127 S 
ATOM     81  O   UNL A   1      43.013  22.393  24.943  1.00  0.00    -0.237 OA
ATOM     82  O   UNL A   1      42.910  22.122  27.390  1.00  0.00    -0.237 OA
ATOM     83  O   UNL A   1      40.842  22.478  26.122  1.00  0.00    -0.744 OA
ENDBRANCH  77  80
ENDBRANCH  49  73
BRANCH  61  84
ATOM     84  C   UNL A   1      44.612  27.196  34.230  1.00  0.00     0.023 A 
ATOM     85  C   UNL A   1      45.885  27.799  34.215  1.00  0.00     0.012 A 
ATOM     86  C   UNL A   1      44.411  26.020  34.979  1.00  0.00     0.148 A 
ATOM     87  C   UNL A   1      46.956  27.211  34.887  1.00  0.00     0.002 A 
ATOM     88  C   UNL A   1      45.467  25.472  35.694  1.00  0.00     0.091 A 
ATOM     89  F   UNL A   1      43.195  25.454  34.969  1.00  0.00    -0.205 F 
ATOM     90  C   UNL A   1      46.743  26.054  35.634  1.00  0.00     0.022 A 
BRANCH  88  91
ATOM     91  S   UNL A   1      45.262  24.045  36.763  1.00  0.00     0.127 S 
ATOM     92  O   UNL A   1      44.651  23.077  35.853  1.00  0.00    -0.237 OA
ATOM     93  O   UNL A   1      46.642  23.740  37.141  1.00  0.00    -0.237 OA
ATOM     94  O   UNL A   1      44.419  24.487  37.865  1.00  0.00    -0.744 OA
ENDBRANCH  88  91
ENDBRANCH  61  84
ENDBRANCH  35  36
ENDBRANCH  28  30
ENDBRANCH  27  28
ENDBRANCH  26  27
ENDBRANCH  25  26
ENDBRANCH   1  25
TORSDOF 20
ENDMDL
MODEL 2
REMARK VINA RESULT:     -11.0      1.604      8.207
REMARK SMILES O=C(CC1(NC(=O)c2ccncc2Cl)CCCCC1)OCCOCCOC(=O)c1ccc(-c2c3nc(c(-c4cccc(S(=O)(=O)[O-])c4F)c4ccc([nH]4)c(-c4cccc(S(=O)(=O)[O-])c4F)c4nc(c(-c5cccc(S(=O)(=O)[O-])c5F)c5ccc2[nH]5)C=C4)C=C3)cc1
REMARK SMILES IDX 23 1 22 2 21 3 20 4 2 5 1 6 3 7 4 8 15 9 19 10 16 11 18 12
REMARK SMILES IDX 17 13 5 14 6 15 7 17 8 18 9 19 13 20 10 21 12 22 14 23 11 24
REMARK SMILES IDX 24 25 25 26 26 27 27 28 28 29 29 30 30 31 91 32 31 33 90 34
REMARK SMILES IDX 32 35 33 36 34 37 84 38 35 39 89 40 83 41 85 42 36 43 88 44
REMARK SMILES IDX 82 45 81 46 37 48 69 49 49 50 68 51 50 52 53 53 67 54 86 55
REMARK SMILES IDX 51 56 52 57 66 59 87 60 54 61 38 62 39 63 47 64 40 65 42 66
REMARK SMILES IDX 48 67 41 68 43 69 44 70 45 71 46 72 70 73 71 74 79 75 72 76
REMARK SMILES IDX 74 77 80 78 73 79 75 80 76 81 77 82 78 83 55 84 56 85 64 86
REMARK SMILES IDX 57 87 59 88 65 89 58 90 60 91 61 92 62 93 63 94
REMARK H PARENT 5 16 85 47 53 58
REMARK Flexibility Score: inf
ROOT
ATOM      1  O   UNL A   1      30.120  29.408  24.043  1.00  0.00    -0.374 OA
ENDROOT
BRANCH   1   2
ATOM      2  C   UNL A   1      29.961  28.451  23.004  1.00  0.00     0.202 C 
BRANCH   2   3
ATOM      3  C   UNL A   1      31.252  28.183  22.272  1.00  0.00     0.261 C 
BRANCH   3   4
ATOM      4  O   UNL A   1      31.210  26.949  21.532  1.00  0.00    -0.463 OA
BRANCH   4   5
ATOM      5  C   UNL A   1      32.173  26.006  21.493  1.00  0.00     0.308 C 
ATOM      6  O   UNL A   1      32.987  26.016  20.568  1.00  0.00    -0.252 OA
BRANCH   5   7
ATOM      7  C   UNL A   1      32.240  24.902  22.531  1.00  0.00     0.151 C 
BRANCH   7   8
ATOM      8  C   UNL A   1      33.052  25.119  23.830  1.00  0.00     0.051 C 
ATOM      9  C   UNL A   1      33.503  26.606  23.971  1.00  0.00     0.029 C 
ATOM     10  C   UNL A   1      32.130  24.834  25.072  1.00  0.00     0.029 C 
ATOM     11  C   UNL A   1      34.036  26.994  25.357  1.00  0.00     0.002 C 
ATOM     12  C   UNL A   1      32.692  25.214  26.433  1.00  0.00     0.002 C 
ATOM     13  C   UNL A   1      33.038  26.687  26.458  1.00  0.00     0.000 C 
BRANCH   8  14
ATOM     14  N   UNL A   1      34.306  24.282  23.856  1.00  0.00    -0.346 N 
ATOM     15  C   UNL A   1      34.678  22.949  23.905  1.00  0.00     0.253 C 
ATOM     16  H   UNL A   1      35.103  24.859  23.828  1.00  0.00     0.164 HD
ATOM     17  O   UNL A   1      35.859  22.715  23.622  1.00  0.00    -0.269 OA
BRANCH  15  18
ATOM     18  C   UNL A   1      33.901  21.785  24.416  1.00  0.00     0.061 A 
ATOM     19  C   UNL A   1      33.010  21.217  23.480  1.00  0.00     0.035 A 
ATOM     20  C   UNL A   1      33.855  21.286  25.714  1.00  0.00     0.072 A 
ATOM     21  C   UNL A   1      32.224  20.129  23.839  1.00  0.00     0.112 A 
ATOM     22  C   UNL A   1      33.052  20.172  25.968  1.00  0.00     0.132 A 
ATOM     23  Cl  UNL A   1      34.612  21.993  27.077  1.00  0.00    -0.082 Cl
ATOM     24  N   UNL A   1      32.246  19.573  25.065  1.00  0.00    -0.263 NA
ENDBRANCH  15  18
ENDBRANCH   8  14
ENDBRANCH   7   8
ENDBRANCH   5   7
ENDBRANCH   4   5
ENDBRANCH   3   4
ENDBRANCH   2   3
ENDBRANCH   1   2
BRANCH   1  25
ATOM     25  C   UNL A   1      31.446  29.497  24.570  1.00  0.00     0.202 C 
BRANCH  25  26
ATOM     26  C   UNL A   1      31.521  30.428  25.780  1.00  0.00     0.261 C 
BRANCH  26  27
ATOM     27  O   UNL A   1      32.804  30.307  26.412  1.00  0.00    -0.460 OA
BRANCH  27  28
ATOM     28  C   UNL A   1      33.231  31.389  27.105  1.00  0.00     0.338 C 
ATOM     29  O   UNL A   1      32.583  32.377  27.413  1.00  0.00    -0.246 OA
BRANCH  28  30
ATOM     30  C   UNL A   1      34.565  31.085  27.669  1.00  0.00     0.060 A 
ATOM     31  C   UNL A   1      34.885  29.740  27.908  1.00  0.00     0.016 A 
ATOM     32  C   UNL A   1      35.513  32.090  27.883  1.00  0.00     0.016 A 
ATOM     33  C   UNL A   1      36.133  29.402  28.418  1.00  0.00     0.010 A 
ATOM     34  C   UNL A   1      36.762  31.752  28.397  1.00  0.00     0.010 A 
ATOM     35  C   UNL A   1      37.054  30.415  28.708  1.00  0.00    -0.014 A 
BRANCH  35  36
ATOM     36  C   UNL A   1      38.235  30.105  29.536  1.00  0.00     0.031 A 
ATOM     37  C   UNL A   1      39.244  29.140  28.980  1.00  0.00     0.074 A 
ATOM     38  C   UNL A   1      38.390  30.672  30.744  1.00  0.00     0.049 A 
ATOM     39  N   UNL A   1      40.330  28.669  29.529  1.00  0.00    -0.248 NA
ATOM     40  C   UNL A   1      38.987  28.629  27.620  1.00  0.00     0.031 C 
ATOM     41  C   UNL A   1      37.456  31.611  31.363  1.00  0.00     0.029 A 
ATOM     42  N   UNL A   1      39.379  30.512  31.677  1.00  0.00    -0.354 N 
ATOM     43  C   UNL A   1      40.871  27.791  28.598  1.00  0.00     0.074 A 
ATOM     44  C   UNL A   1      39.985  27.774  27.456  1.00  0.00     0.031 C 
ATOM     45  C   UNL A   1      37.900  31.918  32.594  1.00  0.00     0.029 A 
ATOM     46  C   UNL A   1      39.133  31.179  32.853  1.00  0.00     0.049 A 
ATOM     47  H   UNL A   1      40.189  29.972  31.520  1.00  0.00     0.167 HD
ATOM     48  C   UNL A   1      42.016  27.076  28.682  1.00  0.00     0.034 A 
ATOM     49  C   UNL A   1      39.816  31.161  34.013  1.00  0.00     0.034 A 
ATOM     50  C   UNL A   1      42.886  27.113  29.825  1.00  0.00     0.049 A 
ATOM     51  C   UNL A   1      41.084  30.350  34.083  1.00  0.00     0.074 A 
ATOM     52  C   UNL A   1      44.085  26.455  30.018  1.00  0.00     0.029 A 
ATOM     53  N   UNL A   1      42.639  27.847  30.976  1.00  0.00    -0.354 N 
ATOM     54  N   UNL A   1      41.638  29.599  33.159  1.00  0.00    -0.248 NA
ATOM     55  C   UNL A   1      41.841  30.412  35.340  1.00  0.00     0.031 C 
ATOM     56  C   UNL A   1      44.550  26.770  31.300  1.00  0.00     0.029 A 
ATOM     57  C   UNL A   1      43.661  27.656  31.888  1.00  0.00     0.049 A 
ATOM     58  H   UNL A   1      41.851  28.419  31.123  1.00  0.00     0.167 HD
ATOM     59  C   UNL A   1      42.822  29.126  33.710  1.00  0.00     0.074 A 
ATOM     60  C   UNL A   1      42.920  29.704  35.037  1.00  0.00     0.031 C 
ATOM     61  C   UNL A   1      43.741  28.277  33.185  1.00  0.00     0.034 A 
BRANCH  48  62
ATOM     62  C   UNL A   1      42.401  26.223  27.502  1.00  0.00     0.023 A 
ATOM     63  C   UNL A   1      43.160  26.783  26.453  1.00  0.00     0.012 A 
ATOM     64  C   UNL A   1      42.055  24.859  27.452  1.00  0.00     0.148 A 
ATOM     65  C   UNL A   1      43.547  26.004  25.362  1.00  0.00     0.002 A 
ATOM     66  C   UNL A   1      42.484  24.079  26.385  1.00  0.00     0.091 A 
ATOM     67  F   UNL A   1      41.311  24.352  28.446  1.00  0.00    -0.205 F 
ATOM     68  C   UNL A   1      43.220  24.652  25.334  1.00  0.00     0.022 A 
BRANCH  66  69
ATOM     69  S   UNL A   1      42.180  22.312  26.286  1.00  0.00     0.127 S 
ATOM     70  O   UNL A   1      40.720  22.267  26.208  1.00  0.00    -0.237 OA
ATOM     71  O   UNL A   1      42.868  21.954  25.045  1.00  0.00    -0.237 OA
ATOM     72  O   UNL A   1      42.753  21.734  27.493  1.00  0.00    -0.744 OA
ENDBRANCH  66  69
ENDBRANCH  48  62
BRANCH  49  73
ATOM     73  C   UNL A   1      39.330  31.940  35.186  1.00  0.00     0.023 A 
ATOM     74  C   UNL A   1      38.430  31.355  36.098  1.00  0.00     0.012 A 
ATOM     75  C   UNL A   1      39.765  33.262  35.407  1.00  0.00     0.148 A 
ATOM     76  C   UNL A   1      37.940  32.084  37.181  1.00  0.00     0.002 A 
ATOM     77  C   UNL A   1      39.320  33.962  36.522  1.00  0.00     0.091 A 
ATOM     78  F   UNL A   1      40.608  33.810  34.521  1.00  0.00    -0.205 F 
ATOM     79  C   UNL A   1      38.392  33.383  37.400  1.00  0.00     0.022 A 
BRANCH  77  80
ATOM     80  S   UNL A   1      39.957  35.585  36.953  1.00  0.00     0.127 S 
ATOM     81  O   UNL A   1      39.275  35.850  38.216  1.00  0.00    -0.237 OA
ATOM     82  O   UNL A   1      41.393  35.324  37.069  1.00  0.00    -0.237 OA
ATOM     83  O   UNL A   1      39.596  36.454  35.840  1.00  0.00    -0.744 OA
ENDBRANCH  77  80
ENDBRANCH  49  73
BRANCH  61  84
ATOM     84  C   UNL A   1      44.941  27.956  34.038  1.00  0.00     0.023 A 
ATOM     85  C   UNL A   1      46.090  28.769  33.969  1.00  0.00     0.012 A 
ATOM     86  C   UNL A   1      44.913  26.869  34.932  1.00  0.00     0.148 A 
ATOM     87  C   UNL A   1      47.216  28.469  34.736  1.00  0.00     0.002 A 
ATOM     88  C   UNL A   1      46.016  26.612  35.736  1.00  0.00     0.091 A 
ATOM     89  F   UNL A   1      43.815  26.100  34.972  1.00  0.00    -0.205 F 
ATOM     90  C   UNL A   1      47.174  27.398  35.625  1.00  0.00     0.022 A 
BRANCH  88  91
ATOM     91  S   UNL A   1      46.014  25.318  36.980  1.00  0.00     0.127 S 
ATOM     92  O   UNL A   1      46.027  24.112  36.155  1.00  0.00    -0.237 OA
ATOM     93  O   UNL A   1      47.260  25.579  37.701  1.00  0.00    -0.237 OA
ATOM     94  O   UNL A   1      44.807  25.524  37.770  1.00  0.00    -0.744 OA
ENDBRANCH  88  91
ENDBRANCH  61  84
ENDBRANCH  35  36
ENDBRANCH  28  30
ENDBRANCH  27  28
ENDBRANCH  26  27
ENDBRANCH  25  26
ENDBRANCH   1  25
TORSDOF 20
ENDMDL
MODEL 3
REMARK VINA RESULT:     -10.8      1.527      2.867
REMARK SMILES O=C(CC1(NC(=O)c2ccncc2Cl)CCCCC1)OCCOCCOC(=O)c1ccc(-c2c3nc(c(-c4cccc(S(=O)(=O)[O-])c4F)c4ccc([nH]4)c(-c4cccc(S(=O)(=O)[O-])c4F)c4nc(c(-c5cccc(S(=O)(=O)[O-])c5F)c5ccc2[nH]5)C=C4)C=C3)cc1
REMARK SMILES IDX 23 1 22 2 21 3 20 4 2 5 1 6 3 7 4 8 15 9 19 10 16 11 18 12
REMARK SMILES IDX 17 13 5 14 6 15 7 17 8 18 9 19 13 20 10 21 12 22 14 23 11 24
REMARK SMILES IDX 24 25 25 26 26 27 27 28 28 29 29 30 30 31 91 32 31 33 90 34
REMARK SMILES IDX 32 35 33 36 34 37 84 38 35 39 89 40 83 41 85 42 36 43 88 44
REMARK SMILES IDX 82 45 81 46 37 48 69 49 49 50 68 51 50 52 53 53 67 54 86 55
REMARK SMILES IDX 51 56 52 57 66 59 87 60 54 61 38 62 39 63 47 64 40 65 42 66
REMARK SMILES IDX 48 67 41 68 43 69 44 70 45 71 46 72 70 73 71 74 79 75 72 76
REMARK SMILES IDX 74 77 80 78 73 79 75 80 76 81 77 82 78 83 55 84 56 85 64 86
REMARK SMILES IDX 57 87 59 88 65 89 58 90 60 91 61 92 62 93 63 94
REMARK H PARENT 5 16 85 47 53 58
REMARK Flexibility Score: inf
ROOT
ATOM      1  O   UNL A   1      33.000  29.630  24.867  1.00  0.00    -0.374 OA
ENDROOT
BRANCH   1   2
ATOM      2  C   UNL A   1      33.116  28.359  24.241  1.00  0.00     0.202 C 
BRANCH   2   3
ATOM      3  C   UNL A   1      33.092  28.460  22.736  1.00  0.00     0.261 C 
BRANCH   3   4
ATOM      4  O   UNL A   1      32.324  27.402  22.134  1.00  0.00    -0.463 OA
BRANCH   4   5
ATOM      5  C   UNL A   1      32.623  26.086  22.152  1.00  0.00     0.308 C 
ATOM      6  O   UNL A   1      33.687  25.705  21.662  1.00  0.00    -0.252 OA
BRANCH   5   7
ATOM      7  C   UNL A   1      31.652  25.064  22.711  1.00  0.00     0.151 C 
BRANCH   7   8
ATOM      8  C   UNL A   1      32.108  24.113  23.843  1.00  0.00     0.051 C 
ATOM      9  C   UNL A   1      30.896  23.635  24.703  1.00  0.00     0.029 C 
ATOM     10  C   UNL A   1      32.720  22.809  23.209  1.00  0.00     0.029 C 
ATOM     11  C   UNL A   1      31.190  22.458  25.641  1.00  0.00     0.002 C 
ATOM     12  C   UNL A   1      33.015  21.665  24.168  1.00  0.00     0.002 C 
ATOM     13  C   UNL A   1      31.752  21.261  24.897  1.00  0.00     0.000 C 
BRANCH   8  14
ATOM     14  N   UNL A   1      33.072  24.784  24.788  1.00  0.00    -0.346 N 
ATOM     15  C   UNL A   1      34.402  24.702  25.167  1.00  0.00     0.253 C 
ATOM     16  H   UNL A   1      32.618  25.500  25.288  1.00  0.00     0.164 HD
ATOM     17  O   UNL A   1      34.835  25.671  25.802  1.00  0.00    -0.269 OA
BRANCH  15  18
ATOM     18  C   UNL A   1      35.328  23.539  25.062  1.00  0.00     0.061 A 
ATOM     19  C   UNL A   1      36.039  23.462  23.846  1.00  0.00     0.035 A 
ATOM     20  C   UNL A   1      35.474  22.476  25.948  1.00  0.00     0.072 A 
ATOM     21  C   UNL A   1      36.929  22.418  23.626  1.00  0.00     0.112 A 
ATOM     22  C   UNL A   1      36.415  21.488  25.648  1.00  0.00     0.132 A 
ATOM     23  Cl  UNL A   1      34.509  22.198  27.335  1.00  0.00    -0.082 Cl
ATOM     24  N   UNL A   1      37.154  21.437  24.520  1.00  0.00    -0.263 NA
ENDBRANCH  15  18
ENDBRANCH   8  14
ENDBRANCH   7   8
ENDBRANCH   5   7
ENDBRANCH   4   5
ENDBRANCH   3   4
ENDBRANCH   2   3
ENDBRANCH   1   2
BRANCH   1  25
ATOM     25  C   UNL A   1      31.667  29.987  25.243  1.00  0.00     0.202 C 
BRANCH  25  26
ATOM     26  C   UNL A   1      31.647  31.105  26.285  1.00  0.00     0.261 C 
BRANCH  26  27
ATOM     27  O   UNL A   1      32.646  30.860  27.287  1.00  0.00    -0.460 OA
BRANCH  27  28
ATOM     28  C   UNL A   1      33.485  31.888  27.556  1.00  0.00     0.338 C 
ATOM     29  O   UNL A   1      33.210  33.077  27.608  1.00  0.00    -0.246 OA
BRANCH  28  30
ATOM     30  C   UNL A   1      34.766  31.329  28.040  1.00  0.00     0.060 A 
ATOM     31  C   UNL A   1      34.820  29.955  28.316  1.00  0.00     0.016 A 
ATOM     32  C   UNL A   1      35.915  32.120  28.143  1.00  0.00     0.016 A 
ATOM     33  C   UNL A   1      36.007  29.379  28.753  1.00  0.00     0.010 A 
ATOM     34  C   UNL A   1      37.103  31.545  28.584  1.00  0.00     0.010 A 
ATOM     35  C   UNL A   1      37.136  30.186  28.934  1.00  0.00    -0.014 A 
BRANCH  35  36
ATOM     36  C   UNL A   1      38.288  29.661  29.691  1.00  0.00     0.031 A 
ATOM     37  C   UNL A   1      38.503  30.177  31.085  1.00  0.00     0.074 A 
ATOM     38  C   UNL A   1      39.111  28.752  29.140  1.00  0.00     0.049 A 
ATOM     39  N   UNL A   1      39.463  29.915  31.928  1.00  0.00    -0.248 NA
ATOM     40  C   UNL A   1      37.500  31.131  31.596  1.00  0.00     0.031 C 
ATOM     41  C   UNL A   1      38.982  28.203  27.791  1.00  0.00     0.029 A 
ATOM     42  N   UNL A   1      40.236  28.157  29.642  1.00  0.00    -0.354 N 
ATOM     43  C   UNL A   1      39.197  30.684  33.053  1.00  0.00     0.074 A 
ATOM     44  C   UNL A   1      37.998  31.444  32.782  1.00  0.00     0.031 C 
ATOM     45  C   UNL A   1      40.013  27.374  27.558  1.00  0.00     0.029 A 
ATOM     46  C   UNL A   1      40.883  27.357  28.731  1.00  0.00     0.049 A 
ATOM     47  H   UNL A   1      40.552  28.288  30.567  1.00  0.00     0.167 HD
ATOM     48  C   UNL A   1      39.883  30.738  34.218  1.00  0.00     0.034 A 
ATOM     49  C   UNL A   1      42.061  26.713  28.833  1.00  0.00     0.034 A 
ATOM     50  C   UNL A   1      41.071  29.969  34.469  1.00  0.00     0.049 A 
ATOM     51  C   UNL A   1      42.811  26.796  30.137  1.00  0.00     0.074 A 
ATOM     52  C   UNL A   1      41.839  29.917  35.616  1.00  0.00     0.029 A 
ATOM     53  N   UNL A   1      41.666  29.120  33.546  1.00  0.00    -0.354 N 
ATOM     54  N   UNL A   1      42.497  27.451  31.231  1.00  0.00    -0.248 NA
ATOM     55  C   UNL A   1      44.055  26.022  30.237  1.00  0.00     0.031 C 
ATOM     56  C   UNL A   1      42.917  29.058  35.376  1.00  0.00     0.029 A 
ATOM     57  C   UNL A   1      42.796  28.542  34.095  1.00  0.00     0.049 A 
ATOM     58  H   UNL A   1      41.333  28.954  32.635  1.00  0.00     0.167 HD
ATOM     59  C   UNL A   1      43.486  27.144  32.158  1.00  0.00     0.074 A 
ATOM     60  C   UNL A   1      44.389  26.217  31.504  1.00  0.00     0.031 C 
ATOM     61  C   UNL A   1      43.652  27.596  33.426  1.00  0.00     0.034 A 
BRANCH  48  62
ATOM     62  C   UNL A   1      39.352  31.633  35.307  1.00  0.00     0.023 A 
ATOM     63  C   UNL A   1      38.424  31.123  36.238  1.00  0.00     0.012 A 
ATOM     64  C   UNL A   1      39.806  32.959  35.439  1.00  0.00     0.148 A 
ATOM     65  C   UNL A   1      37.936  31.928  37.269  1.00  0.00     0.002 A 
ATOM     66  C   UNL A   1      39.352  33.739  36.495  1.00  0.00     0.091 A 
ATOM     67  F   UNL A   1      40.669  33.432  34.528  1.00  0.00    -0.205 F 
ATOM     68  C   UNL A   1      38.409  33.230  37.404  1.00  0.00     0.022 A 
BRANCH  66  69
ATOM     69  S   UNL A   1      39.951  35.404  36.804  1.00  0.00     0.127 S 
ATOM     70  O   UNL A   1      41.396  35.190  36.875  1.00  0.00    -0.237 OA
ATOM     71  O   UNL A   1      39.499  36.116  35.608  1.00  0.00    -0.237 OA
ATOM     72  O   UNL A   1      39.328  35.835  38.047  1.00  0.00    -0.744 OA
ENDBRANCH  66  69
ENDBRANCH  48  62
BRANCH  49  73
ATOM     73  C   UNL A   1      42.594  25.928  27.683  1.00  0.00     0.023 A 
ATOM     74  C   UNL A   1      43.561  26.494  26.831  1.00  0.00     0.012 A 
ATOM     75  C   UNL A   1      42.149  24.614  27.436  1.00  0.00     0.148 A 
ATOM     76  C   UNL A   1      44.043  25.785  25.731  1.00  0.00     0.002 A 
ATOM     77  C   UNL A   1      42.678  23.890  26.375  1.00  0.00     0.091 A 
ATOM     78  F   UNL A   1      41.217  24.096  28.248  1.00  0.00    -0.205 F 
ATOM     79  C   UNL A   1      43.610  24.480  25.508  1.00  0.00     0.022 A 
BRANCH  77  80
ATOM     80  S   UNL A   1      42.279  22.161  26.100  1.00  0.00     0.127 S 
ATOM     81  O   UNL A   1      42.578  21.574  27.403  1.00  0.00    -0.237 OA
ATOM     82  O   UNL A   1      40.855  22.230  25.767  1.00  0.00    -0.237 OA
ATOM     83  O   UNL A   1      43.131  21.733  24.998  1.00  0.00    -0.744 OA
ENDBRANCH  77  80
ENDBRANCH  49  73
BRANCH  61  84
ATOM     84  C   UNL A   1      44.834  27.063  34.192  1.00  0.00     0.023 A 
ATOM     85  C   UNL A   1      46.064  27.748  34.153  1.00  0.00     0.012 A 
ATOM     86  C   UNL A   1      44.712  25.901  34.979  1.00  0.00     0.148 A 
ATOM     87  C   UNL A   1      47.172  27.253  34.840  1.00  0.00     0.002 A 
ATOM     88  C   UNL A   1      45.803  25.446  35.707  1.00  0.00     0.091 A 
ATOM     89  F   UNL A   1      43.536  25.256  34.991  1.00  0.00    -0.205 F 
ATOM     90  C   UNL A   1      47.038  26.109  35.623  1.00  0.00     0.022 A 
BRANCH  88  91
ATOM     91  S   UNL A   1      45.694  24.043  36.821  1.00  0.00     0.127 S 
ATOM     92  O   UNL A   1      47.055  23.980  37.353  1.00  0.00    -0.237 OA
ATOM     93  O   UNL A   1      44.683  24.487  37.780  1.00  0.00    -0.237 OA
ATOM     94  O   UNL A   1      45.290  22.910  36.000  1.00  0.00    -0.744 OA
ENDBRANCH  88  91
ENDBRANCH  61  84
ENDBRANCH  35  36
ENDBRANCH  28  30
ENDBRANCH  27  28
ENDBRANCH  26  27
ENDBRANCH  25  26
ENDBRANCH   1  25
TORSDOF 20
ENDMDL
