MODEL 1
REMARK VINA RESULT:     -10.2      0.000      0.000
REMARK SMILES O=C(OCCOCCOC(=O)[C@H]1[NH2+][C@@H]2CC[C@H]1CC2(F)F)c1ccc(-c2c3nc(c(-c4cccc(S(=O)(=O)[O-])c4F)c4ccc([nH]4)c(-c4cccc(S(=O)(=O)[O-])c4F)c4nc(c(-c5cccc(S(=O)(=O)[O-])c5F)c5ccc2[nH]5)C=C4)C=C3)cc1
REMARK SMILES IDX 4 1 3 2 2 3 1 4 22 5 23 6 84 7 24 8 83 9 25 10 26 11 27 12
REMARK SMILES IDX 77 13 28 14 82 15 76 16 78 17 29 18 81 19 75 20 74 21 30 23
REMARK SMILES IDX 62 24 42 25 61 26 43 27 46 28 60 29 79 30 44 31 45 32 59 34
REMARK SMILES IDX 80 35 47 36 31 37 32 38 40 39 33 40 35 41 41 42 34 43 36 44
REMARK SMILES IDX 37 45 38 46 39 47 63 48 64 49 72 50 65 51 67 52 73 53 66 54
REMARK SMILES IDX 68 55 69 56 70 57 71 58 48 59 49 60 57 61 50 62 52 63 58 64
REMARK SMILES IDX 51 65 53 66 54 67 55 68 56 69 5 70 6 71 7 72 8 73 9 74 10 75
REMARK SMILES IDX 11 76 12 77 13 78 17 79 14 80 16 83 18 84 15 85 19 86 20 87
REMARK SMILES IDX 21 88
REMARK H PARENT 78 22 46 33 13 81 13 82
REMARK Flexibility Score: inf
ROOT
ATOM      1  C   UNL A   1      39.992  20.693  25.835  1.00  0.00     0.261 C 
ENDROOT
BRANCH   1   2
ATOM      2  O   UNL A   1      39.745  21.790  26.737  1.00  0.00    -0.460 OA
BRANCH   2   3
ATOM      3  C   UNL A   1      39.074  22.941  26.441  1.00  0.00     0.338 C 
ATOM      4  O   UNL A   1      38.190  22.931  25.591  1.00  0.00    -0.246 OA
BRANCH   3   5
ATOM      5  C   UNL A   1      39.443  24.229  27.096  1.00  0.00     0.060 A 
ATOM      6  C   UNL A   1      39.895  25.308  26.355  1.00  0.00     0.016 A 
ATOM      7  C   UNL A   1      39.268  24.420  28.469  1.00  0.00     0.016 A 
ATOM      8  C   UNL A   1      40.314  26.480  26.907  1.00  0.00     0.010 A 
ATOM      9  C   UNL A   1      39.576  25.663  29.047  1.00  0.00     0.010 A 
ATOM     10  C   UNL A   1      40.109  26.688  28.254  1.00  0.00    -0.014 A 
BRANCH  10  11
ATOM     11  C   UNL A   1      40.586  27.992  28.721  1.00  0.00     0.031 A 
ATOM     12  C   UNL A   1      42.025  28.315  28.516  1.00  0.00     0.074 A 
ATOM     13  C   UNL A   1      39.669  28.932  29.030  1.00  0.00     0.049 A 
ATOM     14  N   UNL A   1      42.661  29.418  28.783  1.00  0.00    -0.248 NA
ATOM     15  C   UNL A   1      42.859  27.267  27.894  1.00  0.00     0.031 C 
ATOM     16  C   UNL A   1      38.211  28.721  29.047  1.00  0.00     0.029 A 
ATOM     17  N   UNL A   1      39.808  30.259  29.323  1.00  0.00    -0.354 N 
ATOM     18  C   UNL A   1      43.978  29.179  28.423  1.00  0.00     0.074 A 
ATOM     19  C   UNL A   1      44.051  27.839  27.890  1.00  0.00     0.031 C 
ATOM     20  C   UNL A   1      37.599  29.881  29.326  1.00  0.00     0.029 A 
ATOM     21  C   UNL A   1      38.614  30.885  29.599  1.00  0.00     0.049 A 
ATOM     22  H   UNL A   1      40.677  30.721  29.335  1.00  0.00     0.167 HD
ATOM     23  C   UNL A   1      45.027  30.018  28.546  1.00  0.00     0.034 A 
ATOM     24  C   UNL A   1      38.387  32.119  30.082  1.00  0.00     0.034 A 
ATOM     25  C   UNL A   1      44.901  31.344  29.078  1.00  0.00     0.049 A 
ATOM     26  C   UNL A   1      39.592  32.988  30.313  1.00  0.00     0.074 A 
ATOM     27  C   UNL A   1      45.893  32.265  29.347  1.00  0.00     0.029 A 
ATOM     28  N   UNL A   1      43.692  31.933  29.427  1.00  0.00    -0.354 N 
ATOM     29  N   UNL A   1      40.849  32.744  30.024  1.00  0.00    -0.248 NA
ATOM     30  C   UNL A   1      39.354  34.299  30.923  1.00  0.00     0.031 C 
ATOM     31  C   UNL A   1      45.284  33.400  29.891  1.00  0.00     0.029 A 
ATOM     32  C   UNL A   1      43.910  33.205  29.918  1.00  0.00     0.049 A 
ATOM     33  H   UNL A   1      42.810  31.505  29.340  1.00  0.00     0.167 HD
ATOM     34  C   UNL A   1      41.554  33.878  30.397  1.00  0.00     0.074 A 
ATOM     35  C   UNL A   1      40.572  34.824  30.896  1.00  0.00     0.031 C 
ATOM     36  C   UNL A   1      42.887  34.119  30.362  1.00  0.00     0.034 A 
BRANCH  23  37
ATOM     37  C   UNL A   1      46.377  29.485  28.165  1.00  0.00     0.023 A 
ATOM     38  C   UNL A   1      46.880  29.676  26.864  1.00  0.00     0.012 A 
ATOM     39  C   UNL A   1      47.138  28.766  29.107  1.00  0.00     0.148 A 
ATOM     40  C   UNL A   1      48.112  29.135  26.497  1.00  0.00     0.002 A 
ATOM     41  C   UNL A   1      48.383  28.269  28.749  1.00  0.00     0.091 A 
ATOM     42  F   UNL A   1      46.618  28.565  30.326  1.00  0.00    -0.205 F 
ATOM     43  C   UNL A   1      48.867  28.441  27.441  1.00  0.00     0.022 A 
BRANCH  41  44
ATOM     44  S   UNL A   1      49.453  27.411  29.907  1.00  0.00     0.127 S 
ATOM     45  O   UNL A   1      50.664  27.225  29.109  1.00  0.00    -0.237 OA
ATOM     46  O   UNL A   1      49.576  28.392  30.985  1.00  0.00    -0.237 OA
ATOM     47  O   UNL A   1      48.758  26.183  30.268  1.00  0.00    -0.744 OA
ENDBRANCH  41  44
ENDBRANCH  23  37
BRANCH  24  48
ATOM     48  C   UNL A   1      37.011  32.565  30.447  1.00  0.00     0.023 A 
ATOM     49  C   UNL A   1      36.528  32.381  31.756  1.00  0.00     0.012 A 
ATOM     50  C   UNL A   1      36.159  33.147  29.483  1.00  0.00     0.148 A 
ATOM     51  C   UNL A   1      35.212  32.718  32.084  1.00  0.00     0.002 A 
ATOM     52  C   UNL A   1      34.872  33.537  29.832  1.00  0.00     0.091 A 
ATOM     53  F   UNL A   1      36.620  33.298  28.233  1.00  0.00    -0.205 F 
ATOM     54  C   UNL A   1      34.387  33.302  31.125  1.00  0.00     0.022 A 
BRANCH  52  55
ATOM     55  S   UNL A   1      33.792  34.405  28.688  1.00  0.00     0.127 S 
ATOM     56  O   UNL A   1      33.448  33.347  27.742  1.00  0.00    -0.237 OA
ATOM     57  O   UNL A   1      32.698  34.828  29.563  1.00  0.00    -0.237 OA
ATOM     58  O   UNL A   1      34.588  35.501  28.154  1.00  0.00    -0.744 OA
ENDBRANCH  52  55
ENDBRANCH  24  48
BRANCH  36  59
ATOM     59  C   UNL A   1      43.340  35.469  30.835  1.00  0.00     0.023 A 
ATOM     60  C   UNL A   1      43.704  35.656  32.183  1.00  0.00     0.012 A 
ATOM     61  C   UNL A   1      43.464  36.533  29.923  1.00  0.00     0.148 A 
ATOM     62  C   UNL A   1      44.141  36.902  32.627  1.00  0.00     0.002 A 
ATOM     63  C   UNL A   1      43.960  37.752  30.359  1.00  0.00     0.091 A 
ATOM     64  F   UNL A   1      43.093  36.332  28.650  1.00  0.00    -0.205 F 
ATOM     65  C   UNL A   1      44.282  37.944  31.712  1.00  0.00     0.022 A 
BRANCH  63  66
ATOM     66  S   UNL A   1      44.281  39.108  29.230  1.00  0.00     0.127 S 
ATOM     67  O   UNL A   1      42.934  39.434  28.765  1.00  0.00    -0.237 OA
ATOM     68  O   UNL A   1      44.881  40.109  30.113  1.00  0.00    -0.237 OA
ATOM     69  O   UNL A   1      45.183  38.582  28.215  1.00  0.00    -0.744 OA
ENDBRANCH  63  66
ENDBRANCH  36  59
ENDBRANCH  10  11
ENDBRANCH   3   5
ENDBRANCH   2   3
ENDBRANCH   1   2
BRANCH   1  70
ATOM     70  C   UNL A   1      41.124  19.731  26.260  1.00  0.00     0.202 C 
BRANCH  70  71
ATOM     71  O   UNL A   1      42.155  19.340  25.354  1.00  0.00    -0.374 OA
BRANCH  71  72
ATOM     72  C   UNL A   1      43.380  18.778  25.823  1.00  0.00     0.202 C 
BRANCH  72  73
ATOM     73  C   UNL A   1      44.385  18.773  24.674  1.00  0.00     0.261 C 
BRANCH  73  74
ATOM     74  O   UNL A   1      44.345  20.089  24.108  1.00  0.00    -0.459 OA
BRANCH  74  75
ATOM     75  C   UNL A   1      45.238  20.973  24.626  1.00  0.00     0.365 C 
ATOM     76  O   UNL A   1      46.378  20.710  24.995  1.00  0.00    -0.245 OA
BRANCH  75  77
ATOM     77  C   UNL A   1      44.642  22.381  24.602  1.00  0.00     0.297 C 
ATOM     78  N   UNL A   1      43.156  22.388  24.777  1.00  0.00    -0.327 N 
ATOM     79  C   UNL A   1      45.299  23.330  25.623  1.00  0.00     0.066 C 
ATOM     80  C   UNL A   1      42.733  23.478  25.691  1.00  0.00     0.254 C 
ATOM     81  H   UNL A   1      42.861  21.493  25.167  1.00  0.00     0.347 HD
ATOM     82  H   UNL A   1      42.723  22.541  23.866  1.00  0.00     0.347 HD
ATOM     83  C   UNL A   1      44.858  24.742  25.200  1.00  0.00     0.017 C 
ATOM     84  C   UNL A   1      44.787  23.093  27.071  1.00  0.00     0.094 C 
ATOM     85  C   UNL A   1      43.321  24.809  25.198  1.00  0.00     0.072 C 
ATOM     86  C   UNL A   1      43.261  23.173  27.105  1.00  0.00     0.298 C 
ATOM     87  F   UNL A   1      42.853  24.117  27.984  1.00  0.00    -0.200 F 
ATOM     88  F   UNL A   1      42.745  21.990  27.533  1.00  0.00    -0.200 F 
ENDBRANCH  75  77
ENDBRANCH  74  75
ENDBRANCH  73  74
ENDBRANCH  72  73
ENDBRANCH  71  72
ENDBRANCH  70  71
ENDBRANCH   1  70
TORSDOF 17
ENDMDL
MODEL 2
REMARK VINA RESULT:     -10.1      3.815      5.770
REMARK SMILES O=C(OCCOCCOC(=O)[C@H]1[NH2+][C@@H]2CC[C@H]1CC2(F)F)c1ccc(-c2c3nc(c(-c4cccc(S(=O)(=O)[O-])c4F)c4ccc([nH]4)c(-c4cccc(S(=O)(=O)[O-])c4F)c4nc(c(-c5cccc(S(=O)(=O)[O-])c5F)c5ccc2[nH]5)C=C4)C=C3)cc1
REMARK SMILES IDX 4 1 3 2 2 3 1 4 22 5 23 6 84 7 24 8 83 9 25 10 26 11 27 12
REMARK SMILES IDX 77 13 28 14 82 15 76 16 78 17 29 18 81 19 75 20 74 21 30 23
REMARK SMILES IDX 62 24 42 25 61 26 43 27 46 28 60 29 79 30 44 31 45 32 59 34
REMARK SMILES IDX 80 35 47 36 31 37 32 38 40 39 33 40 35 41 41 42 34 43 36 44
REMARK SMILES IDX 37 45 38 46 39 47 63 48 64 49 72 50 65 51 67 52 73 53 66 54
REMARK SMILES IDX 68 55 69 56 70 57 71 58 48 59 49 60 57 61 50 62 52 63 58 64
REMARK SMILES IDX 51 65 53 66 54 67 55 68 56 69 5 70 6 71 7 72 8 73 9 74 10 75
REMARK SMILES IDX 11 76 12 77 13 78 17 79 14 80 16 83 18 84 15 85 19 86 20 87
REMARK SMILES IDX 21 88
REMARK H PARENT 78 22 46 33 13 81 13 82
REMARK Flexibility Score: inf
ROOT
ATOM      1  C   UNL A   1      37.148  21.359  24.411  1.00  0.00     0.261 C 
ENDROOT
BRANCH   1   2
ATOM      2  O   UNL A   1      37.696  21.366  25.744  1.00  0.00    -0.460 OA
BRANCH   2   3
ATOM      3  C   UNL A   1      39.020  21.319  26.071  1.00  0.00     0.338 C 
ATOM      4  O   UNL A   1      39.643  20.269  25.947  1.00  0.00    -0.246 OA
BRANCH   3   5
ATOM      5  C   UNL A   1      39.709  22.514  26.637  1.00  0.00     0.060 A 
ATOM      6  C   UNL A   1      39.343  23.798  26.268  1.00  0.00     0.016 A 
ATOM      7  C   UNL A   1      40.693  22.384  27.621  1.00  0.00     0.016 A 
ATOM      8  C   UNL A   1      39.986  24.919  26.697  1.00  0.00     0.010 A 
ATOM      9  C   UNL A   1      41.288  23.532  28.172  1.00  0.00     0.010 A 
ATOM     10  C   UNL A   1      40.930  24.800  27.694  1.00  0.00    -0.014 A 
BRANCH  10  11
ATOM     11  C   UNL A   1      41.534  26.078  28.079  1.00  0.00     0.031 A 
ATOM     12  C   UNL A   1      42.880  26.400  27.526  1.00  0.00     0.074 A 
ATOM     13  C   UNL A   1      40.744  27.009  28.652  1.00  0.00     0.049 A 
ATOM     14  N   UNL A   1      43.582  27.485  27.669  1.00  0.00    -0.248 NA
ATOM     15  C   UNL A   1      43.508  25.376  26.667  1.00  0.00     0.031 C 
ATOM     16  C   UNL A   1      39.335  26.807  29.032  1.00  0.00     0.029 A 
ATOM     17  N   UNL A   1      40.978  28.319  28.956  1.00  0.00    -0.354 N 
ATOM     18  C   UNL A   1      44.759  27.255  26.974  1.00  0.00     0.074 A 
ATOM     19  C   UNL A   1      44.670  25.940  26.383  1.00  0.00     0.031 C 
ATOM     20  C   UNL A   1      38.836  27.957  29.509  1.00  0.00     0.029 A 
ATOM     21  C   UNL A   1      39.905  28.940  29.555  1.00  0.00     0.049 A 
ATOM     22  H   UNL A   1      41.829  28.775  28.765  1.00  0.00     0.167 HD
ATOM     23  C   UNL A   1      45.820  28.080  26.860  1.00  0.00     0.034 A 
ATOM     24  C   UNL A   1      39.832  30.152  30.132  1.00  0.00     0.034 A 
ATOM     25  C   UNL A   1      45.858  29.380  27.463  1.00  0.00     0.049 A 
ATOM     26  C   UNL A   1      41.072  31.001  30.084  1.00  0.00     0.074 A 
ATOM     27  C   UNL A   1      46.903  30.281  27.508  1.00  0.00     0.029 A 
ATOM     28  N   UNL A   1      44.790  29.960  28.135  1.00  0.00    -0.354 N 
ATOM     29  N   UNL A   1      42.209  30.763  29.473  1.00  0.00    -0.248 NA
ATOM     30  C   UNL A   1      41.022  32.285  30.790  1.00  0.00     0.031 C 
ATOM     31  C   UNL A   1      46.474  31.395  28.238  1.00  0.00     0.029 A 
ATOM     32  C   UNL A   1      45.149  31.207  28.607  1.00  0.00     0.049 A 
ATOM     33  H   UNL A   1      43.907  29.544  28.258  1.00  0.00     0.167 HD
ATOM     34  C   UNL A   1      43.006  31.873  29.702  1.00  0.00     0.074 A 
ATOM     35  C   UNL A   1      42.201  32.802  30.476  1.00  0.00     0.031 C 
ATOM     36  C   UNL A   1      44.290  32.107  29.337  1.00  0.00     0.034 A 
BRANCH  23  37
ATOM     37  C   UNL A   1      47.018  27.555  26.124  1.00  0.00     0.023 A 
ATOM     38  C   UNL A   1      47.142  27.744  24.734  1.00  0.00     0.012 A 
ATOM     39  C   UNL A   1      48.016  26.848  26.822  1.00  0.00     0.148 A 
ATOM     40  C   UNL A   1      48.231  27.211  24.044  1.00  0.00     0.002 A 
ATOM     41  C   UNL A   1      49.118  26.359  26.137  1.00  0.00     0.091 A 
ATOM     42  F   UNL A   1      47.853  26.648  28.137  1.00  0.00    -0.205 F 
ATOM     43  C   UNL A   1      49.222  26.528  24.746  1.00  0.00     0.022 A 
BRANCH  41  44
ATOM     44  S   UNL A   1      50.473  25.515  26.958  1.00  0.00     0.127 S 
ATOM     45  O   UNL A   1      51.355  25.206  25.833  1.00  0.00    -0.237 OA
ATOM     46  O   UNL A   1      50.973  26.555  27.858  1.00  0.00    -0.237 OA
ATOM     47  O   UNL A   1      49.888  24.357  27.619  1.00  0.00    -0.744 OA
ENDBRANCH  41  44
ENDBRANCH  23  37
BRANCH  24  48
ATOM     48  C   UNL A   1      38.603  30.590  30.856  1.00  0.00     0.023 A 
ATOM     49  C   UNL A   1      38.424  30.267  32.214  1.00  0.00     0.012 A 
ATOM     50  C   UNL A   1      37.585  31.305  30.188  1.00  0.00     0.148 A 
ATOM     51  C   UNL A   1      37.239  30.599  32.876  1.00  0.00     0.002 A 
ATOM     52  C   UNL A   1      36.436  31.687  30.869  1.00  0.00     0.091 A 
ATOM     53  F   UNL A   1      37.754  31.590  28.888  1.00  0.00    -0.205 F 
ATOM     54  C   UNL A   1      36.249  31.314  32.206  1.00  0.00     0.022 A 
BRANCH  52  55
ATOM     55  S   UNL A   1      35.171  32.713  30.111  1.00  0.00     0.127 S 
ATOM     56  O   UNL A   1      35.948  33.867  29.669  1.00  0.00    -0.237 OA
ATOM     57  O   UNL A   1      34.683  31.850  29.035  1.00  0.00    -0.237 OA
ATOM     58  O   UNL A   1      34.194  32.968  31.161  1.00  0.00    -0.744 OA
ENDBRANCH  52  55
ENDBRANCH  24  48
BRANCH  36  59
ATOM     59  C   UNL A   1      44.874  33.430  29.736  1.00  0.00     0.023 A 
ATOM     60  C   UNL A   1      45.577  33.552  30.951  1.00  0.00     0.012 A 
ATOM     61  C   UNL A   1      44.775  34.536  28.871  1.00  0.00     0.148 A 
ATOM     62  C   UNL A   1      46.135  34.773  31.320  1.00  0.00     0.002 A 
ATOM     63  C   UNL A   1      45.388  35.730  29.217  1.00  0.00     0.091 A 
ATOM     64  F   UNL A   1      44.085  34.397  27.730  1.00  0.00    -0.205 F 
ATOM     65  C   UNL A   1      46.053  35.856  30.447  1.00  0.00     0.022 A 
BRANCH  63  66
ATOM     66  S   UNL A   1      45.430  37.137  28.104  1.00  0.00     0.127 S 
ATOM     67  O   UNL A   1      45.939  36.529  26.876  1.00  0.00    -0.237 OA
ATOM     68  O   UNL A   1      44.022  37.531  28.053  1.00  0.00    -0.237 OA
ATOM     69  O   UNL A   1      46.309  38.117  28.728  1.00  0.00    -0.744 OA
ENDBRANCH  63  66
ENDBRANCH  36  59
ENDBRANCH  10  11
ENDBRANCH   3   5
ENDBRANCH   2   3
ENDBRANCH   1   2
BRANCH   1  70
ATOM     70  C   UNL A   1      36.677  22.732  23.883  1.00  0.00     0.202 C 
BRANCH  70  71
ATOM     71  O   UNL A   1      35.592  22.849  22.962  1.00  0.00    -0.374 OA
BRANCH  71  72
ATOM     72  C   UNL A   1      34.324  23.359  23.373  1.00  0.00     0.202 C 
BRANCH  72  73
ATOM     73  C   UNL A   1      33.993  22.789  24.750  1.00  0.00     0.261 C 
BRANCH  73  74
ATOM     74  O   UNL A   1      33.137  21.663  24.517  1.00  0.00    -0.459 OA
BRANCH  74  75
ATOM     75  C   UNL A   1      33.479  20.525  25.176  1.00  0.00     0.365 C 
ATOM     76  O   UNL A   1      33.483  20.373  26.394  1.00  0.00    -0.245 OA
BRANCH  75  77
ATOM     77  C   UNL A   1      33.779  19.416  24.167  1.00  0.00     0.297 C 
ATOM     78  N   UNL A   1      34.809  18.445  24.656  1.00  0.00    -0.327 N 
ATOM     79  C   UNL A   1      32.516  18.660  23.710  1.00  0.00     0.066 C 
ATOM     80  C   UNL A   1      34.424  17.051  24.326  1.00  0.00     0.254 C 
ATOM     81  H   UNL A   1      34.898  18.536  25.668  1.00  0.00     0.347 HD
ATOM     82  H   UNL A   1      35.695  18.655  24.198  1.00  0.00     0.347 HD
ATOM     83  C   UNL A   1      32.949  17.877  22.458  1.00  0.00     0.017 C 
ATOM     84  C   UNL A   1      32.026  17.627  24.763  1.00  0.00     0.094 C 
ATOM     85  C   UNL A   1      34.121  16.951  22.823  1.00  0.00     0.072 C 
ATOM     86  C   UNL A   1      33.166  16.679  25.133  1.00  0.00     0.298 C 
ATOM     87  F   UNL A   1      32.810  15.394  24.902  1.00  0.00    -0.200 F 
ATOM     88  F   UNL A   1      33.437  16.778  26.461  1.00  0.00    -0.200 F 
ENDBRANCH  75  77
ENDBRANCH  74  75
ENDBRANCH  73  74
ENDBRANCH  72  73
ENDBRANCH  71  72
ENDBRANCH  70  71
ENDBRANCH   1  70
TORSDOF 17
ENDMDL
MODEL 3
REMARK VINA RESULT:     -10.0      4.165     12.301
REMARK SMILES O=C(OCCOCCOC(=O)[C@H]1[NH2+][C@@H]2CC[C@H]1CC2(F)F)c1ccc(-c2c3nc(c(-c4cccc(S(=O)(=O)[O-])c4F)c4ccc([nH]4)c(-c4cccc(S(=O)(=O)[O-])c4F)c4nc(c(-c5cccc(S(=O)(=O)[O-])c5F)c5ccc2[nH]5)C=C4)C=C3)cc1
REMARK SMILES IDX 4 1 3 2 2 3 1 4 22 5 23 6 84 7 24 8 83 9 25 10 26 11 27 12
REMARK SMILES IDX 77 13 28 14 82 15 76 16 78 17 29 18 81 19 75 20 74 21 30 23
REMARK SMILES IDX 62 24 42 25 61 26 43 27 46 28 60 29 79 30 44 31 45 32 59 34
REMARK SMILES IDX 80 35 47 36 31 37 32 38 40 39 33 40 35 41 41 42 34 43 36 44
REMARK SMILES IDX 37 45 38 46 39 47 63 48 64 49 72 50 65 51 67 52 73 53 66 54
REMARK SMILES IDX 68 55 69 56 70 57 71 58 48 59 49 60 57 61 50 62 52 63 58 64
REMARK SMILES IDX 51 65 53 66 54 67 55 68 56 69 5 70 6 71 7 72 8 73 9 74 10 75
REMARK SMILES IDX 11 76 12 77 13 78 17 79 14 80 16 83 18 84 15 85 19 86 20 87
REMARK SMILES IDX 21 88
REMARK H PARENT 78 22 46 33 13 81 13 82
REMARK Flexibility Score: inf
ROOT
ATOM      1  C   UNL A   1      34.296  33.187  28.036  1.00  0.00     0.261 C 
ENDROOT
BRANCH   1   2
ATOM      2  O   UNL A   1      33.949  31.839  28.407  1.00  0.00    -0.460 OA
BRANCH   2   3
ATOM      3  C   UNL A   1      34.455  30.696  27.859  1.00  0.00     0.338 C 
ATOM      4  O   UNL A   1      33.752  30.006  27.128  1.00  0.00    -0.246 OA
BRANCH   3   5
ATOM      5  C   UNL A   1      35.837  30.240  28.185  1.00  0.00     0.060 A 
ATOM      6  C   UNL A   1      36.089  29.440  29.288  1.00  0.00     0.016 A 
ATOM      7  C   UNL A   1      36.914  30.536  27.345  1.00  0.00     0.016 A 
ATOM      8  C   UNL A   1      37.338  29.056  29.672  1.00  0.00     0.010 A 
ATOM      9  C   UNL A   1      38.196  30.047  27.653  1.00  0.00     0.010 A 
ATOM     10  C   UNL A   1      38.398  29.312  28.829  1.00  0.00    -0.014 A 
BRANCH  10  11
ATOM     11  C   UNL A   1      39.682  28.834  29.348  1.00  0.00     0.031 A 
ATOM     12  C   UNL A   1      40.155  29.396  30.644  1.00  0.00     0.074 A 
ATOM     13  C   UNL A   1      40.215  27.722  28.802  1.00  0.00     0.049 A 
ATOM     14  N   UNL A   1      41.216  29.085  31.330  1.00  0.00    -0.248 NA
ATOM     15  C   UNL A   1      39.302  30.422  31.275  1.00  0.00     0.031 C 
ATOM     16  C   UNL A   1      39.668  27.003  27.638  1.00  0.00     0.029 A 
ATOM     17  N   UNL A   1      41.286  26.964  29.178  1.00  0.00    -0.354 N 
ATOM     18  C   UNL A   1      41.194  29.918  32.437  1.00  0.00     0.074 A 
ATOM     19  C   UNL A   1      40.002  30.729  32.354  1.00  0.00     0.031 C 
ATOM     20  C   UNL A   1      40.405  25.907  27.408  1.00  0.00     0.029 A 
ATOM     21  C   UNL A   1      41.522  25.898  28.339  1.00  0.00     0.049 A 
ATOM     22  H   UNL A   1      41.836  27.160  29.970  1.00  0.00     0.167 HD
ATOM     23  C   UNL A   1      42.109  29.994  33.426  1.00  0.00     0.034 A 
ATOM     24  C   UNL A   1      42.566  25.053  28.303  1.00  0.00     0.034 A 
ATOM     25  C   UNL A   1      43.277  29.161  33.465  1.00  0.00     0.049 A 
ATOM     26  C   UNL A   1      43.625  25.239  29.354  1.00  0.00     0.074 A 
ATOM     27  C   UNL A   1      44.332  29.196  34.354  1.00  0.00     0.029 A 
ATOM     28  N   UNL A   1      43.538  28.140  32.561  1.00  0.00    -0.354 N 
ATOM     29  N   UNL A   1      43.634  26.065  30.374  1.00  0.00    -0.248 NA
ATOM     30  C   UNL A   1      44.807  24.378  29.261  1.00  0.00     0.031 C 
ATOM     31  C   UNL A   1      45.249  28.213  33.965  1.00  0.00     0.029 A 
ATOM     32  C   UNL A   1      44.743  27.537  32.863  1.00  0.00     0.049 A 
ATOM     33  H   UNL A   1      42.951  27.883  31.814  1.00  0.00     0.167 HD
ATOM     34  C   UNL A   1      44.813  25.812  31.059  1.00  0.00     0.074 A 
ATOM     35  C   UNL A   1      45.470  24.725  30.356  1.00  0.00     0.031 C 
ATOM     36  C   UNL A   1      45.328  26.429  32.151  1.00  0.00     0.034 A 
BRANCH  23  37
ATOM     37  C   UNL A   1      41.901  31.049  34.471  1.00  0.00     0.023 A 
ATOM     38  C   UNL A   1      41.204  30.752  35.658  1.00  0.00     0.012 A 
ATOM     39  C   UNL A   1      42.384  32.355  34.256  1.00  0.00     0.148 A 
ATOM     40  C   UNL A   1      40.967  31.748  36.606  1.00  0.00     0.002 A 
ATOM     41  C   UNL A   1      42.183  33.329  35.222  1.00  0.00     0.091 A 
ATOM     42  F   UNL A   1      43.009  32.620  33.100  1.00  0.00    -0.205 F 
ATOM     43  C   UNL A   1      41.464  33.032  36.392  1.00  0.00     0.022 A 
BRANCH  41  44
ATOM     44  S   UNL A   1      42.831  34.996  35.066  1.00  0.00     0.127 S 
ATOM     45  O   UNL A   1      42.197  35.446  33.828  1.00  0.00    -0.237 OA
ATOM     46  O   UNL A   1      42.320  35.632  36.281  1.00  0.00    -0.237 OA
ATOM     47  O   UNL A   1      44.280  34.863  35.004  1.00  0.00    -0.744 OA
ENDBRANCH  41  44
ENDBRANCH  23  37
BRANCH  24  48
ATOM     48  C   UNL A   1      42.702  24.038  27.218  1.00  0.00     0.023 A 
ATOM     49  C   UNL A   1      43.387  24.354  26.029  1.00  0.00     0.012 A 
ATOM     50  C   UNL A   1      42.119  22.758  27.346  1.00  0.00     0.148 A 
ATOM     51  C   UNL A   1      43.445  23.439  24.975  1.00  0.00     0.002 A 
ATOM     52  C   UNL A   1      42.234  21.831  26.318  1.00  0.00     0.091 A 
ATOM     53  F   UNL A   1      41.449  22.473  28.472  1.00  0.00    -0.205 F 
ATOM     54  C   UNL A   1      42.876  22.177  25.121  1.00  0.00     0.022 A 
BRANCH  52  55
ATOM     55  S   UNL A   1      41.633  20.145  26.478  1.00  0.00     0.127 S 
ATOM     56  O   UNL A   1      42.195  19.749  27.766  1.00  0.00    -0.237 OA
ATOM     57  O   UNL A   1      40.183  20.336  26.471  1.00  0.00    -0.237 OA
ATOM     58  O   UNL A   1      42.147  19.435  25.314  1.00  0.00    -0.744 OA
ENDBRANCH  52  55
ENDBRANCH  24  48
BRANCH  36  59
ATOM     59  C   UNL A   1      46.638  25.906  32.664  1.00  0.00     0.023 A 
ATOM     60  C   UNL A   1      47.845  26.497  32.241  1.00  0.00     0.012 A 
ATOM     61  C   UNL A   1      46.662  24.868  33.614  1.00  0.00     0.148 A 
ATOM     62  C   UNL A   1      49.064  26.028  32.725  1.00  0.00     0.002 A 
ATOM     63  C   UNL A   1      47.875  24.451  34.138  1.00  0.00     0.091 A 
ATOM     64  F   UNL A   1      45.500  24.312  33.984  1.00  0.00    -0.205 F 
ATOM     65  C   UNL A   1      49.078  25.016  33.683  1.00  0.00     0.022 A 
BRANCH  63  66
ATOM     66  S   UNL A   1      47.977  23.237  35.455  1.00  0.00     0.127 S 
ATOM     67  O   UNL A   1      47.155  23.855  36.493  1.00  0.00    -0.237 OA
ATOM     68  O   UNL A   1      47.383  22.054  34.831  1.00  0.00    -0.237 OA
ATOM     69  O   UNL A   1      49.392  23.105  35.772  1.00  0.00    -0.744 OA
ENDBRANCH  63  66
ENDBRANCH  36  59
ENDBRANCH  10  11
ENDBRANCH   3   5
ENDBRANCH   2   3
ENDBRANCH   1   2
BRANCH   1  70
ATOM     70  C   UNL A   1      33.207  34.249  28.310  1.00  0.00     0.202 C 
BRANCH  70  71
ATOM     71  O   UNL A   1      32.894  34.676  29.636  1.00  0.00    -0.374 OA
BRANCH  71  72
ATOM     72  C   UNL A   1      33.265  35.972  30.104  1.00  0.00     0.202 C 
BRANCH  72  73
ATOM     73  C   UNL A   1      32.513  36.255  31.402  1.00  0.00     0.261 C 
BRANCH  73  74
ATOM     74  O   UNL A   1      33.147  35.456  32.409  1.00  0.00    -0.459 OA
BRANCH  74  75
ATOM     75  C   UNL A   1      34.065  36.104  33.173  1.00  0.00     0.365 C 
ATOM     76  O   UNL A   1      34.049  37.298  33.459  1.00  0.00    -0.245 OA
BRANCH  75  77
ATOM     77  C   UNL A   1      35.089  35.104  33.708  1.00  0.00     0.297 C 
ATOM     78  N   UNL A   1      34.499  33.757  33.986  1.00  0.00    -0.327 N 
ATOM     79  C   UNL A   1      36.324  34.960  32.798  1.00  0.00     0.066 C 
ATOM     80  C   UNL A   1      35.403  32.674  33.527  1.00  0.00     0.254 C 
ATOM     81  H   UNL A   1      33.607  33.676  33.497  1.00  0.00     0.347 HD
ATOM     82  H   UNL A   1      34.364  33.663  34.993  1.00  0.00     0.347 HD
ATOM     83  C   UNL A   1      37.375  34.237  33.658  1.00  0.00     0.017 C 
ATOM     84  C   UNL A   1      36.046  34.073  31.552  1.00  0.00     0.094 C 
ATOM     85  C   UNL A   1      36.800  32.891  34.129  1.00  0.00     0.072 C 
ATOM     86  C   UNL A   1      35.490  32.719  31.990  1.00  0.00     0.298 C 
ATOM     87  F   UNL A   1      36.265  31.713  31.523  1.00  0.00    -0.200 F 
ATOM     88  F   UNL A   1      34.251  32.535  31.463  1.00  0.00    -0.200 F 
ENDBRANCH  75  77
ENDBRANCH  74  75
ENDBRANCH  73  74
ENDBRANCH  72  73
ENDBRANCH  71  72
ENDBRANCH  70  71
ENDBRANCH   1  70
TORSDOF 17
ENDMDL
