MODEL 1
REMARK VINA RESULT:     -11.8      0.000      0.000
REMARK SMILES Cc1ccc(C[C@@H](Cc2cc(F)cc(Br)c2)C(=O)OCCOCCOC(=O)c2ccc(-c3c4nc(c(-c5cccc(S(=O)(=O)[O-])c5F)c5ccc([nH]5)c(-c5cccc(S(=O)(=O)[O-])c5F)c5nc(c(-c6cccc(S(=O)(=O)[O-])c6F)c6ccc3[nH]6)C=C5)C=C4)cc2)cc1
REMARK SMILES IDX 23 1 22 2 21 3 20 4 19 5 17 6 18 7 7 8 6 9 5 10 1 11 2 12
REMARK SMILES IDX 3 13 92 14 4 15 91 16 8 17 9 18 10 19 16 20 11 21 14 22
REMARK SMILES IDX 12 23 13 24 15 25 24 26 25 27 26 28 27 29 28 30 29 31 90 32
REMARK SMILES IDX 30 33 89 34 31 35 32 36 33 37 83 38 34 39 88 40 82 41 84 42
REMARK SMILES IDX 35 43 87 44 81 45 80 46 36 48 68 49 48 50 67 51 49 52 52 53
REMARK SMILES IDX 66 54 85 55 50 56 51 57 65 59 86 60 53 61 37 62 38 63 46 64
REMARK SMILES IDX 39 65 41 66 47 67 40 68 42 69 43 70 44 71 45 72 69 73 70 74
REMARK SMILES IDX 78 75 71 76 73 77 79 78 72 79 74 80 75 81 76 82 77 83 54 84
REMARK SMILES IDX 55 85 63 86 56 87 58 88 64 89 57 90 59 91 60 92 61 93 62 94
REMARK H PARENT 84 47 52 58
REMARK Flexibility Score: inf
ROOT
ATOM      1  C   UNL A   1      38.524  21.031  25.643  1.00  0.00     0.202 C 
ENDROOT
BRANCH   1   2
ATOM      2  O   UNL A   1      37.278  20.856  25.015  1.00  0.00    -0.374 OA
BRANCH   2   3
ATOM      3  C   UNL A   1      36.185  21.619  25.495  1.00  0.00     0.202 C 
BRANCH   3   4
ATOM      4  C   UNL A   1      35.344  21.874  24.274  1.00  0.00     0.261 C 
BRANCH   4   5
ATOM      5  O   UNL A   1      34.227  22.712  24.635  1.00  0.00    -0.463 OA
BRANCH   5   6
ATOM      6  C   UNL A   1      33.630  23.672  23.859  1.00  0.00     0.309 C 
ATOM      7  O   UNL A   1      34.130  24.307  22.930  1.00  0.00    -0.252 OA
BRANCH   6   8
ATOM      8  C   UNL A   1      32.180  23.827  24.287  1.00  0.00     0.108 C 
BRANCH   8   9
ATOM      9  C   UNL A   1      32.360  24.314  25.762  1.00  0.00     0.051 C 
BRANCH   9  10
ATOM     10  C   UNL A   1      32.474  25.766  26.027  1.00  0.00    -0.047 A 
ATOM     11  C   UNL A   1      32.797  29.938  26.761  1.00  0.00     0.044 C 
ATOM     12  C   UNL A   1      32.697  28.461  26.581  1.00  0.00    -0.051 A 
ATOM     13  C   UNL A   1      33.807  27.759  26.103  1.00  0.00     0.004 A 
ATOM     14  C   UNL A   1      31.492  27.793  26.831  1.00  0.00     0.004 A 
ATOM     15  C   UNL A   1      33.700  26.409  25.840  1.00  0.00     0.004 A 
ATOM     16  C   UNL A   1      31.377  26.445  26.547  1.00  0.00     0.004 A 
ENDBRANCH   9  10
ENDBRANCH   8   9
BRANCH   8  17
ATOM     17  C   UNL A   1      31.161  24.752  23.556  1.00  0.00     0.051 C 
BRANCH  17  18
ATOM     18  C   UNL A   1      31.178  26.097  22.855  1.00  0.00    -0.043 A 
ATOM     19  C   UNL A   1      30.107  26.958  23.219  1.00  0.00     0.043 A 
ATOM     20  C   UNL A   1      32.269  26.676  22.257  1.00  0.00     0.019 A 
ATOM     21  C   UNL A   1      30.282  28.329  23.338  1.00  0.00     0.124 A 
ATOM     22  C   UNL A   1      32.471  28.023  22.565  1.00  0.00     0.021 A 
ATOM     23  F   UNL A   1      29.319  29.096  23.859  1.00  0.00    -0.207 F 
ATOM     24  C   UNL A   1      31.514  28.855  23.120  1.00  0.00     0.055 A 
ATOM     25  Br  UNL A   1      34.205  28.645  22.701  1.00  0.00    -0.051 Br
ENDBRANCH  17  18
ENDBRANCH   8  17
ENDBRANCH   6   8
ENDBRANCH   5   6
ENDBRANCH   4   5
ENDBRANCH   3   4
ENDBRANCH   2   3
ENDBRANCH   1   2
BRANCH   1  26
ATOM     26  C   UNL A   1      38.758  22.483  26.046  1.00  0.00     0.261 C 
BRANCH  26  27
ATOM     27  O   UNL A   1      39.728  22.528  27.113  1.00  0.00    -0.460 OA
BRANCH  27  28
ATOM     28  C   UNL A   1      40.760  23.400  26.925  1.00  0.00     0.338 C 
ATOM     29  O   UNL A   1      41.930  23.064  26.848  1.00  0.00    -0.246 OA
BRANCH  28  30
ATOM     30  C   UNL A   1      40.269  24.808  27.046  1.00  0.00     0.060 A 
ATOM     31  C   UNL A   1      40.684  25.777  26.117  1.00  0.00     0.016 A 
ATOM     32  C   UNL A   1      39.674  25.211  28.239  1.00  0.00     0.016 A 
ATOM     33  C   UNL A   1      40.702  27.131  26.475  1.00  0.00     0.010 A 
ATOM     34  C   UNL A   1      39.770  26.536  28.620  1.00  0.00     0.010 A 
ATOM     35  C   UNL A   1      40.355  27.493  27.772  1.00  0.00    -0.014 A 
BRANCH  35  36
ATOM     36  C   UNL A   1      40.715  28.784  28.411  1.00  0.00     0.031 A 
ATOM     37  C   UNL A   1      39.488  29.692  28.691  1.00  0.00     0.074 A 
ATOM     38  C   UNL A   1      41.934  28.742  29.030  1.00  0.00     0.049 A 
ATOM     39  N   UNL A   1      39.223  30.563  29.619  1.00  0.00    -0.248 NA
ATOM     40  C   UNL A   1      38.416  29.677  27.690  1.00  0.00     0.031 C 
ATOM     41  C   UNL A   1      42.258  28.903  30.429  1.00  0.00     0.029 A 
ATOM     42  N   UNL A   1      43.201  28.892  28.479  1.00  0.00    -0.354 N 
ATOM     43  C   UNL A   1      38.183  31.386  29.216  1.00  0.00     0.074 A 
ATOM     44  C   UNL A   1      37.612  30.660  28.101  1.00  0.00     0.031 C 
ATOM     45  C   UNL A   1      43.500  29.348  30.655  1.00  0.00     0.029 A 
ATOM     46  C   UNL A   1      44.043  29.583  29.351  1.00  0.00     0.049 A 
ATOM     47  H   UNL A   1      43.468  28.555  27.593  1.00  0.00     0.167 HD
ATOM     48  C   UNL A   1      37.971  32.699  29.597  1.00  0.00     0.034 A 
ATOM     49  C   UNL A   1      45.238  30.192  29.246  1.00  0.00     0.034 A 
ATOM     50  C   UNL A   1      39.150  33.496  30.133  1.00  0.00     0.049 A 
ATOM     51  C   UNL A   1      45.030  31.732  29.323  1.00  0.00     0.074 A 
ATOM     52  C   UNL A   1      39.526  33.951  31.396  1.00  0.00     0.029 A 
ATOM     53  N   UNL A   1      40.231  33.942  29.298  1.00  0.00    -0.354 N 
ATOM     54  N   UNL A   1      43.996  32.354  29.868  1.00  0.00    -0.248 NA
ATOM     55  C   UNL A   1      45.965  32.724  28.804  1.00  0.00     0.031 C 
ATOM     56  C   UNL A   1      40.852  34.521  31.338  1.00  0.00     0.029 A 
ATOM     57  C   UNL A   1      41.397  34.321  30.063  1.00  0.00     0.049 A 
ATOM     58  H   UNL A   1      40.181  33.986  28.315  1.00  0.00     0.167 HD
ATOM     59  C   UNL A   1      43.908  33.697  29.483  1.00  0.00     0.074 A 
ATOM     60  C   UNL A   1      45.288  33.879  28.990  1.00  0.00     0.031 C 
ATOM     61  C   UNL A   1      42.783  34.569  29.453  1.00  0.00     0.034 A 
BRANCH  48  62
ATOM     62  C   UNL A   1      36.493  33.166  29.830  1.00  0.00     0.023 A 
ATOM     63  C   UNL A   1      35.722  33.465  28.679  1.00  0.00     0.012 A 
ATOM     64  C   UNL A   1      35.828  33.437  31.057  1.00  0.00     0.148 A 
ATOM     65  C   UNL A   1      34.447  34.053  28.725  1.00  0.00     0.002 A 
ATOM     66  C   UNL A   1      34.569  34.062  31.111  1.00  0.00     0.091 A 
ATOM     67  F   UNL A   1      36.344  33.020  32.211  1.00  0.00    -0.205 F 
ATOM     68  C   UNL A   1      33.878  34.377  29.943  1.00  0.00     0.022 A 
BRANCH  66  69
ATOM     69  S   UNL A   1      33.773  34.545  32.661  1.00  0.00     0.127 S 
ATOM     70  O   UNL A   1      33.576  33.255  33.326  1.00  0.00    -0.237 OA
ATOM     71  O   UNL A   1      34.788  35.395  33.282  1.00  0.00    -0.237 OA
ATOM     72  O   UNL A   1      32.534  35.220  32.294  1.00  0.00    -0.744 OA
ENDBRANCH  66  69
ENDBRANCH  48  62
BRANCH  49  73
ATOM     73  C   UNL A   1      46.224  29.190  28.706  1.00  0.00     0.023 A 
ATOM     74  C   UNL A   1      46.346  28.027  29.538  1.00  0.00     0.012 A 
ATOM     75  C   UNL A   1      46.242  28.979  27.314  1.00  0.00     0.148 A 
ATOM     76  C   UNL A   1      46.236  26.726  29.015  1.00  0.00     0.002 A 
ATOM     77  C   UNL A   1      46.048  27.682  26.808  1.00  0.00     0.091 A 
ATOM     78  F   UNL A   1      46.203  30.056  26.519  1.00  0.00    -0.205 F 
ATOM     79  C   UNL A   1      46.028  26.560  27.655  1.00  0.00     0.022 A 
BRANCH  77  80
ATOM     80  S   UNL A   1      45.360  27.435  25.154  1.00  0.00     0.127 S 
ATOM     81  O   UNL A   1      44.005  27.952  25.301  1.00  0.00    -0.237 OA
ATOM     82  O   UNL A   1      46.257  28.250  24.335  1.00  0.00    -0.237 OA
ATOM     83  O   UNL A   1      45.493  26.006  24.915  1.00  0.00    -0.744 OA
ENDBRANCH  77  80
ENDBRANCH  49  73
BRANCH  61  84
ATOM     84  C   UNL A   1      42.855  35.916  28.732  1.00  0.00     0.023 A 
ATOM     85  C   UNL A   1      42.126  36.180  27.561  1.00  0.00     0.012 A 
ATOM     86  C   UNL A   1      43.520  37.024  29.322  1.00  0.00     0.148 A 
ATOM     87  C   UNL A   1      42.151  37.428  26.938  1.00  0.00     0.002 A 
ATOM     88  C   UNL A   1      43.401  38.300  28.791  1.00  0.00     0.091 A 
ATOM     89  F   UNL A   1      44.304  36.862  30.397  1.00  0.00    -0.205 F 
ATOM     90  C   UNL A   1      42.765  38.498  27.568  1.00  0.00     0.022 A 
BRANCH  88  91
ATOM     91  S   UNL A   1      43.889  39.738  29.750  1.00  0.00     0.127 S 
ATOM     92  O   UNL A   1      43.354  39.418  31.071  1.00  0.00    -0.237 OA
ATOM     93  O   UNL A   1      45.350  39.693  29.654  1.00  0.00    -0.237 OA
ATOM     94  O   UNL A   1      43.286  40.877  29.070  1.00  0.00    -0.744 OA
ENDBRANCH  88  91
ENDBRANCH  61  84
ENDBRANCH  35  36
ENDBRANCH  28  30
ENDBRANCH  27  28
ENDBRANCH  26  27
ENDBRANCH   1  26
TORSDOF 21
ENDMDL
MODEL 2
REMARK VINA RESULT:     -11.5      1.141      2.090
REMARK SMILES Cc1ccc(C[C@@H](Cc2cc(F)cc(Br)c2)C(=O)OCCOCCOC(=O)c2ccc(-c3c4nc(c(-c5cccc(S(=O)(=O)[O-])c5F)c5ccc([nH]5)c(-c5cccc(S(=O)(=O)[O-])c5F)c5nc(c(-c6cccc(S(=O)(=O)[O-])c6F)c6ccc3[nH]6)C=C5)C=C4)cc2)cc1
REMARK SMILES IDX 23 1 22 2 21 3 20 4 19 5 17 6 18 7 7 8 6 9 5 10 1 11 2 12
REMARK SMILES IDX 3 13 92 14 4 15 91 16 8 17 9 18 10 19 16 20 11 21 14 22
REMARK SMILES IDX 12 23 13 24 15 25 24 26 25 27 26 28 27 29 28 30 29 31 90 32
REMARK SMILES IDX 30 33 89 34 31 35 32 36 33 37 83 38 34 39 88 40 82 41 84 42
REMARK SMILES IDX 35 43 87 44 81 45 80 46 36 48 68 49 48 50 67 51 49 52 52 53
REMARK SMILES IDX 66 54 85 55 50 56 51 57 65 59 86 60 53 61 37 62 38 63 46 64
REMARK SMILES IDX 39 65 41 66 47 67 40 68 42 69 43 70 44 71 45 72 69 73 70 74
REMARK SMILES IDX 78 75 71 76 73 77 79 78 72 79 74 80 75 81 76 82 77 83 54 84
REMARK SMILES IDX 55 85 63 86 56 87 58 88 64 89 57 90 59 91 60 92 61 93 62 94
REMARK H PARENT 84 47 52 58
REMARK Flexibility Score: inf
ROOT
ATOM      1  C   UNL A   1      37.484  22.129  24.802  1.00  0.00     0.202 C 
ENDROOT
BRANCH   1   2
ATOM      2  O   UNL A   1      36.094  21.957  24.919  1.00  0.00    -0.374 OA
BRANCH   2   3
ATOM      3  C   UNL A   1      35.608  20.643  25.131  1.00  0.00     0.202 C 
BRANCH   3   4
ATOM      4  C   UNL A   1      34.248  20.843  25.745  1.00  0.00     0.261 C 
BRANCH   4   5
ATOM      5  O   UNL A   1      33.498  21.775  24.939  1.00  0.00    -0.463 OA
BRANCH   5   6
ATOM      6  C   UNL A   1      32.423  22.530  25.334  1.00  0.00     0.309 C 
ATOM      7  O   UNL A   1      31.458  22.170  26.010  1.00  0.00    -0.252 OA
BRANCH   6   8
ATOM      8  C   UNL A   1      32.610  23.955  24.843  1.00  0.00     0.108 C 
BRANCH   8   9
ATOM      9  C   UNL A   1      31.271  24.175  24.064  1.00  0.00     0.051 C 
BRANCH   9  10
ATOM     10  C   UNL A   1      30.928  25.539  23.602  1.00  0.00    -0.047 A 
ATOM     11  C   UNL A   1      29.961  29.463  22.295  1.00  0.00     0.044 C 
ATOM     12  C   UNL A   1      30.240  28.059  22.709  1.00  0.00    -0.051 A 
ATOM     13  C   UNL A   1      29.762  27.608  23.943  1.00  0.00     0.004 A 
ATOM     14  C   UNL A   1      31.019  27.219  21.903  1.00  0.00     0.004 A 
ATOM     15  C   UNL A   1      30.093  26.343  24.383  1.00  0.00     0.004 A 
ATOM     16  C   UNL A   1      31.370  25.960  22.352  1.00  0.00     0.004 A 
ENDBRANCH   9  10
ENDBRANCH   8   9
BRANCH   8  17
ATOM     17  C   UNL A   1      32.863  25.166  25.791  1.00  0.00     0.051 C 
BRANCH  17  18
ATOM     18  C   UNL A   1      33.494  26.542  25.700  1.00  0.00    -0.043 A 
ATOM     19  C   UNL A   1      33.957  26.886  24.401  1.00  0.00     0.043 A 
ATOM     20  C   UNL A   1      33.306  27.571  26.589  1.00  0.00     0.019 A 
ATOM     21  C   UNL A   1      33.859  28.181  23.910  1.00  0.00     0.124 A 
ATOM     22  C   UNL A   1      33.044  28.815  26.013  1.00  0.00     0.021 A 
ATOM     23  F   UNL A   1      34.127  28.446  22.628  1.00  0.00    -0.207 F 
ATOM     24  C   UNL A   1      33.286  29.135  24.687  1.00  0.00     0.055 A 
ATOM     25  Br  UNL A   1      31.887  29.963  26.882  1.00  0.00    -0.051 Br
ENDBRANCH  17  18
ENDBRANCH   8  17
ENDBRANCH   6   8
ENDBRANCH   5   6
ENDBRANCH   4   5
ENDBRANCH   3   4
ENDBRANCH   2   3
ENDBRANCH   1   2
BRANCH   1  26
ATOM     26  C   UNL A   1      38.075  22.823  26.025  1.00  0.00     0.261 C 
BRANCH  26  27
ATOM     27  O   UNL A   1      39.459  22.440  26.164  1.00  0.00    -0.460 OA
BRANCH  27  28
ATOM     28  C   UNL A   1      40.134  23.057  27.177  1.00  0.00     0.338 C 
ATOM     29  O   UNL A   1      40.782  22.464  28.024  1.00  0.00    -0.246 OA
BRANCH  28  30
ATOM     30  C   UNL A   1      39.785  24.510  27.214  1.00  0.00     0.060 A 
ATOM     31  C   UNL A   1      40.377  25.397  26.300  1.00  0.00     0.016 A 
ATOM     32  C   UNL A   1      39.136  25.016  28.338  1.00  0.00     0.016 A 
ATOM     33  C   UNL A   1      40.507  26.755  26.619  1.00  0.00     0.010 A 
ATOM     34  C   UNL A   1      39.338  26.338  28.689  1.00  0.00     0.010 A 
ATOM     35  C   UNL A   1      40.091  27.198  27.870  1.00  0.00    -0.014 A 
BRANCH  35  36
ATOM     36  C   UNL A   1      40.529  28.468  28.502  1.00  0.00     0.031 A 
ATOM     37  C   UNL A   1      39.359  29.452  28.772  1.00  0.00     0.074 A 
ATOM     38  C   UNL A   1      41.741  28.354  29.126  1.00  0.00     0.049 A 
ATOM     39  N   UNL A   1      39.147  30.344  29.693  1.00  0.00    -0.248 NA
ATOM     40  C   UNL A   1      38.292  29.498  27.768  1.00  0.00     0.031 C 
ATOM     41  C   UNL A   1      42.070  28.503  30.524  1.00  0.00     0.029 A 
ATOM     42  N   UNL A   1      43.016  28.421  28.579  1.00  0.00    -0.354 N 
ATOM     43  C   UNL A   1      38.162  31.228  29.282  1.00  0.00     0.074 A 
ATOM     44  C   UNL A   1      37.550  30.532  28.169  1.00  0.00     0.031 C 
ATOM     45  C   UNL A   1      43.337  28.871  30.752  1.00  0.00     0.029 A 
ATOM     46  C   UNL A   1      43.897  29.063  29.449  1.00  0.00     0.049 A 
ATOM     47  H   UNL A   1      43.265  28.062  27.695  1.00  0.00     0.167 HD
ATOM     48  C   UNL A   1      38.031  32.555  29.654  1.00  0.00     0.034 A 
ATOM     49  C   UNL A   1      45.128  29.596  29.344  1.00  0.00     0.034 A 
ATOM     50  C   UNL A   1      39.255  33.279  30.189  1.00  0.00     0.049 A 
ATOM     51  C   UNL A   1      45.016  31.147  29.411  1.00  0.00     0.074 A 
ATOM     52  C   UNL A   1      39.656  33.718  31.450  1.00  0.00     0.029 A 
ATOM     53  N   UNL A   1      40.365  33.652  29.355  1.00  0.00    -0.354 N 
ATOM     54  N   UNL A   1      44.021  31.835  29.948  1.00  0.00    -0.248 NA
ATOM     55  C   UNL A   1      46.013  32.075  28.888  1.00  0.00     0.031 C 
ATOM     56  C   UNL A   1      41.014  34.204  31.393  1.00  0.00     0.029 A 
ATOM     57  C   UNL A   1      41.549  33.962  30.122  1.00  0.00     0.049 A 
ATOM     58  H   UNL A   1      40.321  33.692  28.372  1.00  0.00     0.167 HD
ATOM     59  C   UNL A   1      44.018  33.179  29.554  1.00  0.00     0.074 A 
ATOM     60  C   UNL A   1      45.409  33.271  29.065  1.00  0.00     0.031 C 
ATOM     61  C   UNL A   1      42.951  34.119  29.515  1.00  0.00     0.034 A 
BRANCH  48  62
ATOM     62  C   UNL A   1      36.584  33.114  29.879  1.00  0.00     0.023 A 
ATOM     63  C   UNL A   1      35.870  33.535  28.729  1.00  0.00     0.012 A 
ATOM     64  C   UNL A   1      35.905  33.362  31.104  1.00  0.00     0.148 A 
ATOM     65  C   UNL A   1      34.639  34.211  28.781  1.00  0.00     0.002 A 
ATOM     66  C   UNL A   1      34.694  34.073  31.164  1.00  0.00     0.091 A 
ATOM     67  F   UNL A   1      36.358  32.842  32.243  1.00  0.00    -0.205 F 
ATOM     68  C   UNL A   1      34.061  34.505  30.001  1.00  0.00     0.022 A 
BRANCH  66  69
ATOM     69  S   UNL A   1      33.891  34.523  32.721  1.00  0.00     0.127 S 
ATOM     70  O   UNL A   1      32.766  35.343  32.267  1.00  0.00    -0.237 OA
ATOM     71  O   UNL A   1      33.507  33.220  33.262  1.00  0.00    -0.237 OA
ATOM     72  O   UNL A   1      34.884  35.253  33.500  1.00  0.00    -0.744 OA
ENDBRANCH  66  69
ENDBRANCH  48  62
BRANCH  49  73
ATOM     73  C   UNL A   1      46.051  28.531  28.814  1.00  0.00     0.023 A 
ATOM     74  C   UNL A   1      46.180  27.414  29.705  1.00  0.00     0.012 A 
ATOM     75  C   UNL A   1      45.989  28.241  27.437  1.00  0.00     0.148 A 
ATOM     76  C   UNL A   1      46.001  26.090  29.265  1.00  0.00     0.002 A 
ATOM     77  C   UNL A   1      45.726  26.925  27.019  1.00  0.00     0.091 A 
ATOM     78  F   UNL A   1      45.942  29.272  26.584  1.00  0.00    -0.205 F 
ATOM     79  C   UNL A   1      45.715  25.855  27.929  1.00  0.00     0.022 A 
BRANCH  77  80
ATOM     80  S   UNL A   1      44.943  26.609  25.419  1.00  0.00     0.127 S 
ATOM     81  O   UNL A   1      45.996  26.978  24.481  1.00  0.00    -0.237 OA
ATOM     82  O   UNL A   1      44.656  25.177  25.507  1.00  0.00    -0.237 OA
ATOM     83  O   UNL A   1      43.751  27.443  25.427  1.00  0.00    -0.744 OA
ENDBRANCH  77  80
ENDBRANCH  49  73
BRANCH  61  84
ATOM     84  C   UNL A   1      43.109  35.455  28.786  1.00  0.00     0.023 A 
ATOM     85  C   UNL A   1      42.443  35.735  27.581  1.00  0.00     0.012 A 
ATOM     86  C   UNL A   1      43.792  36.541  29.394  1.00  0.00     0.148 A 
ATOM     87  C   UNL A   1      42.545  36.974  26.949  1.00  0.00     0.002 A 
ATOM     88  C   UNL A   1      43.749  37.815  28.847  1.00  0.00     0.091 A 
ATOM     89  F   UNL A   1      44.521  36.359  30.503  1.00  0.00    -0.205 F 
ATOM     90  C   UNL A   1      43.175  38.025  27.595  1.00  0.00     0.022 A 
BRANCH  88  91
ATOM     91  S   UNL A   1      44.253  39.243  29.814  1.00  0.00     0.127 S 
ATOM     92  O   UNL A   1      45.709  39.152  29.751  1.00  0.00    -0.237 OA
ATOM     93  O   UNL A   1      43.675  40.351  29.051  1.00  0.00    -0.237 OA
ATOM     94  O   UNL A   1      43.651  39.050  31.127  1.00  0.00    -0.744 OA
ENDBRANCH  88  91
ENDBRANCH  61  84
ENDBRANCH  35  36
ENDBRANCH  28  30
ENDBRANCH  27  28
ENDBRANCH  26  27
ENDBRANCH   1  26
TORSDOF 21
ENDMDL
MODEL 3
REMARK VINA RESULT:     -11.2      1.553      2.524
REMARK SMILES Cc1ccc(C[C@@H](Cc2cc(F)cc(Br)c2)C(=O)OCCOCCOC(=O)c2ccc(-c3c4nc(c(-c5cccc(S(=O)(=O)[O-])c5F)c5ccc([nH]5)c(-c5cccc(S(=O)(=O)[O-])c5F)c5nc(c(-c6cccc(S(=O)(=O)[O-])c6F)c6ccc3[nH]6)C=C5)C=C4)cc2)cc1
REMARK SMILES IDX 23 1 22 2 21 3 20 4 19 5 17 6 18 7 7 8 6 9 5 10 1 11 2 12
REMARK SMILES IDX 3 13 92 14 4 15 91 16 8 17 9 18 10 19 16 20 11 21 14 22
REMARK SMILES IDX 12 23 13 24 15 25 24 26 25 27 26 28 27 29 28 30 29 31 90 32
REMARK SMILES IDX 30 33 89 34 31 35 32 36 33 37 83 38 34 39 88 40 82 41 84 42
REMARK SMILES IDX 35 43 87 44 81 45 80 46 36 48 68 49 48 50 67 51 49 52 52 53
REMARK SMILES IDX 66 54 85 55 50 56 51 57 65 59 86 60 53 61 37 62 38 63 46 64
REMARK SMILES IDX 39 65 41 66 47 67 40 68 42 69 43 70 44 71 45 72 69 73 70 74
REMARK SMILES IDX 78 75 71 76 73 77 79 78 72 79 74 80 75 81 76 82 77 83 54 84
REMARK SMILES IDX 55 85 63 86 56 87 58 88 64 89 57 90 59 91 60 92 61 93 62 94
REMARK H PARENT 84 47 52 58
REMARK Flexibility Score: inf
ROOT
ATOM      1  C   UNL A   1      39.606  21.354  25.807  1.00  0.00     0.202 C 
ENDROOT
BRANCH   1   2
ATOM      2  O   UNL A   1      38.241  21.105  25.583  1.00  0.00    -0.374 OA
BRANCH   2   3
ATOM      3  C   UNL A   1      37.879  19.839  25.060  1.00  0.00     0.202 C 
BRANCH   3   4
ATOM      4  C   UNL A   1      36.408  19.964  24.767  1.00  0.00     0.261 C 
BRANCH   4   5
ATOM      5  O   UNL A   1      36.088  21.351  24.534  1.00  0.00    -0.463 OA
BRANCH   5   6
ATOM      6  C   UNL A   1      34.851  21.879  24.267  1.00  0.00     0.309 C 
ATOM      7  O   UNL A   1      33.756  21.328  24.384  1.00  0.00    -0.252 OA
BRANCH   6   8
ATOM      8  C   UNL A   1      35.012  23.325  23.830  1.00  0.00     0.108 C 
BRANCH   8   9
ATOM      9  C   UNL A   1      33.968  23.399  22.668  1.00  0.00     0.051 C 
BRANCH   9  10
ATOM     10  C   UNL A   1      33.051  24.560  22.602  1.00  0.00    -0.047 A 
ATOM     11  C   UNL A   1      30.421  27.888  22.385  1.00  0.00     0.044 C 
ATOM     12  C   UNL A   1      31.351  26.734  22.540  1.00  0.00    -0.051 A 
ATOM     13  C   UNL A   1      32.698  26.899  22.204  1.00  0.00     0.004 A 
ATOM     14  C   UNL A   1      30.875  25.486  22.958  1.00  0.00     0.004 A 
ATOM     15  C   UNL A   1      33.552  25.816  22.250  1.00  0.00     0.004 A 
ATOM     16  C   UNL A   1      31.723  24.394  22.983  1.00  0.00     0.004 A 
ENDBRANCH   9  10
ENDBRANCH   8   9
BRANCH   8  17
ATOM     17  C   UNL A   1      34.811  24.540  24.786  1.00  0.00     0.051 C 
BRANCH  17  18
ATOM     18  C   UNL A   1      33.831  24.963  25.863  1.00  0.00    -0.043 A 
ATOM     19  C   UNL A   1      33.482  26.340  25.825  1.00  0.00     0.043 A 
ATOM     20  C   UNL A   1      32.998  24.126  26.562  1.00  0.00     0.019 A 
ATOM     21  C   UNL A   1      32.198  26.776  26.124  1.00  0.00     0.124 A 
ATOM     22  C   UNL A   1      31.675  24.559  26.673  1.00  0.00     0.021 A 
ATOM     23  F   UNL A   1      31.841  28.045  25.905  1.00  0.00    -0.207 F 
ATOM     24  C   UNL A   1      31.250  25.857  26.440  1.00  0.00     0.055 A 
ATOM     25  Br  UNL A   1      30.330  23.295  26.661  1.00  0.00    -0.051 Br
ENDBRANCH  17  18
ENDBRANCH   8  17
ENDBRANCH   6   8
ENDBRANCH   5   6
ENDBRANCH   4   5
ENDBRANCH   3   4
ENDBRANCH   2   3
ENDBRANCH   1   2
BRANCH   1  26
ATOM     26  C   UNL A   1      39.820  22.433  26.865  1.00  0.00     0.261 C 
BRANCH  26  27
ATOM     27  O   UNL A   1      41.234  22.585  27.107  1.00  0.00    -0.460 OA
BRANCH  27  28
ATOM     28  C   UNL A   1      41.823  23.635  26.465  1.00  0.00     0.338 C 
ATOM     29  O   UNL A   1      42.831  23.539  25.784  1.00  0.00    -0.246 OA
BRANCH  28  30
ATOM     30  C   UNL A   1      41.188  24.919  26.894  1.00  0.00     0.060 A 
ATOM     31  C   UNL A   1      41.097  25.992  25.991  1.00  0.00     0.016 A 
ATOM     32  C   UNL A   1      40.985  25.147  28.253  1.00  0.00     0.016 A 
ATOM     33  C   UNL A   1      41.022  27.307  26.467  1.00  0.00     0.010 A 
ATOM     34  C   UNL A   1      40.995  26.447  28.722  1.00  0.00     0.010 A 
ATOM     35  C   UNL A   1      41.092  27.536  27.838  1.00  0.00    -0.014 A 
BRANCH  35  36
ATOM     36  C   UNL A   1      41.441  28.839  28.457  1.00  0.00     0.031 A 
ATOM     37  C   UNL A   1      40.199  29.656  28.904  1.00  0.00     0.074 A 
ATOM     38  C   UNL A   1      42.727  28.872  28.923  1.00  0.00     0.049 A 
ATOM     39  N   UNL A   1      39.993  30.494  29.876  1.00  0.00    -0.248 NA
ATOM     40  C   UNL A   1      39.017  29.582  28.040  1.00  0.00     0.031 C 
ATOM     41  C   UNL A   1      43.208  29.034  30.276  1.00  0.00     0.029 A 
ATOM     42  N   UNL A   1      43.904  29.116  28.227  1.00  0.00    -0.354 N 
ATOM     43  C   UNL A   1      38.859  31.249  29.621  1.00  0.00     0.074 A 
ATOM     44  C   UNL A   1      38.205  30.502  28.567  1.00  0.00     0.031 C 
ATOM     45  C   UNL A   1      44.435  29.560  30.360  1.00  0.00     0.029 A 
ATOM     46  C   UNL A   1      44.798  29.851  29.006  1.00  0.00     0.049 A 
ATOM     47  H   UNL A   1      44.082  28.811  27.308  1.00  0.00     0.167 HD
ATOM     48  C   UNL A   1      38.608  32.539  30.054  1.00  0.00     0.034 A 
ATOM     49  C   UNL A   1      45.928  30.542  28.771  1.00  0.00     0.034 A 
ATOM     50  C   UNL A   1      39.788  33.407  30.462  1.00  0.00     0.049 A 
ATOM     51  C   UNL A   1      45.629  32.063  28.908  1.00  0.00     0.074 A 
ATOM     52  C   UNL A   1      40.285  33.869  31.680  1.00  0.00     0.029 A 
ATOM     53  N   UNL A   1      40.727  33.939  29.512  1.00  0.00    -0.354 N 
ATOM     54  N   UNL A   1      44.630  32.604  29.588  1.00  0.00    -0.248 NA
ATOM     55  C   UNL A   1      46.426  33.124  28.302  1.00  0.00     0.031 C 
ATOM     56  C   UNL A   1      41.553  34.529  31.475  1.00  0.00     0.029 A 
ATOM     57  C   UNL A   1      41.950  34.385  30.140  1.00  0.00     0.049 A 
ATOM     58  H   UNL A   1      40.555  33.993  28.544  1.00  0.00     0.167 HD
ATOM     59  C   UNL A   1      44.407  33.943  29.246  1.00  0.00     0.074 A 
ATOM     60  C   UNL A   1      45.702  34.227  28.594  1.00  0.00     0.031 C 
ATOM     61  C   UNL A   1      43.232  34.737  29.372  1.00  0.00     0.034 A 
BRANCH  48  62
ATOM     62  C   UNL A   1      37.142  32.900  30.475  1.00  0.00     0.023 A 
ATOM     63  C   UNL A   1      36.550  32.110  31.491  1.00  0.00     0.012 A 
ATOM     64  C   UNL A   1      36.261  33.858  29.901  1.00  0.00     0.148 A 
ATOM     65  C   UNL A   1      35.196  32.196  31.857  1.00  0.00     0.002 A 
ATOM     66  C   UNL A   1      34.896  33.922  30.234  1.00  0.00     0.091 A 
ATOM     67  F   UNL A   1      36.728  34.800  29.084  1.00  0.00    -0.205 F 
ATOM     68  C   UNL A   1      34.360  33.086  31.210  1.00  0.00     0.022 A 
BRANCH  66  69
ATOM     69  S   UNL A   1      33.732  35.036  29.413  1.00  0.00     0.127 S 
ATOM     70  O   UNL A   1      34.485  35.457  28.229  1.00  0.00    -0.237 OA
ATOM     71  O   UNL A   1      32.604  34.151  29.125  1.00  0.00    -0.237 OA
ATOM     72  O   UNL A   1      33.457  36.112  30.357  1.00  0.00    -0.744 OA
ENDBRANCH  66  69
ENDBRANCH  48  62
BRANCH  49  73
ATOM     73  C   UNL A   1      46.905  29.617  28.094  1.00  0.00     0.023 A 
ATOM     74  C   UNL A   1      47.373  28.572  28.959  1.00  0.00     0.012 A 
ATOM     75  C   UNL A   1      46.647  29.265  26.755  1.00  0.00     0.148 A 
ATOM     76  C   UNL A   1      47.339  27.220  28.574  1.00  0.00     0.002 A 
ATOM     77  C   UNL A   1      46.536  27.909  26.406  1.00  0.00     0.091 A 
ATOM     78  F   UNL A   1      46.281  30.240  25.913  1.00  0.00    -0.205 F 
ATOM     79  C   UNL A   1      46.864  26.888  27.315  1.00  0.00     0.022 A 
BRANCH  77  80
ATOM     80  S   UNL A   1      45.544  27.406  24.979  1.00  0.00     0.127 S 
ATOM     81  O   UNL A   1      46.308  27.949  23.863  1.00  0.00    -0.237 OA
ATOM     82  O   UNL A   1      45.564  25.948  25.103  1.00  0.00    -0.237 OA
ATOM     83  O   UNL A   1      44.234  27.992  25.223  1.00  0.00    -0.744 OA
ENDBRANCH  77  80
ENDBRANCH  49  73
BRANCH  61  84
ATOM     84  C   UNL A   1      43.126  36.096  28.679  1.00  0.00     0.023 A 
ATOM     85  C   UNL A   1      42.302  36.305  27.560  1.00  0.00     0.012 A 
ATOM     86  C   UNL A   1      43.714  37.255  29.251  1.00  0.00     0.148 A 
ATOM     87  C   UNL A   1      42.165  37.559  26.964  1.00  0.00     0.002 A 
ATOM     88  C   UNL A   1      43.438  38.521  28.758  1.00  0.00     0.091 A 
ATOM     89  F   UNL A   1      44.576  37.154  30.272  1.00  0.00    -0.205 F 
ATOM     90  C   UNL A   1      42.710  38.675  27.580  1.00  0.00     0.022 A 
BRANCH  88  91
ATOM     91  S   UNL A   1      43.841  39.985  29.717  1.00  0.00     0.127 S 
ATOM     92  O   UNL A   1      45.301  39.941  29.739  1.00  0.00    -0.237 OA
ATOM     93  O   UNL A   1      43.273  41.058  28.897  1.00  0.00    -0.237 OA
ATOM     94  O   UNL A   1      43.172  39.802  30.998  1.00  0.00    -0.744 OA
ENDBRANCH  88  91
ENDBRANCH  61  84
ENDBRANCH  35  36
ENDBRANCH  28  30
ENDBRANCH  27  28
ENDBRANCH  26  27
ENDBRANCH   1  26
TORSDOF 21
ENDMDL
