MODEL 1
REMARK VINA RESULT:     -11.2      0.000      0.000
REMARK SMILES Cc1[nH]c2ccc(Br)cc2c(=O)c1CCC(=O)OCCOCCOC(=O)c1ccc(-c2c3nc(c(-c4cccc(S(=O)(=O)[O-])c4F)c4ccc([nH]4)c(-c4cccc(S(=O)(=O)[O-])c4F)c4nc(c(-c5cccc(S(=O)(=O)[O-])c5F)c5ccc2[nH]5)C=C4)C=C3)cc1
REMARK SMILES IDX 22 1 21 2 20 3 19 4 18 5 16 6 17 7 15 8 14 9 13 10 1 11 2 12
REMARK SMILES IDX 3 13 4 14 11 16 5 17 10 18 12 19 6 20 9 21 7 22 8 23 23 24
REMARK SMILES IDX 24 25 25 26 26 27 27 28 28 29 89 30 29 31 88 32 30 33 31 34
REMARK SMILES IDX 32 35 82 36 33 37 87 38 81 39 83 40 34 41 86 42 80 43 79 44
REMARK SMILES IDX 35 46 67 47 47 48 66 49 48 50 51 51 65 52 84 53 49 54 50 55
REMARK SMILES IDX 64 57 85 58 52 59 36 60 37 61 45 62 38 63 40 64 46 65 39 66
REMARK SMILES IDX 41 67 42 68 43 69 44 70 68 71 69 72 77 73 70 74 72 75 78 76
REMARK SMILES IDX 71 77 73 78 74 79 75 80 76 81 53 82 54 83 62 84 55 85 57 86
REMARK SMILES IDX 63 87 56 88 58 89 59 90 60 91 61 92
REMARK H PARENT 3 15 83 45 51 56
REMARK Flexibility Score: inf
ROOT
ATOM      1  C   UNL A   1      31.342  30.667  25.479  1.00  0.00     0.202 C 
ENDROOT
BRANCH   1   2
ATOM      2  O   UNL A   1      31.032  29.403  24.891  1.00  0.00    -0.374 OA
BRANCH   2   3
ATOM      3  C   UNL A   1      30.412  29.464  23.604  1.00  0.00     0.202 C 
BRANCH   3   4
ATOM      4  C   UNL A   1      29.957  28.101  23.063  1.00  0.00     0.261 C 
BRANCH   4   5
ATOM      5  O   UNL A   1      30.944  27.060  23.237  1.00  0.00    -0.463 OA
BRANCH   5   6
ATOM      6  C   UNL A   1      30.519  25.852  23.682  1.00  0.00     0.306 C 
ATOM      7  O   UNL A   1      30.610  24.796  23.069  1.00  0.00    -0.252 OA
BRANCH   6   8
ATOM      8  C   UNL A   1      29.855  25.963  25.041  1.00  0.00     0.127 C 
BRANCH   8   9
ATOM      9  C   UNL A   1      30.810  26.252  26.210  1.00  0.00     0.053 C 
BRANCH   9  10
ATOM     10  C   UNL A   1      32.074  25.428  26.168  1.00  0.00     0.020 A 
ATOM     11  C   UNL A   1      33.679  27.198  25.464  1.00  0.00     0.064 C 
ATOM     12  C   UNL A   1      33.340  25.784  25.846  1.00  0.00     0.019 A 
ATOM     13  N   UNL A   1      34.378  24.856  25.786  1.00  0.00    -0.358 N 
ATOM     14  C   UNL A   1      34.100  23.485  25.659  1.00  0.00     0.050 A 
ATOM     15  H   UNL A   1      35.312  25.163  25.834  1.00  0.00     0.166 HD
ATOM     16  C   UNL A   1      31.917  24.010  26.576  1.00  0.00     0.192 A 
ATOM     17  C   UNL A   1      34.993  22.584  25.088  1.00  0.00     0.028 A 
ATOM     18  C   UNL A   1      32.804  23.045  25.935  1.00  0.00     0.047 A 
ATOM     19  O   UNL A   1      31.084  23.663  27.385  1.00  0.00    -0.289 OA
ATOM     20  C   UNL A   1      34.516  21.354  24.614  1.00  0.00     0.018 A 
ATOM     21  C   UNL A   1      32.312  21.828  25.490  1.00  0.00     0.030 A 
ATOM     22  C   UNL A   1      33.161  21.040  24.731  1.00  0.00     0.018 A 
ATOM     23  Br  UNL A   1      32.398  19.727  23.615  1.00  0.00    -0.051 Br
ENDBRANCH   9  10
ENDBRANCH   8   9
ENDBRANCH   6   8
ENDBRANCH   5   6
ENDBRANCH   4   5
ENDBRANCH   3   4
ENDBRANCH   2   3
ENDBRANCH   1   2
BRANCH   1  24
ATOM     24  C   UNL A   1      32.069  30.590  26.832  1.00  0.00     0.261 C 
BRANCH  24  25
ATOM     25  O   UNL A   1      33.487  30.807  26.726  1.00  0.00    -0.460 OA
BRANCH  25  26
ATOM     26  C   UNL A   1      34.025  31.680  27.608  1.00  0.00     0.338 C 
ATOM     27  O   UNL A   1      33.469  32.657  28.085  1.00  0.00    -0.246 OA
BRANCH  26  28
ATOM     28  C   UNL A   1      35.376  31.227  28.044  1.00  0.00     0.060 A 
ATOM     29  C   UNL A   1      36.452  32.097  28.245  1.00  0.00     0.016 A 
ATOM     30  C   UNL A   1      35.557  29.857  28.270  1.00  0.00     0.016 A 
ATOM     31  C   UNL A   1      37.689  31.593  28.684  1.00  0.00     0.010 A 
ATOM     32  C   UNL A   1      36.782  29.360  28.736  1.00  0.00     0.010 A 
ATOM     33  C   UNL A   1      37.867  30.219  28.954  1.00  0.00    -0.014 A 
BRANCH  33  34
ATOM     34  C   UNL A   1      39.117  29.733  29.613  1.00  0.00     0.031 A 
ATOM     35  C   UNL A   1      39.672  30.315  30.885  1.00  0.00     0.074 A 
ATOM     36  C   UNL A   1      39.826  28.754  29.016  1.00  0.00     0.049 A 
ATOM     37  N   UNL A   1      40.532  29.778  31.716  1.00  0.00    -0.248 NA
ATOM     38  C   UNL A   1      39.215  31.650  31.289  1.00  0.00     0.031 C 
ATOM     39  C   UNL A   1      39.521  28.167  27.713  1.00  0.00     0.029 A 
ATOM     40  N   UNL A   1      40.967  28.105  29.419  1.00  0.00    -0.354 N 
ATOM     41  C   UNL A   1      40.633  30.656  32.787  1.00  0.00     0.074 A 
ATOM     42  C   UNL A   1      39.814  31.801  32.467  1.00  0.00     0.031 C 
ATOM     43  C   UNL A   1      40.450  27.244  27.423  1.00  0.00     0.029 A 
ATOM     44  C   UNL A   1      41.420  27.177  28.514  1.00  0.00     0.049 A 
ATOM     45  H   UNL A   1      41.417  28.286  30.276  1.00  0.00     0.167 HD
ATOM     46  C   UNL A   1      41.313  30.504  33.946  1.00  0.00     0.034 A 
ATOM     47  C   UNL A   1      42.493  26.362  28.547  1.00  0.00     0.034 A 
ATOM     48  C   UNL A   1      42.286  29.474  34.187  1.00  0.00     0.049 A 
ATOM     49  C   UNL A   1      43.385  26.337  29.753  1.00  0.00     0.074 A 
ATOM     50  C   UNL A   1      43.020  29.237  35.337  1.00  0.00     0.029 A 
ATOM     51  N   UNL A   1      42.745  28.591  33.227  1.00  0.00    -0.354 N 
ATOM     52  N   UNL A   1      43.234  26.958  30.896  1.00  0.00    -0.248 NA
ATOM     53  C   UNL A   1      44.583  25.486  29.686  1.00  0.00     0.031 C 
ATOM     54  C   UNL A   1      43.975  28.258  35.047  1.00  0.00     0.029 A 
ATOM     55  C   UNL A   1      43.810  27.867  33.728  1.00  0.00     0.049 A 
ATOM     56  H   UNL A   1      42.370  28.494  32.322  1.00  0.00     0.167 HD
ATOM     57  C   UNL A   1      44.303  26.561  31.691  1.00  0.00     0.074 A 
ATOM     58  C   UNL A   1      45.095  25.640  30.902  1.00  0.00     0.031 C 
ATOM     59  C   UNL A   1      44.594  26.936  32.960  1.00  0.00     0.034 A 
BRANCH  46  60
ATOM     60  C   UNL A   1      41.007  31.434  35.086  1.00  0.00     0.023 A 
ATOM     61  C   UNL A   1      41.954  32.434  35.391  1.00  0.00     0.012 A 
ATOM     62  C   UNL A   1      39.759  31.439  35.731  1.00  0.00     0.148 A 
ATOM     63  C   UNL A   1      41.658  33.435  36.315  1.00  0.00     0.002 A 
ATOM     64  C   UNL A   1      39.467  32.445  36.646  1.00  0.00     0.091 A 
ATOM     65  F   UNL A   1      38.880  30.475  35.422  1.00  0.00    -0.205 F 
ATOM     66  C   UNL A   1      40.413  33.446  36.935  1.00  0.00     0.022 A 
BRANCH  64  67
ATOM     67  S   UNL A   1      37.886  32.570  37.487  1.00  0.00     0.127 S 
ATOM     68  O   UNL A   1      37.869  31.333  38.266  1.00  0.00    -0.237 OA
ATOM     69  O   UNL A   1      38.055  33.788  38.280  1.00  0.00    -0.237 OA
ATOM     70  O   UNL A   1      36.877  32.651  36.440  1.00  0.00    -0.744 OA
ENDBRANCH  64  67
ENDBRANCH  46  60
BRANCH  47  71
ATOM     71  C   UNL A   1      42.731  25.460  27.391  1.00  0.00     0.023 A 
ATOM     72  C   UNL A   1      43.595  25.873  26.360  1.00  0.00     0.012 A 
ATOM     73  C   UNL A   1      42.192  24.159  27.370  1.00  0.00     0.148 A 
ATOM     74  C   UNL A   1      43.926  24.996  25.327  1.00  0.00     0.002 A 
ATOM     75  C   UNL A   1      42.561  23.279  26.363  1.00  0.00     0.091 A 
ATOM     76  F   UNL A   1      41.364  23.802  28.361  1.00  0.00    -0.205 F 
ATOM     77  C   UNL A   1      43.421  23.697  25.336  1.00  0.00     0.022 A 
BRANCH  75  78
ATOM     78  S   UNL A   1      42.060  21.555  26.358  1.00  0.00     0.127 S 
ATOM     79  O   UNL A   1      42.502  21.113  27.678  1.00  0.00    -0.237 OA
ATOM     80  O   UNL A   1      40.610  21.665  26.197  1.00  0.00    -0.237 OA
ATOM     81  O   UNL A   1      42.750  20.944  25.229  1.00  0.00    -0.744 OA
ENDBRANCH  75  78
ENDBRANCH  47  71
BRANCH  59  82
ATOM     82  C   UNL A   1      45.835  26.391  33.611  1.00  0.00     0.023 A 
ATOM     83  C   UNL A   1      47.002  27.177  33.629  1.00  0.00     0.012 A 
ATOM     84  C   UNL A   1      45.792  25.190  34.346  1.00  0.00     0.148 A 
ATOM     85  C   UNL A   1      48.110  26.777  34.376  1.00  0.00     0.002 A 
ATOM     86  C   UNL A   1      46.887  24.816  35.116  1.00  0.00     0.091 A 
ATOM     87  F   UNL A   1      44.667  24.461  34.310  1.00  0.00    -0.205 F 
ATOM     88  C   UNL A   1      48.048  25.606  35.129  1.00  0.00     0.022 A 
BRANCH  86  89
ATOM     89  S   UNL A   1      46.873  23.374  36.187  1.00  0.00     0.127 S 
ATOM     90  O   UNL A   1      45.619  23.557  36.917  1.00  0.00    -0.237 OA
ATOM     91  O   UNL A   1      46.863  22.274  35.222  1.00  0.00    -0.237 OA
ATOM     92  O   UNL A   1      48.077  23.461  37.002  1.00  0.00    -0.744 OA
ENDBRANCH  86  89
ENDBRANCH  59  82
ENDBRANCH  33  34
ENDBRANCH  26  28
ENDBRANCH  25  26
ENDBRANCH  24  25
ENDBRANCH   1  24
TORSDOF 19
ENDMDL
MODEL 2
REMARK VINA RESULT:     -11.0      1.424      2.139
REMARK SMILES Cc1[nH]c2ccc(Br)cc2c(=O)c1CCC(=O)OCCOCCOC(=O)c1ccc(-c2c3nc(c(-c4cccc(S(=O)(=O)[O-])c4F)c4ccc([nH]4)c(-c4cccc(S(=O)(=O)[O-])c4F)c4nc(c(-c5cccc(S(=O)(=O)[O-])c5F)c5ccc2[nH]5)C=C4)C=C3)cc1
REMARK SMILES IDX 22 1 21 2 20 3 19 4 18 5 16 6 17 7 15 8 14 9 13 10 1 11 2 12
REMARK SMILES IDX 3 13 4 14 11 16 5 17 10 18 12 19 6 20 9 21 7 22 8 23 23 24
REMARK SMILES IDX 24 25 25 26 26 27 27 28 28 29 89 30 29 31 88 32 30 33 31 34
REMARK SMILES IDX 32 35 82 36 33 37 87 38 81 39 83 40 34 41 86 42 80 43 79 44
REMARK SMILES IDX 35 46 67 47 47 48 66 49 48 50 51 51 65 52 84 53 49 54 50 55
REMARK SMILES IDX 64 57 85 58 52 59 36 60 37 61 45 62 38 63 40 64 46 65 39 66
REMARK SMILES IDX 41 67 42 68 43 69 44 70 68 71 69 72 77 73 70 74 72 75 78 76
REMARK SMILES IDX 71 77 73 78 74 79 75 80 76 81 53 82 54 83 62 84 55 85 57 86
REMARK SMILES IDX 63 87 56 88 58 89 59 90 60 91 61 92
REMARK H PARENT 3 15 83 45 51 56
REMARK Flexibility Score: inf
ROOT
ATOM      1  C   UNL A   1      32.152  29.897  25.292  1.00  0.00     0.202 C 
ENDROOT
BRANCH   1   2
ATOM      2  O   UNL A   1      30.912  29.452  24.741  1.00  0.00    -0.374 OA
BRANCH   2   3
ATOM      3  C   UNL A   1      31.021  28.653  23.560  1.00  0.00     0.202 C 
BRANCH   3   4
ATOM      4  C   UNL A   1      31.738  27.313  23.776  1.00  0.00     0.261 C 
BRANCH   4   5
ATOM      5  O   UNL A   1      31.221  26.564  24.898  1.00  0.00    -0.463 OA
BRANCH   5   6
ATOM      6  C   UNL A   1      32.111  25.922  25.694  1.00  0.00     0.306 C 
ATOM      7  O   UNL A   1      33.080  26.437  26.236  1.00  0.00    -0.252 OA
BRANCH   6   8
ATOM      8  C   UNL A   1      31.793  24.443  25.806  1.00  0.00     0.127 C 
BRANCH   8   9
ATOM      9  C   UNL A   1      31.872  23.659  24.486  1.00  0.00     0.053 C 
BRANCH   9  10
ATOM     10  C   UNL A   1      33.094  22.779  24.385  1.00  0.00     0.020 A 
ATOM     11  C   UNL A   1      32.054  20.589  24.958  1.00  0.00     0.064 C 
ATOM     12  C   UNL A   1      33.231  21.447  24.585  1.00  0.00     0.019 A 
ATOM     13  N   UNL A   1      34.470  20.813  24.524  1.00  0.00    -0.358 N 
ATOM     14  C   UNL A   1      35.657  21.554  24.653  1.00  0.00     0.050 A 
ATOM     15  H   UNL A   1      34.515  19.838  24.388  1.00  0.00     0.166 HD
ATOM     16  C   UNL A   1      34.338  23.472  23.970  1.00  0.00     0.192 A 
ATOM     17  C   UNL A   1      36.846  21.000  25.115  1.00  0.00     0.028 A 
ATOM     18  C   UNL A   1      35.589  22.940  24.501  1.00  0.00     0.047 A 
ATOM     19  O   UNL A   1      34.322  24.441  23.242  1.00  0.00    -0.289 OA
ATOM     20  C   UNL A   1      37.848  21.844  25.611  1.00  0.00     0.018 A 
ATOM     21  C   UNL A   1      36.572  23.797  24.970  1.00  0.00     0.030 A 
ATOM     22  C   UNL A   1      37.650  23.227  25.625  1.00  0.00     0.018 A 
ATOM     23  Br  UNL A   1      38.662  24.311  26.788  1.00  0.00    -0.051 Br
ENDBRANCH   9  10
ENDBRANCH   8   9
ENDBRANCH   6   8
ENDBRANCH   5   6
ENDBRANCH   4   5
ENDBRANCH   3   4
ENDBRANCH   2   3
ENDBRANCH   1   2
BRANCH   1  24
ATOM     24  C   UNL A   1      32.025  30.757  26.561  1.00  0.00     0.261 C 
BRANCH  24  25
ATOM     25  O   UNL A   1      33.101  30.553  27.494  1.00  0.00    -0.460 OA
BRANCH  25  26
ATOM     26  C   UNL A   1      33.870  31.632  27.763  1.00  0.00     0.338 C 
ATOM     27  O   UNL A   1      33.497  32.796  27.784  1.00  0.00    -0.246 OA
BRANCH  26  28
ATOM     28  C   UNL A   1      35.242  31.217  28.170  1.00  0.00     0.060 A 
ATOM     29  C   UNL A   1      36.327  32.097  28.230  1.00  0.00     0.016 A 
ATOM     30  C   UNL A   1      35.434  29.874  28.519  1.00  0.00     0.016 A 
ATOM     31  C   UNL A   1      37.585  31.631  28.651  1.00  0.00     0.010 A 
ATOM     32  C   UNL A   1      36.681  29.419  28.966  1.00  0.00     0.010 A 
ATOM     33  C   UNL A   1      37.776  30.289  29.044  1.00  0.00    -0.014 A 
BRANCH  33  34
ATOM     34  C   UNL A   1      39.059  29.863  29.681  1.00  0.00     0.031 A 
ATOM     35  C   UNL A   1      39.584  30.438  30.969  1.00  0.00     0.074 A 
ATOM     36  C   UNL A   1      39.825  28.952  29.050  1.00  0.00     0.049 A 
ATOM     37  N   UNL A   1      40.482  29.931  31.778  1.00  0.00    -0.248 NA
ATOM     38  C   UNL A   1      39.046  31.728  31.418  1.00  0.00     0.031 C 
ATOM     39  C   UNL A   1      39.549  28.388  27.729  1.00  0.00     0.029 A 
ATOM     40  N   UNL A   1      41.008  28.363  29.426  1.00  0.00    -0.354 N 
ATOM     41  C   UNL A   1      40.533  30.778  32.877  1.00  0.00     0.074 A 
ATOM     42  C   UNL A   1      39.642  31.878  32.598  1.00  0.00     0.031 C 
ATOM     43  C   UNL A   1      40.534  27.536  27.405  1.00  0.00     0.029 A 
ATOM     44  C   UNL A   1      41.513  27.496  28.489  1.00  0.00     0.049 A 
ATOM     45  H   UNL A   1      41.451  28.546  30.287  1.00  0.00     0.167 HD
ATOM     46  C   UNL A   1      41.230  30.633  34.027  1.00  0.00     0.034 A 
ATOM     47  C   UNL A   1      42.636  26.751  28.491  1.00  0.00     0.034 A 
ATOM     48  C   UNL A   1      42.267  29.660  34.231  1.00  0.00     0.049 A 
ATOM     49  C   UNL A   1      43.536  26.744  29.691  1.00  0.00     0.074 A 
ATOM     50  C   UNL A   1      43.023  29.433  35.369  1.00  0.00     0.029 A 
ATOM     51  N   UNL A   1      42.775  28.840  33.240  1.00  0.00    -0.354 N 
ATOM     52  N   UNL A   1      43.352  27.316  30.855  1.00  0.00    -0.248 NA
ATOM     53  C   UNL A   1      44.784  25.974  29.592  1.00  0.00     0.031 C 
ATOM     54  C   UNL A   1      44.036  28.527  35.043  1.00  0.00     0.029 A 
ATOM     55  C   UNL A   1      43.888  28.169  33.713  1.00  0.00     0.049 A 
ATOM     56  H   UNL A   1      42.401  28.747  32.335  1.00  0.00     0.167 HD
ATOM     57  C   UNL A   1      44.450  26.963  31.632  1.00  0.00     0.074 A 
ATOM     58  C   UNL A   1      45.293  26.121  30.810  1.00  0.00     0.031 C 
ATOM     59  C   UNL A   1      44.725  27.315  32.911  1.00  0.00     0.034 A 
BRANCH  46  60
ATOM     60  C   UNL A   1      40.872  31.504  35.199  1.00  0.00     0.023 A 
ATOM     61  C   UNL A   1      41.684  32.629  35.453  1.00  0.00     0.012 A 
ATOM     62  C   UNL A   1      39.684  31.325  35.927  1.00  0.00     0.148 A 
ATOM     63  C   UNL A   1      41.311  33.573  36.408  1.00  0.00     0.002 A 
ATOM     64  C   UNL A   1      39.314  32.275  36.874  1.00  0.00     0.091 A 
ATOM     65  F   UNL A   1      38.934  30.246  35.665  1.00  0.00    -0.205 F 
ATOM     66  C   UNL A   1      40.123  33.401  37.111  1.00  0.00     0.022 A 
BRANCH  64  67
ATOM     67  S   UNL A   1      37.793  32.167  37.822  1.00  0.00     0.127 S 
ATOM     68  O   UNL A   1      38.221  32.682  39.122  1.00  0.00    -0.237 OA
ATOM     69  O   UNL A   1      36.903  33.055  37.076  1.00  0.00    -0.237 OA
ATOM     70  O   UNL A   1      37.412  30.762  37.813  1.00  0.00    -0.744 OA
ENDBRANCH  64  67
ENDBRANCH  46  60
BRANCH  47  71
ATOM     71  C   UNL A   1      42.923  25.904  27.305  1.00  0.00     0.023 A 
ATOM     72  C   UNL A   1      43.721  26.418  26.267  1.00  0.00     0.012 A 
ATOM     73  C   UNL A   1      42.501  24.561  27.261  1.00  0.00     0.148 A 
ATOM     74  C   UNL A   1      44.102  25.601  25.203  1.00  0.00     0.002 A 
ATOM     75  C   UNL A   1      42.921  23.743  26.221  1.00  0.00     0.091 A 
ATOM     76  F   UNL A   1      41.733  24.106  28.260  1.00  0.00    -0.205 F 
ATOM     77  C   UNL A   1      43.715  24.262  25.187  1.00  0.00     0.022 A 
BRANCH  75  78
ATOM     78  S   UNL A   1      42.575  21.982  26.179  1.00  0.00     0.127 S 
ATOM     79  O   UNL A   1      41.152  21.966  25.846  1.00  0.00    -0.237 OA
ATOM     80  O   UNL A   1      43.464  21.528  25.110  1.00  0.00    -0.237 OA
ATOM     81  O   UNL A   1      42.915  21.479  27.503  1.00  0.00    -0.744 OA
ENDBRANCH  75  78
ENDBRANCH  47  71
BRANCH  59  82
ATOM     82  C   UNL A   1      46.002  26.829  33.539  1.00  0.00     0.023 A 
ATOM     83  C   UNL A   1      47.131  27.670  33.535  1.00  0.00     0.012 A 
ATOM     84  C   UNL A   1      46.029  25.628  34.275  1.00  0.00     0.148 A 
ATOM     85  C   UNL A   1      48.270  27.323  34.261  1.00  0.00     0.002 A 
ATOM     86  C   UNL A   1      47.155  25.307  35.024  1.00  0.00     0.091 A 
ATOM     87  F   UNL A   1      44.939  24.848  34.260  1.00  0.00    -0.205 F 
ATOM     88  C   UNL A   1      48.277  26.151  35.015  1.00  0.00     0.022 A 
BRANCH  86  89
ATOM     89  S   UNL A   1      47.229  23.867  36.095  1.00  0.00     0.127 S 
ATOM     90  O   UNL A   1      48.591  23.954  36.618  1.00  0.00    -0.237 OA
ATOM     91  O   UNL A   1      46.179  24.156  37.072  1.00  0.00    -0.237 OA
ATOM     92  O   UNL A   1      46.971  22.714  35.243  1.00  0.00    -0.744 OA
ENDBRANCH  86  89
ENDBRANCH  59  82
ENDBRANCH  33  34
ENDBRANCH  26  28
ENDBRANCH  25  26
ENDBRANCH  24  25
ENDBRANCH   1  24
TORSDOF 19
ENDMDL
MODEL 3
REMARK VINA RESULT:     -10.9      1.948      7.918
REMARK SMILES Cc1[nH]c2ccc(Br)cc2c(=O)c1CCC(=O)OCCOCCOC(=O)c1ccc(-c2c3nc(c(-c4cccc(S(=O)(=O)[O-])c4F)c4ccc([nH]4)c(-c4cccc(S(=O)(=O)[O-])c4F)c4nc(c(-c5cccc(S(=O)(=O)[O-])c5F)c5ccc2[nH]5)C=C4)C=C3)cc1
REMARK SMILES IDX 22 1 21 2 20 3 19 4 18 5 16 6 17 7 15 8 14 9 13 10 1 11 2 12
REMARK SMILES IDX 3 13 4 14 11 16 5 17 10 18 12 19 6 20 9 21 7 22 8 23 23 24
REMARK SMILES IDX 24 25 25 26 26 27 27 28 28 29 89 30 29 31 88 32 30 33 31 34
REMARK SMILES IDX 32 35 82 36 33 37 87 38 81 39 83 40 34 41 86 42 80 43 79 44
REMARK SMILES IDX 35 46 67 47 47 48 66 49 48 50 51 51 65 52 84 53 49 54 50 55
REMARK SMILES IDX 64 57 85 58 52 59 36 60 37 61 45 62 38 63 40 64 46 65 39 66
REMARK SMILES IDX 41 67 42 68 43 69 44 70 68 71 69 72 77 73 70 74 72 75 78 76
REMARK SMILES IDX 71 77 73 78 74 79 75 80 76 81 53 82 54 83 62 84 55 85 57 86
REMARK SMILES IDX 63 87 56 88 58 89 59 90 60 91 61 92
REMARK H PARENT 3 15 83 45 51 56
REMARK Flexibility Score: inf
ROOT
ATOM      1  C   UNL A   1      31.363  31.970  26.815  1.00  0.00     0.202 C 
ENDROOT
BRANCH   1   2
ATOM      2  O   UNL A   1      31.817  30.786  26.158  1.00  0.00    -0.374 OA
BRANCH   2   3
ATOM      3  C   UNL A   1      32.789  30.023  26.878  1.00  0.00     0.202 C 
BRANCH   3   4
ATOM      4  C   UNL A   1      32.329  28.602  27.234  1.00  0.00     0.261 C 
BRANCH   4   5
ATOM      5  O   UNL A   1      32.407  27.682  26.122  1.00  0.00    -0.463 OA
BRANCH   5   6
ATOM      6  C   UNL A   1      31.791  26.481  26.250  1.00  0.00     0.306 C 
ATOM      7  O   UNL A   1      30.618  26.312  26.555  1.00  0.00    -0.252 OA
BRANCH   6   8
ATOM      8  C   UNL A   1      32.755  25.334  26.016  1.00  0.00     0.127 C 
BRANCH   8   9
ATOM      9  C   UNL A   1      32.162  23.931  26.224  1.00  0.00     0.053 C 
BRANCH   9  10
ATOM     10  C   UNL A   1      32.297  23.038  25.015  1.00  0.00     0.020 A 
ATOM     11  C   UNL A   1      30.643  24.145  23.517  1.00  0.00     0.064 C 
ATOM     12  C   UNL A   1      31.660  23.081  23.821  1.00  0.00     0.019 A 
ATOM     13  N   UNL A   1      31.860  22.111  22.840  1.00  0.00    -0.358 N 
ATOM     14  C   UNL A   1      32.399  20.858  23.177  1.00  0.00     0.050 A 
ATOM     15  H   UNL A   1      31.622  22.306  21.905  1.00  0.00     0.166 HD
ATOM     16  C   UNL A   1      33.310  21.961  25.136  1.00  0.00     0.192 A 
ATOM     17  C   UNL A   1      32.157  19.708  22.433  1.00  0.00     0.028 A 
ATOM     18  C   UNL A   1      33.037  20.724  24.412  1.00  0.00     0.047 A 
ATOM     19  O   UNL A   1      34.306  22.090  25.813  1.00  0.00    -0.289 OA
ATOM     20  C   UNL A   1      32.359  18.454  23.025  1.00  0.00     0.018 A 
ATOM     21  C   UNL A   1      33.260  19.495  25.013  1.00  0.00     0.030 A 
ATOM     22  C   UNL A   1      32.809  18.371  24.344  1.00  0.00     0.018 A 
ATOM     23  Br  UNL A   1      32.524  16.796  25.339  1.00  0.00    -0.051 Br
ENDBRANCH   9  10
ENDBRANCH   8   9
ENDBRANCH   6   8
ENDBRANCH   5   6
ENDBRANCH   4   5
ENDBRANCH   3   4
ENDBRANCH   2   3
ENDBRANCH   1   2
BRANCH   1  24
ATOM     24  C   UNL A   1      32.397  33.106  26.889  1.00  0.00     0.261 C 
BRANCH  24  25
ATOM     25  O   UNL A   1      32.274  33.907  28.078  1.00  0.00    -0.460 OA
BRANCH  25  26
ATOM     26  C   UNL A   1      33.356  34.645  28.416  1.00  0.00     0.338 C 
ATOM     27  O   UNL A   1      33.413  35.865  28.447  1.00  0.00    -0.246 OA
BRANCH  26  28
ATOM     28  C   UNL A   1      34.468  33.771  28.883  1.00  0.00     0.060 A 
ATOM     29  C   UNL A   1      35.789  33.904  28.443  1.00  0.00     0.016 A 
ATOM     30  C   UNL A   1      34.160  32.777  29.821  1.00  0.00     0.016 A 
ATOM     31  C   UNL A   1      36.787  33.056  28.953  1.00  0.00     0.010 A 
ATOM     32  C   UNL A   1      35.162  31.953  30.350  1.00  0.00     0.010 A 
ATOM     33  C   UNL A   1      36.491  32.080  29.930  1.00  0.00    -0.014 A 
BRANCH  33  34
ATOM     34  C   UNL A   1      37.592  31.332  30.609  1.00  0.00     0.031 A 
ATOM     35  C   UNL A   1      38.325  30.175  29.985  1.00  0.00     0.074 A 
ATOM     36  C   UNL A   1      37.920  31.667  31.873  1.00  0.00     0.049 A 
ATOM     37  N   UNL A   1      39.491  29.676  30.321  1.00  0.00    -0.248 NA
ATOM     38  C   UNL A   1      37.697  29.492  28.849  1.00  0.00     0.031 C 
ATOM     39  C   UNL A   1      37.229  32.665  32.687  1.00  0.00     0.029 A 
ATOM     40  N   UNL A   1      38.903  31.180  32.700  1.00  0.00    -0.354 N 
ATOM     41  C   UNL A   1      39.780  28.702  29.375  1.00  0.00     0.074 A 
ATOM     42  C   UNL A   1      38.635  28.616  28.500  1.00  0.00     0.031 C 
ATOM     43  C   UNL A   1      37.807  32.716  33.897  1.00  0.00     0.029 A 
ATOM     44  C   UNL A   1      38.905  31.754  33.947  1.00  0.00     0.049 A 
ATOM     45  H   UNL A   1      39.545  30.486  32.424  1.00  0.00     0.167 HD
ATOM     46  C   UNL A   1      40.910  27.974  29.227  1.00  0.00     0.034 A 
ATOM     47  C   UNL A   1      39.695  31.536  35.017  1.00  0.00     0.034 A 
ATOM     48  C   UNL A   1      41.963  27.903  30.202  1.00  0.00     0.049 A 
ATOM     49  C   UNL A   1      40.835  30.565  34.930  1.00  0.00     0.074 A 
ATOM     50  C   UNL A   1      43.152  27.196  30.133  1.00  0.00     0.029 A 
ATOM     51  N   UNL A   1      41.898  28.460  31.465  1.00  0.00    -0.354 N 
ATOM     52  N   UNL A   1      41.274  29.911  33.883  1.00  0.00    -0.248 NA
ATOM     53  C   UNL A   1      41.603  30.316  36.159  1.00  0.00     0.031 C 
ATOM     54  C   UNL A   1      43.771  27.267  31.384  1.00  0.00     0.029 A 
ATOM     55  C   UNL A   1      42.982  28.044  32.217  1.00  0.00     0.049 A 
ATOM     56  H   UNL A   1      41.187  29.062  31.783  1.00  0.00     0.167 HD
ATOM     57  C   UNL A   1      42.378  29.187  34.321  1.00  0.00     0.074 A 
ATOM     58  C   UNL A   1      42.547  29.487  35.727  1.00  0.00     0.031 C 
ATOM     59  C   UNL A   1      43.171  28.349  33.611  1.00  0.00     0.034 A 
BRANCH  46  60
ATOM     60  C   UNL A   1      41.119  27.225  27.941  1.00  0.00     0.023 A 
ATOM     61  C   UNL A   1      41.536  27.961  26.812  1.00  0.00     0.012 A 
ATOM     62  C   UNL A   1      41.072  25.822  27.878  1.00  0.00     0.148 A 
ATOM     63  C   UNL A   1      41.917  27.308  25.640  1.00  0.00     0.002 A 
ATOM     64  C   UNL A   1      41.460  25.178  26.708  1.00  0.00     0.091 A 
ATOM     65  F   UNL A   1      40.670  25.150  28.966  1.00  0.00    -0.205 F 
ATOM     66  C   UNL A   1      41.888  25.918  25.591  1.00  0.00     0.022 A 
BRANCH  64  67
ATOM     67  S   UNL A   1      41.485  23.390  26.541  1.00  0.00     0.127 S 
ATOM     68  O   UNL A   1      42.298  23.220  25.338  1.00  0.00    -0.237 OA
ATOM     69  O   UNL A   1      42.138  22.975  27.782  1.00  0.00    -0.237 OA
ATOM     70  O   UNL A   1      40.095  22.978  26.407  1.00  0.00    -0.744 OA
ENDBRANCH  64  67
ENDBRANCH  46  60
BRANCH  47  71
ATOM     71  C   UNL A   1      39.440  32.320  36.254  1.00  0.00     0.023 A 
ATOM     72  C   UNL A   1      40.082  33.559  36.429  1.00  0.00     0.012 A 
ATOM     73  C   UNL A   1      38.484  31.890  37.194  1.00  0.00     0.148 A 
ATOM     74  C   UNL A   1      39.767  34.365  37.524  1.00  0.00     0.002 A 
ATOM     75  C   UNL A   1      38.145  32.716  38.256  1.00  0.00     0.091 A 
ATOM     76  F   UNL A   1      37.900  30.699  37.002  1.00  0.00    -0.205 F 
ATOM     77  C   UNL A   1      38.790  33.951  38.427  1.00  0.00     0.022 A 
BRANCH  75  78
ATOM     78  S   UNL A   1      36.816  32.324  39.397  1.00  0.00     0.127 S 
ATOM     79  O   UNL A   1      37.014  30.891  39.603  1.00  0.00    -0.237 OA
ATOM     80  O   UNL A   1      37.152  33.163  40.547  1.00  0.00    -0.237 OA
ATOM     81  O   UNL A   1      35.584  32.696  38.716  1.00  0.00    -0.744 OA
ENDBRANCH  75  78
ENDBRANCH  47  71
BRANCH  59  82
ATOM     82  C   UNL A   1      44.300  27.648  34.314  1.00  0.00     0.023 A 
ATOM     83  C   UNL A   1      45.538  28.305  34.447  1.00  0.00     0.012 A 
ATOM     84  C   UNL A   1      44.082  26.428  34.984  1.00  0.00     0.148 A 
ATOM     85  C   UNL A   1      46.544  27.757  35.243  1.00  0.00     0.002 A 
ATOM     86  C   UNL A   1      45.076  25.908  35.804  1.00  0.00     0.091 A 
ATOM     87  F   UNL A   1      42.892  25.826  34.838  1.00  0.00    -0.205 F 
ATOM     88  C   UNL A   1      46.308  26.569  35.932  1.00  0.00     0.022 A 
BRANCH  86  89
ATOM     89  S   UNL A   1      44.838  24.431  36.799  1.00  0.00     0.127 S 
ATOM     90  O   UNL A   1      44.198  23.528  35.843  1.00  0.00    -0.237 OA
ATOM     91  O   UNL A   1      46.212  24.074  37.152  1.00  0.00    -0.237 OA
ATOM     92  O   UNL A   1      44.000  24.829  37.922  1.00  0.00    -0.744 OA
ENDBRANCH  86  89
ENDBRANCH  59  82
ENDBRANCH  33  34
ENDBRANCH  26  28
ENDBRANCH  25  26
ENDBRANCH  24  25
ENDBRANCH   1  24
TORSDOF 19
ENDMDL
