MODEL 1
REMARK VINA RESULT:     -11.1      0.000      0.000
REMARK SMILES C[C@H]1[C@H](C(=O)OCCOCCOC(=O)c2ccc(-c3c4nc(c(-c5cccc(S(=O)(=O)[O-])c5F)c5ccc([nH]5)c(-c5cccc(S(=O)(=O)[O-])c5F)c5nc(c(-c6cccc(S(=O)(=O)[O-])c6F)c6ccc3[nH]6)C=C5)C=C4)cc2)CC[N@@H+]1CC(=O)N1CCCC1
REMARK SMILES IDX 10 1 9 2 8 3 7 4 6 5 4 6 5 7 3 8 1 9 2 10 80 11 78 12 79 13
REMARK SMILES IDX 81 15 82 16 83 17 84 18 85 19 88 20 86 21 87 22 11 23 12 24
REMARK SMILES IDX 13 25 14 26 15 27 16 28 77 29 17 30 76 31 18 32 19 33 20 34
REMARK SMILES IDX 70 35 21 36 75 37 69 38 71 39 22 40 74 41 68 42 67 43 23 45
REMARK SMILES IDX 55 46 35 47 54 48 36 49 39 50 53 51 72 52 37 53 38 54 52 56
REMARK SMILES IDX 73 57 40 58 24 59 25 60 33 61 26 62 28 63 34 64 27 65 29 66
REMARK SMILES IDX 30 67 31 68 32 69 56 70 57 71 65 72 58 73 60 74 66 75 59 76
REMARK SMILES IDX 61 77 62 78 63 79 64 80 41 81 42 82 50 83 43 84 45 85 51 86
REMARK SMILES IDX 44 87 46 88 47 89 48 90 49 91
REMARK H PARENT 80 14 71 44 39 55
REMARK Flexibility Score: inf
ROOT
ATOM      1  C   UNL A   1      35.560  21.485  25.211  1.00  0.00     0.202 C 
ENDROOT
BRANCH   1   2
ATOM      2  O   UNL A   1      35.666  22.884  24.954  1.00  0.00    -0.374 OA
BRANCH   2   3
ATOM      3  C   UNL A   1      34.444  23.520  24.581  1.00  0.00     0.202 C 
BRANCH   3   4
ATOM      4  C   UNL A   1      34.410  24.114  23.157  1.00  0.00     0.261 C 
BRANCH   4   5
ATOM      5  O   UNL A   1      33.841  25.442  23.068  1.00  0.00    -0.463 OA
BRANCH   5   6
ATOM      6  C   UNL A   1      33.016  25.696  22.018  1.00  0.00     0.315 C 
ATOM      7  O   UNL A   1      33.394  25.817  20.858  1.00  0.00    -0.252 OA
BRANCH   6   8
ATOM      8  C   UNL A   1      31.547  25.782  22.397  1.00  0.00     0.162 C 
ATOM      9  C   UNL A   1      30.654  23.606  23.355  1.00  0.00     0.076 C 
ATOM     10  C   UNL A   1      31.160  25.015  23.669  1.00  0.00     0.195 C 
ATOM     11  N   UNL A   1      30.082  25.796  24.297  1.00  0.00    -0.324 N 
ATOM     12  C   UNL A   1      31.005  27.184  22.633  1.00  0.00     0.083 C 
ATOM     13  C   UNL A   1      29.730  26.904  23.411  1.00  0.00     0.264 C 
ATOM     14  H   UNL A   1      29.275  25.179  24.385  1.00  0.00     0.348 HD
BRANCH  11  15
ATOM     15  C   UNL A   1      30.240  26.137  25.728  1.00  0.00     0.364 C 
BRANCH  15  16
ATOM     16  C   UNL A   1      31.675  26.233  26.299  1.00  0.00     0.277 C 
ATOM     17  O   UNL A   1      32.255  25.220  26.695  1.00  0.00    -0.268 OA
ATOM     18  N   UNL A   1      32.304  27.457  26.293  1.00  0.00    -0.338 N 
ATOM     19  C   UNL A   1      31.681  28.729  26.102  1.00  0.00     0.119 C 
ATOM     20  C   UNL A   1      33.732  27.616  26.489  1.00  0.00     0.119 C 
ATOM     21  C   UNL A   1      32.592  29.734  26.765  1.00  0.00     0.023 C 
ATOM     22  C   UNL A   1      33.913  29.036  26.997  1.00  0.00     0.023 C 
ENDBRANCH  15  16
ENDBRANCH  11  15
ENDBRANCH   6   8
ENDBRANCH   5   6
ENDBRANCH   4   5
ENDBRANCH   3   4
ENDBRANCH   2   3
ENDBRANCH   1   2
BRANCH   1  23
ATOM     23  C   UNL A   1      36.829  20.704  24.866  1.00  0.00     0.261 C 
BRANCH  23  24
ATOM     24  O   UNL A   1      37.979  21.583  24.922  1.00  0.00    -0.460 OA
BRANCH  24  25
ATOM     25  C   UNL A   1      38.981  21.217  25.756  1.00  0.00     0.338 C 
ATOM     26  O   UNL A   1      39.500  20.114  25.825  1.00  0.00    -0.246 OA
BRANCH  25  27
ATOM     27  C   UNL A   1      39.478  22.394  26.517  1.00  0.00     0.060 A 
ATOM     28  C   UNL A   1      38.872  23.627  26.257  1.00  0.00     0.016 A 
ATOM     29  C   UNL A   1      40.500  22.313  27.473  1.00  0.00     0.016 A 
ATOM     30  C   UNL A   1      39.303  24.781  26.919  1.00  0.00     0.010 A 
ATOM     31  C   UNL A   1      40.931  23.474  28.141  1.00  0.00     0.010 A 
ATOM     32  C   UNL A   1      40.361  24.724  27.836  1.00  0.00    -0.014 A 
BRANCH  32  33
ATOM     33  C   UNL A   1      41.002  26.002  28.257  1.00  0.00     0.031 A 
ATOM     34  C   UNL A   1      42.414  26.265  27.800  1.00  0.00     0.074 A 
ATOM     35  C   UNL A   1      40.353  26.958  28.952  1.00  0.00     0.049 A 
ATOM     36  N   UNL A   1      43.121  27.362  27.883  1.00  0.00    -0.248 NA
ATOM     37  C   UNL A   1      43.116  25.144  27.154  1.00  0.00     0.031 C 
ATOM     38  C   UNL A   1      38.997  26.851  29.476  1.00  0.00     0.029 A 
ATOM     39  N   UNL A   1      40.755  28.215  29.337  1.00  0.00    -0.354 N 
ATOM     40  C   UNL A   1      44.346  27.066  27.297  1.00  0.00     0.074 A 
ATOM     41  C   UNL A   1      44.299  25.677  26.897  1.00  0.00     0.031 C 
ATOM     42  C   UNL A   1      38.678  27.985  30.123  1.00  0.00     0.029 A 
ATOM     43  C   UNL A   1      39.808  28.909  30.056  1.00  0.00     0.049 A 
ATOM     44  H   UNL A   1      41.640  28.586  29.118  1.00  0.00     0.167 HD
ATOM     45  C   UNL A   1      45.407  27.877  27.081  1.00  0.00     0.034 A 
ATOM     46  C   UNL A   1      39.840  30.148  30.589  1.00  0.00     0.034 A 
ATOM     47  C   UNL A   1      45.473  29.254  27.481  1.00  0.00     0.049 A 
ATOM     48  C   UNL A   1      41.047  31.023  30.362  1.00  0.00     0.074 A 
ATOM     49  C   UNL A   1      46.501  30.159  27.278  1.00  0.00     0.029 A 
ATOM     50  N   UNL A   1      44.484  29.923  28.184  1.00  0.00    -0.354 N 
ATOM     51  N   UNL A   1      42.128  30.777  29.662  1.00  0.00    -0.248 NA
ATOM     52  C   UNL A   1      41.016  32.368  30.959  1.00  0.00     0.031 C 
ATOM     53  C   UNL A   1      46.144  31.368  27.884  1.00  0.00     0.029 A 
ATOM     54  C   UNL A   1      44.880  31.224  28.435  1.00  0.00     0.049 A 
ATOM     55  H   UNL A   1      43.627  29.529  28.463  1.00  0.00     0.167 HD
ATOM     56  C   UNL A   1      42.882  31.947  29.699  1.00  0.00     0.074 A 
ATOM     57  C   UNL A   1      42.125  32.908  30.472  1.00  0.00     0.031 C 
ATOM     58  C   UNL A   1      44.098  32.198  29.151  1.00  0.00     0.034 A 
BRANCH  45  59
ATOM     59  C   UNL A   1      46.579  27.286  26.349  1.00  0.00     0.023 A 
ATOM     60  C   UNL A   1      46.609  27.328  24.938  1.00  0.00     0.012 A 
ATOM     61  C   UNL A   1      47.656  26.710  27.048  1.00  0.00     0.148 A 
ATOM     62  C   UNL A   1      47.677  26.774  24.236  1.00  0.00     0.002 A 
ATOM     63  C   UNL A   1      48.736  26.199  26.342  1.00  0.00     0.091 A 
ATOM     64  F   UNL A   1      47.592  26.656  28.386  1.00  0.00    -0.205 F 
ATOM     65  C   UNL A   1      48.743  26.218  24.937  1.00  0.00     0.022 A 
BRANCH  63  66
ATOM     66  S   UNL A   1      50.188  25.523  27.154  1.00  0.00     0.127 S 
ATOM     67  O   UNL A   1      49.665  24.271  27.696  1.00  0.00    -0.237 OA
ATOM     68  O   UNL A   1      51.119  25.364  26.037  1.00  0.00    -0.237 OA
ATOM     69  O   UNL A   1      50.591  26.512  28.144  1.00  0.00    -0.744 OA
ENDBRANCH  63  66
ENDBRANCH  45  59
BRANCH  46  70
ATOM     70  C   UNL A   1      38.668  30.676  31.350  1.00  0.00     0.023 A 
ATOM     71  C   UNL A   1      38.590  30.472  32.743  1.00  0.00     0.012 A 
ATOM     72  C   UNL A   1      37.618  31.350  30.697  1.00  0.00     0.148 A 
ATOM     73  C   UNL A   1      37.469  30.889  33.462  1.00  0.00     0.002 A 
ATOM     74  C   UNL A   1      36.528  31.808  31.429  1.00  0.00     0.091 A 
ATOM     75  F   UNL A   1      37.703  31.522  29.370  1.00  0.00    -0.205 F 
ATOM     76  C   UNL A   1      36.442  31.561  32.808  1.00  0.00     0.022 A 
BRANCH  74  77
ATOM     77  S   UNL A   1      35.209  32.779  30.693  1.00  0.00     0.127 S 
ATOM     78  O   UNL A   1      34.782  31.919  29.592  1.00  0.00    -0.237 OA
ATOM     79  O   UNL A   1      34.258  32.881  31.801  1.00  0.00    -0.237 OA
ATOM     80  O   UNL A   1      35.821  34.044  30.306  1.00  0.00    -0.744 OA
ENDBRANCH  74  77
ENDBRANCH  46  70
BRANCH  58  81
ATOM     81  C   UNL A   1      44.680  33.579  29.320  1.00  0.00     0.023 A 
ATOM     82  C   UNL A   1      45.512  33.864  30.421  1.00  0.00     0.012 A 
ATOM     83  C   UNL A   1      44.463  34.574  28.345  1.00  0.00     0.148 A 
ATOM     84  C   UNL A   1      46.090  35.125  30.566  1.00  0.00     0.002 A 
ATOM     85  C   UNL A   1      45.083  35.812  28.470  1.00  0.00     0.091 A 
ATOM     86  F   UNL A   1      43.652  34.295  27.314  1.00  0.00    -0.205 F 
ATOM     87  C   UNL A   1      45.886  36.094  29.587  1.00  0.00     0.022 A 
BRANCH  85  88
ATOM     88  S   UNL A   1      44.956  37.080  27.203  1.00  0.00     0.127 S 
ATOM     89  O   UNL A   1      45.936  36.619  26.222  1.00  0.00    -0.237 OA
ATOM     90  O   UNL A   1      43.562  36.958  26.776  1.00  0.00    -0.237 OA
ATOM     91  O   UNL A   1      45.274  38.337  27.867  1.00  0.00    -0.744 OA
ENDBRANCH  85  88
ENDBRANCH  58  81
ENDBRANCH  32  33
ENDBRANCH  25  27
ENDBRANCH  24  25
ENDBRANCH  23  24
ENDBRANCH   1  23
TORSDOF 19
ENDMDL
MODEL 2
REMARK VINA RESULT:     -11.1      4.951     10.345
REMARK SMILES C[C@H]1[C@H](C(=O)OCCOCCOC(=O)c2ccc(-c3c4nc(c(-c5cccc(S(=O)(=O)[O-])c5F)c5ccc([nH]5)c(-c5cccc(S(=O)(=O)[O-])c5F)c5nc(c(-c6cccc(S(=O)(=O)[O-])c6F)c6ccc3[nH]6)C=C5)C=C4)cc2)CC[N@@H+]1CC(=O)N1CCCC1
REMARK SMILES IDX 10 1 9 2 8 3 7 4 6 5 4 6 5 7 3 8 1 9 2 10 80 11 78 12 79 13
REMARK SMILES IDX 81 15 82 16 83 17 84 18 85 19 88 20 86 21 87 22 11 23 12 24
REMARK SMILES IDX 13 25 14 26 15 27 16 28 77 29 17 30 76 31 18 32 19 33 20 34
REMARK SMILES IDX 70 35 21 36 75 37 69 38 71 39 22 40 74 41 68 42 67 43 23 45
REMARK SMILES IDX 55 46 35 47 54 48 36 49 39 50 53 51 72 52 37 53 38 54 52 56
REMARK SMILES IDX 73 57 40 58 24 59 25 60 33 61 26 62 28 63 34 64 27 65 29 66
REMARK SMILES IDX 30 67 31 68 32 69 56 70 57 71 65 72 58 73 60 74 66 75 59 76
REMARK SMILES IDX 61 77 62 78 63 79 64 80 41 81 42 82 50 83 43 84 45 85 51 86
REMARK SMILES IDX 44 87 46 88 47 89 48 90 49 91
REMARK H PARENT 80 14 71 44 39 55
REMARK Flexibility Score: inf
ROOT
ATOM      1  C   UNL A   1      31.082  30.786  25.786  1.00  0.00     0.202 C 
ENDROOT
BRANCH   1   2
ATOM      2  O   UNL A   1      31.765  29.559  26.037  1.00  0.00    -0.374 OA
BRANCH   2   3
ATOM      3  C   UNL A   1      32.368  28.962  24.889  1.00  0.00     0.202 C 
BRANCH   3   4
ATOM      4  C   UNL A   1      31.712  27.653  24.400  1.00  0.00     0.261 C 
BRANCH   4   5
ATOM      5  O   UNL A   1      30.703  27.113  25.286  1.00  0.00    -0.463 OA
BRANCH   5   6
ATOM      6  C   UNL A   1      30.779  25.788  25.579  1.00  0.00     0.315 C 
ATOM      7  O   UNL A   1      30.176  25.251  26.503  1.00  0.00    -0.252 OA
BRANCH   6   8
ATOM      8  C   UNL A   1      31.660  24.996  24.629  1.00  0.00     0.162 C 
ATOM      9  C   UNL A   1      34.019  24.680  25.516  1.00  0.00     0.076 C 
ATOM     10  C   UNL A   1      32.647  24.036  25.309  1.00  0.00     0.195 C 
ATOM     11  N   UNL A   1      32.776  22.884  24.401  1.00  0.00    -0.324 N 
ATOM     12  C   UNL A   1      30.929  24.120  23.622  1.00  0.00     0.083 C 
ATOM     13  C   UNL A   1      32.024  23.163  23.180  1.00  0.00     0.264 C 
ATOM     14  H   UNL A   1      33.764  22.797  24.165  1.00  0.00     0.348 HD
BRANCH  11  15
ATOM     15  C   UNL A   1      32.583  21.539  24.986  1.00  0.00     0.364 C 
BRANCH  15  16
ATOM     16  C   UNL A   1      33.742  20.520  24.864  1.00  0.00     0.277 C 
ATOM     17  O   UNL A   1      34.867  20.805  25.280  1.00  0.00    -0.268 OA
ATOM     18  N   UNL A   1      33.470  19.275  24.343  1.00  0.00    -0.338 N 
ATOM     19  C   UNL A   1      32.302  18.900  23.609  1.00  0.00     0.119 C 
ATOM     20  C   UNL A   1      34.369  18.145  24.478  1.00  0.00     0.119 C 
ATOM     21  C   UNL A   1      32.713  17.719  22.764  1.00  0.00     0.023 C 
ATOM     22  C   UNL A   1      34.024  17.216  23.326  1.00  0.00     0.023 C 
ENDBRANCH  15  16
ENDBRANCH  11  15
ENDBRANCH   6   8
ENDBRANCH   5   6
ENDBRANCH   4   5
ENDBRANCH   3   4
ENDBRANCH   2   3
ENDBRANCH   1   2
BRANCH   1  23
ATOM     23  C   UNL A   1      31.716  31.991  26.483  1.00  0.00     0.261 C 
BRANCH  23  24
ATOM     24  O   UNL A   1      32.838  31.558  27.290  1.00  0.00    -0.460 OA
BRANCH  24  25
ATOM     25  C   UNL A   1      33.599  32.533  27.842  1.00  0.00     0.338 C 
ATOM     26  O   UNL A   1      33.224  33.650  28.165  1.00  0.00    -0.246 OA
BRANCH  25  27
ATOM     27  C   UNL A   1      34.964  32.023  28.136  1.00  0.00     0.060 A 
ATOM     28  C   UNL A   1      35.082  30.674  28.485  1.00  0.00     0.016 A 
ATOM     29  C   UNL A   1      36.113  32.823  28.066  1.00  0.00     0.016 A 
ATOM     30  C   UNL A   1      36.331  30.130  28.796  1.00  0.00     0.010 A 
ATOM     31  C   UNL A   1      37.371  32.273  28.376  1.00  0.00     0.010 A 
ATOM     32  C   UNL A   1      37.481  30.931  28.784  1.00  0.00    -0.014 A 
BRANCH  32  33
ATOM     33  C   UNL A   1      38.715  30.408  29.438  1.00  0.00     0.031 A 
ATOM     34  C   UNL A   1      39.035  30.894  30.828  1.00  0.00     0.074 A 
ATOM     35  C   UNL A   1      39.503  29.468  28.878  1.00  0.00     0.049 A 
ATOM     36  N   UNL A   1      39.941  30.465  31.668  1.00  0.00    -0.248 NA
ATOM     37  C   UNL A   1      38.217  32.006  31.340  1.00  0.00     0.031 C 
ATOM     38  C   UNL A   1      39.337  28.909  27.542  1.00  0.00     0.029 A 
ATOM     39  N   UNL A   1      40.608  28.816  29.371  1.00  0.00    -0.354 N 
ATOM     40  C   UNL A   1      39.798  31.248  32.807  1.00  0.00     0.074 A 
ATOM     41  C   UNL A   1      38.746  32.202  32.537  1.00  0.00     0.031 C 
ATOM     42  C   UNL A   1      40.307  28.007  27.312  1.00  0.00     0.029 A 
ATOM     43  C   UNL A   1      41.165  27.916  28.491  1.00  0.00     0.049 A 
ATOM     44  H   UNL A   1      40.969  28.977  30.273  1.00  0.00     0.167 HD
ATOM     45  C   UNL A   1      40.459  31.167  33.986  1.00  0.00     0.034 A 
ATOM     46  C   UNL A   1      42.235  27.104  28.620  1.00  0.00     0.034 A 
ATOM     47  C   UNL A   1      41.511  30.233  34.266  1.00  0.00     0.049 A 
ATOM     48  C   UNL A   1      42.975  27.055  29.934  1.00  0.00     0.074 A 
ATOM     49  C   UNL A   1      42.219  30.064  35.444  1.00  0.00     0.029 A 
ATOM     50  N   UNL A   1      42.027  29.325  33.356  1.00  0.00    -0.354 N 
ATOM     51  N   UNL A   1      42.718  27.687  31.053  1.00  0.00    -0.248 NA
ATOM     52  C   UNL A   1      44.126  26.140  30.016  1.00  0.00     0.031 C 
ATOM     53  C   UNL A   1      43.182  29.072  35.237  1.00  0.00     0.029 A 
ATOM     54  C   UNL A   1      43.052  28.601  33.940  1.00  0.00     0.049 A 
ATOM     55  H   UNL A   1      41.711  29.213  32.431  1.00  0.00     0.167 HD
ATOM     56  C   UNL A   1      43.644  27.215  31.980  1.00  0.00     0.074 A 
ATOM     57  C   UNL A   1      44.454  26.229  31.297  1.00  0.00     0.031 C 
ATOM     58  C   UNL A   1      43.815  27.576  33.276  1.00  0.00     0.034 A 
BRANCH  45  59
ATOM     59  C   UNL A   1      40.030  32.113  35.073  1.00  0.00     0.023 A 
ATOM     60  C   UNL A   1      40.581  33.411  35.122  1.00  0.00     0.012 A 
ATOM     61  C   UNL A   1      39.072  31.730  36.030  1.00  0.00     0.148 A 
ATOM     62  C   UNL A   1      40.210  34.300  36.128  1.00  0.00     0.002 A 
ATOM     63  C   UNL A   1      38.677  32.637  37.004  1.00  0.00     0.091 A 
ATOM     64  F   UNL A   1      38.584  30.482  35.981  1.00  0.00    -0.205 F 
ATOM     65  C   UNL A   1      39.253  33.917  37.063  1.00  0.00     0.022 A 
BRANCH  63  66
ATOM     66  S   UNL A   1      37.402  32.262  38.212  1.00  0.00     0.127 S 
ATOM     67  O   UNL A   1      38.021  32.733  39.449  1.00  0.00    -0.237 OA
ATOM     68  O   UNL A   1      36.282  33.077  37.740  1.00  0.00    -0.237 OA
ATOM     69  O   UNL A   1      37.183  30.824  38.131  1.00  0.00    -0.744 OA
ENDBRANCH  63  66
ENDBRANCH  45  59
BRANCH  46  70
ATOM     70  C   UNL A   1      42.653  26.215  27.495  1.00  0.00     0.023 A 
ATOM     71  C   UNL A   1      43.493  26.719  26.481  1.00  0.00     0.012 A 
ATOM     72  C   UNL A   1      42.197  24.885  27.407  1.00  0.00     0.148 A 
ATOM     73  C   UNL A   1      43.833  25.932  25.380  1.00  0.00     0.002 A 
ATOM     74  C   UNL A   1      42.583  24.090  26.334  1.00  0.00     0.091 A 
ATOM     75  F   UNL A   1      41.388  24.428  28.373  1.00  0.00    -0.205 F 
ATOM     76  C   UNL A   1      43.384  24.617  25.309  1.00  0.00     0.022 A 
BRANCH  74  77
ATOM     77  S   UNL A   1      42.144  22.353  26.212  1.00  0.00     0.127 S 
ATOM     78  O   UNL A   1      42.850  21.951  24.998  1.00  0.00    -0.237 OA
ATOM     79  O   UNL A   1      42.700  21.816  27.455  1.00  0.00    -0.237 OA
ATOM     80  O   UNL A   1      40.690  22.319  26.138  1.00  0.00    -0.744 OA
ENDBRANCH  74  77
ENDBRANCH  46  70
BRANCH  58  81
ATOM     81  C   UNL A   1      44.889  26.876  34.072  1.00  0.00     0.023 A 
ATOM     82  C   UNL A   1      46.181  27.430  34.154  1.00  0.00     0.012 A 
ATOM     83  C   UNL A   1      44.593  25.706  34.801  1.00  0.00     0.148 A 
ATOM     84  C   UNL A   1      47.171  26.813  34.919  1.00  0.00     0.002 A 
ATOM     85  C   UNL A   1      45.570  25.125  35.602  1.00  0.00     0.091 A 
ATOM     86  F   UNL A   1      43.364  25.178  34.697  1.00  0.00    -0.205 F 
ATOM     87  C   UNL A   1      46.863  25.670  35.652  1.00  0.00     0.022 A 
BRANCH  85  88
ATOM     88  S   UNL A   1      45.228  23.711  36.657  1.00  0.00     0.127 S 
ATOM     89  O   UNL A   1      44.304  22.938  35.829  1.00  0.00    -0.237 OA
ATOM     90  O   UNL A   1      46.552  23.112  36.817  1.00  0.00    -0.237 OA
ATOM     91  O   UNL A   1      44.664  24.259  37.884  1.00  0.00    -0.744 OA
ENDBRANCH  85  88
ENDBRANCH  58  81
ENDBRANCH  32  33
ENDBRANCH  25  27
ENDBRANCH  24  25
ENDBRANCH  23  24
ENDBRANCH   1  23
TORSDOF 19
ENDMDL
MODEL 3
REMARK VINA RESULT:     -10.8      4.822     10.019
REMARK SMILES C[C@H]1[C@H](C(=O)OCCOCCOC(=O)c2ccc(-c3c4nc(c(-c5cccc(S(=O)(=O)[O-])c5F)c5ccc([nH]5)c(-c5cccc(S(=O)(=O)[O-])c5F)c5nc(c(-c6cccc(S(=O)(=O)[O-])c6F)c6ccc3[nH]6)C=C5)C=C4)cc2)CC[N@@H+]1CC(=O)N1CCCC1
REMARK SMILES IDX 10 1 9 2 8 3 7 4 6 5 4 6 5 7 3 8 1 9 2 10 80 11 78 12 79 13
REMARK SMILES IDX 81 15 82 16 83 17 84 18 85 19 88 20 86 21 87 22 11 23 12 24
REMARK SMILES IDX 13 25 14 26 15 27 16 28 77 29 17 30 76 31 18 32 19 33 20 34
REMARK SMILES IDX 70 35 21 36 75 37 69 38 71 39 22 40 74 41 68 42 67 43 23 45
REMARK SMILES IDX 55 46 35 47 54 48 36 49 39 50 53 51 72 52 37 53 38 54 52 56
REMARK SMILES IDX 73 57 40 58 24 59 25 60 33 61 26 62 28 63 34 64 27 65 29 66
REMARK SMILES IDX 30 67 31 68 32 69 56 70 57 71 65 72 58 73 60 74 66 75 59 76
REMARK SMILES IDX 61 77 62 78 63 79 64 80 41 81 42 82 50 83 43 84 45 85 51 86
REMARK SMILES IDX 44 87 46 88 47 89 48 90 49 91
REMARK H PARENT 80 14 71 44 39 55
REMARK Flexibility Score: inf
ROOT
ATOM      1  C   UNL A   1      31.774  29.081  26.906  1.00  0.00     0.202 C 
ENDROOT
BRANCH   1   2
ATOM      2  O   UNL A   1      31.914  28.440  25.640  1.00  0.00    -0.374 OA
BRANCH   2   3
ATOM      3  C   UNL A   1      31.433  29.195  24.528  1.00  0.00     0.202 C 
BRANCH   3   4
ATOM      4  C   UNL A   1      30.377  28.488  23.651  1.00  0.00     0.261 C 
BRANCH   4   5
ATOM      5  O   UNL A   1      29.982  27.176  24.118  1.00  0.00    -0.463 OA
BRANCH   5   6
ATOM      6  C   UNL A   1      30.625  26.106  23.580  1.00  0.00     0.315 C 
ATOM      7  O   UNL A   1      31.194  26.118  22.494  1.00  0.00    -0.252 OA
BRANCH   6   8
ATOM      8  C   UNL A   1      30.616  24.873  24.467  1.00  0.00     0.162 C 
ATOM      9  C   UNL A   1      31.848  22.910  23.427  1.00  0.00     0.076 C 
ATOM     10  C   UNL A   1      31.913  24.049  24.445  1.00  0.00     0.195 C 
ATOM     11  N   UNL A   1      32.057  23.491  25.799  1.00  0.00    -0.324 N 
ATOM     12  C   UNL A   1      30.364  25.122  25.947  1.00  0.00     0.083 C 
ATOM     13  C   UNL A   1      30.867  23.834  26.576  1.00  0.00     0.264 C 
ATOM     14  H   UNL A   1      32.104  22.477  25.703  1.00  0.00     0.348 HD
BRANCH  11  15
ATOM     15  C   UNL A   1      33.354  23.696  26.480  1.00  0.00     0.364 C 
BRANCH  15  16
ATOM     16  C   UNL A   1      34.335  22.501  26.551  1.00  0.00     0.277 C 
ATOM     17  O   UNL A   1      34.287  21.714  27.500  1.00  0.00    -0.268 OA
ATOM     18  N   UNL A   1      35.209  22.305  25.506  1.00  0.00    -0.338 N 
ATOM     19  C   UNL A   1      35.539  23.252  24.488  1.00  0.00     0.119 C 
ATOM     20  C   UNL A   1      35.933  21.064  25.300  1.00  0.00     0.119 C 
ATOM     21  C   UNL A   1      36.904  22.849  23.984  1.00  0.00     0.023 C 
ATOM     22  C   UNL A   1      37.155  21.444  24.481  1.00  0.00     0.023 C 
ENDBRANCH  15  16
ENDBRANCH  11  15
ENDBRANCH   6   8
ENDBRANCH   5   6
ENDBRANCH   4   5
ENDBRANCH   3   4
ENDBRANCH   2   3
ENDBRANCH   1   2
BRANCH   1  23
ATOM     23  C   UNL A   1      32.076  30.580  26.868  1.00  0.00     0.261 C 
BRANCH  23  24
ATOM     24  O   UNL A   1      33.505  30.791  26.780  1.00  0.00    -0.460 OA
BRANCH  24  25
ATOM     25  C   UNL A   1      34.042  31.677  27.653  1.00  0.00     0.338 C 
ATOM     26  O   UNL A   1      33.462  32.612  28.185  1.00  0.00    -0.246 OA
BRANCH  25  27
ATOM     27  C   UNL A   1      35.435  31.289  27.997  1.00  0.00     0.060 A 
ATOM     28  C   UNL A   1      35.748  29.926  27.958  1.00  0.00     0.016 A 
ATOM     29  C   UNL A   1      36.427  32.217  28.341  1.00  0.00     0.016 A 
ATOM     30  C   UNL A   1      37.032  29.485  28.291  1.00  0.00     0.010 A 
ATOM     31  C   UNL A   1      37.721  31.772  28.672  1.00  0.00     0.010 A 
ATOM     32  C   UNL A   1      38.019  30.398  28.689  1.00  0.00    -0.014 A 
BRANCH  32  33
ATOM     33  C   UNL A   1      39.247  29.869  29.349  1.00  0.00     0.031 A 
ATOM     34  C   UNL A   1      39.594  30.399  30.717  1.00  0.00     0.074 A 
ATOM     35  C   UNL A   1      40.004  28.889  28.817  1.00  0.00     0.049 A 
ATOM     36  N   UNL A   1      40.498  29.978  31.563  1.00  0.00    -0.248 NA
ATOM     37  C   UNL A   1      38.810  31.549  31.195  1.00  0.00     0.031 C 
ATOM     38  C   UNL A   1      39.810  28.285  27.505  1.00  0.00     0.029 A 
ATOM     39  N   UNL A   1      41.099  28.228  29.324  1.00  0.00    -0.354 N 
ATOM     40  C   UNL A   1      40.387  30.806  32.673  1.00  0.00     0.074 A 
ATOM     41  C   UNL A   1      39.356  31.776  32.378  1.00  0.00     0.031 C 
ATOM     42  C   UNL A   1      40.754  27.351  27.300  1.00  0.00     0.029 A 
ATOM     43  C   UNL A   1      41.623  27.282  28.472  1.00  0.00     0.049 A 
ATOM     44  H   UNL A   1      41.474  28.414  30.215  1.00  0.00     0.167 HD
ATOM     45  C   UNL A   1      41.059  30.754  33.847  1.00  0.00     0.034 A 
ATOM     46  C   UNL A   1      42.674  26.449  28.621  1.00  0.00     0.034 A 
ATOM     47  C   UNL A   1      42.091  29.804  34.152  1.00  0.00     0.049 A 
ATOM     48  C   UNL A   1      43.428  26.430  29.928  1.00  0.00     0.074 A 
ATOM     49  C   UNL A   1      42.808  29.662  35.328  1.00  0.00     0.029 A 
ATOM     50  N   UNL A   1      42.575  28.850  33.272  1.00  0.00    -0.354 N 
ATOM     51  N   UNL A   1      43.199  27.110  31.025  1.00  0.00    -0.248 NA
ATOM     52  C   UNL A   1      44.556  25.491  30.032  1.00  0.00     0.031 C 
ATOM     53  C   UNL A   1      43.743  28.639  35.148  1.00  0.00     0.029 A 
ATOM     54  C   UNL A   1      43.587  28.123  33.872  1.00  0.00     0.049 A 
ATOM     55  H   UNL A   1      42.245  28.711  32.355  1.00  0.00     0.167 HD
ATOM     56  C   UNL A   1      44.123  26.650  31.959  1.00  0.00     0.074 A 
ATOM     57  C   UNL A   1      44.901  25.619  31.306  1.00  0.00     0.031 C 
ATOM     58  C   UNL A   1      44.317  27.055  33.239  1.00  0.00     0.034 A 
BRANCH  45  59
ATOM     59  C   UNL A   1      40.666  31.750  34.903  1.00  0.00     0.023 A 
ATOM     60  C   UNL A   1      41.426  32.928  35.062  1.00  0.00     0.012 A 
ATOM     61  C   UNL A   1      39.540  31.535  35.719  1.00  0.00     0.148 A 
ATOM     62  C   UNL A   1      41.091  33.860  36.043  1.00  0.00     0.002 A 
ATOM     63  C   UNL A   1      39.188  32.488  36.664  1.00  0.00     0.091 A 
ATOM     64  F   UNL A   1      38.851  30.395  35.567  1.00  0.00    -0.205 F 
ATOM     65  C   UNL A   1      39.968  33.644  36.837  1.00  0.00     0.022 A 
BRANCH  63  66
ATOM     66  S   UNL A   1      37.722  32.335  37.689  1.00  0.00     0.127 S 
ATOM     67  O   UNL A   1      37.538  30.886  37.726  1.00  0.00    -0.237 OA
ATOM     68  O   UNL A   1      38.166  32.927  38.951  1.00  0.00    -0.237 OA
ATOM     69  O   UNL A   1      36.674  33.081  37.005  1.00  0.00    -0.744 OA
ENDBRANCH  63  66
ENDBRANCH  45  59
BRANCH  46  70
ATOM     70  C   UNL A   1      43.057  25.508  27.526  1.00  0.00     0.023 A 
ATOM     71  C   UNL A   1      43.992  25.913  26.552  1.00  0.00     0.012 A 
ATOM     72  C   UNL A   1      42.476  24.229  27.426  1.00  0.00     0.148 A 
ATOM     73  C   UNL A   1      44.307  25.081  25.476  1.00  0.00     0.002 A 
ATOM     74  C   UNL A   1      42.834  23.385  26.381  1.00  0.00     0.091 A 
ATOM     75  F   UNL A   1      41.578  23.867  28.353  1.00  0.00    -0.205 F 
ATOM     76  C   UNL A   1      43.734  23.816  25.393  1.00  0.00     0.022 A 
BRANCH  74  77
ATOM     77  S   UNL A   1      42.231  21.699  26.250  1.00  0.00     0.127 S 
ATOM     78  O   UNL A   1      42.488  21.184  27.593  1.00  0.00    -0.237 OA
ATOM     79  O   UNL A   1      40.819  21.909  25.930  1.00  0.00    -0.237 OA
ATOM     80  O   UNL A   1      43.007  21.086  25.180  1.00  0.00    -0.744 OA
ENDBRANCH  74  77
ENDBRANCH  46  70
BRANCH  58  81
ATOM     81  C   UNL A   1      45.382  26.358  34.050  1.00  0.00     0.023 A 
ATOM     82  C   UNL A   1      46.703  26.847  34.047  1.00  0.00     0.012 A 
ATOM     83  C   UNL A   1      45.054  25.262  34.874  1.00  0.00     0.148 A 
ATOM     84  C   UNL A   1      47.688  26.235  34.824  1.00  0.00     0.002 A 
ATOM     85  C   UNL A   1      46.028  24.690  35.684  1.00  0.00     0.091 A 
ATOM     86  F   UNL A   1      43.797  24.796  34.850  1.00  0.00    -0.205 F 
ATOM     87  C   UNL A   1      47.349  25.167  35.651  1.00  0.00     0.022 A 
BRANCH  85  88
ATOM     88  S   UNL A   1      45.654  23.378  36.853  1.00  0.00     0.127 S 
ATOM     89  O   UNL A   1      44.835  24.082  37.838  1.00  0.00    -0.237 OA
ATOM     90  O   UNL A   1      44.923  22.419  36.025  1.00  0.00    -0.237 OA
ATOM     91  O   UNL A   1      46.942  22.897  37.335  1.00  0.00    -0.744 OA
ENDBRANCH  85  88
ENDBRANCH  58  81
ENDBRANCH  32  33
ENDBRANCH  25  27
ENDBRANCH  24  25
ENDBRANCH  23  24
ENDBRANCH   1  23
TORSDOF 19
ENDMDL
