MODEL 1
REMARK VINA RESULT:     -10.2      0.000      0.000
REMARK SMILES COCCN(CC(=O)OCCOCCOC(=O)c1ccc(-c2c3nc(c(-c4cccc(S(=O)(=O)[O-])c4F)c4ccc([nH]4)c(-c4cccc(S(=O)(=O)[O-])c4F)c4nc(c(-c5cccc(S(=O)(=O)[O-])c5F)c5ccc2[nH]5)C=C4)C=C3)cc1)C(=O)N[C@H]1CC[N@@H+]2CCC[C@H]12
REMARK SMILES IDX 11 1 10 2 9 3 7 4 8 5 6 6 5 7 4 8 3 9 2 10 1 11 81 12 82 13
REMARK SMILES IDX 83 14 84 16 85 17 91 18 86 19 87 20 90 21 88 22 89 24 12 25
REMARK SMILES IDX 13 26 14 27 15 28 16 29 17 30 18 31 19 32 80 33 20 34 79 35
REMARK SMILES IDX 21 36 22 37 23 38 73 39 24 40 78 41 72 42 74 43 25 44 77 45
REMARK SMILES IDX 71 46 70 47 26 49 58 50 38 51 57 52 39 53 42 54 56 55 75 56
REMARK SMILES IDX 40 57 41 58 55 60 76 61 43 62 27 63 28 64 36 65 29 66 31 67
REMARK SMILES IDX 37 68 30 69 32 70 33 71 34 72 35 73 59 74 60 75 68 76 61 77
REMARK SMILES IDX 63 78 69 79 62 80 64 81 65 82 66 83 67 84 44 85 45 86 53 87
REMARK SMILES IDX 46 88 48 89 54 90 47 91 49 92 50 93 51 94 52 95
REMARK H PARENT 83 15 87 23 74 48 42 59
REMARK Flexibility Score: inf
ROOT
ATOM      1  C   UNL A   1      35.203  22.003  25.234  1.00  0.00     0.202 C 
ENDROOT
BRANCH   1   2
ATOM      2  C   UNL A   1      33.821  22.026  24.570  1.00  0.00     0.261 C 
BRANCH   2   3
ATOM      3  O   UNL A   1      33.689  23.200  23.735  1.00  0.00    -0.462 OA
BRANCH   3   4
ATOM      4  C   UNL A   1      32.637  24.009  24.045  1.00  0.00     0.325 C 
ATOM      5  O   UNL A   1      31.460  23.663  23.980  1.00  0.00    -0.250 OA
BRANCH   4   6
ATOM      6  C   UNL A   1      33.064  25.333  24.709  1.00  0.00     0.244 C 
BRANCH   6   7
ATOM      7  N   UNL A   1      33.350  26.461  23.826  1.00  0.00    -0.311 N 
BRANCH   7   8
ATOM      8  C   UNL A   1      33.787  27.699  24.507  1.00  0.00     0.150 C 
BRANCH   8   9
ATOM      9  C   UNL A   1      33.890  27.538  26.038  1.00  0.00     0.181 C 
BRANCH   9  10
ATOM     10  O   UNL A   1      34.190  28.771  26.693  1.00  0.00    -0.383 OA
ATOM     11  C   UNL A   1      33.260  29.811  26.430  1.00  0.00     0.194 C 
ENDBRANCH   9  10
ENDBRANCH   8   9
ENDBRANCH   7   8
BRANCH   7  12
ATOM     12  C   UNL A   1      33.125  26.539  22.490  1.00  0.00     0.318 C 
ATOM     13  O   UNL A   1      33.945  26.107  21.672  1.00  0.00    -0.249 OA
ATOM     14  N   UNL A   1      32.032  27.049  21.910  1.00  0.00    -0.329 N 
ATOM     15  H   UNL A   1      32.214  27.176  20.950  1.00  0.00     0.165 HD
BRANCH  14  16
ATOM     16  C   UNL A   1      30.650  27.489  22.196  1.00  0.00     0.147 C 
ATOM     17  C   UNL A   1      30.077  26.999  23.521  1.00  0.00     0.092 C 
ATOM     18  C   UNL A   1      30.618  29.030  22.377  1.00  0.00     0.207 C 
ATOM     19  C   UNL A   1      29.977  28.173  24.474  1.00  0.00     0.264 C 
ATOM     20  N   UNL A   1      30.710  29.258  23.828  1.00  0.00    -0.331 N 
ATOM     21  C   UNL A   1      29.333  29.727  21.948  1.00  0.00     0.073 C 
ATOM     22  C   UNL A   1      30.107  30.560  24.094  1.00  0.00     0.262 C 
ATOM     23  H   UNL A   1      31.666  29.265  24.182  1.00  0.00     0.348 HD
ATOM     24  C   UNL A   1      28.971  30.673  23.092  1.00  0.00     0.068 C 
ENDBRANCH  14  16
ENDBRANCH   7  12
ENDBRANCH   6   7
ENDBRANCH   4   6
ENDBRANCH   3   4
ENDBRANCH   2   3
ENDBRANCH   1   2
BRANCH   1  25
ATOM     25  O   UNL A   1      35.727  20.720  25.608  1.00  0.00    -0.374 OA
BRANCH  25  26
ATOM     26  C   UNL A   1      36.639  20.117  24.693  1.00  0.00     0.202 C 
BRANCH  26  27
ATOM     27  C   UNL A   1      38.074  19.845  25.158  1.00  0.00     0.261 C 
BRANCH  27  28
ATOM     28  O   UNL A   1      38.771  21.049  25.427  1.00  0.00    -0.460 OA
BRANCH  28  29
ATOM     29  C   UNL A   1      39.878  20.836  26.175  1.00  0.00     0.338 C 
ATOM     30  O   UNL A   1      40.620  19.876  26.167  1.00  0.00    -0.246 OA
BRANCH  29  31
ATOM     31  C   UNL A   1      40.182  22.100  26.850  1.00  0.00     0.060 A 
ATOM     32  C   UNL A   1      39.466  23.221  26.419  1.00  0.00     0.016 A 
ATOM     33  C   UNL A   1      41.102  22.168  27.901  1.00  0.00     0.016 A 
ATOM     34  C   UNL A   1      39.738  24.452  26.981  1.00  0.00     0.010 A 
ATOM     35  C   UNL A   1      41.381  23.406  28.462  1.00  0.00     0.010 A 
ATOM     36  C   UNL A   1      40.745  24.547  27.947  1.00  0.00    -0.014 A 
BRANCH  36  37
ATOM     37  C   UNL A   1      41.318  25.874  28.201  1.00  0.00     0.031 A 
ATOM     38  C   UNL A   1      42.705  26.132  27.689  1.00  0.00     0.074 A 
ATOM     39  C   UNL A   1      40.584  26.815  28.811  1.00  0.00     0.049 A 
ATOM     40  N   UNL A   1      43.419  27.219  27.755  1.00  0.00    -0.248 NA
ATOM     41  C   UNL A   1      43.381  25.009  27.009  1.00  0.00     0.031 C 
ATOM     42  C   UNL A   1      39.221  26.628  29.312  1.00  0.00     0.029 A 
ATOM     43  N   UNL A   1      40.887  28.110  29.120  1.00  0.00    -0.354 N 
ATOM     44  C   UNL A   1      44.633  26.904  27.158  1.00  0.00     0.074 A 
ATOM     45  C   UNL A   1      44.570  25.522  26.746  1.00  0.00     0.031 C 
ATOM     46  C   UNL A   1      38.814  27.768  29.893  1.00  0.00     0.029 A 
ATOM     47  C   UNL A   1      39.896  28.746  29.823  1.00  0.00     0.049 A 
ATOM     48  H   UNL A   1      41.733  28.544  28.864  1.00  0.00     0.167 HD
ATOM     49  C   UNL A   1      45.701  27.708  26.963  1.00  0.00     0.034 A 
ATOM     50  C   UNL A   1      39.891  29.977  30.367  1.00  0.00     0.034 A 
ATOM     51  C   UNL A   1      45.724  29.082  27.379  1.00  0.00     0.049 A 
ATOM     52  C   UNL A   1      41.100  30.847  30.153  1.00  0.00     0.074 A 
ATOM     53  C   UNL A   1      46.727  30.016  27.214  1.00  0.00     0.029 A 
ATOM     54  N   UNL A   1      44.693  29.709  28.066  1.00  0.00    -0.354 N 
ATOM     55  N   UNL A   1      42.207  30.573  29.502  1.00  0.00    -0.248 NA
ATOM     56  C   UNL A   1      41.049  32.200  30.714  1.00  0.00     0.031 C 
ATOM     57  C   UNL A   1      46.318  31.198  27.839  1.00  0.00     0.029 A 
ATOM     58  C   UNL A   1      45.040  31.015  28.350  1.00  0.00     0.049 A 
ATOM     59  H   UNL A   1      43.840  29.284  28.314  1.00  0.00     0.167 HD
ATOM     60  C   UNL A   1      42.972  31.731  29.545  1.00  0.00     0.074 A 
ATOM     61  C   UNL A   1      42.189  32.714  30.270  1.00  0.00     0.031 C 
ATOM     62  C   UNL A   1      44.212  31.967  29.043  1.00  0.00     0.034 A 
BRANCH  49  63
ATOM     63  C   UNL A   1      46.912  27.120  26.290  1.00  0.00     0.023 A 
ATOM     64  C   UNL A   1      47.050  27.190  24.888  1.00  0.00     0.012 A 
ATOM     65  C   UNL A   1      47.930  26.516  27.053  1.00  0.00     0.148 A 
ATOM     66  C   UNL A   1      48.165  26.641  24.255  1.00  0.00     0.002 A 
ATOM     67  C   UNL A   1      49.062  26.015  26.421  1.00  0.00     0.091 A 
ATOM     68  F   UNL A   1      47.765  26.429  28.380  1.00  0.00    -0.205 F 
ATOM     69  C   UNL A   1      49.175  26.065  25.022  1.00  0.00     0.022 A 
BRANCH  67  70
ATOM     70  S   UNL A   1      50.451  25.325  27.324  1.00  0.00     0.127 S 
ATOM     71  O   UNL A   1      51.349  24.939  26.237  1.00  0.00    -0.237 OA
ATOM     72  O   UNL A   1      50.902  26.472  28.111  1.00  0.00    -0.237 OA
ATOM     73  O   UNL A   1      49.915  24.221  28.108  1.00  0.00    -0.744 OA
ENDBRANCH  67  70
ENDBRANCH  49  63
BRANCH  50  74
ATOM     74  C   UNL A   1      38.705  30.445  31.133  1.00  0.00     0.023 A 
ATOM     75  C   UNL A   1      38.651  30.263  32.527  1.00  0.00     0.012 A 
ATOM     76  C   UNL A   1      37.646  31.115  30.486  1.00  0.00     0.148 A 
ATOM     77  C   UNL A   1      37.552  30.712  33.260  1.00  0.00     0.002 A 
ATOM     78  C   UNL A   1      36.581  31.609  31.228  1.00  0.00     0.091 A 
ATOM     79  F   UNL A   1      37.712  31.270  29.156  1.00  0.00    -0.205 F 
ATOM     80  C   UNL A   1      36.523  31.394  32.614  1.00  0.00     0.022 A 
BRANCH  78  81
ATOM     81  S   UNL A   1      35.283  32.611  30.498  1.00  0.00     0.127 S 
ATOM     82  O   UNL A   1      34.318  32.695  31.592  1.00  0.00    -0.237 OA
ATOM     83  O   UNL A   1      35.992  33.858  30.205  1.00  0.00    -0.237 OA
ATOM     84  O   UNL A   1      34.839  31.884  29.316  1.00  0.00    -0.744 OA
ENDBRANCH  78  81
ENDBRANCH  50  74
BRANCH  62  85
ATOM     85  C   UNL A   1      44.773  33.350  29.227  1.00  0.00     0.023 A 
ATOM     86  C   UNL A   1      45.452  33.683  30.416  1.00  0.00     0.012 A 
ATOM     87  C   UNL A   1      44.694  34.291  28.184  1.00  0.00     0.148 A 
ATOM     88  C   UNL A   1      46.009  34.950  30.578  1.00  0.00     0.002 A 
ATOM     89  C   UNL A   1      45.301  35.530  28.329  1.00  0.00     0.091 A 
ATOM     90  F   UNL A   1      44.031  33.954  27.067  1.00  0.00    -0.205 F 
ATOM     91  C   UNL A   1      45.945  35.867  29.531  1.00  0.00     0.022 A 
BRANCH  89  92
ATOM     92  S   UNL A   1      45.363  36.731  26.997  1.00  0.00     0.127 S 
ATOM     93  O   UNL A   1      43.967  37.155  26.915  1.00  0.00    -0.237 OA
ATOM     94  O   UNL A   1      46.278  37.740  27.534  1.00  0.00    -0.237 OA
ATOM     95  O   UNL A   1      45.868  36.017  25.832  1.00  0.00    -0.744 OA
ENDBRANCH  89  92
ENDBRANCH  62  85
ENDBRANCH  36  37
ENDBRANCH  29  31
ENDBRANCH  28  29
ENDBRANCH  27  28
ENDBRANCH  26  27
ENDBRANCH  25  26
ENDBRANCH   1  25
TORSDOF 23
ENDMDL
MODEL 2
REMARK VINA RESULT:     -10.1      1.350      2.553
REMARK SMILES COCCN(CC(=O)OCCOCCOC(=O)c1ccc(-c2c3nc(c(-c4cccc(S(=O)(=O)[O-])c4F)c4ccc([nH]4)c(-c4cccc(S(=O)(=O)[O-])c4F)c4nc(c(-c5cccc(S(=O)(=O)[O-])c5F)c5ccc2[nH]5)C=C4)C=C3)cc1)C(=O)N[C@H]1CC[N@@H+]2CCC[C@H]12
REMARK SMILES IDX 11 1 10 2 9 3 7 4 8 5 6 6 5 7 4 8 3 9 2 10 1 11 81 12 82 13
REMARK SMILES IDX 83 14 84 16 85 17 91 18 86 19 87 20 90 21 88 22 89 24 12 25
REMARK SMILES IDX 13 26 14 27 15 28 16 29 17 30 18 31 19 32 80 33 20 34 79 35
REMARK SMILES IDX 21 36 22 37 23 38 73 39 24 40 78 41 72 42 74 43 25 44 77 45
REMARK SMILES IDX 71 46 70 47 26 49 58 50 38 51 57 52 39 53 42 54 56 55 75 56
REMARK SMILES IDX 40 57 41 58 55 60 76 61 43 62 27 63 28 64 36 65 29 66 31 67
REMARK SMILES IDX 37 68 30 69 32 70 33 71 34 72 35 73 59 74 60 75 68 76 61 77
REMARK SMILES IDX 63 78 69 79 62 80 64 81 65 82 66 83 67 84 44 85 45 86 53 87
REMARK SMILES IDX 46 88 48 89 54 90 47 91 49 92 50 93 51 94 52 95
REMARK H PARENT 83 15 87 23 74 48 42 59
REMARK Flexibility Score: inf
ROOT
ATOM      1  C   UNL A   1      36.302  22.071  26.015  1.00  0.00     0.202 C 
ENDROOT
BRANCH   1   2
ATOM      2  C   UNL A   1      36.365  23.289  25.086  1.00  0.00     0.261 C 
BRANCH   2   3
ATOM      3  O   UNL A   1      35.094  23.979  25.083  1.00  0.00    -0.462 OA
BRANCH   3   4
ATOM      4  C   UNL A   1      34.362  23.829  23.943  1.00  0.00     0.325 C 
ATOM      5  O   UNL A   1      34.850  23.720  22.822  1.00  0.00    -0.250 OA
BRANCH   4   6
ATOM      6  C   UNL A   1      32.865  23.574  24.213  1.00  0.00     0.244 C 
BRANCH   6   7
ATOM      7  N   UNL A   1      32.457  23.402  25.605  1.00  0.00    -0.311 N 
BRANCH   7   8
ATOM      8  C   UNL A   1      32.690  22.054  26.167  1.00  0.00     0.150 C 
BRANCH   8   9
ATOM      9  C   UNL A   1      32.077  20.930  25.305  1.00  0.00     0.181 C 
BRANCH   9  10
ATOM     10  O   UNL A   1      32.993  20.438  24.326  1.00  0.00    -0.383 OA
ATOM     11  C   UNL A   1      32.558  19.262  23.661  1.00  0.00     0.194 C 
ENDBRANCH   9  10
ENDBRANCH   8   9
ENDBRANCH   7   8
BRANCH   7  12
ATOM     12  C   UNL A   1      31.771  24.282  26.377  1.00  0.00     0.318 C 
ATOM     13  O   UNL A   1      30.894  23.903  27.162  1.00  0.00    -0.249 OA
ATOM     14  N   UNL A   1      31.957  25.607  26.405  1.00  0.00    -0.329 N 
ATOM     15  H   UNL A   1      31.201  26.022  26.881  1.00  0.00     0.165 HD
BRANCH  14  16
ATOM     16  C   UNL A   1      32.893  26.669  25.978  1.00  0.00     0.147 C 
ATOM     17  C   UNL A   1      32.658  27.209  24.572  1.00  0.00     0.092 C 
ATOM     18  C   UNL A   1      32.683  27.933  26.852  1.00  0.00     0.207 C 
ATOM     19  C   UNL A   1      32.100  28.615  24.675  1.00  0.00     0.264 C 
ATOM     20  N   UNL A   1      31.768  28.796  26.086  1.00  0.00    -0.331 N 
ATOM     21  C   UNL A   1      33.919  28.789  27.098  1.00  0.00     0.073 C 
ATOM     22  C   UNL A   1      32.000  30.166  26.530  1.00  0.00     0.262 C 
ATOM     23  H   UNL A   1      30.783  28.572  26.222  1.00  0.00     0.348 HD
ATOM     24  C   UNL A   1      33.489  30.230  26.828  1.00  0.00     0.068 C 
ENDBRANCH  14  16
ENDBRANCH   7  12
ENDBRANCH   6   7
ENDBRANCH   4   6
ENDBRANCH   3   4
ENDBRANCH   2   3
ENDBRANCH   1   2
BRANCH   1  25
ATOM     25  O   UNL A   1      35.918  20.819  25.427  1.00  0.00    -0.374 OA
BRANCH  25  26
ATOM     26  C   UNL A   1      36.923  20.133  24.684  1.00  0.00     0.202 C 
BRANCH  26  27
ATOM     27  C   UNL A   1      38.239  19.777  25.383  1.00  0.00     0.261 C 
BRANCH  27  28
ATOM     28  O   UNL A   1      39.129  20.879  25.412  1.00  0.00    -0.460 OA
BRANCH  28  29
ATOM     29  C   UNL A   1      40.152  20.680  26.274  1.00  0.00     0.338 C 
ATOM     30  O   UNL A   1      40.873  19.710  26.378  1.00  0.00    -0.246 OA
BRANCH  29  31
ATOM     31  C   UNL A   1      40.412  21.967  26.926  1.00  0.00     0.060 A 
ATOM     32  C   UNL A   1      39.738  23.075  26.402  1.00  0.00     0.016 A 
ATOM     33  C   UNL A   1      41.249  22.069  28.042  1.00  0.00     0.016 A 
ATOM     34  C   UNL A   1      39.974  24.324  26.940  1.00  0.00     0.010 A 
ATOM     35  C   UNL A   1      41.492  23.324  28.578  1.00  0.00     0.010 A 
ATOM     36  C   UNL A   1      40.906  24.449  27.976  1.00  0.00    -0.014 A 
BRANCH  36  37
ATOM     37  C   UNL A   1      41.466  25.782  28.226  1.00  0.00     0.031 A 
ATOM     38  C   UNL A   1      42.847  26.054  27.706  1.00  0.00     0.074 A 
ATOM     39  C   UNL A   1      40.725  26.715  28.840  1.00  0.00     0.049 A 
ATOM     40  N   UNL A   1      43.550  27.149  27.768  1.00  0.00    -0.248 NA
ATOM     41  C   UNL A   1      43.530  24.938  27.023  1.00  0.00     0.031 C 
ATOM     42  C   UNL A   1      39.367  26.514  29.350  1.00  0.00     0.029 A 
ATOM     43  N   UNL A   1      41.016  28.014  29.147  1.00  0.00    -0.354 N 
ATOM     44  C   UNL A   1      44.764  26.846  27.163  1.00  0.00     0.074 A 
ATOM     45  C   UNL A   1      44.713  25.464  26.752  1.00  0.00     0.031 C 
ATOM     46  C   UNL A   1      38.952  27.651  29.932  1.00  0.00     0.029 A 
ATOM     47  C   UNL A   1      40.022  28.640  29.856  1.00  0.00     0.049 A 
ATOM     48  H   UNL A   1      41.857  28.456  28.886  1.00  0.00     0.167 HD
ATOM     49  C   UNL A   1      45.822  27.662  26.962  1.00  0.00     0.034 A 
ATOM     50  C   UNL A   1      40.008  29.871  30.399  1.00  0.00     0.034 A 
ATOM     51  C   UNL A   1      45.833  29.036  27.378  1.00  0.00     0.049 A 
ATOM     52  C   UNL A   1      41.207  30.753  30.178  1.00  0.00     0.074 A 
ATOM     53  C   UNL A   1      46.825  29.980  27.206  1.00  0.00     0.029 A 
ATOM     54  N   UNL A   1      44.800  29.652  28.071  1.00  0.00    -0.354 N 
ATOM     55  N   UNL A   1      42.313  30.491  29.520  1.00  0.00    -0.248 NA
ATOM     56  C   UNL A   1      41.145  32.106  30.739  1.00  0.00     0.031 C 
ATOM     57  C   UNL A   1      46.407  31.158  27.833  1.00  0.00     0.029 A 
ATOM     58  C   UNL A   1      45.134  30.962  28.352  1.00  0.00     0.049 A 
ATOM     59  H   UNL A   1      43.952  29.219  28.324  1.00  0.00     0.167 HD
ATOM     60  C   UNL A   1      43.066  31.657  29.559  1.00  0.00     0.074 A 
ATOM     61  C   UNL A   1      42.276  32.631  30.288  1.00  0.00     0.031 C 
ATOM     62  C   UNL A   1      44.300  31.906  29.050  1.00  0.00     0.034 A 
BRANCH  49  63
ATOM     63  C   UNL A   1      47.035  27.086  26.282  1.00  0.00     0.023 A 
ATOM     64  C   UNL A   1      47.168  27.165  24.881  1.00  0.00     0.012 A 
ATOM     65  C   UNL A   1      48.060  26.486  27.039  1.00  0.00     0.148 A 
ATOM     66  C   UNL A   1      48.285  26.628  24.241  1.00  0.00     0.002 A 
ATOM     67  C   UNL A   1      49.193  25.997  26.401  1.00  0.00     0.091 A 
ATOM     68  F   UNL A   1      47.900  26.391  28.367  1.00  0.00    -0.205 F 
ATOM     69  C   UNL A   1      49.302  26.054  25.002  1.00  0.00     0.022 A 
BRANCH  67  70
ATOM     70  S   UNL A   1      50.591  25.312  27.296  1.00  0.00     0.127 S 
ATOM     71  O   UNL A   1      51.490  24.942  26.204  1.00  0.00    -0.237 OA
ATOM     72  O   UNL A   1      51.034  26.458  28.090  1.00  0.00    -0.237 OA
ATOM     73  O   UNL A   1      50.066  24.198  28.074  1.00  0.00    -0.744 OA
ENDBRANCH  67  70
ENDBRANCH  49  63
BRANCH  50  74
ATOM     74  C   UNL A   1      38.822  30.326  31.172  1.00  0.00     0.023 A 
ATOM     75  C   UNL A   1      38.756  30.100  32.559  1.00  0.00     0.012 A 
ATOM     76  C   UNL A   1      37.775  31.029  30.541  1.00  0.00     0.148 A 
ATOM     77  C   UNL A   1      37.656  30.536  33.299  1.00  0.00     0.002 A 
ATOM     78  C   UNL A   1      36.710  31.511  31.291  1.00  0.00     0.091 A 
ATOM     79  F   UNL A   1      37.852  31.227  29.217  1.00  0.00    -0.205 F 
ATOM     80  C   UNL A   1      36.639  31.250  32.668  1.00  0.00     0.022 A 
BRANCH  78  81
ATOM     81  S   UNL A   1      35.428  32.550  30.585  1.00  0.00     0.127 S 
ATOM     82  O   UNL A   1      34.406  32.517  31.629  1.00  0.00    -0.237 OA
ATOM     83  O   UNL A   1      36.123  33.831  30.443  1.00  0.00    -0.237 OA
ATOM     84  O   UNL A   1      35.062  31.925  29.321  1.00  0.00    -0.744 OA
ENDBRANCH  78  81
ENDBRANCH  50  74
BRANCH  62  85
ATOM     85  C   UNL A   1      44.848  33.294  29.230  1.00  0.00     0.023 A 
ATOM     86  C   UNL A   1      45.666  33.591  30.338  1.00  0.00     0.012 A 
ATOM     87  C   UNL A   1      44.612  34.281  28.254  1.00  0.00     0.148 A 
ATOM     88  C   UNL A   1      46.210  34.865  30.491  1.00  0.00     0.002 A 
ATOM     89  C   UNL A   1      45.205  35.529  28.384  1.00  0.00     0.091 A 
ATOM     90  F   UNL A   1      43.819  33.977  27.216  1.00  0.00    -0.205 F 
ATOM     91  C   UNL A   1      45.990  35.828  29.509  1.00  0.00     0.022 A 
BRANCH  89  92
ATOM     92  S   UNL A   1      45.066  36.793  27.117  1.00  0.00     0.127 S 
ATOM     93  O   UNL A   1      45.507  36.069  25.926  1.00  0.00    -0.237 OA
ATOM     94  O   UNL A   1      43.637  37.106  27.148  1.00  0.00    -0.237 OA
ATOM     95  O   UNL A   1      45.933  37.885  27.538  1.00  0.00    -0.744 OA
ENDBRANCH  89  92
ENDBRANCH  62  85
ENDBRANCH  36  37
ENDBRANCH  29  31
ENDBRANCH  28  29
ENDBRANCH  27  28
ENDBRANCH  26  27
ENDBRANCH  25  26
ENDBRANCH   1  25
TORSDOF 23
ENDMDL
MODEL 3
REMARK VINA RESULT:     -10.0      1.079      7.915
REMARK SMILES COCCN(CC(=O)OCCOCCOC(=O)c1ccc(-c2c3nc(c(-c4cccc(S(=O)(=O)[O-])c4F)c4ccc([nH]4)c(-c4cccc(S(=O)(=O)[O-])c4F)c4nc(c(-c5cccc(S(=O)(=O)[O-])c5F)c5ccc2[nH]5)C=C4)C=C3)cc1)C(=O)N[C@H]1CC[N@@H+]2CCC[C@H]12
REMARK SMILES IDX 11 1 10 2 9 3 7 4 8 5 6 6 5 7 4 8 3 9 2 10 1 11 81 12 82 13
REMARK SMILES IDX 83 14 84 16 85 17 91 18 86 19 87 20 90 21 88 22 89 24 12 25
REMARK SMILES IDX 13 26 14 27 15 28 16 29 17 30 18 31 19 32 80 33 20 34 79 35
REMARK SMILES IDX 21 36 22 37 23 38 73 39 24 40 78 41 72 42 74 43 25 44 77 45
REMARK SMILES IDX 71 46 70 47 26 49 58 50 38 51 57 52 39 53 42 54 56 55 75 56
REMARK SMILES IDX 40 57 41 58 55 60 76 61 43 62 27 63 28 64 36 65 29 66 31 67
REMARK SMILES IDX 37 68 30 69 32 70 33 71 34 72 35 73 59 74 60 75 68 76 61 77
REMARK SMILES IDX 63 78 69 79 62 80 64 81 65 82 66 83 67 84 44 85 45 86 53 87
REMARK SMILES IDX 46 88 48 89 54 90 47 91 49 92 50 93 51 94 52 95
REMARK H PARENT 83 15 87 23 74 48 42 59
REMARK Flexibility Score: inf
ROOT
ATOM      1  C   UNL A   1      35.169  22.947  25.904  1.00  0.00     0.202 C 
ENDROOT
BRANCH   1   2
ATOM      2  C   UNL A   1      33.754  23.352  26.337  1.00  0.00     0.261 C 
BRANCH   2   3
ATOM      3  O   UNL A   1      33.101  24.088  25.278  1.00  0.00    -0.462 OA
BRANCH   3   4
ATOM      4  C   UNL A   1      33.070  25.439  25.452  1.00  0.00     0.325 C 
ATOM      5  O   UNL A   1      33.916  26.071  26.081  1.00  0.00    -0.250 OA
BRANCH   4   6
ATOM      6  C   UNL A   1      31.998  26.138  24.593  1.00  0.00     0.244 C 
BRANCH   6   7
ATOM      7  N   UNL A   1      32.462  27.116  23.612  1.00  0.00    -0.311 N 
BRANCH   7   8
ATOM      8  C   UNL A   1      33.149  26.548  22.432  1.00  0.00     0.150 C 
BRANCH   8   9
ATOM      9  C   UNL A   1      32.408  25.333  21.834  1.00  0.00     0.181 C 
BRANCH   9  10
ATOM     10  O   UNL A   1      33.010  24.876  20.623  1.00  0.00    -0.383 OA
ATOM     11  C   UNL A   1      32.533  25.524  19.454  1.00  0.00     0.194 C 
ENDBRANCH   9  10
ENDBRANCH   8   9
ENDBRANCH   7   8
BRANCH   7  12
ATOM     12  C   UNL A   1      32.459  28.468  23.731  1.00  0.00     0.318 C 
ATOM     13  O   UNL A   1      33.378  29.066  24.302  1.00  0.00    -0.249 OA
ATOM     14  N   UNL A   1      31.519  29.292  23.255  1.00  0.00    -0.329 N 
ATOM     15  H   UNL A   1      31.646  30.183  23.656  1.00  0.00     0.165 HD
BRANCH  14  16
ATOM     16  C   UNL A   1      30.358  29.344  22.340  1.00  0.00     0.147 C 
ATOM     17  C   UNL A   1      29.222  28.388  22.686  1.00  0.00     0.092 C 
ATOM     18  C   UNL A   1      29.666  30.728  22.451  1.00  0.00     0.207 C 
ATOM     19  C   UNL A   1      28.048  29.194  23.207  1.00  0.00     0.264 C 
ATOM     20  N   UNL A   1      28.566  30.544  23.412  1.00  0.00    -0.331 N 
ATOM     21  C   UNL A   1      28.999  31.245  21.182  1.00  0.00     0.073 C 
ATOM     22  C   UNL A   1      27.566  31.564  23.118  1.00  0.00     0.262 C 
ATOM     23  H   UNL A   1      28.853  30.641  24.386  1.00  0.00     0.348 HD
ATOM     24  C   UNL A   1      27.614  31.729  21.608  1.00  0.00     0.068 C 
ENDBRANCH  14  16
ENDBRANCH   7  12
ENDBRANCH   6   7
ENDBRANCH   4   6
ENDBRANCH   3   4
ENDBRANCH   2   3
ENDBRANCH   1   2
BRANCH   1  25
ATOM     25  O   UNL A   1      35.583  21.604  26.198  1.00  0.00    -0.374 OA
BRANCH  25  26
ATOM     26  C   UNL A   1      36.011  20.816  25.089  1.00  0.00     0.202 C 
BRANCH  26  27
ATOM     27  C   UNL A   1      37.494  20.443  24.982  1.00  0.00     0.261 C 
BRANCH  27  28
ATOM     28  O   UNL A   1      38.332  21.555  25.244  1.00  0.00    -0.460 OA
BRANCH  28  29
ATOM     29  C   UNL A   1      39.346  21.237  26.082  1.00  0.00     0.338 C 
ATOM     30  O   UNL A   1      39.934  20.182  26.187  1.00  0.00    -0.246 OA
BRANCH  29  31
ATOM     31  C   UNL A   1      39.794  22.490  26.696  1.00  0.00     0.060 A 
ATOM     32  C   UNL A   1      39.109  23.647  26.315  1.00  0.00     0.016 A 
ATOM     33  C   UNL A   1      40.817  22.514  27.649  1.00  0.00     0.016 A 
ATOM     34  C   UNL A   1      39.512  24.866  26.821  1.00  0.00     0.010 A 
ATOM     35  C   UNL A   1      41.228  23.739  28.152  1.00  0.00     0.010 A 
ATOM     36  C   UNL A   1      40.616  24.912  27.680  1.00  0.00    -0.014 A 
BRANCH  36  37
ATOM     37  C   UNL A   1      41.293  26.203  27.847  1.00  0.00     0.031 A 
ATOM     38  C   UNL A   1      40.561  27.266  28.612  1.00  0.00     0.074 A 
ATOM     39  C   UNL A   1      42.537  26.372  27.378  1.00  0.00     0.049 A 
ATOM     40  N   UNL A   1      40.947  28.471  28.923  1.00  0.00    -0.248 NA
ATOM     41  C   UNL A   1      39.208  26.925  29.094  1.00  0.00     0.031 C 
ATOM     42  C   UNL A   1      43.306  25.366  26.643  1.00  0.00     0.029 A 
ATOM     43  N   UNL A   1      43.365  27.456  27.443  1.00  0.00    -0.354 N 
ATOM     44  C   UNL A   1      39.878  29.040  29.605  1.00  0.00     0.074 A 
ATOM     45  C   UNL A   1      38.821  28.059  29.654  1.00  0.00     0.031 C 
ATOM     46  C   UNL A   1      44.493  25.894  26.302  1.00  0.00     0.029 A 
ATOM     47  C   UNL A   1      44.548  27.275  26.772  1.00  0.00     0.049 A 
ATOM     48  H   UNL A   1      43.136  28.284  27.924  1.00  0.00     0.167 HD
ATOM     49  C   UNL A   1      39.798  30.273  30.150  1.00  0.00     0.034 A 
ATOM     50  C   UNL A   1      45.545  28.151  26.549  1.00  0.00     0.034 A 
ATOM     51  C   UNL A   1      40.875  31.221  30.088  1.00  0.00     0.049 A 
ATOM     52  C   UNL A   1      45.423  29.525  27.151  1.00  0.00     0.074 A 
ATOM     53  C   UNL A   1      40.938  32.490  30.628  1.00  0.00     0.029 A 
ATOM     54  N   UNL A   1      42.074  31.000  29.425  1.00  0.00    -0.354 N 
ATOM     55  N   UNL A   1      44.450  30.023  27.878  1.00  0.00    -0.248 NA
ATOM     56  C   UNL A   1      46.545  30.444  26.935  1.00  0.00     0.031 C 
ATOM     57  C   UNL A   1      42.162  33.053  30.254  1.00  0.00     0.029 A 
ATOM     58  C   UNL A   1      42.881  32.116  29.524  1.00  0.00     0.049 A 
ATOM     59  H   UNL A   1      42.314  30.169  28.953  1.00  0.00     0.167 HD
ATOM     60  C   UNL A   1      44.855  31.302  28.235  1.00  0.00     0.074 A 
ATOM     61  C   UNL A   1      46.173  31.490  27.659  1.00  0.00     0.031 C 
ATOM     62  C   UNL A   1      44.202  32.244  28.963  1.00  0.00     0.034 A 
BRANCH  49  63
ATOM     63  C   UNL A   1      38.515  30.656  30.838  1.00  0.00     0.023 A 
ATOM     64  C   UNL A   1      38.287  30.279  32.177  1.00  0.00     0.012 A 
ATOM     65  C   UNL A   1      37.542  31.416  30.160  1.00  0.00     0.148 A 
ATOM     66  C   UNL A   1      37.098  30.624  32.821  1.00  0.00     0.002 A 
ATOM     67  C   UNL A   1      36.382  31.799  30.822  1.00  0.00     0.091 A 
ATOM     68  F   UNL A   1      37.762  31.737  28.878  1.00  0.00    -0.205 F 
ATOM     69  C   UNL A   1      36.152  31.392  32.147  1.00  0.00     0.022 A 
BRANCH  67  70
ATOM     70  S   UNL A   1      35.139  32.853  30.069  1.00  0.00     0.127 S 
ATOM     71  O   UNL A   1      35.967  33.825  29.357  1.00  0.00    -0.237 OA
ATOM     72  O   UNL A   1      34.425  31.911  29.207  1.00  0.00    -0.237 OA
ATOM     73  O   UNL A   1      34.349  33.395  31.166  1.00  0.00    -0.744 OA
ENDBRANCH  67  70
ENDBRANCH  49  63
BRANCH  50  74
ATOM     74  C   UNL A   1      46.728  27.740  25.748  1.00  0.00     0.023 A 
ATOM     75  C   UNL A   1      46.688  27.819  24.343  1.00  0.00     0.012 A 
ATOM     76  C   UNL A   1      47.915  27.314  26.378  1.00  0.00     0.148 A 
ATOM     77  C   UNL A   1      47.797  27.452  23.579  1.00  0.00     0.002 A 
ATOM     78  C   UNL A   1      49.034  27.004  25.615  1.00  0.00     0.091 A 
ATOM     79  F   UNL A   1      47.930  27.237  27.716  1.00  0.00    -0.205 F 
ATOM     80  C   UNL A   1      48.972  27.055  24.214  1.00  0.00     0.022 A 
BRANCH  78  81
ATOM     81  S   UNL A   1      50.623  26.613  26.353  1.00  0.00     0.127 S 
ATOM     82  O   UNL A   1      50.345  25.337  27.006  1.00  0.00    -0.237 OA
ATOM     83  O   UNL A   1      51.489  26.528  25.176  1.00  0.00    -0.237 OA
ATOM     84  O   UNL A   1      50.931  27.726  27.242  1.00  0.00    -0.744 OA
ENDBRANCH  78  81
ENDBRANCH  50  74
BRANCH  62  85
ATOM     85  C   UNL A   1      44.922  33.541  29.209  1.00  0.00     0.023 A 
ATOM     86  C   UNL A   1      45.714  33.700  30.363  1.00  0.00     0.012 A 
ATOM     87  C   UNL A   1      44.871  34.572  28.252  1.00  0.00     0.148 A 
ATOM     88  C   UNL A   1      46.415  34.885  30.579  1.00  0.00     0.002 A 
ATOM     89  C   UNL A   1      45.617  35.725  28.446  1.00  0.00     0.091 A 
ATOM     90  F   UNL A   1      44.099  34.401  27.168  1.00  0.00    -0.205 F 
ATOM     91  C   UNL A   1      46.376  35.890  29.616  1.00  0.00     0.022 A 
BRANCH  89  92
ATOM     92  S   UNL A   1      45.715  37.024  27.211  1.00  0.00     0.127 S 
ATOM     93  O   UNL A   1      46.602  37.987  27.862  1.00  0.00    -0.237 OA
ATOM     94  O   UNL A   1      46.306  36.322  26.071  1.00  0.00    -0.237 OA
ATOM     95  O   UNL A   1      44.349  37.482  26.996  1.00  0.00    -0.744 OA
ENDBRANCH  89  92
ENDBRANCH  62  85
ENDBRANCH  36  37
ENDBRANCH  29  31
ENDBRANCH  28  29
ENDBRANCH  27  28
ENDBRANCH  26  27
ENDBRANCH  25  26
ENDBRANCH   1  25
TORSDOF 23
ENDMDL
