MODEL 1
REMARK VINA RESULT:     -11.3      0.000      0.000
REMARK SMILES O=C(Cc1cccc(-c2ccn(C(F)F)c(=O)c2)c1)OCCOCCOC(=O)c1ccc(-c2c3nc(c(-c4cccc(S(=O)(=O)[O-])c4F)c4ccc([nH]4)c(-c4cccc(S(=O)(=O)[O-])c4F)c4nc(c(-c5cccc(S(=O)(=O)[O-])c5F)c5ccc2[nH]5)C=C4)C=C3)cc1
REMARK SMILES IDX 23 1 22 2 21 3 20 4 2 5 1 6 3 7 4 8 5 9 19 10 6 11 8 12 7 13
REMARK SMILES IDX 9 14 10 15 18 16 11 17 16 18 12 19 17 20 13 21 14 22 15 23
REMARK SMILES IDX 24 24 25 25 26 26 27 27 28 28 29 29 30 30 91 31 31 32 90 33
REMARK SMILES IDX 32 34 33 35 34 36 84 37 35 38 89 39 83 40 85 41 36 42 88 43
REMARK SMILES IDX 82 44 81 45 37 47 69 48 49 49 68 50 50 51 53 52 67 53 86 54
REMARK SMILES IDX 51 55 52 56 66 58 87 59 54 60 38 61 39 62 47 63 40 64 42 65
REMARK SMILES IDX 48 66 41 67 43 68 44 69 45 70 46 71 70 72 71 73 79 74 72 75
REMARK SMILES IDX 74 76 80 77 73 78 75 79 76 80 77 81 78 82 55 83 56 84 64 85
REMARK SMILES IDX 57 86 59 87 65 88 58 89 60 90 61 91 62 92 63 93
REMARK H PARENT 85 46 53 57
REMARK Flexibility Score: inf
ROOT
ATOM      1  O   UNL A   1      34.072  21.249  25.413  1.00  0.00    -0.374 OA
ENDROOT
BRANCH   1   2
ATOM      2  C   UNL A   1      33.937  21.897  24.148  1.00  0.00     0.202 C 
BRANCH   2   3
ATOM      3  C   UNL A   1      33.699  23.403  24.195  1.00  0.00     0.261 C 
BRANCH   3   4
ATOM      4  O   UNL A   1      32.310  23.764  24.248  1.00  0.00    -0.463 OA
BRANCH   4   5
ATOM      5  C   UNL A   1      31.682  24.429  25.242  1.00  0.00     0.310 C 
ATOM      6  O   UNL A   1      30.449  24.432  25.268  1.00  0.00    -0.252 OA
BRANCH   5   7
ATOM      7  C   UNL A   1      32.449  25.251  26.257  1.00  0.00     0.158 C 
BRANCH   7   8
ATOM      8  C   UNL A   1      32.623  26.714  25.953  1.00  0.00    -0.036 A 
ATOM      9  C   UNL A   1      33.822  27.361  26.262  1.00  0.00     0.004 A 
ATOM     10  C   UNL A   1      31.605  27.428  25.297  1.00  0.00     0.013 A 
ATOM     11  C   UNL A   1      34.013  28.689  25.893  1.00  0.00     0.001 A 
ATOM     12  C   UNL A   1      31.835  28.720  24.815  1.00  0.00    -0.018 A 
ATOM     13  C   UNL A   1      33.033  29.359  25.157  1.00  0.00     0.009 A 
BRANCH  12  14
ATOM     14  C   UNL A   1      30.887  29.321  23.848  1.00  0.00    -0.011 A 
ATOM     15  C   UNL A   1      30.913  29.065  22.420  1.00  0.00     0.027 A 
ATOM     16  C   UNL A   1      30.019  30.234  24.321  1.00  0.00     0.080 A 
ATOM     17  C   UNL A   1      30.069  29.702  21.597  1.00  0.00     0.095 A 
ATOM     18  C   UNL A   1      29.054  30.927  23.428  1.00  0.00     0.255 A 
ATOM     19  N   UNL A   1      29.145  30.609  22.083  1.00  0.00    -0.258 N 
ATOM     20  O   UNL A   1      28.253  31.710  23.926  1.00  0.00    -0.269 OA
BRANCH  19  21
ATOM     21  C   UNL A   1      28.224  31.272  21.197  1.00  0.00     0.451 C 
ATOM     22  F   UNL A   1      28.880  32.092  20.340  1.00  0.00    -0.185 F 
ATOM     23  F   UNL A   1      27.516  30.379  20.467  1.00  0.00    -0.185 F 
ENDBRANCH  19  21
ENDBRANCH  12  14
ENDBRANCH   7   8
ENDBRANCH   5   7
ENDBRANCH   4   5
ENDBRANCH   3   4
ENDBRANCH   2   3
ENDBRANCH   1   2
BRANCH   1  24
ATOM     24  C   UNL A   1      35.381  21.357  25.995  1.00  0.00     0.202 C 
BRANCH  24  25
ATOM     25  C   UNL A   1      36.521  20.842  25.109  1.00  0.00     0.261 C 
BRANCH  25  26
ATOM     26  O   UNL A   1      37.641  21.737  25.134  1.00  0.00    -0.460 OA
BRANCH  26  27
ATOM     27  C   UNL A   1      38.712  21.304  25.842  1.00  0.00     0.338 C 
ATOM     28  O   UNL A   1      39.208  20.188  25.821  1.00  0.00    -0.246 OA
BRANCH  27  29
ATOM     29  C   UNL A   1      39.350  22.473  26.484  1.00  0.00     0.060 A 
ATOM     30  C   UNL A   1      38.816  23.742  26.215  1.00  0.00     0.016 A 
ATOM     31  C   UNL A   1      40.422  22.326  27.368  1.00  0.00     0.016 A 
ATOM     32  C   UNL A   1      39.382  24.875  26.792  1.00  0.00     0.010 A 
ATOM     33  C   UNL A   1      40.992  23.461  27.941  1.00  0.00     0.010 A 
ATOM     34  C   UNL A   1      40.499  24.739  27.623  1.00  0.00    -0.014 A 
BRANCH  34  35
ATOM     35  C   UNL A   1      41.298  25.922  28.008  1.00  0.00     0.031 A 
ATOM     36  C   UNL A   1      40.599  27.029  28.741  1.00  0.00     0.074 A 
ATOM     37  C   UNL A   1      42.586  26.039  27.645  1.00  0.00     0.049 A 
ATOM     38  N   UNL A   1      41.025  28.225  29.040  1.00  0.00    -0.248 NA
ATOM     39  C   UNL A   1      39.216  26.755  29.171  1.00  0.00     0.031 C 
ATOM     40  C   UNL A   1      43.357  25.025  26.928  1.00  0.00     0.029 A 
ATOM     41  N   UNL A   1      43.452  27.094  27.782  1.00  0.00    -0.354 N 
ATOM     42  C   UNL A   1      39.949  28.865  29.644  1.00  0.00     0.074 A 
ATOM     43  C   UNL A   1      38.851  27.926  29.667  1.00  0.00     0.031 C 
ATOM     44  C   UNL A   1      44.568  25.529  26.637  1.00  0.00     0.029 A 
ATOM     45  C   UNL A   1      44.640  26.910  27.114  1.00  0.00     0.049 A 
ATOM     46  H   UNL A   1      43.244  27.901  28.307  1.00  0.00     0.167 HD
ATOM     47  C   UNL A   1      39.885  30.122  30.137  1.00  0.00     0.034 A 
ATOM     48  C   UNL A   1      45.645  27.775  26.876  1.00  0.00     0.034 A 
ATOM     49  C   UNL A   1      40.992  31.039  30.122  1.00  0.00     0.049 A 
ATOM     50  C   UNL A   1      45.557  29.173  27.431  1.00  0.00     0.074 A 
ATOM     51  C   UNL A   1      41.064  32.308  30.661  1.00  0.00     0.029 A 
ATOM     52  N   UNL A   1      42.212  30.788  29.513  1.00  0.00    -0.354 N 
ATOM     53  N   UNL A   1      44.584  29.728  28.113  1.00  0.00    -0.248 NA
ATOM     54  C   UNL A   1      46.713  30.053  27.211  1.00  0.00     0.031 C 
ATOM     55  C   UNL A   1      42.315  32.843  30.341  1.00  0.00     0.029 A 
ATOM     56  C   UNL A   1      43.039  31.888  29.644  1.00  0.00     0.049 A 
ATOM     57  H   UNL A   1      42.455  29.951  29.056  1.00  0.00     0.167 HD
ATOM     58  C   UNL A   1      45.023  31.007  28.436  1.00  0.00     0.074 A 
ATOM     59  C   UNL A   1      46.354  31.142  27.880  1.00  0.00     0.031 C 
ATOM     60  C   UNL A   1      44.382  31.984  29.126  1.00  0.00     0.034 A 
BRANCH  47  61
ATOM     61  C   UNL A   1      38.576  30.574  30.727  1.00  0.00     0.023 A 
ATOM     62  C   UNL A   1      38.287  30.322  32.084  1.00  0.00     0.012 A 
ATOM     63  C   UNL A   1      37.638  31.266  29.938  1.00  0.00     0.148 A 
ATOM     64  C   UNL A   1      37.066  30.710  32.634  1.00  0.00     0.002 A 
ATOM     65  C   UNL A   1      36.445  31.696  30.506  1.00  0.00     0.091 A 
ATOM     66  F   UNL A   1      37.917  31.474  28.644  1.00  0.00    -0.205 F 
ATOM     67  C   UNL A   1      36.151  31.405  31.848  1.00  0.00     0.022 A 
BRANCH  65  68
ATOM     68  S   UNL A   1      35.239  32.669  29.598  1.00  0.00     0.127 S 
ATOM     69  O   UNL A   1      34.726  31.686  28.644  1.00  0.00    -0.237 OA
ATOM     70  O   UNL A   1      34.295  33.048  30.649  1.00  0.00    -0.237 OA
ATOM     71  O   UNL A   1      35.978  33.781  29.017  1.00  0.00    -0.744 OA
ENDBRANCH  65  68
ENDBRANCH  47  61
BRANCH  48  72
ATOM     72  C   UNL A   1      46.820  27.330  26.077  1.00  0.00     0.023 A 
ATOM     73  C   UNL A   1      46.854  27.569  24.690  1.00  0.00     0.012 A 
ATOM     74  C   UNL A   1      47.929  26.721  26.697  1.00  0.00     0.148 A 
ATOM     75  C   UNL A   1      47.963  27.193  23.932  1.00  0.00     0.002 A 
ATOM     76  C   UNL A   1      49.053  26.399  25.946  1.00  0.00     0.091 A 
ATOM     77  F   UNL A   1      47.870  26.493  28.017  1.00  0.00    -0.205 F 
ATOM     78  C   UNL A   1      49.066  26.620  24.560  1.00  0.00     0.022 A 
BRANCH  76  79
ATOM     79  S   UNL A   1      50.567  25.780  26.688  1.00  0.00     0.127 S 
ATOM     80  O   UNL A   1      51.413  25.575  25.515  1.00  0.00    -0.237 OA
ATOM     81  O   UNL A   1      50.960  26.902  27.542  1.00  0.00    -0.237 OA
ATOM     82  O   UNL A   1      50.191  24.574  27.410  1.00  0.00    -0.744 OA
ENDBRANCH  76  79
ENDBRANCH  48  72
BRANCH  60  83
ATOM     83  C   UNL A   1      45.116  33.275  29.374  1.00  0.00     0.023 A 
ATOM     84  C   UNL A   1      45.970  33.401  30.485  1.00  0.00     0.012 A 
ATOM     85  C   UNL A   1      45.049  34.319  28.428  1.00  0.00     0.148 A 
ATOM     86  C   UNL A   1      46.733  34.555  30.663  1.00  0.00     0.002 A 
ATOM     87  C   UNL A   1      45.851  35.442  28.583  1.00  0.00     0.091 A 
ATOM     88  F   UNL A   1      44.218  34.182  27.384  1.00  0.00    -0.205 F 
ATOM     89  C   UNL A   1      46.685  35.567  29.705  1.00  0.00     0.022 A 
BRANCH  87  90
ATOM     90  S   UNL A   1      45.936  36.745  27.350  1.00  0.00     0.127 S 
ATOM     91  O   UNL A   1      46.512  36.037  26.208  1.00  0.00    -0.237 OA
ATOM     92  O   UNL A   1      44.530  37.114  27.193  1.00  0.00    -0.237 OA
ATOM     93  O   UNL A   1      46.778  37.788  27.921  1.00  0.00    -0.744 OA
ENDBRANCH  87  90
ENDBRANCH  60  83
ENDBRANCH  34  35
ENDBRANCH  27  29
ENDBRANCH  26  27
ENDBRANCH  25  26
ENDBRANCH  24  25
ENDBRANCH   1  24
TORSDOF 20
ENDMDL
MODEL 2
REMARK VINA RESULT:     -11.3      5.432     10.435
REMARK SMILES O=C(Cc1cccc(-c2ccn(C(F)F)c(=O)c2)c1)OCCOCCOC(=O)c1ccc(-c2c3nc(c(-c4cccc(S(=O)(=O)[O-])c4F)c4ccc([nH]4)c(-c4cccc(S(=O)(=O)[O-])c4F)c4nc(c(-c5cccc(S(=O)(=O)[O-])c5F)c5ccc2[nH]5)C=C4)C=C3)cc1
REMARK SMILES IDX 23 1 22 2 21 3 20 4 2 5 1 6 3 7 4 8 5 9 19 10 6 11 8 12 7 13
REMARK SMILES IDX 9 14 10 15 18 16 11 17 16 18 12 19 17 20 13 21 14 22 15 23
REMARK SMILES IDX 24 24 25 25 26 26 27 27 28 28 29 29 30 30 91 31 31 32 90 33
REMARK SMILES IDX 32 34 33 35 34 36 84 37 35 38 89 39 83 40 85 41 36 42 88 43
REMARK SMILES IDX 82 44 81 45 37 47 69 48 49 49 68 50 50 51 53 52 67 53 86 54
REMARK SMILES IDX 51 55 52 56 66 58 87 59 54 60 38 61 39 62 47 63 40 64 42 65
REMARK SMILES IDX 48 66 41 67 43 68 44 69 45 70 46 71 70 72 71 73 79 74 72 75
REMARK SMILES IDX 74 76 80 77 73 78 75 79 76 80 77 81 78 82 55 83 56 84 64 85
REMARK SMILES IDX 57 86 59 87 65 88 58 89 60 90 61 91 62 92 63 93
REMARK H PARENT 85 46 53 57
REMARK Flexibility Score: inf
ROOT
ATOM      1  O   UNL A   1      30.917  29.945  23.874  1.00  0.00    -0.374 OA
ENDROOT
BRANCH   1   2
ATOM      2  C   UNL A   1      29.590  29.572  23.503  1.00  0.00     0.202 C 
BRANCH   2   3
ATOM      3  C   UNL A   1      29.473  28.664  22.282  1.00  0.00     0.261 C 
BRANCH   3   4
ATOM      4  O   UNL A   1      30.686  27.964  21.967  1.00  0.00    -0.463 OA
BRANCH   4   5
ATOM      5  C   UNL A   1      31.080  26.765  22.448  1.00  0.00     0.310 C 
ATOM      6  O   UNL A   1      30.327  26.156  23.212  1.00  0.00    -0.252 OA
BRANCH   5   7
ATOM      7  C   UNL A   1      32.456  26.204  22.158  1.00  0.00     0.158 C 
BRANCH   7   8
ATOM      8  C   UNL A   1      33.197  25.592  23.315  1.00  0.00    -0.036 A 
ATOM      9  C   UNL A   1      33.501  26.358  24.443  1.00  0.00     0.004 A 
ATOM     10  C   UNL A   1      33.534  24.228  23.300  1.00  0.00     0.013 A 
ATOM     11  C   UNL A   1      34.101  25.764  25.550  1.00  0.00     0.001 A 
ATOM     12  C   UNL A   1      34.023  23.598  24.450  1.00  0.00    -0.018 A 
ATOM     13  C   UNL A   1      34.343  24.389  25.561  1.00  0.00     0.009 A 
BRANCH  12  14
ATOM     14  C   UNL A   1      34.053  22.119  24.519  1.00  0.00    -0.011 A 
ATOM     15  C   UNL A   1      35.152  21.354  25.079  1.00  0.00     0.027 A 
ATOM     16  C   UNL A   1      33.040  21.454  23.935  1.00  0.00     0.080 A 
ATOM     17  C   UNL A   1      35.140  20.015  25.041  1.00  0.00     0.095 A 
ATOM     18  C   UNL A   1      32.995  19.968  23.911  1.00  0.00     0.255 A 
ATOM     19  N   UNL A   1      34.081  19.325  24.480  1.00  0.00    -0.258 N 
ATOM     20  O   UNL A   1      32.020  19.419  23.410  1.00  0.00    -0.269 OA
BRANCH  19  21
ATOM     21  C   UNL A   1      34.062  17.886  24.465  1.00  0.00     0.451 C 
ATOM     22  F   UNL A   1      35.299  17.387  24.217  1.00  0.00    -0.185 F 
ATOM     23  F   UNL A   1      33.636  17.387  25.649  1.00  0.00    -0.185 F 
ENDBRANCH  19  21
ENDBRANCH  12  14
ENDBRANCH   7   8
ENDBRANCH   5   7
ENDBRANCH   4   5
ENDBRANCH   3   4
ENDBRANCH   2   3
ENDBRANCH   1   2
BRANCH   1  24
ATOM     24  C   UNL A   1      31.275  29.595  25.220  1.00  0.00     0.202 C 
BRANCH  24  25
ATOM     25  C   UNL A   1      31.560  30.788  26.140  1.00  0.00     0.261 C 
BRANCH  25  26
ATOM     26  O   UNL A   1      32.810  30.629  26.823  1.00  0.00    -0.460 OA
BRANCH  26  27
ATOM     27  C   UNL A   1      33.366  31.774  27.287  1.00  0.00     0.338 C 
ATOM     28  O   UNL A   1      32.812  32.849  27.451  1.00  0.00    -0.246 OA
BRANCH  27  29
ATOM     29  C   UNL A   1      34.717  31.462  27.799  1.00  0.00     0.060 A 
ATOM     30  C   UNL A   1      35.026  30.119  28.061  1.00  0.00     0.016 A 
ATOM     31  C   UNL A   1      35.678  32.459  27.977  1.00  0.00     0.016 A 
ATOM     32  C   UNL A   1      36.283  29.772  28.547  1.00  0.00     0.010 A 
ATOM     33  C   UNL A   1      36.935  32.113  28.469  1.00  0.00     0.010 A 
ATOM     34  C   UNL A   1      37.227  30.775  28.792  1.00  0.00    -0.014 A 
BRANCH  34  35
ATOM     35  C   UNL A   1      38.446  30.485  29.576  1.00  0.00     0.031 A 
ATOM     36  C   UNL A   1      39.415  29.485  29.017  1.00  0.00     0.074 A 
ATOM     37  C   UNL A   1      38.642  31.036  30.786  1.00  0.00     0.049 A 
ATOM     38  N   UNL A   1      40.460  28.940  29.576  1.00  0.00    -0.248 NA
ATOM     39  C   UNL A   1      39.149  29.017  27.645  1.00  0.00     0.031 C 
ATOM     40  C   UNL A   1      37.761  32.014  31.421  1.00  0.00     0.029 A 
ATOM     41  N   UNL A   1      39.621  30.802  31.718  1.00  0.00    -0.354 N 
ATOM     42  C   UNL A   1      40.945  28.027  28.648  1.00  0.00     0.074 A 
ATOM     43  C   UNL A   1      40.081  28.090  27.492  1.00  0.00     0.031 C 
ATOM     44  C   UNL A   1      38.209  32.254  32.665  1.00  0.00     0.029 A 
ATOM     45  C   UNL A   1      39.383  31.421  32.921  1.00  0.00     0.049 A 
ATOM     46  H   UNL A   1      40.415  30.246  31.541  1.00  0.00     0.167 HD
ATOM     47  C   UNL A   1      42.018  27.210  28.752  1.00  0.00     0.034 A 
ATOM     48  C   UNL A   1      40.013  31.289  34.105  1.00  0.00     0.034 A 
ATOM     49  C   UNL A   1      42.878  27.171  29.902  1.00  0.00     0.049 A 
ATOM     50  C   UNL A   1      41.205  30.374  34.203  1.00  0.00     0.074 A 
ATOM     51  C   UNL A   1      44.036  26.440  30.086  1.00  0.00     0.029 A 
ATOM     52  N   UNL A   1      42.657  27.877  31.075  1.00  0.00    -0.354 N 
ATOM     53  N   UNL A   1      41.735  29.609  33.279  1.00  0.00    -0.248 NA
ATOM     54  C   UNL A   1      41.906  30.325  35.495  1.00  0.00     0.031 C 
ATOM     55  C   UNL A   1      44.492  26.672  31.386  1.00  0.00     0.029 A 
ATOM     56  C   UNL A   1      43.645  27.584  31.996  1.00  0.00     0.049 A 
ATOM     57  H   UNL A   1      41.907  28.497  31.228  1.00  0.00     0.167 HD
ATOM     58  C   UNL A   1      42.849  29.016  33.863  1.00  0.00     0.074 A 
ATOM     59  C   UNL A   1      42.923  29.517  35.220  1.00  0.00     0.031 C 
ATOM     60  C   UNL A   1      43.729  28.133  33.327  1.00  0.00     0.034 A 
BRANCH  47  61
ATOM     61  C   UNL A   1      42.313  26.295  27.594  1.00  0.00     0.023 A 
ATOM     62  C   UNL A   1      43.058  26.765  26.493  1.00  0.00     0.012 A 
ATOM     63  C   UNL A   1      41.864  24.961  27.604  1.00  0.00     0.148 A 
ATOM     64  C   UNL A   1      43.313  25.936  25.401  1.00  0.00     0.002 A 
ATOM     65  C   UNL A   1      42.166  24.125  26.536  1.00  0.00     0.091 A 
ATOM     66  F   UNL A   1      41.133  24.538  28.645  1.00  0.00    -0.205 F 
ATOM     67  C   UNL A   1      42.875  24.615  25.428  1.00  0.00     0.022 A 
BRANCH  65  68
ATOM     68  S   UNL A   1      41.716  22.386  26.515  1.00  0.00     0.127 S 
ATOM     69  O   UNL A   1      42.092  21.968  27.866  1.00  0.00    -0.237 OA
ATOM     70  O   UNL A   1      40.274  22.445  26.276  1.00  0.00    -0.237 OA
ATOM     71  O   UNL A   1      42.486  21.786  25.436  1.00  0.00    -0.744 OA
ENDBRANCH  65  68
ENDBRANCH  47  61
BRANCH  48  72
ATOM     72  C   UNL A   1      39.521  32.053  35.285  1.00  0.00     0.023 A 
ATOM     73  C   UNL A   1      38.678  31.427  36.222  1.00  0.00     0.012 A 
ATOM     74  C   UNL A   1      39.934  33.382  35.510  1.00  0.00     0.148 A 
ATOM     75  C   UNL A   1      38.240  32.116  37.354  1.00  0.00     0.002 A 
ATOM     76  C   UNL A   1      39.538  34.044  36.666  1.00  0.00     0.091 A 
ATOM     77  F   UNL A   1      40.728  33.961  34.599  1.00  0.00    -0.205 F 
ATOM     78  C   UNL A   1      38.678  33.418  37.582  1.00  0.00     0.022 A 
BRANCH  76  79
ATOM     79  S   UNL A   1      40.157  35.671  37.109  1.00  0.00     0.127 S 
ATOM     80  O   UNL A   1      39.539  35.881  38.415  1.00  0.00    -0.237 OA
ATOM     81  O   UNL A   1      41.602  35.441  37.140  1.00  0.00    -0.237 OA
ATOM     82  O   UNL A   1      39.710  36.566  36.052  1.00  0.00    -0.744 OA
ENDBRANCH  76  79
ENDBRANCH  48  72
BRANCH  60  83
ATOM     83  C   UNL A   1      44.886  27.681  34.177  1.00  0.00     0.023 A 
ATOM     84  C   UNL A   1      46.074  28.434  34.214  1.00  0.00     0.012 A 
ATOM     85  C   UNL A   1      44.741  26.571  35.036  1.00  0.00     0.148 A 
ATOM     86  C   UNL A   1      47.109  28.080  35.079  1.00  0.00     0.002 A 
ATOM     87  C   UNL A   1      45.753  26.256  35.931  1.00  0.00     0.091 A 
ATOM     88  F   UNL A   1      43.605  25.861  34.973  1.00  0.00    -0.205 F 
ATOM     89  C   UNL A   1      46.943  27.002  35.948  1.00  0.00     0.022 A 
BRANCH  87  90
ATOM     90  S   UNL A   1      45.586  24.955  37.158  1.00  0.00     0.127 S 
ATOM     91  O   UNL A   1      45.488  23.763  36.317  1.00  0.00    -0.237 OA
ATOM     92  O   UNL A   1      46.838  25.073  37.906  1.00  0.00    -0.237 OA
ATOM     93  O   UNL A   1      44.389  25.273  37.925  1.00  0.00    -0.744 OA
ENDBRANCH  87  90
ENDBRANCH  60  83
ENDBRANCH  34  35
ENDBRANCH  27  29
ENDBRANCH  26  27
ENDBRANCH  25  26
ENDBRANCH  24  25
ENDBRANCH   1  24
TORSDOF 20
ENDMDL
MODEL 3
REMARK VINA RESULT:     -10.8      6.022     11.104
REMARK SMILES O=C(Cc1cccc(-c2ccn(C(F)F)c(=O)c2)c1)OCCOCCOC(=O)c1ccc(-c2c3nc(c(-c4cccc(S(=O)(=O)[O-])c4F)c4ccc([nH]4)c(-c4cccc(S(=O)(=O)[O-])c4F)c4nc(c(-c5cccc(S(=O)(=O)[O-])c5F)c5ccc2[nH]5)C=C4)C=C3)cc1
REMARK SMILES IDX 23 1 22 2 21 3 20 4 2 5 1 6 3 7 4 8 5 9 19 10 6 11 8 12 7 13
REMARK SMILES IDX 9 14 10 15 18 16 11 17 16 18 12 19 17 20 13 21 14 22 15 23
REMARK SMILES IDX 24 24 25 25 26 26 27 27 28 28 29 29 30 30 91 31 31 32 90 33
REMARK SMILES IDX 32 34 33 35 34 36 84 37 35 38 89 39 83 40 85 41 36 42 88 43
REMARK SMILES IDX 82 44 81 45 37 47 69 48 49 49 68 50 50 51 53 52 67 53 86 54
REMARK SMILES IDX 51 55 52 56 66 58 87 59 54 60 38 61 39 62 47 63 40 64 42 65
REMARK SMILES IDX 48 66 41 67 43 68 44 69 45 70 46 71 70 72 71 73 79 74 72 75
REMARK SMILES IDX 74 76 80 77 73 78 75 79 76 80 77 81 78 82 55 83 56 84 64 85
REMARK SMILES IDX 57 86 59 87 65 88 58 89 60 90 61 91 62 92 63 93
REMARK H PARENT 85 46 53 57
REMARK Flexibility Score: inf
ROOT
ATOM      1  O   UNL A   1      31.664  30.981  26.719  1.00  0.00    -0.374 OA
ENDROOT
BRANCH   1   2
ATOM      2  C   UNL A   1      32.176  29.881  25.966  1.00  0.00     0.202 C 
BRANCH   2   3
ATOM      3  C   UNL A   1      31.252  29.330  24.883  1.00  0.00     0.261 C 
BRANCH   3   4
ATOM      4  O   UNL A   1      31.311  27.902  24.749  1.00  0.00    -0.463 OA
BRANCH   4   5
ATOM      5  C   UNL A   1      30.458  27.117  24.056  1.00  0.00     0.310 C 
ATOM      6  O   UNL A   1      29.693  27.643  23.244  1.00  0.00    -0.252 OA
BRANCH   5   7
ATOM      7  C   UNL A   1      30.348  25.630  24.325  1.00  0.00     0.158 C 
BRANCH   7   8
ATOM      8  C   UNL A   1      31.230  24.726  23.508  1.00  0.00    -0.036 A 
ATOM      9  C   UNL A   1      32.140  25.266  22.595  1.00  0.00     0.004 A 
ATOM     10  C   UNL A   1      31.193  23.335  23.701  1.00  0.00     0.013 A 
ATOM     11  C   UNL A   1      33.019  24.432  21.911  1.00  0.00     0.001 A 
ATOM     12  C   UNL A   1      32.153  22.505  23.112  1.00  0.00    -0.018 A 
ATOM     13  C   UNL A   1      33.039  23.062  22.182  1.00  0.00     0.009 A 
BRANCH  12  14
ATOM     14  C   UNL A   1      32.305  21.110  23.586  1.00  0.00    -0.011 A 
ATOM     15  C   UNL A   1      32.623  20.747  24.955  1.00  0.00     0.027 A 
ATOM     16  C   UNL A   1      32.243  20.135  22.661  1.00  0.00     0.080 A 
ATOM     17  C   UNL A   1      32.818  19.466  25.293  1.00  0.00     0.095 A 
ATOM     18  C   UNL A   1      32.424  18.704  23.025  1.00  0.00     0.255 A 
ATOM     19  N   UNL A   1      32.712  18.454  24.356  1.00  0.00    -0.258 N 
ATOM     20  O   UNL A   1      32.304  17.856  22.147  1.00  0.00    -0.269 OA
BRANCH  19  21
ATOM     21  C   UNL A   1      32.897  17.077  24.731  1.00  0.00     0.451 C 
ATOM     22  F   UNL A   1      33.776  16.968  25.758  1.00  0.00    -0.185 F 
ATOM     23  F   UNL A   1      31.729  16.510  25.115  1.00  0.00    -0.185 F 
ENDBRANCH  19  21
ENDBRANCH  12  14
ENDBRANCH   7   8
ENDBRANCH   5   7
ENDBRANCH   4   5
ENDBRANCH   3   4
ENDBRANCH   2   3
ENDBRANCH   1   2
BRANCH   1  24
ATOM     24  C   UNL A   1      32.657  31.945  27.105  1.00  0.00     0.202 C 
BRANCH  24  25
ATOM     25  C   UNL A   1      32.119  33.361  27.338  1.00  0.00     0.261 C 
BRANCH  25  26
ATOM     26  O   UNL A   1      33.176  34.268  27.676  1.00  0.00    -0.460 OA
BRANCH  26  27
ATOM     27  C   UNL A   1      33.334  34.505  29.001  1.00  0.00     0.338 C 
ATOM     28  O   UNL A   1      32.520  35.005  29.762  1.00  0.00    -0.246 OA
BRANCH  27  29
ATOM     29  C   UNL A   1      34.577  33.842  29.449  1.00  0.00     0.060 A 
ATOM     30  C   UNL A   1      34.466  32.807  30.389  1.00  0.00     0.016 A 
ATOM     31  C   UNL A   1      35.822  34.197  28.925  1.00  0.00     0.016 A 
ATOM     32  C   UNL A   1      35.607  32.153  30.846  1.00  0.00     0.010 A 
ATOM     33  C   UNL A   1      36.964  33.545  29.386  1.00  0.00     0.010 A 
ATOM     34  C   UNL A   1      36.863  32.551  30.376  1.00  0.00    -0.014 A 
BRANCH  34  35
ATOM     35  C   UNL A   1      38.097  32.092  31.048  1.00  0.00     0.031 A 
ATOM     36  C   UNL A   1      38.849  30.951  30.426  1.00  0.00     0.074 A 
ATOM     37  C   UNL A   1      38.490  32.622  32.218  1.00  0.00     0.049 A 
ATOM     38  N   UNL A   1      39.852  30.263  30.898  1.00  0.00    -0.248 NA
ATOM     39  C   UNL A   1      38.383  30.512  29.099  1.00  0.00     0.031 C 
ATOM     40  C   UNL A   1      37.830  33.728  32.908  1.00  0.00     0.029 A 
ATOM     41  N   UNL A   1      39.511  32.256  33.058  1.00  0.00    -0.354 N 
ATOM     42  C   UNL A   1      40.103  29.276  29.952  1.00  0.00     0.074 A 
ATOM     43  C   UNL A   1      39.148  29.453  28.882  1.00  0.00     0.031 C 
ATOM     44  C   UNL A   1      38.428  33.915  34.097  1.00  0.00     0.029 A 
ATOM     45  C   UNL A   1      39.486  32.919  34.262  1.00  0.00     0.049 A 
ATOM     46  H   UNL A   1      40.193  31.586  32.821  1.00  0.00     0.167 HD
ATOM     47  C   UNL A   1      41.049  28.310  29.976  1.00  0.00     0.034 A 
ATOM     48  C   UNL A   1      40.203  32.709  35.384  1.00  0.00     0.034 A 
ATOM     49  C   UNL A   1      42.003  28.157  31.039  1.00  0.00     0.049 A 
ATOM     50  C   UNL A   1      41.251  31.628  35.392  1.00  0.00     0.074 A 
ATOM     51  C   UNL A   1      43.053  27.263  31.131  1.00  0.00     0.029 A 
ATOM     52  N   UNL A   1      42.005  28.903  32.208  1.00  0.00    -0.354 N 
ATOM     53  N   UNL A   1      41.569  30.780  34.443  1.00  0.00    -0.248 NA
ATOM     54  C   UNL A   1      42.060  31.491  36.612  1.00  0.00     0.031 C 
ATOM     55  C   UNL A   1      43.664  27.441  32.375  1.00  0.00     0.029 A 
ATOM     56  C   UNL A   1      43.024  28.478  33.038  1.00  0.00     0.049 A 
ATOM     57  H   UNL A   1      41.373  29.630  32.416  1.00  0.00     0.167 HD
ATOM     58  C   UNL A   1      42.635  30.035  34.933  1.00  0.00     0.074 A 
ATOM     59  C   UNL A   1      42.915  30.537  36.263  1.00  0.00     0.031 C 
ATOM     60  C   UNL A   1      43.318  29.024  34.340  1.00  0.00     0.034 A 
BRANCH  47  61
ATOM     61  C   UNL A   1      41.091  27.347  28.819  1.00  0.00     0.023 A 
ATOM     62  C   UNL A   1      40.190  26.263  28.770  1.00  0.00     0.012 A 
ATOM     63  C   UNL A   1      42.012  27.527  27.771  1.00  0.00     0.148 A 
ATOM     64  C   UNL A   1      40.237  25.348  27.718  1.00  0.00     0.002 A 
ATOM     65  C   UNL A   1      42.019  26.641  26.701  1.00  0.00     0.091 A 
ATOM     66  F   UNL A   1      42.880  28.546  27.848  1.00  0.00    -0.205 F 
ATOM     67  C   UNL A   1      41.144  25.543  26.681  1.00  0.00     0.022 A 
BRANCH  65  68
ATOM     68  S   UNL A   1      43.095  26.855  25.278  1.00  0.00     0.127 S 
ATOM     69  O   UNL A   1      42.455  27.977  24.591  1.00  0.00    -0.237 OA
ATOM     70  O   UNL A   1      44.376  27.178  25.908  1.00  0.00    -0.237 OA
ATOM     71  O   UNL A   1      43.073  25.587  24.565  1.00  0.00    -0.744 OA
ENDBRANCH  65  68
ENDBRANCH  47  61
BRANCH  48  72
ATOM     72  C   UNL A   1      39.947  33.553  36.584  1.00  0.00     0.023 A 
ATOM     73  C   UNL A   1      40.358  34.899  36.592  1.00  0.00     0.012 A 
ATOM     74  C   UNL A   1      39.247  33.040  37.694  1.00  0.00     0.148 A 
ATOM     75  C   UNL A   1      40.092  35.716  37.692  1.00  0.00     0.002 A 
ATOM     76  C   UNL A   1      38.937  33.873  38.762  1.00  0.00     0.091 A 
ATOM     77  F   UNL A   1      38.875  31.752  37.667  1.00  0.00    -0.205 F 
ATOM     78  C   UNL A   1      39.373  35.206  38.771  1.00  0.00     0.022 A 
BRANCH  76  79
ATOM     79  S   UNL A   1      37.903  33.343  40.133  1.00  0.00     0.127 S 
ATOM     80  O   UNL A   1      36.650  33.021  39.455  1.00  0.00    -0.237 OA
ATOM     81  O   UNL A   1      38.646  32.187  40.637  1.00  0.00    -0.237 OA
ATOM     82  O   UNL A   1      37.850  34.473  41.049  1.00  0.00    -0.744 OA
ENDBRANCH  76  79
ENDBRANCH  48  72
BRANCH  60  83
ATOM     83  C   UNL A   1      44.474  28.415  35.088  1.00  0.00     0.023 A 
ATOM     84  C   UNL A   1      45.703  29.097  35.170  1.00  0.00     0.012 A 
ATOM     85  C   UNL A   1      44.294  27.220  35.815  1.00  0.00     0.148 A 
ATOM     86  C   UNL A   1      46.742  28.589  35.949  1.00  0.00     0.002 A 
ATOM     87  C   UNL A   1      45.314  26.748  36.629  1.00  0.00     0.091 A 
ATOM     88  F   UNL A   1      43.119  26.581  35.711  1.00  0.00    -0.205 F 
ATOM     89  C   UNL A   1      46.543  27.424  36.690  1.00  0.00     0.022 A 
BRANCH  87  90
ATOM     90  S   UNL A   1      45.113  25.320  37.700  1.00  0.00     0.127 S 
ATOM     91  O   UNL A   1      44.708  24.288  36.747  1.00  0.00    -0.237 OA
ATOM     92  O   UNL A   1      46.459  25.152  38.246  1.00  0.00    -0.237 OA
ATOM     93  O   UNL A   1      44.102  25.689  38.681  1.00  0.00    -0.744 OA
ENDBRANCH  87  90
ENDBRANCH  60  83
ENDBRANCH  34  35
ENDBRANCH  27  29
ENDBRANCH  26  27
ENDBRANCH  25  26
ENDBRANCH  24  25
ENDBRANCH   1  24
TORSDOF 20
ENDMDL
