MODEL 1
REMARK VINA RESULT:     -11.6      0.000      0.000
REMARK SMILES Cc1cc(NC(=O)c2ccc(Br)cc2N)ccc1C(=O)OCCOCCOC(=O)c1ccc(-c2c3nc(c(-c4cccc(S(=O)(=O)[O-])c4F)c4ccc([nH]4)c(-c4cccc(S(=O)(=O)[O-])c4F)c4nc(c(-c5cccc(S(=O)(=O)[O-])c5F)c5ccc2[nH]5)C=C4)C=C3)cc1
REMARK SMILES IDX 24 1 23 2 22 3 21 4 19 5 20 6 18 7 1 8 2 9 3 10 4 11 17 12
REMARK SMILES IDX 16 13 5 14 6 15 7 17 8 18 9 19 14 20 10 21 13 22 11 23 12 24
REMARK SMILES IDX 15 25 25 28 26 29 27 30 28 31 29 32 30 33 31 34 92 35 32 36
REMARK SMILES IDX 91 37 33 38 34 39 35 40 85 41 36 42 90 43 84 44 86 45 37 46
REMARK SMILES IDX 89 47 83 48 82 49 38 51 70 52 50 53 69 54 51 55 54 56 68 57
REMARK SMILES IDX 87 58 52 59 53 60 67 62 88 63 55 64 39 65 40 66 48 67 41 68
REMARK SMILES IDX 43 69 49 70 42 71 44 72 45 73 46 74 47 75 71 76 72 77 80 78
REMARK SMILES IDX 73 79 75 80 81 81 74 82 76 83 77 84 78 85 79 86 56 87 57 88
REMARK SMILES IDX 65 89 58 90 60 91 66 92 59 93 61 94 62 95 63 96 64 97
REMARK H PARENT 5 16 15 26 15 27 86 50 54 61
REMARK Flexibility Score: inf
ROOT
ATOM      1  O   UNL A   1      38.603  22.109  25.370  1.00  0.00    -0.374 OA
ENDROOT
BRANCH   1   2
ATOM      2  C   UNL A   1      37.449  21.343  25.067  1.00  0.00     0.202 C 
BRANCH   2   3
ATOM      3  C   UNL A   1      36.374  22.059  24.256  1.00  0.00     0.261 C 
BRANCH   3   4
ATOM      4  O   UNL A   1      35.279  22.384  25.074  1.00  0.00    -0.460 OA
BRANCH   4   5
ATOM      5  C   UNL A   1      34.273  21.511  24.944  1.00  0.00     0.338 C 
ATOM      6  O   UNL A   1      34.250  20.320  25.238  1.00  0.00    -0.246 OA
BRANCH   5   7
ATOM      7  C   UNL A   1      33.086  22.325  24.738  1.00  0.00     0.063 A 
ATOM      8  C   UNL A   1      32.472  22.610  27.242  1.00  0.00     0.045 C 
ATOM      9  C   UNL A   1      32.226  22.755  25.763  1.00  0.00    -0.035 A 
ATOM     10  C   UNL A   1      31.076  23.436  25.373  1.00  0.00     0.030 A 
ATOM     11  C   UNL A   1      30.852  23.756  24.029  1.00  0.00     0.041 A 
ATOM     12  C   UNL A   1      32.794  22.541  23.382  1.00  0.00     0.018 A 
ATOM     13  C   UNL A   1      31.660  23.237  23.023  1.00  0.00     0.027 A 
BRANCH  11  14
ATOM     14  N   UNL A   1      29.920  24.720  23.648  1.00  0.00    -0.322 N 
ATOM     15  C   UNL A   1      29.892  26.060  23.968  1.00  0.00     0.257 C 
ATOM     16  H   UNL A   1      29.186  24.402  23.074  1.00  0.00     0.170 HD
ATOM     17  O   UNL A   1      28.882  26.713  23.699  1.00  0.00    -0.269 OA
BRANCH  15  18
ATOM     18  C   UNL A   1      31.051  26.758  24.610  1.00  0.00     0.063 A 
ATOM     19  C   UNL A   1      30.938  26.910  26.005  1.00  0.00     0.017 A 
ATOM     20  C   UNL A   1      32.195  27.254  23.938  1.00  0.00     0.045 A 
ATOM     21  C   UNL A   1      31.938  27.548  26.736  1.00  0.00     0.016 A 
ATOM     22  C   UNL A   1      33.189  27.896  24.697  1.00  0.00     0.042 A 
ATOM     23  C   UNL A   1      33.061  28.037  26.079  1.00  0.00     0.020 A 
ATOM     24  Br  UNL A   1      34.405  28.932  27.061  1.00  0.00    -0.051 Br
BRANCH  20  25
ATOM     25  N   UNL A   1      32.342  27.293  22.551  1.00  0.00    -0.398 N 
ATOM     26  H   UNL A   1      31.914  28.010  22.030  1.00  0.00     0.156 HD
ATOM     27  H   UNL A   1      32.875  26.603  22.093  1.00  0.00     0.156 HD
ENDBRANCH  20  25
ENDBRANCH  15  18
ENDBRANCH  11  14
ENDBRANCH   5   7
ENDBRANCH   4   5
ENDBRANCH   3   4
ENDBRANCH   2   3
ENDBRANCH   1   2
BRANCH   1  28
ATOM     28  C   UNL A   1      39.429  21.676  26.445  1.00  0.00     0.202 C 
BRANCH  28  29
ATOM     29  C   UNL A   1      40.985  21.827  26.406  1.00  0.00     0.261 C 
BRANCH  29  30
ATOM     30  O   UNL A   1      41.421  23.166  26.052  1.00  0.00    -0.460 OA
BRANCH  30  31
ATOM     31  C   UNL A   1      41.833  24.022  27.046  1.00  0.00     0.338 C 
ATOM     32  O   UNL A   1      42.801  23.833  27.758  1.00  0.00    -0.246 OA
BRANCH  31  33
ATOM     33  C   UNL A   1      40.855  25.168  27.175  1.00  0.00     0.060 A 
ATOM     34  C   UNL A   1      40.876  26.225  26.261  1.00  0.00     0.016 A 
ATOM     35  C   UNL A   1      40.120  25.341  28.340  1.00  0.00     0.016 A 
ATOM     36  C   UNL A   1      40.500  27.526  26.657  1.00  0.00     0.010 A 
ATOM     37  C   UNL A   1      39.806  26.638  28.763  1.00  0.00     0.010 A 
ATOM     38  C   UNL A   1      40.126  27.763  27.976  1.00  0.00    -0.014 A 
BRANCH  38  39
ATOM     39  C   UNL A   1      40.338  29.061  28.681  1.00  0.00     0.031 A 
ATOM     40  C   UNL A   1      39.255  30.088  28.795  1.00  0.00     0.074 A 
ATOM     41  C   UNL A   1      41.393  29.207  29.539  1.00  0.00     0.049 A 
ATOM     42  N   UNL A   1      39.426  31.258  29.324  1.00  0.00    -0.248 NA
ATOM     43  C   UNL A   1      37.898  29.914  28.281  1.00  0.00     0.031 C 
ATOM     44  C   UNL A   1      41.389  30.026  30.759  1.00  0.00     0.029 A 
ATOM     45  N   UNL A   1      42.686  28.661  29.538  1.00  0.00    -0.354 N 
ATOM     46  C   UNL A   1      38.184  31.803  29.550  1.00  0.00     0.074 A 
ATOM     47  C   UNL A   1      37.286  31.008  28.754  1.00  0.00     0.031 C 
ATOM     48  C   UNL A   1      42.623  30.102  31.264  1.00  0.00     0.029 A 
ATOM     49  C   UNL A   1      43.520  29.482  30.319  1.00  0.00     0.049 A 
ATOM     50  H   UNL A   1      42.964  27.841  29.071  1.00  0.00     0.167 HD
ATOM     51  C   UNL A   1      38.033  32.789  30.478  1.00  0.00     0.034 A 
ATOM     52  C   UNL A   1      44.724  30.010  29.962  1.00  0.00     0.034 A 
ATOM     53  C   UNL A   1      39.327  33.289  30.968  1.00  0.00     0.049 A 
ATOM     54  C   UNL A   1      44.667  31.528  29.877  1.00  0.00     0.074 A 
ATOM     55  C   UNL A   1      39.989  33.237  32.181  1.00  0.00     0.029 A 
ATOM     56  N   UNL A   1      40.244  33.799  30.051  1.00  0.00    -0.354 N 
ATOM     57  N   UNL A   1      43.712  32.263  30.386  1.00  0.00    -0.248 NA
ATOM     58  C   UNL A   1      45.642  32.343  29.153  1.00  0.00     0.031 C 
ATOM     59  C   UNL A   1      41.350  33.597  31.950  1.00  0.00     0.029 A 
ATOM     60  C   UNL A   1      41.508  33.923  30.612  1.00  0.00     0.049 A 
ATOM     61  H   UNL A   1      40.023  34.041  29.123  1.00  0.00     0.167 HD
ATOM     62  C   UNL A   1      43.743  33.507  29.809  1.00  0.00     0.074 A 
ATOM     63  C   UNL A   1      45.053  33.552  29.179  1.00  0.00     0.031 C 
ATOM     64  C   UNL A   1      42.648  34.337  29.784  1.00  0.00     0.034 A 
BRANCH  51  65
ATOM     65  C   UNL A   1      36.699  33.269  31.037  1.00  0.00     0.023 A 
ATOM     66  C   UNL A   1      36.420  33.000  32.395  1.00  0.00     0.012 A 
ATOM     67  C   UNL A   1      35.665  33.910  30.305  1.00  0.00     0.148 A 
ATOM     68  C   UNL A   1      35.208  33.366  32.999  1.00  0.00     0.002 A 
ATOM     69  C   UNL A   1      34.491  34.352  30.929  1.00  0.00     0.091 A 
ATOM     70  F   UNL A   1      35.754  34.010  28.974  1.00  0.00    -0.205 F 
ATOM     71  C   UNL A   1      34.254  34.068  32.275  1.00  0.00     0.022 A 
BRANCH  69  72
ATOM     72  S   UNL A   1      33.252  35.341  30.069  1.00  0.00     0.127 S 
ATOM     73  O   UNL A   1      32.948  34.514  28.902  1.00  0.00    -0.237 OA
ATOM     74  O   UNL A   1      32.172  35.421  31.053  1.00  0.00    -0.237 OA
ATOM     75  O   UNL A   1      33.890  36.620  29.778  1.00  0.00    -0.744 OA
ENDBRANCH  69  72
ENDBRANCH  51  65
BRANCH  52  76
ATOM     76  C   UNL A   1      45.586  29.083  29.191  1.00  0.00     0.023 A 
ATOM     77  C   UNL A   1      46.038  27.939  29.893  1.00  0.00     0.012 A 
ATOM     78  C   UNL A   1      45.529  29.047  27.791  1.00  0.00     0.148 A 
ATOM     79  C   UNL A   1      46.290  26.740  29.224  1.00  0.00     0.002 A 
ATOM     80  C   UNL A   1      45.714  27.831  27.141  1.00  0.00     0.091 A 
ATOM     81  F   UNL A   1      45.124  30.150  27.147  1.00  0.00    -0.205 F 
ATOM     82  C   UNL A   1      46.081  26.676  27.855  1.00  0.00     0.022 A 
BRANCH  80  83
ATOM     83  S   UNL A   1      45.158  27.561  25.455  1.00  0.00     0.127 S 
ATOM     84  O   UNL A   1      45.303  26.118  25.304  1.00  0.00    -0.237 OA
ATOM     85  O   UNL A   1      43.780  28.036  25.543  1.00  0.00    -0.237 OA
ATOM     86  O   UNL A   1      46.030  28.381  24.626  1.00  0.00    -0.744 OA
ENDBRANCH  80  83
ENDBRANCH  52  76
BRANCH  64  87
ATOM     87  C   UNL A   1      42.541  35.589  28.915  1.00  0.00     0.023 A 
ATOM     88  C   UNL A   1      41.673  35.669  27.807  1.00  0.00     0.012 A 
ATOM     89  C   UNL A   1      43.215  36.787  29.267  1.00  0.00     0.148 A 
ATOM     90  C   UNL A   1      41.546  36.831  27.034  1.00  0.00     0.002 A 
ATOM     91  C   UNL A   1      42.991  37.975  28.570  1.00  0.00     0.091 A 
ATOM     92  F   UNL A   1      44.099  36.783  30.276  1.00  0.00    -0.205 F 
ATOM     93  C   UNL A   1      42.191  37.992  27.426  1.00  0.00     0.022 A 
BRANCH  91  94
ATOM     94  S   UNL A   1      43.579  39.552  29.210  1.00  0.00     0.127 S 
ATOM     95  O   UNL A   1      45.010  39.483  28.929  1.00  0.00    -0.237 OA
ATOM     96  O   UNL A   1      42.843  40.521  28.395  1.00  0.00    -0.237 OA
ATOM     97  O   UNL A   1      43.194  39.546  30.616  1.00  0.00    -0.744 OA
ENDBRANCH  91  94
ENDBRANCH  64  87
ENDBRANCH  38  39
ENDBRANCH  31  33
ENDBRANCH  30  31
ENDBRANCH  29  30
ENDBRANCH  28  29
ENDBRANCH   1  28
TORSDOF 20
ENDMDL
MODEL 2
REMARK VINA RESULT:     -11.4      3.016      4.297
REMARK SMILES Cc1cc(NC(=O)c2ccc(Br)cc2N)ccc1C(=O)OCCOCCOC(=O)c1ccc(-c2c3nc(c(-c4cccc(S(=O)(=O)[O-])c4F)c4ccc([nH]4)c(-c4cccc(S(=O)(=O)[O-])c4F)c4nc(c(-c5cccc(S(=O)(=O)[O-])c5F)c5ccc2[nH]5)C=C4)C=C3)cc1
REMARK SMILES IDX 24 1 23 2 22 3 21 4 19 5 20 6 18 7 1 8 2 9 3 10 4 11 17 12
REMARK SMILES IDX 16 13 5 14 6 15 7 17 8 18 9 19 14 20 10 21 13 22 11 23 12 24
REMARK SMILES IDX 15 25 25 28 26 29 27 30 28 31 29 32 30 33 31 34 92 35 32 36
REMARK SMILES IDX 91 37 33 38 34 39 35 40 85 41 36 42 90 43 84 44 86 45 37 46
REMARK SMILES IDX 89 47 83 48 82 49 38 51 70 52 50 53 69 54 51 55 54 56 68 57
REMARK SMILES IDX 87 58 52 59 53 60 67 62 88 63 55 64 39 65 40 66 48 67 41 68
REMARK SMILES IDX 43 69 49 70 42 71 44 72 45 73 46 74 47 75 71 76 72 77 80 78
REMARK SMILES IDX 73 79 75 80 81 81 74 82 76 83 77 84 78 85 79 86 56 87 57 88
REMARK SMILES IDX 65 89 58 90 60 91 66 92 59 93 61 94 62 95 63 96 64 97
REMARK H PARENT 5 16 15 26 15 27 86 50 54 61
REMARK Flexibility Score: inf
ROOT
ATOM      1  O   UNL A   1      41.096  19.705  26.940  1.00  0.00    -0.374 OA
ENDROOT
BRANCH   1   2
ATOM      2  C   UNL A   1      40.165  20.195  25.991  1.00  0.00     0.202 C 
BRANCH   2   3
ATOM      3  C   UNL A   1      39.578  21.570  26.290  1.00  0.00     0.261 C 
BRANCH   3   4
ATOM      4  O   UNL A   1      38.352  21.734  25.623  1.00  0.00    -0.460 OA
BRANCH   4   5
ATOM      5  C   UNL A   1      37.783  22.915  25.892  1.00  0.00     0.338 C 
ATOM      6  O   UNL A   1      38.305  24.024  25.936  1.00  0.00    -0.246 OA
BRANCH   5   7
ATOM      7  C   UNL A   1      36.353  22.690  25.754  1.00  0.00     0.063 A 
ATOM      8  C   UNL A   1      36.289  22.710  23.161  1.00  0.00     0.045 C 
ATOM      9  C   UNL A   1      35.663  22.677  24.530  1.00  0.00    -0.035 A 
ATOM     10  C   UNL A   1      34.277  22.555  24.592  1.00  0.00     0.030 A 
ATOM     11  C   UNL A   1      33.628  22.356  25.816  1.00  0.00     0.041 A 
ATOM     12  C   UNL A   1      35.685  22.614  26.986  1.00  0.00     0.018 A 
ATOM     13  C   UNL A   1      34.314  22.471  27.020  1.00  0.00     0.027 A 
BRANCH  11  14
ATOM     14  N   UNL A   1      32.318  21.884  25.886  1.00  0.00    -0.322 N 
ATOM     15  C   UNL A   1      31.143  22.596  25.782  1.00  0.00     0.257 C 
ATOM     16  H   UNL A   1      32.220  20.915  26.028  1.00  0.00     0.170 HD
ATOM     17  O   UNL A   1      30.082  22.035  26.064  1.00  0.00    -0.269 OA
BRANCH  15  18
ATOM     18  C   UNL A   1      31.103  24.018  25.316  1.00  0.00     0.063 A 
ATOM     19  C   UNL A   1      31.081  24.969  26.353  1.00  0.00     0.017 A 
ATOM     20  C   UNL A   1      31.082  24.448  23.966  1.00  0.00     0.045 A 
ATOM     21  C   UNL A   1      31.036  26.333  26.070  1.00  0.00     0.016 A 
ATOM     22  C   UNL A   1      31.033  25.829  23.707  1.00  0.00     0.042 A 
ATOM     23  C   UNL A   1      31.014  26.758  24.747  1.00  0.00     0.020 A 
ATOM     24  Br  UNL A   1      30.919  28.604  24.357  1.00  0.00    -0.051 Br
BRANCH  20  25
ATOM     25  N   UNL A   1      30.949  23.598  22.868  1.00  0.00    -0.398 N 
ATOM     26  H   UNL A   1      31.728  23.095  22.538  1.00  0.00     0.156 HD
ATOM     27  H   UNL A   1      30.076  23.501  22.423  1.00  0.00     0.156 HD
ENDBRANCH  20  25
ENDBRANCH  15  18
ENDBRANCH  11  14
ENDBRANCH   5   7
ENDBRANCH   4   5
ENDBRANCH   3   4
ENDBRANCH   2   3
ENDBRANCH   1   2
BRANCH   1  28
ATOM     28  C   UNL A   1      42.193  18.932  26.464  1.00  0.00     0.202 C 
BRANCH  28  29
ATOM     29  C   UNL A   1      43.102  19.421  25.289  1.00  0.00     0.261 C 
BRANCH  29  30
ATOM     30  O   UNL A   1      44.350  20.013  25.739  1.00  0.00    -0.460 OA
BRANCH  30  31
ATOM     31  C   UNL A   1      44.683  21.278  25.315  1.00  0.00     0.338 C 
ATOM     32  O   UNL A   1      45.735  21.566  24.775  1.00  0.00    -0.246 OA
BRANCH  31  33
ATOM     33  C   UNL A   1      43.596  22.253  25.705  1.00  0.00     0.060 A 
ATOM     34  C   UNL A   1      43.233  23.291  24.843  1.00  0.00     0.016 A 
ATOM     35  C   UNL A   1      43.143  22.318  27.016  1.00  0.00     0.016 A 
ATOM     36  C   UNL A   1      42.761  24.520  25.354  1.00  0.00     0.010 A 
ATOM     37  C   UNL A   1      42.739  23.553  27.538  1.00  0.00     0.010 A 
ATOM     38  C   UNL A   1      42.680  24.707  26.731  1.00  0.00    -0.014 A 
BRANCH  38  39
ATOM     39  C   UNL A   1      42.847  26.029  27.402  1.00  0.00     0.031 A 
ATOM     40  C   UNL A   1      41.680  26.912  27.714  1.00  0.00     0.074 A 
ATOM     41  C   UNL A   1      44.008  26.315  28.065  1.00  0.00     0.049 A 
ATOM     42  N   UNL A   1      41.793  28.101  28.218  1.00  0.00    -0.248 NA
ATOM     43  C   UNL A   1      40.287  26.564  27.442  1.00  0.00     0.031 C 
ATOM     44  C   UNL A   1      44.114  27.141  29.276  1.00  0.00     0.029 A 
ATOM     45  N   UNL A   1      45.340  25.936  27.833  1.00  0.00    -0.354 N 
ATOM     46  C   UNL A   1      40.550  28.488  28.663  1.00  0.00     0.074 A 
ATOM     47  C   UNL A   1      39.635  27.578  28.026  1.00  0.00     0.031 C 
ATOM     48  C   UNL A   1      45.398  27.376  29.560  1.00  0.00     0.029 A 
ATOM     49  C   UNL A   1      46.187  26.864  28.466  1.00  0.00     0.049 A 
ATOM     50  H   UNL A   1      45.633  25.152  27.316  1.00  0.00     0.167 HD
ATOM     51  C   UNL A   1      40.440  29.458  29.613  1.00  0.00     0.034 A 
ATOM     52  C   UNL A   1      47.234  27.535  27.911  1.00  0.00     0.034 A 
ATOM     53  C   UNL A   1      41.727  30.121  29.877  1.00  0.00     0.049 A 
ATOM     54  C   UNL A   1      46.974  29.032  27.854  1.00  0.00     0.074 A 
ATOM     55  C   UNL A   1      42.590  30.167  30.955  1.00  0.00     0.029 A 
ATOM     56  N   UNL A   1      42.399  30.732  28.819  1.00  0.00    -0.354 N 
ATOM     57  N   UNL A   1      46.038  29.648  28.529  1.00  0.00    -0.248 NA
ATOM     58  C   UNL A   1      47.698  29.955  26.980  1.00  0.00     0.031 C 
ATOM     59  C   UNL A   1      43.835  30.692  30.494  1.00  0.00     0.029 A 
ATOM     60  C   UNL A   1      43.715  31.020  29.153  1.00  0.00     0.049 A 
ATOM     61  H   UNL A   1      41.991  30.935  27.946  1.00  0.00     0.167 HD
ATOM     62  C   UNL A   1      45.810  30.879  27.969  1.00  0.00     0.074 A 
ATOM     63  C   UNL A   1      46.975  31.081  27.122  1.00  0.00     0.031 C 
ATOM     64  C   UNL A   1      44.633  31.565  28.144  1.00  0.00     0.034 A 
BRANCH  51  65
ATOM     65  C   UNL A   1      39.174  29.773  30.401  1.00  0.00     0.023 A 
ATOM     66  C   UNL A   1      38.926  29.025  31.574  1.00  0.00     0.012 A 
ATOM     67  C   UNL A   1      38.170  30.707  30.036  1.00  0.00     0.148 A 
ATOM     68  C   UNL A   1      37.774  29.210  32.353  1.00  0.00     0.002 A 
ATOM     69  C   UNL A   1      37.063  30.952  30.859  1.00  0.00     0.091 A 
ATOM     70  F   UNL A   1      38.216  31.301  28.838  1.00  0.00    -0.205 F 
ATOM     71  C   UNL A   1      36.856  30.194  32.012  1.00  0.00     0.022 A 
BRANCH  69  72
ATOM     72  S   UNL A   1      35.880  32.272  30.521  1.00  0.00     0.127 S 
ATOM     73  O   UNL A   1      35.138  31.739  29.379  1.00  0.00    -0.237 OA
ATOM     74  O   UNL A   1      35.113  32.336  31.766  1.00  0.00    -0.237 OA
ATOM     75  O   UNL A   1      36.674  33.464  30.247  1.00  0.00    -0.744 OA
ENDBRANCH  69  72
ENDBRANCH  51  65
BRANCH  52  76
ATOM     76  C   UNL A   1      48.059  26.714  26.991  1.00  0.00     0.023 A 
ATOM     77  C   UNL A   1      47.572  26.599  25.667  1.00  0.00     0.012 A 
ATOM     78  C   UNL A   1      49.425  26.517  27.237  1.00  0.00     0.148 A 
ATOM     79  C   UNL A   1      48.447  26.435  24.593  1.00  0.00     0.002 A 
ATOM     80  C   UNL A   1      50.296  26.423  26.156  1.00  0.00     0.091 A 
ATOM     81  F   UNL A   1      49.859  26.604  28.502  1.00  0.00    -0.205 F 
ATOM     82  C   UNL A   1      49.812  26.394  24.836  1.00  0.00     0.022 A 
BRANCH  80  83
ATOM     83  S   UNL A   1      52.062  26.695  26.334  1.00  0.00     0.127 S 
ATOM     84  O   UNL A   1      52.541  26.549  24.964  1.00  0.00    -0.237 OA
ATOM     85  O   UNL A   1      52.077  28.061  26.848  1.00  0.00    -0.237 OA
ATOM     86  O   UNL A   1      52.514  25.686  27.280  1.00  0.00    -0.744 OA
ENDBRANCH  80  83
ENDBRANCH  52  76
BRANCH  64  87
ATOM     87  C   UNL A   1      44.220  32.783  27.321  1.00  0.00     0.023 A 
ATOM     88  C   UNL A   1      44.098  32.742  25.917  1.00  0.00     0.012 A 
ATOM     89  C   UNL A   1      43.804  33.987  27.948  1.00  0.00     0.148 A 
ATOM     90  C   UNL A   1      43.681  33.850  25.166  1.00  0.00     0.002 A 
ATOM     91  C   UNL A   1      43.273  35.043  27.207  1.00  0.00     0.091 A 
ATOM     92  F   UNL A   1      43.936  34.126  29.276  1.00  0.00    -0.205 F 
ATOM     93  C   UNL A   1      43.250  34.996  25.812  1.00  0.00     0.022 A 
BRANCH  91  94
ATOM     94  S   UNL A   1      42.445  36.421  28.017  1.00  0.00     0.127 S 
ATOM     95  O   UNL A   1      43.528  37.015  28.797  1.00  0.00    -0.237 OA
ATOM     96  O   UNL A   1      41.994  37.232  26.884  1.00  0.00    -0.237 OA
ATOM     97  O   UNL A   1      41.362  35.807  28.775  1.00  0.00    -0.744 OA
ENDBRANCH  91  94
ENDBRANCH  64  87
ENDBRANCH  38  39
ENDBRANCH  31  33
ENDBRANCH  30  31
ENDBRANCH  29  30
ENDBRANCH  28  29
ENDBRANCH   1  28
TORSDOF 20
ENDMDL
MODEL 3
REMARK VINA RESULT:     -11.2      1.803      2.317
REMARK SMILES Cc1cc(NC(=O)c2ccc(Br)cc2N)ccc1C(=O)OCCOCCOC(=O)c1ccc(-c2c3nc(c(-c4cccc(S(=O)(=O)[O-])c4F)c4ccc([nH]4)c(-c4cccc(S(=O)(=O)[O-])c4F)c4nc(c(-c5cccc(S(=O)(=O)[O-])c5F)c5ccc2[nH]5)C=C4)C=C3)cc1
REMARK SMILES IDX 24 1 23 2 22 3 21 4 19 5 20 6 18 7 1 8 2 9 3 10 4 11 17 12
REMARK SMILES IDX 16 13 5 14 6 15 7 17 8 18 9 19 14 20 10 21 13 22 11 23 12 24
REMARK SMILES IDX 15 25 25 28 26 29 27 30 28 31 29 32 30 33 31 34 92 35 32 36
REMARK SMILES IDX 91 37 33 38 34 39 35 40 85 41 36 42 90 43 84 44 86 45 37 46
REMARK SMILES IDX 89 47 83 48 82 49 38 51 70 52 50 53 69 54 51 55 54 56 68 57
REMARK SMILES IDX 87 58 52 59 53 60 67 62 88 63 55 64 39 65 40 66 48 67 41 68
REMARK SMILES IDX 43 69 49 70 42 71 44 72 45 73 46 74 47 75 71 76 72 77 80 78
REMARK SMILES IDX 73 79 75 80 81 81 74 82 76 83 77 84 78 85 79 86 56 87 57 88
REMARK SMILES IDX 65 89 58 90 60 91 66 92 59 93 61 94 62 95 63 96 64 97
REMARK H PARENT 5 16 15 26 15 27 86 50 54 61
REMARK Flexibility Score: inf
ROOT
ATOM      1  O   UNL A   1      38.564  22.616  25.462  1.00  0.00    -0.374 OA
ENDROOT
BRANCH   1   2
ATOM      2  C   UNL A   1      37.160  22.731  25.620  1.00  0.00     0.202 C 
BRANCH   2   3
ATOM      3  C   UNL A   1      36.330  21.629  24.970  1.00  0.00     0.261 C 
BRANCH   3   4
ATOM      4  O   UNL A   1      35.100  22.141  24.524  1.00  0.00    -0.460 OA
BRANCH   4   5
ATOM      5  C   UNL A   1      34.059  21.448  25.003  1.00  0.00     0.338 C 
ATOM      6  O   UNL A   1      34.067  20.455  25.723  1.00  0.00    -0.246 OA
BRANCH   5   7
ATOM      7  C   UNL A   1      32.907  22.315  24.818  1.00  0.00     0.063 A 
ATOM      8  C   UNL A   1      32.444  22.748  27.334  1.00  0.00     0.045 C 
ATOM      9  C   UNL A   1      32.127  22.838  25.864  1.00  0.00    -0.035 A 
ATOM     10  C   UNL A   1      30.994  23.561  25.500  1.00  0.00     0.030 A 
ATOM     11  C   UNL A   1      30.714  23.830  24.156  1.00  0.00     0.041 A 
ATOM     12  C   UNL A   1      32.554  22.483  23.470  1.00  0.00     0.018 A 
ATOM     13  C   UNL A   1      31.439  23.223  23.135  1.00  0.00     0.027 A 
BRANCH  11  14
ATOM     14  N   UNL A   1      29.815  24.825  23.776  1.00  0.00    -0.322 N 
ATOM     15  C   UNL A   1      29.847  26.170  24.072  1.00  0.00     0.257 C 
ATOM     16  H   UNL A   1      29.056  24.527  23.223  1.00  0.00     0.170 HD
ATOM     17  O   UNL A   1      28.859  26.859  23.811  1.00  0.00    -0.269 OA
BRANCH  15  18
ATOM     18  C   UNL A   1      31.047  26.831  24.678  1.00  0.00     0.063 A 
ATOM     19  C   UNL A   1      30.956  27.041  26.066  1.00  0.00     0.017 A 
ATOM     20  C   UNL A   1      32.208  27.243  23.978  1.00  0.00     0.045 A 
ATOM     21  C   UNL A   1      31.995  27.654  26.764  1.00  0.00     0.016 A 
ATOM     22  C   UNL A   1      33.241  27.861  24.704  1.00  0.00     0.042 A 
ATOM     23  C   UNL A   1      33.134  28.060  26.081  1.00  0.00     0.020 A 
ATOM     24  Br  UNL A   1      34.532  28.921  27.016  1.00  0.00    -0.051 Br
BRANCH  20  25
ATOM     25  N   UNL A   1      32.343  27.222  22.589  1.00  0.00    -0.398 N 
ATOM     26  H   UNL A   1      31.645  27.621  22.021  1.00  0.00     0.156 HD
ATOM     27  H   UNL A   1      33.136  26.808  22.178  1.00  0.00     0.156 HD
ENDBRANCH  20  25
ENDBRANCH  15  18
ENDBRANCH  11  14
ENDBRANCH   5   7
ENDBRANCH   4   5
ENDBRANCH   3   4
ENDBRANCH   2   3
ENDBRANCH   1   2
BRANCH   1  28
ATOM     28  C   UNL A   1      39.219  21.514  26.081  1.00  0.00     0.202 C 
BRANCH  28  29
ATOM     29  C   UNL A   1      40.764  21.493  26.313  1.00  0.00     0.261 C 
BRANCH  29  30
ATOM     30  O   UNL A   1      41.372  22.810  26.246  1.00  0.00    -0.460 OA
BRANCH  30  31
ATOM     31  C   UNL A   1      41.539  23.531  27.405  1.00  0.00     0.338 C 
ATOM     32  O   UNL A   1      42.247  23.185  28.332  1.00  0.00    -0.246 OA
BRANCH  31  33
ATOM     33  C   UNL A   1      40.647  24.751  27.386  1.00  0.00     0.060 A 
ATOM     34  C   UNL A   1      40.982  25.862  26.607  1.00  0.00     0.016 A 
ATOM     35  C   UNL A   1      39.649  24.911  28.338  1.00  0.00     0.016 A 
ATOM     36  C   UNL A   1      40.611  27.162  27.011  1.00  0.00     0.010 A 
ATOM     37  C   UNL A   1      39.331  26.199  28.783  1.00  0.00     0.010 A 
ATOM     38  C   UNL A   1      39.925  27.341  28.208  1.00  0.00    -0.014 A 
BRANCH  38  39
ATOM     39  C   UNL A   1      40.040  28.562  29.059  1.00  0.00     0.031 A 
ATOM     40  C   UNL A   1      39.190  29.772  28.827  1.00  0.00     0.074 A 
ATOM     41  C   UNL A   1      40.658  28.489  30.276  1.00  0.00     0.049 A 
ATOM     42  N   UNL A   1      39.319  30.879  29.489  1.00  0.00    -0.248 NA
ATOM     43  C   UNL A   1      38.155  29.868  27.800  1.00  0.00     0.031 C 
ATOM     44  C   UNL A   1      40.289  29.271  31.464  1.00  0.00     0.029 A 
ATOM     45  N   UNL A   1      41.729  27.710  30.740  1.00  0.00    -0.354 N 
ATOM     46  C   UNL A   1      38.202  31.645  29.250  1.00  0.00     0.074 A 
ATOM     47  C   UNL A   1      37.592  31.048  28.090  1.00  0.00     0.031 C 
ATOM     48  C   UNL A   1      41.202  29.102  32.425  1.00  0.00     0.029 A 
ATOM     49  C   UNL A   1      42.292  28.343  31.863  1.00  0.00     0.049 A 
ATOM     50  H   UNL A   1      42.035  26.860  30.347  1.00  0.00     0.167 HD
ATOM     51  C   UNL A   1      37.848  32.624  30.129  1.00  0.00     0.034 A 
ATOM     52  C   UNL A   1      43.605  28.641  32.068  1.00  0.00     0.034 A 
ATOM     53  C   UNL A   1      38.890  32.860  31.140  1.00  0.00     0.049 A 
ATOM     54  C   UNL A   1      43.839  30.143  32.112  1.00  0.00     0.074 A 
ATOM     55  C   UNL A   1      38.978  32.661  32.506  1.00  0.00     0.029 A 
ATOM     56  N   UNL A   1      40.173  33.205  30.718  1.00  0.00    -0.354 N 
ATOM     57  N   UNL A   1      42.894  31.036  32.264  1.00  0.00    -0.248 NA
ATOM     58  C   UNL A   1      45.144  30.773  31.918  1.00  0.00     0.031 C 
ATOM     59  C   UNL A   1      40.354  32.761  32.872  1.00  0.00     0.029 A 
ATOM     60  C   UNL A   1      41.097  33.077  31.746  1.00  0.00     0.049 A 
ATOM     61  H   UNL A   1      40.396  33.503  29.807  1.00  0.00     0.167 HD
ATOM     62  C   UNL A   1      43.363  32.263  31.867  1.00  0.00     0.074 A 
ATOM     63  C   UNL A   1      44.804  32.071  31.821  1.00  0.00     0.031 C 
ATOM     64  C   UNL A   1      42.528  33.284  31.486  1.00  0.00     0.034 A 
BRANCH  51  65
ATOM     65  C   UNL A   1      36.502  33.336  30.151  1.00  0.00     0.023 A 
ATOM     66  C   UNL A   1      35.947  33.733  28.914  1.00  0.00     0.012 A 
ATOM     67  C   UNL A   1      35.768  33.706  31.308  1.00  0.00     0.148 A 
ATOM     68  C   UNL A   1      34.731  34.425  28.824  1.00  0.00     0.002 A 
ATOM     69  C   UNL A   1      34.512  34.321  31.214  1.00  0.00     0.091 A 
ATOM     70  F   UNL A   1      36.318  33.563  32.520  1.00  0.00    -0.205 F 
ATOM     71  C   UNL A   1      33.997  34.695  29.972  1.00  0.00     0.022 A 
BRANCH  69  72
ATOM     72  S   UNL A   1      33.472  34.621  32.658  1.00  0.00     0.127 S 
ATOM     73  O   UNL A   1      33.357  33.285  33.241  1.00  0.00    -0.237 OA
ATOM     74  O   UNL A   1      34.280  35.557  33.440  1.00  0.00    -0.237 OA
ATOM     75  O   UNL A   1      32.229  35.188  32.147  1.00  0.00    -0.744 OA
ENDBRANCH  69  72
ENDBRANCH  51  65
BRANCH  52  76
ATOM     76  C   UNL A   1      44.542  27.582  31.622  1.00  0.00     0.023 A 
ATOM     77  C   UNL A   1      44.539  26.395  32.394  1.00  0.00     0.012 A 
ATOM     78  C   UNL A   1      44.988  27.533  30.294  1.00  0.00     0.148 A 
ATOM     79  C   UNL A   1      44.837  25.162  31.814  1.00  0.00     0.002 A 
ATOM     80  C   UNL A   1      45.215  26.292  29.707  1.00  0.00     0.091 A 
ATOM     81  F   UNL A   1      45.007  28.673  29.590  1.00  0.00    -0.205 F 
ATOM     82  C   UNL A   1      45.129  25.107  30.459  1.00  0.00     0.022 A 
BRANCH  80  83
ATOM     83  S   UNL A   1      45.271  26.081  27.924  1.00  0.00     0.127 S 
ATOM     84  O   UNL A   1      44.114  26.851  27.482  1.00  0.00    -0.237 OA
ATOM     85  O   UNL A   1      46.564  26.685  27.618  1.00  0.00    -0.237 OA
ATOM     86  O   UNL A   1      45.205  24.644  27.703  1.00  0.00    -0.744 OA
ENDBRANCH  80  83
ENDBRANCH  52  76
BRANCH  64  87
ATOM     87  C   UNL A   1      42.994  34.550  30.769  1.00  0.00     0.023 A 
ATOM     88  C   UNL A   1      43.430  35.696  31.466  1.00  0.00     0.012 A 
ATOM     89  C   UNL A   1      43.141  34.584  29.358  1.00  0.00     0.148 A 
ATOM     90  C   UNL A   1      43.895  36.843  30.808  1.00  0.00     0.002 A 
ATOM     91  C   UNL A   1      43.720  35.680  28.716  1.00  0.00     0.091 A 
ATOM     92  F   UNL A   1      42.702  33.555  28.618  1.00  0.00    -0.205 F 
ATOM     93  C   UNL A   1      44.059  36.830  29.433  1.00  0.00     0.022 A 
BRANCH  91  94
ATOM     94  S   UNL A   1      44.208  35.591  26.986  1.00  0.00     0.127 S 
ATOM     95  O   UNL A   1      42.919  35.491  26.308  1.00  0.00    -0.237 OA
ATOM     96  O   UNL A   1      44.905  36.864  26.787  1.00  0.00    -0.237 OA
ATOM     97  O   UNL A   1      45.075  34.422  26.907  1.00  0.00    -0.744 OA
ENDBRANCH  91  94
ENDBRANCH  64  87
ENDBRANCH  38  39
ENDBRANCH  31  33
ENDBRANCH  30  31
ENDBRANCH  29  30
ENDBRANCH  28  29
ENDBRANCH   1  28
TORSDOF 20
ENDMDL
