MODEL 1
REMARK VINA RESULT:     -11.8      0.000      0.000
REMARK SMILES O=C(OCCOCCOC(=O)[C@@]1(CCc2ccccc2)CCC[N@@H+](Cc2cccnc2)C1)c1ccc(-c2c3nc(c(-c4cccc(S(=O)(=O)[O-])c4F)c4ccc([nH]4)c(-c4cccc(S(=O)(=O)[O-])c4F)c4nc(c(-c5cccc(S(=O)(=O)[O-])c5F)c5ccc2[nH]5)C=C4)C=C3)cc1
REMARK SMILES IDX 6 1 5 2 4 3 3 4 2 5 1 6 33 7 34 8 95 9 35 10 94 11 36 12
REMARK SMILES IDX 37 13 38 14 88 15 39 16 93 17 87 18 89 19 40 20 92 21 86 22
REMARK SMILES IDX 85 23 41 25 73 26 53 27 72 28 54 29 57 30 71 31 90 32 55 33
REMARK SMILES IDX 56 34 70 36 91 37 58 38 42 39 43 40 51 41 44 42 46 43 52 44
REMARK SMILES IDX 45 45 47 46 48 47 49 48 50 49 74 50 75 51 83 52 76 53 78 54
REMARK SMILES IDX 84 55 77 56 79 57 80 58 81 59 82 60 59 61 60 62 68 63 61 64
REMARK SMILES IDX 63 65 69 66 62 67 64 68 65 69 66 70 67 71 7 72 8 73 9 74
REMARK SMILES IDX 10 75 11 76 12 77 21 78 32 79 22 80 24 81 23 82 13 84 14 85
REMARK SMILES IDX 15 86 16 87 20 88 17 89 19 90 18 91 25 92 26 93 27 94 31 95
REMARK SMILES IDX 28 96 30 97 29 98
REMARK H PARENT 89 24 57 35 24 83
REMARK Flexibility Score: inf
ROOT
ATOM      1  O   UNL A   1      37.394  21.160  25.471  1.00  0.00    -0.374 OA
ENDROOT
BRANCH   1   2
ATOM      2  C   UNL A   1      38.081  20.120  24.810  1.00  0.00     0.202 C 
BRANCH   2   3
ATOM      3  C   UNL A   1      38.892  19.202  25.715  1.00  0.00     0.261 C 
BRANCH   3   4
ATOM      4  O   UNL A   1      40.274  19.574  25.637  1.00  0.00    -0.460 OA
BRANCH   4   5
ATOM      5  C   UNL A   1      41.033  19.984  26.681  1.00  0.00     0.338 C 
ATOM      6  O   UNL A   1      41.563  19.155  27.414  1.00  0.00    -0.246 OA
BRANCH   5   7
ATOM      7  C   UNL A   1      41.312  21.424  26.897  1.00  0.00     0.060 A 
ATOM      8  C   UNL A   1      40.778  22.436  26.102  1.00  0.00     0.016 A 
ATOM      9  C   UNL A   1      42.096  21.783  27.994  1.00  0.00     0.016 A 
ATOM     10  C   UNL A   1      41.013  23.758  26.326  1.00  0.00     0.010 A 
ATOM     11  C   UNL A   1      42.333  23.132  28.255  1.00  0.00     0.010 A 
ATOM     12  C   UNL A   1      41.780  24.106  27.413  1.00  0.00    -0.014 A 
BRANCH  12  13
ATOM     13  C   UNL A   1      42.113  25.517  27.483  1.00  0.00     0.031 A 
ATOM     14  C   UNL A   1      43.350  25.939  26.784  1.00  0.00     0.074 A 
ATOM     15  C   UNL A   1      41.215  26.369  28.001  1.00  0.00     0.049 A 
ATOM     16  N   UNL A   1      43.991  27.061  26.868  1.00  0.00    -0.248 NA
ATOM     17  C   UNL A   1      43.953  24.955  25.861  1.00  0.00     0.031 C 
ATOM     18  C   UNL A   1      39.871  26.005  28.472  1.00  0.00     0.029 A 
ATOM     19  N   UNL A   1      41.292  27.711  28.216  1.00  0.00    -0.354 N 
ATOM     20  C   UNL A   1      45.140  26.876  26.116  1.00  0.00     0.074 A 
ATOM     21  C   UNL A   1      45.074  25.566  25.518  1.00  0.00     0.031 C 
ATOM     22  C   UNL A   1      39.266  27.097  28.960  1.00  0.00     0.029 A 
ATOM     23  C   UNL A   1      40.227  28.189  28.940  1.00  0.00     0.049 A 
ATOM     24  H   UNL A   1      42.029  28.276  27.889  1.00  0.00     0.167 HD
ATOM     25  C   UNL A   1      46.173  27.735  26.008  1.00  0.00     0.034 A 
ATOM     26  C   UNL A   1      40.113  29.351  29.604  1.00  0.00     0.034 A 
ATOM     27  C   UNL A   1      46.146  29.016  26.655  1.00  0.00     0.049 A 
ATOM     28  C   UNL A   1      41.298  30.270  29.532  1.00  0.00     0.074 A 
ATOM     29  C   UNL A   1      47.121  29.987  26.709  1.00  0.00     0.029 A 
ATOM     30  N   UNL A   1      45.056  29.488  27.384  1.00  0.00    -0.354 N 
ATOM     31  N   UNL A   1      42.437  30.089  28.899  1.00  0.00    -0.248 NA
ATOM     32  C   UNL A   1      41.199  31.541  30.250  1.00  0.00     0.031 C 
ATOM     33  C   UNL A   1      46.631  31.031  27.504  1.00  0.00     0.029 A 
ATOM     34  C   UNL A   1      45.330  30.736  27.898  1.00  0.00     0.049 A 
ATOM     35  H   UNL A   1      44.211  29.000  27.512  1.00  0.00     0.167 HD
ATOM     36  C   UNL A   1      43.180  31.238  29.106  1.00  0.00     0.074 A 
ATOM     37  C   UNL A   1      42.356  32.110  29.929  1.00  0.00     0.031 C 
ATOM     38  C   UNL A   1      44.424  31.556  28.669  1.00  0.00     0.034 A 
BRANCH  25  39
ATOM     39  C   UNL A   1      47.397  27.237  25.295  1.00  0.00     0.023 A 
ATOM     40  C   UNL A   1      48.395  26.517  25.986  1.00  0.00     0.012 A 
ATOM     41  C   UNL A   1      47.605  27.579  23.945  1.00  0.00     0.148 A 
ATOM     42  C   UNL A   1      49.601  26.200  25.361  1.00  0.00     0.002 A 
ATOM     43  C   UNL A   1      48.786  27.213  23.314  1.00  0.00     0.091 A 
ATOM     44  F   UNL A   1      46.668  28.304  23.317  1.00  0.00    -0.205 F 
ATOM     45  C   UNL A   1      49.794  26.542  24.025  1.00  0.00     0.022 A 
BRANCH  43  46
ATOM     46  S   UNL A   1      49.100  27.555  21.579  1.00  0.00     0.127 S 
ATOM     47  O   UNL A   1      49.158  29.016  21.572  1.00  0.00    -0.237 OA
ATOM     48  O   UNL A   1      50.388  26.892  21.369  1.00  0.00    -0.237 OA
ATOM     49  O   UNL A   1      47.988  26.971  20.845  1.00  0.00    -0.744 OA
ENDBRANCH  43  46
ENDBRANCH  25  39
BRANCH  26  50
ATOM     50  C   UNL A   1      38.891  29.640  30.402  1.00  0.00     0.023 A 
ATOM     51  C   UNL A   1      38.748  29.073  31.681  1.00  0.00     0.012 A 
ATOM     52  C   UNL A   1      37.907  30.539  29.936  1.00  0.00     0.148 A 
ATOM     53  C   UNL A   1      37.639  29.380  32.474  1.00  0.00     0.002 A 
ATOM     54  C   UNL A   1      36.834  30.881  30.751  1.00  0.00     0.091 A 
ATOM     55  F   UNL A   1      38.059  31.070  28.716  1.00  0.00    -0.205 F 
ATOM     56  C   UNL A   1      36.690  30.289  32.015  1.00  0.00     0.022 A 
BRANCH  54  57
ATOM     57  S   UNL A   1      35.629  32.135  30.298  1.00  0.00     0.127 S 
ATOM     58  O   UNL A   1      34.999  31.534  29.126  1.00  0.00    -0.237 OA
ATOM     59  O   UNL A   1      34.785  32.186  31.492  1.00  0.00    -0.237 OA
ATOM     60  O   UNL A   1      36.393  33.349  30.047  1.00  0.00    -0.744 OA
ENDBRANCH  54  57
ENDBRANCH  26  50
BRANCH  38  61
ATOM     61  C   UNL A   1      44.924  32.929  28.999  1.00  0.00     0.023 A 
ATOM     62  C   UNL A   1      45.714  33.142  30.142  1.00  0.00     0.012 A 
ATOM     63  C   UNL A   1      44.718  33.971  28.075  1.00  0.00     0.148 A 
ATOM     64  C   UNL A   1      46.289  34.388  30.367  1.00  0.00     0.002 A 
ATOM     65  C   UNL A   1      45.345  35.188  28.275  1.00  0.00     0.091 A 
ATOM     66  F   UNL A   1      43.940  33.735  27.008  1.00  0.00    -0.205 F 
ATOM     67  C   UNL A   1      46.121  35.404  29.425  1.00  0.00     0.022 A 
BRANCH  65  68
ATOM     68  S   UNL A   1      45.290  36.498  27.051  1.00  0.00     0.127 S 
ATOM     69  O   UNL A   1      46.070  35.916  25.960  1.00  0.00    -0.237 OA
ATOM     70  O   UNL A   1      43.855  36.610  26.786  1.00  0.00    -0.237 OA
ATOM     71  O   UNL A   1      45.882  37.670  27.683  1.00  0.00    -0.744 OA
ENDBRANCH  65  68
ENDBRANCH  38  61
ENDBRANCH  12  13
ENDBRANCH   5   7
ENDBRANCH   4   5
ENDBRANCH   3   4
ENDBRANCH   2   3
ENDBRANCH   1   2
BRANCH   1  72
ATOM     72  C   UNL A   1      37.267  22.417  24.817  1.00  0.00     0.202 C 
BRANCH  72  73
ATOM     73  C   UNL A   1      37.059  23.409  25.936  1.00  0.00     0.261 C 
BRANCH  73  74
ATOM     74  O   UNL A   1      35.757  23.951  25.684  1.00  0.00    -0.463 OA
BRANCH  74  75
ATOM     75  C   UNL A   1      34.669  23.362  26.243  1.00  0.00     0.317 C 
ATOM     76  O   UNL A   1      34.628  22.832  27.337  1.00  0.00    -0.251 OA
BRANCH  75  77
ATOM     77  C   UNL A   1      33.471  23.479  25.288  1.00  0.00     0.117 C 
ATOM     78  C   UNL A   1      32.137  23.367  26.057  1.00  0.00     0.030 C 
ATOM     79  C   UNL A   1      33.605  24.951  24.753  1.00  0.00     0.281 C 
ATOM     80  C   UNL A   1      30.976  24.019  25.307  1.00  0.00     0.063 C 
ATOM     81  N   UNL A   1      32.437  25.638  24.183  1.00  0.00    -0.330 N 
ATOM     82  C   UNL A   1      31.256  25.491  25.034  1.00  0.00     0.262 C 
ATOM     83  H   UNL A   1      32.230  25.179  23.295  1.00  0.00     0.348 HD
BRANCH  77  84
ATOM     84  C   UNL A   1      33.510  22.378  24.177  1.00  0.00     0.029 C 
BRANCH  84  85
ATOM     85  C   UNL A   1      32.738  21.012  24.305  1.00  0.00     0.037 C 
BRANCH  85  86
ATOM     86  C   UNL A   1      33.218  19.603  23.964  1.00  0.00    -0.048 A 
ATOM     87  C   UNL A   1      34.426  19.185  24.557  1.00  0.00     0.004 A 
ATOM     88  C   UNL A   1      32.509  18.619  23.265  1.00  0.00     0.004 A 
ATOM     89  C   UNL A   1      34.893  17.868  24.445  1.00  0.00     0.000 A 
ATOM     90  C   UNL A   1      32.950  17.292  23.177  1.00  0.00     0.000 A 
ATOM     91  C   UNL A   1      34.148  16.916  23.761  1.00  0.00     0.000 A 
ENDBRANCH  85  86
ENDBRANCH  84  85
ENDBRANCH  77  84
BRANCH  81  92
ATOM     92  C   UNL A   1      32.718  27.068  23.857  1.00  0.00     0.300 C 
BRANCH  92  93
ATOM     93  C   UNL A   1      31.552  27.978  23.510  1.00  0.00     0.025 A 
ATOM     94  C   UNL A   1      31.198  29.086  24.284  1.00  0.00     0.013 A 
ATOM     95  C   UNL A   1      30.775  27.760  22.375  1.00  0.00     0.120 A 
ATOM     96  C   UNL A   1      30.082  29.858  23.968  1.00  0.00     0.021 A 
ATOM     97  N   UNL A   1      29.700  28.505  22.017  1.00  0.00    -0.264 NA
ATOM     98  C   UNL A   1      29.365  29.527  22.835  1.00  0.00     0.111 A 
ENDBRANCH  92  93
ENDBRANCH  81  92
ENDBRANCH  75  77
ENDBRANCH  74  75
ENDBRANCH  73  74
ENDBRANCH  72  73
ENDBRANCH   1  72
TORSDOF 22
ENDMDL
MODEL 2
REMARK VINA RESULT:     -11.5      2.024      3.619
REMARK SMILES O=C(OCCOCCOC(=O)[C@@]1(CCc2ccccc2)CCC[N@@H+](Cc2cccnc2)C1)c1ccc(-c2c3nc(c(-c4cccc(S(=O)(=O)[O-])c4F)c4ccc([nH]4)c(-c4cccc(S(=O)(=O)[O-])c4F)c4nc(c(-c5cccc(S(=O)(=O)[O-])c5F)c5ccc2[nH]5)C=C4)C=C3)cc1
REMARK SMILES IDX 6 1 5 2 4 3 3 4 2 5 1 6 33 7 34 8 95 9 35 10 94 11 36 12
REMARK SMILES IDX 37 13 38 14 88 15 39 16 93 17 87 18 89 19 40 20 92 21 86 22
REMARK SMILES IDX 85 23 41 25 73 26 53 27 72 28 54 29 57 30 71 31 90 32 55 33
REMARK SMILES IDX 56 34 70 36 91 37 58 38 42 39 43 40 51 41 44 42 46 43 52 44
REMARK SMILES IDX 45 45 47 46 48 47 49 48 50 49 74 50 75 51 83 52 76 53 78 54
REMARK SMILES IDX 84 55 77 56 79 57 80 58 81 59 82 60 59 61 60 62 68 63 61 64
REMARK SMILES IDX 63 65 69 66 62 67 64 68 65 69 66 70 67 71 7 72 8 73 9 74
REMARK SMILES IDX 10 75 11 76 12 77 21 78 32 79 22 80 24 81 23 82 13 84 14 85
REMARK SMILES IDX 15 86 16 87 20 88 17 89 19 90 18 91 25 92 26 93 27 94 31 95
REMARK SMILES IDX 28 96 30 97 29 98
REMARK H PARENT 89 24 57 35 24 83
REMARK Flexibility Score: inf
ROOT
ATOM      1  O   UNL A   1      37.152  20.571  24.472  1.00  0.00    -0.374 OA
ENDROOT
BRANCH   1   2
ATOM      2  C   UNL A   1      38.219  20.772  25.373  1.00  0.00     0.202 C 
BRANCH   2   3
ATOM      3  C   UNL A   1      39.145  19.577  25.555  1.00  0.00     0.261 C 
BRANCH   3   4
ATOM      4  O   UNL A   1      40.445  20.048  25.931  1.00  0.00    -0.460 OA
BRANCH   4   5
ATOM      5  C   UNL A   1      40.787  20.502  27.160  1.00  0.00     0.338 C 
ATOM      6  O   UNL A   1      40.933  19.710  28.085  1.00  0.00    -0.246 OA
BRANCH   5   7
ATOM      7  C   UNL A   1      41.081  21.937  27.385  1.00  0.00     0.060 A 
ATOM      8  C   UNL A   1      40.524  22.962  26.622  1.00  0.00     0.016 A 
ATOM      9  C   UNL A   1      41.904  22.279  28.458  1.00  0.00     0.016 A 
ATOM     10  C   UNL A   1      40.774  24.281  26.854  1.00  0.00     0.010 A 
ATOM     11  C   UNL A   1      42.157  23.623  28.728  1.00  0.00     0.010 A 
ATOM     12  C   UNL A   1      41.580  24.610  27.918  1.00  0.00    -0.014 A 
BRANCH  12  13
ATOM     13  C   UNL A   1      41.922  26.019  27.995  1.00  0.00     0.031 A 
ATOM     14  C   UNL A   1      43.209  26.420  27.379  1.00  0.00     0.074 A 
ATOM     15  C   UNL A   1      40.999  26.886  28.439  1.00  0.00     0.049 A 
ATOM     16  N   UNL A   1      43.854  27.537  27.495  1.00  0.00    -0.248 NA
ATOM     17  C   UNL A   1      43.864  25.419  26.512  1.00  0.00     0.031 C 
ATOM     18  C   UNL A   1      39.622  26.541  28.820  1.00  0.00     0.029 A 
ATOM     19  N   UNL A   1      41.075  28.230  28.643  1.00  0.00    -0.354 N 
ATOM     20  C   UNL A   1      45.051  27.332  26.826  1.00  0.00     0.074 A 
ATOM     21  C   UNL A   1      45.013  26.014  26.241  1.00  0.00     0.031 C 
ATOM     22  C   UNL A   1      38.996  27.645  29.251  1.00  0.00     0.029 A 
ATOM     23  C   UNL A   1      39.967  28.727  29.285  1.00  0.00     0.049 A 
ATOM     24  H   UNL A   1      41.839  28.784  28.362  1.00  0.00     0.167 HD
ATOM     25  C   UNL A   1      46.098  28.179  26.781  1.00  0.00     0.034 A 
ATOM     26  C   UNL A   1      39.820  29.898  29.926  1.00  0.00     0.034 A 
ATOM     27  C   UNL A   1      46.040  29.467  27.409  1.00  0.00     0.049 A 
ATOM     28  C   UNL A   1      41.017  30.805  29.926  1.00  0.00     0.074 A 
ATOM     29  C   UNL A   1      47.019  30.430  27.520  1.00  0.00     0.029 A 
ATOM     30  N   UNL A   1      44.907  29.960  28.055  1.00  0.00    -0.354 N 
ATOM     31  N   UNL A   1      42.195  30.605  29.376  1.00  0.00    -0.248 NA
ATOM     32  C   UNL A   1      40.881  32.085  30.621  1.00  0.00     0.031 C 
ATOM     33  C   UNL A   1      46.486  31.488  28.266  1.00  0.00     0.029 A 
ATOM     34  C   UNL A   1      45.158  31.211  28.572  1.00  0.00     0.049 A 
ATOM     35  H   UNL A   1      44.049  29.481  28.129  1.00  0.00     0.167 HD
ATOM     36  C   UNL A   1      42.934  31.749  29.621  1.00  0.00     0.074 A 
ATOM     37  C   UNL A   1      42.063  32.639  30.374  1.00  0.00     0.031 C 
ATOM     38  C   UNL A   1      44.209  32.049  29.268  1.00  0.00     0.034 A 
BRANCH  25  39
ATOM     39  C   UNL A   1      47.363  27.660  26.161  1.00  0.00     0.023 A 
ATOM     40  C   UNL A   1      47.561  27.717  24.765  1.00  0.00     0.012 A 
ATOM     41  C   UNL A   1      48.320  27.013  26.966  1.00  0.00     0.148 A 
ATOM     42  C   UNL A   1      48.659  27.087  24.179  1.00  0.00     0.002 A 
ATOM     43  C   UNL A   1      49.439  26.435  26.380  1.00  0.00     0.091 A 
ATOM     44  F   UNL A   1      48.093  26.926  28.284  1.00  0.00    -0.205 F 
ATOM     45  C   UNL A   1      49.600  26.452  24.986  1.00  0.00     0.022 A 
BRANCH  43  46
ATOM     46  S   UNL A   1      50.735  25.649  27.343  1.00  0.00     0.127 S 
ATOM     47  O   UNL A   1      50.731  26.459  28.560  1.00  0.00    -0.237 OA
ATOM     48  O   UNL A   1      50.208  24.294  27.510  1.00  0.00    -0.237 OA
ATOM     49  O   UNL A   1      51.944  25.737  26.538  1.00  0.00    -0.744 OA
ENDBRANCH  43  46
ENDBRANCH  25  39
BRANCH  26  50
ATOM     50  C   UNL A   1      38.549  30.209  30.634  1.00  0.00     0.023 A 
ATOM     51  C   UNL A   1      38.358  29.754  31.950  1.00  0.00     0.012 A 
ATOM     52  C   UNL A   1      37.560  31.023  30.040  1.00  0.00     0.148 A 
ATOM     53  C   UNL A   1      37.199  30.087  32.656  1.00  0.00     0.002 A 
ATOM     54  C   UNL A   1      36.433  31.395  30.766  1.00  0.00     0.091 A 
ATOM     55  F   UNL A   1      37.757  31.449  28.785  1.00  0.00    -0.205 F 
ATOM     56  C   UNL A   1      36.244  30.913  32.070  1.00  0.00     0.022 A 
BRANCH  54  57
ATOM     57  S   UNL A   1      35.211  32.555  30.142  1.00  0.00     0.127 S 
ATOM     58  O   UNL A   1      34.290  32.655  31.271  1.00  0.00    -0.237 OA
ATOM     59  O   UNL A   1      36.024  33.747  29.902  1.00  0.00    -0.237 OA
ATOM     60  O   UNL A   1      34.664  31.946  28.937  1.00  0.00    -0.744 OA
ENDBRANCH  54  57
ENDBRANCH  26  50
BRANCH  38  61
ATOM     61  C   UNL A   1      44.699  33.422  29.616  1.00  0.00     0.023 A 
ATOM     62  C   UNL A   1      45.454  33.631  30.783  1.00  0.00     0.012 A 
ATOM     63  C   UNL A   1      44.521  34.465  28.689  1.00  0.00     0.148 A 
ATOM     64  C   UNL A   1      46.023  34.877  31.028  1.00  0.00     0.002 A 
ATOM     65  C   UNL A   1      45.143  35.682  28.910  1.00  0.00     0.091 A 
ATOM     66  F   UNL A   1      43.777  34.232  27.598  1.00  0.00    -0.205 F 
ATOM     67  C   UNL A   1      45.884  35.895  30.083  1.00  0.00     0.022 A 
BRANCH  65  68
ATOM     68  S   UNL A   1      45.125  36.995  27.688  1.00  0.00     0.127 S 
ATOM     69  O   UNL A   1      43.691  37.216  27.512  1.00  0.00    -0.237 OA
ATOM     70  O   UNL A   1      45.831  38.071  28.384  1.00  0.00    -0.237 OA
ATOM     71  O   UNL A   1      45.820  36.470  26.519  1.00  0.00    -0.744 OA
ENDBRANCH  65  68
ENDBRANCH  38  61
ENDBRANCH  12  13
ENDBRANCH   5   7
ENDBRANCH   4   5
ENDBRANCH   3   4
ENDBRANCH   2   3
ENDBRANCH   1   2
BRANCH   1  72
ATOM     72  C   UNL A   1      35.846  20.359  24.997  1.00  0.00     0.202 C 
BRANCH  72  73
ATOM     73  C   UNL A   1      35.300  21.747  25.230  1.00  0.00     0.261 C 
BRANCH  73  74
ATOM     74  O   UNL A   1      34.382  21.946  24.148  1.00  0.00    -0.463 OA
BRANCH  74  75
ATOM     75  C   UNL A   1      34.553  23.003  23.313  1.00  0.00     0.317 C 
ATOM     76  O   UNL A   1      35.577  23.284  22.719  1.00  0.00    -0.251 OA
BRANCH  75  77
ATOM     77  C   UNL A   1      33.242  23.796  23.207  1.00  0.00     0.117 C 
ATOM     78  C   UNL A   1      32.025  22.848  23.134  1.00  0.00     0.030 C 
ATOM     79  C   UNL A   1      33.191  24.553  24.584  1.00  0.00     0.281 C 
ATOM     80  C   UNL A   1      30.732  23.525  23.591  1.00  0.00     0.063 C 
ATOM     81  N   UNL A   1      31.910  25.057  25.103  1.00  0.00    -0.330 N 
ATOM     82  C   UNL A   1      30.858  24.044  25.017  1.00  0.00     0.262 C 
ATOM     83  H   UNL A   1      31.634  25.832  24.500  1.00  0.00     0.348 HD
BRANCH  77  84
ATOM     84  C   UNL A   1      33.233  24.730  21.952  1.00  0.00     0.029 C 
BRANCH  84  85
ATOM     85  C   UNL A   1      33.353  26.297  22.055  1.00  0.00     0.037 C 
BRANCH  85  86
ATOM     86  C   UNL A   1      32.288  27.316  22.457  1.00  0.00    -0.048 A 
ATOM     87  C   UNL A   1      30.946  26.894  22.379  1.00  0.00     0.004 A 
ATOM     88  C   UNL A   1      32.502  28.564  23.054  1.00  0.00     0.004 A 
ATOM     89  C   UNL A   1      29.890  27.679  22.861  1.00  0.00     0.000 A 
ATOM     90  C   UNL A   1      31.457  29.341  23.570  1.00  0.00     0.000 A 
ATOM     91  C   UNL A   1      30.147  28.903  23.467  1.00  0.00     0.000 A 
ENDBRANCH  85  86
ENDBRANCH  84  85
ENDBRANCH  77  84
BRANCH  81  92
ATOM     92  C   UNL A   1      32.033  25.622  26.479  1.00  0.00     0.300 C 
BRANCH  92  93
ATOM     93  C   UNL A   1      32.423  27.082  26.635  1.00  0.00     0.025 A 
ATOM     94  C   UNL A   1      31.544  28.055  27.116  1.00  0.00     0.013 A 
ATOM     95  C   UNL A   1      33.703  27.528  26.315  1.00  0.00     0.120 A 
ATOM     96  C   UNL A   1      31.920  29.395  27.182  1.00  0.00     0.021 A 
ATOM     97  N   UNL A   1      34.117  28.818  26.393  1.00  0.00    -0.264 NA
ATOM     98  C   UNL A   1      33.207  29.726  26.806  1.00  0.00     0.111 A 
ENDBRANCH  92  93
ENDBRANCH  81  92
ENDBRANCH  75  77
ENDBRANCH  74  75
ENDBRANCH  73  74
ENDBRANCH  72  73
ENDBRANCH   1  72
TORSDOF 22
ENDMDL
MODEL 3
REMARK VINA RESULT:     -11.2      1.428      3.144
REMARK SMILES O=C(OCCOCCOC(=O)[C@@]1(CCc2ccccc2)CCC[N@@H+](Cc2cccnc2)C1)c1ccc(-c2c3nc(c(-c4cccc(S(=O)(=O)[O-])c4F)c4ccc([nH]4)c(-c4cccc(S(=O)(=O)[O-])c4F)c4nc(c(-c5cccc(S(=O)(=O)[O-])c5F)c5ccc2[nH]5)C=C4)C=C3)cc1
REMARK SMILES IDX 6 1 5 2 4 3 3 4 2 5 1 6 33 7 34 8 95 9 35 10 94 11 36 12
REMARK SMILES IDX 37 13 38 14 88 15 39 16 93 17 87 18 89 19 40 20 92 21 86 22
REMARK SMILES IDX 85 23 41 25 73 26 53 27 72 28 54 29 57 30 71 31 90 32 55 33
REMARK SMILES IDX 56 34 70 36 91 37 58 38 42 39 43 40 51 41 44 42 46 43 52 44
REMARK SMILES IDX 45 45 47 46 48 47 49 48 50 49 74 50 75 51 83 52 76 53 78 54
REMARK SMILES IDX 84 55 77 56 79 57 80 58 81 59 82 60 59 61 60 62 68 63 61 64
REMARK SMILES IDX 63 65 69 66 62 67 64 68 65 69 66 70 67 71 7 72 8 73 9 74
REMARK SMILES IDX 10 75 11 76 12 77 21 78 32 79 22 80 24 81 23 82 13 84 14 85
REMARK SMILES IDX 15 86 16 87 20 88 17 89 19 90 18 91 25 92 26 93 27 94 31 95
REMARK SMILES IDX 28 96 30 97 29 98
REMARK H PARENT 89 24 57 35 24 83
REMARK Flexibility Score: inf
ROOT
ATOM      1  O   UNL A   1      35.924  21.430  25.057  1.00  0.00    -0.374 OA
ENDROOT
BRANCH   1   2
ATOM      2  C   UNL A   1      37.250  21.172  24.652  1.00  0.00     0.202 C 
BRANCH   2   3
ATOM      3  C   UNL A   1      37.942  20.036  25.393  1.00  0.00     0.261 C 
BRANCH   3   4
ATOM      4  O   UNL A   1      39.351  20.297  25.435  1.00  0.00    -0.460 OA
BRANCH   4   5
ATOM      5  C   UNL A   1      40.055  20.607  26.550  1.00  0.00     0.338 C 
ATOM      6  O   UNL A   1      40.423  19.715  27.308  1.00  0.00    -0.246 OA
BRANCH   5   7
ATOM      7  C   UNL A   1      40.472  22.003  26.821  1.00  0.00     0.060 A 
ATOM      8  C   UNL A   1      39.873  23.111  26.224  1.00  0.00     0.016 A 
ATOM      9  C   UNL A   1      41.468  22.218  27.773  1.00  0.00     0.016 A 
ATOM     10  C   UNL A   1      40.240  24.393  26.502  1.00  0.00     0.010 A 
ATOM     11  C   UNL A   1      41.845  23.522  28.090  1.00  0.00     0.010 A 
ATOM     12  C   UNL A   1      41.217  24.597  27.447  1.00  0.00    -0.014 A 
BRANCH  12  13
ATOM     13  C   UNL A   1      41.657  25.976  27.563  1.00  0.00     0.031 A 
ATOM     14  C   UNL A   1      42.950  26.312  26.922  1.00  0.00     0.074 A 
ATOM     15  C   UNL A   1      40.809  26.886  28.066  1.00  0.00     0.049 A 
ATOM     16  N   UNL A   1      43.675  27.378  27.057  1.00  0.00    -0.248 NA
ATOM     17  C   UNL A   1      43.511  25.302  26.001  1.00  0.00     0.031 C 
ATOM     18  C   UNL A   1      39.423  26.621  28.476  1.00  0.00     0.029 A 
ATOM     19  N   UNL A   1      40.983  28.213  28.315  1.00  0.00    -0.354 N 
ATOM     20  C   UNL A   1      44.834  27.117  26.346  1.00  0.00     0.074 A 
ATOM     21  C   UNL A   1      44.689  25.828  25.715  1.00  0.00     0.031 C 
ATOM     22  C   UNL A   1      38.887  27.747  28.965  1.00  0.00     0.029 A 
ATOM     23  C   UNL A   1      39.930  28.760  29.008  1.00  0.00     0.049 A 
ATOM     24  H   UNL A   1      41.775  28.724  28.030  1.00  0.00     0.167 HD
ATOM     25  C   UNL A   1      45.936  27.893  26.298  1.00  0.00     0.034 A 
ATOM     26  C   UNL A   1      39.883  29.913  29.694  1.00  0.00     0.034 A 
ATOM     27  C   UNL A   1      45.984  29.158  26.973  1.00  0.00     0.049 A 
ATOM     28  C   UNL A   1      41.138  30.736  29.690  1.00  0.00     0.074 A 
ATOM     29  C   UNL A   1      47.029  30.047  27.087  1.00  0.00     0.029 A 
ATOM     30  N   UNL A   1      44.906  29.701  27.670  1.00  0.00    -0.354 N 
ATOM     31  N   UNL A   1      42.283  30.478  29.097  1.00  0.00    -0.248 NA
ATOM     32  C   UNL A   1      41.111  31.996  30.433  1.00  0.00     0.031 C 
ATOM     33  C   UNL A   1      46.592  31.110  27.887  1.00  0.00     0.029 A 
ATOM     34  C   UNL A   1      45.257  30.912  28.223  1.00  0.00     0.049 A 
ATOM     35  H   UNL A   1      44.020  29.279  27.754  1.00  0.00     0.167 HD
ATOM     36  C   UNL A   1      43.106  31.560  29.360  1.00  0.00     0.074 A 
ATOM     37  C   UNL A   1      42.321  32.477  30.170  1.00  0.00     0.031 C 
ATOM     38  C   UNL A   1      44.388  31.786  28.978  1.00  0.00     0.034 A 
BRANCH  25  39
ATOM     39  C   UNL A   1      47.144  27.313  25.621  1.00  0.00     0.023 A 
ATOM     40  C   UNL A   1      48.079  26.542  26.344  1.00  0.00     0.012 A 
ATOM     41  C   UNL A   1      47.406  27.627  24.273  1.00  0.00     0.148 A 
ATOM     42  C   UNL A   1      49.279  26.145  25.753  1.00  0.00     0.002 A 
ATOM     43  C   UNL A   1      48.578  27.182  23.676  1.00  0.00     0.091 A 
ATOM     44  F   UNL A   1      46.531  28.399  23.615  1.00  0.00    -0.205 F 
ATOM     45  C   UNL A   1      49.525  26.460  24.419  1.00  0.00     0.022 A 
BRANCH  43  46
ATOM     46  S   UNL A   1      48.955  27.485  21.947  1.00  0.00     0.127 S 
ATOM     47  O   UNL A   1      48.359  28.804  21.741  1.00  0.00    -0.237 OA
ATOM     48  O   UNL A   1      50.418  27.470  21.950  1.00  0.00    -0.237 OA
ATOM     49  O   UNL A   1      48.337  26.398  21.203  1.00  0.00    -0.744 OA
ENDBRANCH  43  46
ENDBRANCH  25  39
BRANCH  26  50
ATOM     50  C   UNL A   1      38.656  30.283  30.452  1.00  0.00     0.023 A 
ATOM     51  C   UNL A   1      38.579  30.003  31.827  1.00  0.00     0.012 A 
ATOM     52  C   UNL A   1      37.598  30.984  29.835  1.00  0.00     0.148 A 
ATOM     53  C   UNL A   1      37.464  30.396  32.571  1.00  0.00     0.002 A 
ATOM     54  C   UNL A   1      36.515  31.420  30.591  1.00  0.00     0.091 A 
ATOM     55  F   UNL A   1      37.687  31.244  28.523  1.00  0.00    -0.205 F 
ATOM     56  C   UNL A   1      36.439  31.111  31.957  1.00  0.00     0.022 A 
BRANCH  54  57
ATOM     57  S   UNL A   1      35.209  32.454  29.916  1.00  0.00     0.127 S 
ATOM     58  O   UNL A   1      34.351  32.649  31.082  1.00  0.00    -0.237 OA
ATOM     59  O   UNL A   1      35.954  33.640  29.495  1.00  0.00    -0.237 OA
ATOM     60  O   UNL A   1      34.621  31.690  28.824  1.00  0.00    -0.744 OA
ENDBRANCH  54  57
ENDBRANCH  26  50
BRANCH  38  61
ATOM     61  C   UNL A   1      44.981  33.108  29.359  1.00  0.00     0.023 A 
ATOM     62  C   UNL A   1      45.795  33.219  30.500  1.00  0.00     0.012 A 
ATOM     63  C   UNL A   1      44.835  34.200  28.482  1.00  0.00     0.148 A 
ATOM     64  C   UNL A   1      46.453  34.414  30.770  1.00  0.00     0.002 A 
ATOM     65  C   UNL A   1      45.543  35.363  28.725  1.00  0.00     0.091 A 
ATOM     66  F   UNL A   1      44.033  34.061  27.416  1.00  0.00    -0.205 F 
ATOM     67  C   UNL A   1      46.344  35.478  29.873  1.00  0.00     0.022 A 
BRANCH  65  68
ATOM     68  S   UNL A   1      45.563  36.725  27.558  1.00  0.00     0.127 S 
ATOM     69  O   UNL A   1      46.216  36.114  26.401  1.00  0.00    -0.237 OA
ATOM     70  O   UNL A   1      44.137  37.000  27.383  1.00  0.00    -0.237 OA
ATOM     71  O   UNL A   1      46.313  37.798  28.199  1.00  0.00    -0.744 OA
ENDBRANCH  65  68
ENDBRANCH  38  61
ENDBRANCH  12  13
ENDBRANCH   5   7
ENDBRANCH   4   5
ENDBRANCH   3   4
ENDBRANCH   2   3
ENDBRANCH   1   2
BRANCH   1  72
ATOM     72  C   UNL A   1      35.674  21.731  26.425  1.00  0.00     0.202 C 
BRANCH  72  73
ATOM     73  C   UNL A   1      34.195  21.487  26.604  1.00  0.00     0.261 C 
BRANCH  73  74
ATOM     74  O   UNL A   1      33.690  22.738  27.086  1.00  0.00    -0.463 OA
BRANCH  74  75
ATOM     75  C   UNL A   1      32.462  23.160  26.690  1.00  0.00     0.317 C 
ATOM     76  O   UNL A   1      31.410  22.917  27.249  1.00  0.00    -0.251 OA
BRANCH  75  77
ATOM     77  C   UNL A   1      32.594  24.018  25.422  1.00  0.00     0.117 C 
ATOM     78  C   UNL A   1      32.567  23.139  24.153  1.00  0.00     0.030 C 
ATOM     79  C   UNL A   1      31.277  24.875  25.453  1.00  0.00     0.281 C 
ATOM     80  C   UNL A   1      32.131  23.921  22.913  1.00  0.00     0.063 C 
ATOM     81  N   UNL A   1      30.767  25.489  24.217  1.00  0.00    -0.330 N 
ATOM     82  C   UNL A   1      30.751  24.535  23.108  1.00  0.00     0.262 C 
ATOM     83  H   UNL A   1      31.419  26.233  23.968  1.00  0.00     0.348 HD
BRANCH  77  84
ATOM     84  C   UNL A   1      33.915  24.856  25.429  1.00  0.00     0.029 C 
BRANCH  84  85
ATOM     85  C   UNL A   1      33.969  26.364  24.980  1.00  0.00     0.037 C 
BRANCH  85  86
ATOM     86  C   UNL A   1      33.379  27.593  25.670  1.00  0.00    -0.048 A 
ATOM     87  C   UNL A   1      33.225  28.749  24.880  1.00  0.00     0.004 A 
ATOM     88  C   UNL A   1      32.817  27.649  26.951  1.00  0.00     0.004 A 
ATOM     89  C   UNL A   1      32.559  29.889  25.352  1.00  0.00     0.000 A 
ATOM     90  C   UNL A   1      32.120  28.770  27.419  1.00  0.00     0.000 A 
ATOM     91  C   UNL A   1      31.996  29.896  26.622  1.00  0.00     0.000 A 
ENDBRANCH  85  86
ENDBRANCH  84  85
ENDBRANCH  77  84
BRANCH  81  92
ATOM     92  C   UNL A   1      29.440  26.145  24.411  1.00  0.00     0.300 C 
BRANCH  92  93
ATOM     93  C   UNL A   1      29.119  27.391  23.603  1.00  0.00     0.025 A 
ATOM     94  C   UNL A   1      27.833  27.929  23.517  1.00  0.00     0.013 A 
ATOM     95  C   UNL A   1      30.112  28.080  22.910  1.00  0.00     0.120 A 
ATOM     96  C   UNL A   1      27.568  29.035  22.712  1.00  0.00     0.021 A 
ATOM     97  N   UNL A   1      29.900  29.177  22.140  1.00  0.00    -0.264 NA
ATOM     98  C   UNL A   1      28.627  29.618  22.043  1.00  0.00     0.111 A 
ENDBRANCH  92  93
ENDBRANCH  81  92
ENDBRANCH  75  77
ENDBRANCH  74  75
ENDBRANCH  73  74
ENDBRANCH  72  73
ENDBRANCH   1  72
TORSDOF 22
ENDMDL
