MODEL 1
REMARK VINA RESULT:      -9.9      0.000      0.000
REMARK SMILES O=C(CCCC(=O)OCCOCCOC(=O)c1ccc(-c2c3nc(c(-c4cccc(S(=O)(=O)[O-])c4F)c4ccc([nH]4)c(-c4cccc(S(=O)(=O)[O-])c4F)c4nc(c(-c5cccc(S(=O)(=O)[O-])c5F)c5ccc2[nH]5)C=C4)C=C3)cc1)Nc1nc2n(n1)[C@@H](c1ccc(Cl)cc1)C[C@@H](c1ccc(Cl)cc1)N2
REMARK SMILES IDX 10 1 9 2 8 3 6 4 7 5 5 6 4 7 3 8 2 9 1 10 80 11 81 13 82 14
REMARK SMILES IDX 85 15 83 16 84 17 103 18 86 19 95 20 94 22 87 23 88 24 93 25
REMARK SMILES IDX 89 26 92 27 90 28 91 29 96 30 97 31 102 32 98 33 101 34
REMARK SMILES IDX 99 35 100 36 11 37 12 38 13 39 14 40 15 41 16 42 17 43 18 44
REMARK SMILES IDX 79 45 19 46 78 47 20 48 21 49 22 50 72 51 23 52 77 53 71 54
REMARK SMILES IDX 73 55 24 56 76 57 70 58 69 59 25 61 57 62 37 63 56 64 38 65
REMARK SMILES IDX 41 66 55 67 74 68 39 69 40 70 54 72 75 73 42 74 26 75 27 76
REMARK SMILES IDX 35 77 28 78 30 79 36 80 29 81 31 82 32 83 33 84 34 85 58 86
REMARK SMILES IDX 59 87 67 88 60 89 62 90 68 91 61 92 63 93 64 94 65 95 66 96
REMARK SMILES IDX 43 97 44 98 52 99 45 100 47 101 53 102 46 103 48 104 49 105
REMARK SMILES IDX 50 106 51 107
REMARK H PARENT 80 12 103 21 73 60 41 71
REMARK Flexibility Score: inf
ROOT
ATOM      1  C   UNL A   1      38.640  21.676  25.370  1.00  0.00     0.202 C 
ENDROOT
BRANCH   1   2
ATOM      2  C   UNL A   1      37.252  22.322  25.304  1.00  0.00     0.261 C 
BRANCH   2   3
ATOM      3  O   UNL A   1      36.288  21.553  26.045  1.00  0.00    -0.463 OA
BRANCH   3   4
ATOM      4  C   UNL A   1      35.536  20.678  25.332  1.00  0.00     0.305 C 
ATOM      5  O   UNL A   1      35.924  19.589  24.925  1.00  0.00    -0.252 OA
BRANCH   4   6
ATOM      6  C   UNL A   1      34.127  21.175  25.083  1.00  0.00     0.123 C 
BRANCH   6   7
ATOM      7  C   UNL A   1      33.468  22.072  26.143  1.00  0.00     0.022 C 
BRANCH   7   8
ATOM      8  C   UNL A   1      31.941  22.050  26.180  1.00  0.00     0.101 C 
BRANCH   8   9
ATOM      9  C   UNL A   1      31.443  23.422  26.545  1.00  0.00     0.226 C 
ATOM     10  O   UNL A   1      30.451  23.541  27.260  1.00  0.00    -0.275 OA
ATOM     11  N   UNL A   1      32.172  24.426  25.953  1.00  0.00    -0.293 N 
ATOM     12  H   UNL A   1      32.992  24.198  25.457  1.00  0.00     0.173 HD
BRANCH  11  13
ATOM     13  C   UNL A   1      31.788  25.730  26.038  1.00  0.00     0.250 A 
ATOM     14  N   UNL A   1      31.868  26.449  27.191  1.00  0.00    -0.176 NA
ATOM     15  N   UNL A   1      31.440  26.420  24.951  1.00  0.00    -0.130 NA
ATOM     16  C   UNL A   1      31.893  27.672  26.746  1.00  0.00     0.224 A 
ATOM     17  N   UNL A   1      31.633  27.684  25.398  1.00  0.00    -0.222 N 
ATOM     18  N   UNL A   1      32.452  28.739  27.341  1.00  0.00    -0.347 N 
ATOM     19  C   UNL A   1      32.057  28.775  24.521  1.00  0.00     0.144 C 
ATOM     20  C   UNL A   1      33.550  29.312  26.557  1.00  0.00     0.115 C 
ATOM     21  H   UNL A   1      32.158  29.097  28.209  1.00  0.00     0.164 HD
ATOM     22  C   UNL A   1      32.944  29.835  25.243  1.00  0.00     0.062 C 
BRANCH  19  23
ATOM     23  C   UNL A   1      30.868  29.472  23.877  1.00  0.00    -0.023 A 
ATOM     24  C   UNL A   1      30.466  29.078  22.592  1.00  0.00     0.007 A 
ATOM     25  C   UNL A   1      30.244  30.585  24.467  1.00  0.00     0.007 A 
ATOM     26  C   UNL A   1      29.486  29.788  21.898  1.00  0.00     0.021 A 
ATOM     27  C   UNL A   1      29.260  31.294  23.772  1.00  0.00     0.021 A 
ATOM     28  C   UNL A   1      28.893  30.898  22.487  1.00  0.00     0.041 A 
ATOM     29  Cl  UNL A   1      27.715  31.810  21.621  1.00  0.00    -0.084 Cl
ENDBRANCH  19  23
BRANCH  20  30
ATOM     30  C   UNL A   1      34.332  30.292  27.418  1.00  0.00    -0.025 A 
ATOM     31  C   UNL A   1      35.568  29.881  27.960  1.00  0.00     0.007 A 
ATOM     32  C   UNL A   1      33.913  31.607  27.653  1.00  0.00     0.007 A 
ATOM     33  C   UNL A   1      36.341  30.744  28.739  1.00  0.00     0.021 A 
ATOM     34  C   UNL A   1      34.692  32.478  28.422  1.00  0.00     0.021 A 
ATOM     35  C   UNL A   1      35.898  32.042  28.966  1.00  0.00     0.041 A 
ATOM     36  Cl  UNL A   1      36.850  33.116  29.914  1.00  0.00    -0.084 Cl
ENDBRANCH  20  30
ENDBRANCH  11  13
ENDBRANCH   8   9
ENDBRANCH   7   8
ENDBRANCH   6   7
ENDBRANCH   4   6
ENDBRANCH   3   4
ENDBRANCH   2   3
ENDBRANCH   1   2
BRANCH   1  37
ATOM     37  O   UNL A   1      38.906  20.861  26.512  1.00  0.00    -0.374 OA
BRANCH  37  38
ATOM     38  C   UNL A   1      40.118  20.110  26.518  1.00  0.00     0.202 C 
BRANCH  38  39
ATOM     39  C   UNL A   1      41.373  20.810  25.979  1.00  0.00     0.261 C 
BRANCH  39  40
ATOM     40  O   UNL A   1      42.366  19.894  25.483  1.00  0.00    -0.460 OA
BRANCH  40  41
ATOM     41  C   UNL A   1      43.502  20.486  25.042  1.00  0.00     0.338 C 
ATOM     42  O   UNL A   1      44.265  20.063  24.182  1.00  0.00    -0.246 OA
BRANCH  41  43
ATOM     43  C   UNL A   1      43.656  21.832  25.624  1.00  0.00     0.060 A 
ATOM     44  C   UNL A   1      43.595  22.925  24.748  1.00  0.00     0.016 A 
ATOM     45  C   UNL A   1      43.976  22.019  26.970  1.00  0.00     0.016 A 
ATOM     46  C   UNL A   1      43.913  24.204  25.202  1.00  0.00     0.010 A 
ATOM     47  C   UNL A   1      44.302  23.304  27.421  1.00  0.00     0.010 A 
ATOM     48  C   UNL A   1      44.312  24.395  26.531  1.00  0.00    -0.014 A 
BRANCH  48  49
ATOM     49  C   UNL A   1      44.889  25.696  26.950  1.00  0.00     0.031 A 
ATOM     50  C   UNL A   1      46.321  26.007  26.599  1.00  0.00     0.074 A 
ATOM     51  C   UNL A   1      44.154  26.586  27.642  1.00  0.00     0.049 A 
ATOM     52  N   UNL A   1      47.040  27.054  26.907  1.00  0.00    -0.248 NA
ATOM     53  C   UNL A   1      47.038  25.002  25.794  1.00  0.00     0.031 C 
ATOM     54  C   UNL A   1      42.757  26.410  28.031  1.00  0.00     0.029 A 
ATOM     55  N   UNL A   1      44.498  27.810  28.163  1.00  0.00    -0.354 N 
ATOM     56  C   UNL A   1      48.302  26.820  26.371  1.00  0.00     0.074 A 
ATOM     57  C   UNL A   1      48.252  25.531  25.716  1.00  0.00     0.031 C 
ATOM     58  C   UNL A   1      42.368  27.474  28.757  1.00  0.00     0.029 A 
ATOM     59  C   UNL A   1      43.494  28.395  28.900  1.00  0.00     0.049 A 
ATOM     60  H   UNL A   1      45.377  28.229  28.021  1.00  0.00     0.167 HD
ATOM     61  C   UNL A   1      49.400  27.610  26.412  1.00  0.00     0.034 A 
ATOM     62  C   UNL A   1      43.494  29.533  29.624  1.00  0.00     0.034 A 
ATOM     63  C   UNL A   1      49.439  28.908  27.028  1.00  0.00     0.049 A 
ATOM     64  C   UNL A   1      44.735  30.388  29.656  1.00  0.00     0.074 A 
ATOM     65  C   UNL A   1      50.491  29.808  27.068  1.00  0.00     0.029 A 
ATOM     66  N   UNL A   1      48.386  29.490  27.714  1.00  0.00    -0.354 N 
ATOM     67  N   UNL A   1      45.879  30.208  29.040  1.00  0.00    -0.248 NA
ATOM     68  C   UNL A   1      44.677  31.619  30.459  1.00  0.00     0.031 C 
ATOM     69  C   UNL A   1      50.078  30.927  27.797  1.00  0.00     0.029 A 
ATOM     70  C   UNL A   1      48.765  30.732  28.191  1.00  0.00     0.049 A 
ATOM     71  H   UNL A   1      47.500  29.080  27.843  1.00  0.00     0.167 HD
ATOM     72  C   UNL A   1      46.654  31.324  29.342  1.00  0.00     0.074 A 
ATOM     73  C   UNL A   1      45.849  32.178  30.187  1.00  0.00     0.031 C 
ATOM     74  C   UNL A   1      47.925  31.608  28.966  1.00  0.00     0.034 A 
BRANCH  61  75
ATOM     75  C   UNL A   1      50.654  27.114  25.745  1.00  0.00     0.023 A 
ATOM     76  C   UNL A   1      51.531  26.268  26.452  1.00  0.00     0.012 A 
ATOM     77  C   UNL A   1      50.916  27.413  24.394  1.00  0.00     0.148 A 
ATOM     78  C   UNL A   1      52.660  25.738  25.828  1.00  0.00     0.002 A 
ATOM     79  C   UNL A   1      52.021  26.850  23.767  1.00  0.00     0.091 A 
ATOM     80  F   UNL A   1      50.079  28.237  23.747  1.00  0.00    -0.205 F 
ATOM     81  C   UNL A   1      52.898  26.019  24.485  1.00  0.00     0.022 A 
BRANCH  79  82
ATOM     82  S   UNL A   1      52.374  27.090  22.023  1.00  0.00     0.127 S 
ATOM     83  O   UNL A   1      51.116  26.672  21.407  1.00  0.00    -0.237 OA
ATOM     84  O   UNL A   1      52.637  28.529  21.957  1.00  0.00    -0.237 OA
ATOM     85  O   UNL A   1      53.524  26.248  21.725  1.00  0.00    -0.744 OA
ENDBRANCH  79  82
ENDBRANCH  61  75
BRANCH  62  86
ATOM     86  C   UNL A   1      42.264  29.964  30.345  1.00  0.00     0.023 A 
ATOM     87  C   UNL A   1      41.382  30.870  29.725  1.00  0.00     0.012 A 
ATOM     88  C   UNL A   1      41.967  29.500  31.641  1.00  0.00     0.148 A 
ATOM     89  C   UNL A   1      40.249  31.333  30.396  1.00  0.00     0.002 A 
ATOM     90  C   UNL A   1      40.811  29.928  32.285  1.00  0.00     0.091 A 
ATOM     91  F   UNL A   1      42.820  28.652  32.235  1.00  0.00    -0.205 F 
ATOM     92  C   UNL A   1      39.958  30.858  31.672  1.00  0.00     0.022 A 
BRANCH  90  93
ATOM     93  S   UNL A   1      40.343  29.245  33.877  1.00  0.00     0.127 S 
ATOM     94  O   UNL A   1      38.961  29.688  34.017  1.00  0.00    -0.237 OA
ATOM     95  O   UNL A   1      40.509  27.805  33.675  1.00  0.00    -0.237 OA
ATOM     96  O   UNL A   1      41.304  29.812  34.819  1.00  0.00    -0.744 OA
ENDBRANCH  90  93
ENDBRANCH  62  86
BRANCH  74  97
ATOM     97  C   UNL A   1      48.520  32.917  29.410  1.00  0.00     0.023 A 
ATOM     98  C   UNL A   1      48.319  34.077  28.638  1.00  0.00     0.012 A 
ATOM     99  C   UNL A   1      49.191  33.015  30.646  1.00  0.00     0.148 A 
ATOM    100  C   UNL A   1      48.795  35.312  29.078  1.00  0.00     0.002 A 
ATOM    101  C   UNL A   1      49.624  34.256  31.099  1.00  0.00     0.091 A 
ATOM    102  F   UNL A   1      49.389  31.895  31.357  1.00  0.00    -0.205 F 
ATOM    103  C   UNL A   1      49.436  35.403  30.312  1.00  0.00     0.022 A 
BRANCH 101 104
ATOM    104  S   UNL A   1      50.369  34.480  32.719  1.00  0.00     0.127 S 
ATOM    105  O   UNL A   1      49.285  34.060  33.605  1.00  0.00    -0.237 OA
ATOM    106  O   UNL A   1      51.506  33.561  32.669  1.00  0.00    -0.237 OA
ATOM    107  O   UNL A   1      50.735  35.888  32.799  1.00  0.00    -0.744 OA
ENDBRANCH 101 104
ENDBRANCH  74  97
ENDBRANCH  48  49
ENDBRANCH  41  43
ENDBRANCH  40  41
ENDBRANCH  39  40
ENDBRANCH  38  39
ENDBRANCH  37  38
ENDBRANCH   1  37
TORSDOF 23
ENDMDL
MODEL 2
REMARK VINA RESULT:      -9.8      1.836      2.094
REMARK SMILES O=C(CCCC(=O)OCCOCCOC(=O)c1ccc(-c2c3nc(c(-c4cccc(S(=O)(=O)[O-])c4F)c4ccc([nH]4)c(-c4cccc(S(=O)(=O)[O-])c4F)c4nc(c(-c5cccc(S(=O)(=O)[O-])c5F)c5ccc2[nH]5)C=C4)C=C3)cc1)Nc1nc2n(n1)[C@@H](c1ccc(Cl)cc1)C[C@@H](c1ccc(Cl)cc1)N2
REMARK SMILES IDX 10 1 9 2 8 3 6 4 7 5 5 6 4 7 3 8 2 9 1 10 80 11 81 13 82 14
REMARK SMILES IDX 85 15 83 16 84 17 103 18 86 19 95 20 94 22 87 23 88 24 93 25
REMARK SMILES IDX 89 26 92 27 90 28 91 29 96 30 97 31 102 32 98 33 101 34
REMARK SMILES IDX 99 35 100 36 11 37 12 38 13 39 14 40 15 41 16 42 17 43 18 44
REMARK SMILES IDX 79 45 19 46 78 47 20 48 21 49 22 50 72 51 23 52 77 53 71 54
REMARK SMILES IDX 73 55 24 56 76 57 70 58 69 59 25 61 57 62 37 63 56 64 38 65
REMARK SMILES IDX 41 66 55 67 74 68 39 69 40 70 54 72 75 73 42 74 26 75 27 76
REMARK SMILES IDX 35 77 28 78 30 79 36 80 29 81 31 82 32 83 33 84 34 85 58 86
REMARK SMILES IDX 59 87 67 88 60 89 62 90 68 91 61 92 63 93 64 94 65 95 66 96
REMARK SMILES IDX 43 97 44 98 52 99 45 100 47 101 53 102 46 103 48 104 49 105
REMARK SMILES IDX 50 106 51 107
REMARK H PARENT 80 12 103 21 73 60 41 71
REMARK Flexibility Score: inf
ROOT
ATOM      1  C   UNL A   1      39.538  21.896  25.983  1.00  0.00     0.202 C 
ENDROOT
BRANCH   1   2
ATOM      2  C   UNL A   1      38.103  22.383  25.754  1.00  0.00     0.261 C 
BRANCH   2   3
ATOM      3  O   UNL A   1      37.147  21.375  26.128  1.00  0.00    -0.463 OA
BRANCH   3   4
ATOM      4  C   UNL A   1      36.832  20.461  25.177  1.00  0.00     0.305 C 
ATOM      5  O   UNL A   1      37.618  19.660  24.685  1.00  0.00    -0.252 OA
BRANCH   4   6
ATOM      6  C   UNL A   1      35.373  20.508  24.772  1.00  0.00     0.123 C 
BRANCH   6   7
ATOM      7  C   UNL A   1      34.364  21.146  25.739  1.00  0.00     0.022 C 
BRANCH   7   8
ATOM      8  C   UNL A   1      32.905  21.137  25.283  1.00  0.00     0.101 C 
BRANCH   8   9
ATOM      9  C   UNL A   1      32.261  22.435  25.690  1.00  0.00     0.226 C 
ATOM     10  O   UNL A   1      31.165  22.424  26.244  1.00  0.00    -0.275 OA
ATOM     11  N   UNL A   1      33.000  23.533  25.321  1.00  0.00    -0.293 N 
ATOM     12  H   UNL A   1      33.900  23.404  24.945  1.00  0.00     0.173 HD
BRANCH  11  13
ATOM     13  C   UNL A   1      32.515  24.798  25.465  1.00  0.00     0.250 A 
ATOM     14  N   UNL A   1      32.522  25.460  26.655  1.00  0.00    -0.176 NA
ATOM     15  N   UNL A   1      32.132  25.516  24.408  1.00  0.00    -0.130 NA
ATOM     16  C   UNL A   1      32.460  26.703  26.273  1.00  0.00     0.224 A 
ATOM     17  N   UNL A   1      32.221  26.766  24.923  1.00  0.00    -0.222 N 
ATOM     18  N   UNL A   1      32.926  27.776  26.933  1.00  0.00    -0.347 N 
ATOM     19  C   UNL A   1      32.573  27.930  24.112  1.00  0.00     0.144 C 
ATOM     20  C   UNL A   1      33.989  28.471  26.201  1.00  0.00     0.115 C 
ATOM     21  H   UNL A   1      32.592  28.064  27.813  1.00  0.00     0.164 HD
ATOM     22  C   UNL A   1      33.366  29.015  24.904  1.00  0.00     0.062 C 
BRANCH  19  23
ATOM     23  C   UNL A   1      31.345  28.568  23.480  1.00  0.00    -0.023 A 
ATOM     24  C   UNL A   1      30.076  28.080  23.824  1.00  0.00     0.007 A 
ATOM     25  C   UNL A   1      31.443  29.536  22.466  1.00  0.00     0.007 A 
ATOM     26  C   UNL A   1      28.933  28.523  23.158  1.00  0.00     0.021 A 
ATOM     27  C   UNL A   1      30.297  29.982  21.801  1.00  0.00     0.021 A 
ATOM     28  C   UNL A   1      29.048  29.466  22.144  1.00  0.00     0.041 A 
ATOM     29  Cl  UNL A   1      27.649  29.985  21.283  1.00  0.00    -0.084 Cl
ENDBRANCH  19  23
BRANCH  20  30
ATOM     30  C   UNL A   1      34.680  29.461  27.126  1.00  0.00    -0.025 A 
ATOM     31  C   UNL A   1      35.941  29.122  27.662  1.00  0.00     0.007 A 
ATOM     32  C   UNL A   1      34.152  30.722  27.429  1.00  0.00     0.007 A 
ATOM     33  C   UNL A   1      36.633  29.999  28.498  1.00  0.00     0.021 A 
ATOM     34  C   UNL A   1      34.850  31.608  28.256  1.00  0.00     0.021 A 
ATOM     35  C   UNL A   1      36.083  31.242  28.791  1.00  0.00     0.041 A 
ATOM     36  Cl  UNL A   1      36.935  32.334  29.811  1.00  0.00    -0.084 Cl
ENDBRANCH  20  30
ENDBRANCH  11  13
ENDBRANCH   8   9
ENDBRANCH   7   8
ENDBRANCH   6   7
ENDBRANCH   4   6
ENDBRANCH   3   4
ENDBRANCH   2   3
ENDBRANCH   1   2
BRANCH   1  37
ATOM     37  O   UNL A   1      39.707  20.861  26.953  1.00  0.00    -0.374 OA
BRANCH  37  38
ATOM     38  C   UNL A   1      40.697  19.868  26.691  1.00  0.00     0.202 C 
BRANCH  38  39
ATOM     39  C   UNL A   1      42.117  20.364  26.391  1.00  0.00     0.261 C 
BRANCH  39  40
ATOM     40  O   UNL A   1      42.690  19.770  25.212  1.00  0.00    -0.460 OA
BRANCH  40  41
ATOM     41  C   UNL A   1      43.790  20.407  24.742  1.00  0.00     0.338 C 
ATOM     42  O   UNL A   1      44.515  20.044  23.824  1.00  0.00    -0.246 OA
BRANCH  41  43
ATOM     43  C   UNL A   1      43.949  21.726  25.383  1.00  0.00     0.060 A 
ATOM     44  C   UNL A   1      43.600  22.856  24.630  1.00  0.00     0.016 A 
ATOM     45  C   UNL A   1      44.542  21.867  26.639  1.00  0.00     0.016 A 
ATOM     46  C   UNL A   1      43.895  24.132  25.106  1.00  0.00     0.010 A 
ATOM     47  C   UNL A   1      44.844  23.150  27.111  1.00  0.00     0.010 A 
ATOM     48  C   UNL A   1      44.561  24.286  26.329  1.00  0.00    -0.014 A 
BRANCH  48  49
ATOM     49  C   UNL A   1      45.099  25.614  26.716  1.00  0.00     0.031 A 
ATOM     50  C   UNL A   1      46.482  26.001  26.263  1.00  0.00     0.074 A 
ATOM     51  C   UNL A   1      44.372  26.460  27.469  1.00  0.00     0.049 A 
ATOM     52  N   UNL A   1      47.167  27.082  26.527  1.00  0.00    -0.248 NA
ATOM     53  C   UNL A   1      47.190  25.039  25.399  1.00  0.00     0.031 C 
ATOM     54  C   UNL A   1      43.018  26.209  27.958  1.00  0.00     0.029 A 
ATOM     55  N   UNL A   1      44.689  27.697  27.974  1.00  0.00    -0.354 N 
ATOM     56  C   UNL A   1      48.396  26.918  25.898  1.00  0.00     0.074 A 
ATOM     57  C   UNL A   1      48.365  25.632  25.236  1.00  0.00     0.031 C 
ATOM     58  C   UNL A   1      42.629  27.247  28.720  1.00  0.00     0.029 A 
ATOM     59  C   UNL A   1      43.713  28.225  28.789  1.00  0.00     0.049 A 
ATOM     60  H   UNL A   1      45.532  28.163  27.771  1.00  0.00     0.167 HD
ATOM     61  C   UNL A   1      49.452  27.764  25.865  1.00  0.00     0.034 A 
ATOM     62  C   UNL A   1      43.707  29.357  29.520  1.00  0.00     0.034 A 
ATOM     63  C   UNL A   1      49.469  29.059  26.488  1.00  0.00     0.049 A 
ATOM     64  C   UNL A   1      44.902  30.276  29.470  1.00  0.00     0.074 A 
ATOM     65  C   UNL A   1      50.472  30.013  26.459  1.00  0.00     0.029 A 
ATOM     66  N   UNL A   1      48.441  29.581  27.255  1.00  0.00    -0.354 N 
ATOM     67  N   UNL A   1      46.004  30.160  28.769  1.00  0.00    -0.248 NA
ATOM     68  C   UNL A   1      44.839  31.498  30.286  1.00  0.00     0.031 C 
ATOM     69  C   UNL A   1      50.057  31.105  27.227  1.00  0.00     0.029 A 
ATOM     70  C   UNL A   1      48.788  30.839  27.715  1.00  0.00     0.049 A 
ATOM     71  H   UNL A   1      47.589  29.125  27.445  1.00  0.00     0.167 HD
ATOM     72  C   UNL A   1      46.741  31.313  29.023  1.00  0.00     0.074 A 
ATOM     73  C   UNL A   1      45.957  32.120  29.933  1.00  0.00     0.031 C 
ATOM     74  C   UNL A   1      47.964  31.665  28.557  1.00  0.00     0.034 A 
BRANCH  61  75
ATOM     75  C   UNL A   1      50.677  27.339  25.103  1.00  0.00     0.023 A 
ATOM     76  C   UNL A   1      50.964  27.931  23.858  1.00  0.00     0.012 A 
ATOM     77  C   UNL A   1      51.589  26.422  25.663  1.00  0.00     0.148 A 
ATOM     78  C   UNL A   1      52.134  27.606  23.172  1.00  0.00     0.002 A 
ATOM     79  C   UNL A   1      52.771  26.132  24.992  1.00  0.00     0.091 A 
ATOM     80  F   UNL A   1      51.285  25.856  26.839  1.00  0.00    -0.205 F 
ATOM     81  C   UNL A   1      53.041  26.717  23.743  1.00  0.00     0.022 A 
BRANCH  79  82
ATOM     82  S   UNL A   1      54.036  25.058  25.678  1.00  0.00     0.127 S 
ATOM     83  O   UNL A   1      53.441  23.738  25.482  1.00  0.00    -0.237 OA
ATOM     84  O   UNL A   1      55.184  25.344  24.816  1.00  0.00    -0.237 OA
ATOM     85  O   UNL A   1      54.201  25.467  27.066  1.00  0.00    -0.744 OA
ENDBRANCH  79  82
ENDBRANCH  61  75
BRANCH  62  86
ATOM     86  C   UNL A   1      42.514  29.719  30.335  1.00  0.00     0.023 A 
ATOM     87  C   UNL A   1      41.498  30.507  29.758  1.00  0.00     0.012 A 
ATOM     88  C   UNL A   1      42.380  29.306  31.674  1.00  0.00     0.148 A 
ATOM     89  C   UNL A   1      40.393  30.906  30.510  1.00  0.00     0.002 A 
ATOM     90  C   UNL A   1      41.253  29.668  32.404  1.00  0.00     0.091 A 
ATOM     91  F   UNL A   1      43.359  28.572  32.224  1.00  0.00    -0.205 F 
ATOM     92  C   UNL A   1      40.264  30.481  31.831  1.00  0.00     0.022 A 
BRANCH  90  93
ATOM     93  S   UNL A   1      40.998  29.039  34.066  1.00  0.00     0.127 S 
ATOM     94  O   UNL A   1      39.699  29.600  34.419  1.00  0.00    -0.237 OA
ATOM     95  O   UNL A   1      41.008  27.589  33.870  1.00  0.00    -0.237 OA
ATOM     96  O   UNL A   1      42.144  29.528  34.826  1.00  0.00    -0.744 OA
ENDBRANCH  90  93
ENDBRANCH  62  86
BRANCH  74  97
ATOM     97  C   UNL A   1      48.521  33.002  28.969  1.00  0.00     0.023 A 
ATOM     98  C   UNL A   1      49.361  33.095  30.096  1.00  0.00     0.012 A 
ATOM     99  C   UNL A   1      48.293  34.146  28.178  1.00  0.00     0.148 A 
ATOM    100  C   UNL A   1      49.948  34.312  30.442  1.00  0.00     0.002 A 
ATOM    101  C   UNL A   1      48.918  35.345  28.504  1.00  0.00     0.091 A 
ATOM    102  F   UNL A   1      47.476  34.040  27.120  1.00  0.00    -0.205 F 
ATOM    103  C   UNL A   1      49.737  35.432  29.640  1.00  0.00     0.022 A 
BRANCH 101 104
ATOM    104  S   UNL A   1      48.781  36.810  27.472  1.00  0.00     0.127 S 
ATOM    105  O   UNL A   1      47.353  37.109  27.569  1.00  0.00    -0.237 OA
ATOM    106  O   UNL A   1      49.650  37.761  28.165  1.00  0.00    -0.237 OA
ATOM    107  O   UNL A   1      49.251  36.415  26.152  1.00  0.00    -0.744 OA
ENDBRANCH 101 104
ENDBRANCH  74  97
ENDBRANCH  48  49
ENDBRANCH  41  43
ENDBRANCH  40  41
ENDBRANCH  39  40
ENDBRANCH  38  39
ENDBRANCH  37  38
ENDBRANCH   1  37
TORSDOF 23
ENDMDL
MODEL 3
REMARK VINA RESULT:      -9.5      6.259     12.699
REMARK SMILES O=C(CCCC(=O)OCCOCCOC(=O)c1ccc(-c2c3nc(c(-c4cccc(S(=O)(=O)[O-])c4F)c4ccc([nH]4)c(-c4cccc(S(=O)(=O)[O-])c4F)c4nc(c(-c5cccc(S(=O)(=O)[O-])c5F)c5ccc2[nH]5)C=C4)C=C3)cc1)Nc1nc2n(n1)[C@@H](c1ccc(Cl)cc1)C[C@@H](c1ccc(Cl)cc1)N2
REMARK SMILES IDX 10 1 9 2 8 3 6 4 7 5 5 6 4 7 3 8 2 9 1 10 80 11 81 13 82 14
REMARK SMILES IDX 85 15 83 16 84 17 103 18 86 19 95 20 94 22 87 23 88 24 93 25
REMARK SMILES IDX 89 26 92 27 90 28 91 29 96 30 97 31 102 32 98 33 101 34
REMARK SMILES IDX 99 35 100 36 11 37 12 38 13 39 14 40 15 41 16 42 17 43 18 44
REMARK SMILES IDX 79 45 19 46 78 47 20 48 21 49 22 50 72 51 23 52 77 53 71 54
REMARK SMILES IDX 73 55 24 56 76 57 70 58 69 59 25 61 57 62 37 63 56 64 38 65
REMARK SMILES IDX 41 66 55 67 74 68 39 69 40 70 54 72 75 73 42 74 26 75 27 76
REMARK SMILES IDX 35 77 28 78 30 79 36 80 29 81 31 82 32 83 33 84 34 85 58 86
REMARK SMILES IDX 59 87 67 88 60 89 62 90 68 91 61 92 63 93 64 94 65 95 66 96
REMARK SMILES IDX 43 97 44 98 52 99 45 100 47 101 53 102 46 103 48 104 49 105
REMARK SMILES IDX 50 106 51 107
REMARK H PARENT 80 12 103 21 73 60 41 71
REMARK Flexibility Score: inf
ROOT
ATOM      1  C   UNL A   1      36.051  33.985  34.895  1.00  0.00     0.202 C 
ENDROOT
BRANCH   1   2
ATOM      2  C   UNL A   1      36.712  33.575  36.215  1.00  0.00     0.261 C 
BRANCH   2   3
ATOM      3  O   UNL A   1      37.963  32.903  35.982  1.00  0.00    -0.463 OA
BRANCH   3   4
ATOM      4  C   UNL A   1      38.042  31.615  36.399  1.00  0.00     0.305 C 
ATOM      5  O   UNL A   1      37.836  31.234  37.545  1.00  0.00    -0.252 OA
BRANCH   4   6
ATOM      6  C   UNL A   1      38.406  30.654  35.286  1.00  0.00     0.123 C 
BRANCH   6   7
ATOM      7  C   UNL A   1      39.870  30.590  34.823  1.00  0.00     0.022 C 
BRANCH   7   8
ATOM      8  C   UNL A   1      40.126  29.835  33.519  1.00  0.00     0.101 C 
BRANCH   8   9
ATOM      9  C   UNL A   1      41.568  29.409  33.479  1.00  0.00     0.226 C 
ATOM     10  O   UNL A   1      42.451  30.257  33.371  1.00  0.00    -0.275 OA
ATOM     11  N   UNL A   1      41.721  28.044  33.515  1.00  0.00    -0.293 N 
ATOM     12  H   UNL A   1      40.933  27.475  33.674  1.00  0.00     0.173 HD
BRANCH  11  13
ATOM     13  C   UNL A   1      42.938  27.459  33.336  1.00  0.00     0.250 A 
ATOM     14  N   UNL A   1      43.736  27.086  34.373  1.00  0.00    -0.176 NA
ATOM     15  N   UNL A   1      43.356  27.088  32.125  1.00  0.00    -0.130 NA
ATOM     16  C   UNL A   1      44.492  26.180  33.821  1.00  0.00     0.224 A 
ATOM     17  N   UNL A   1      44.285  26.163  32.465  1.00  0.00    -0.222 N 
ATOM     18  N   UNL A   1      45.091  25.145  34.432  1.00  0.00    -0.347 N 
ATOM     19  C   UNL A   1      44.575  24.994  31.636  1.00  0.00     0.144 C 
ATOM     20  C   UNL A   1      44.609  23.848  33.948  1.00  0.00     0.115 C 
ATOM     21  H   UNL A   1      45.779  25.245  35.129  1.00  0.00     0.164 HD
ATOM     22  C   UNL A   1      45.001  23.743  32.464  1.00  0.00     0.062 C 
BRANCH  19  23
ATOM     23  C   UNL A   1      45.644  25.294  30.596  1.00  0.00    -0.023 A 
ATOM     24  C   UNL A   1      45.505  24.759  29.307  1.00  0.00     0.007 A 
ATOM     25  C   UNL A   1      46.830  25.976  30.918  1.00  0.00     0.007 A 
ATOM     26  C   UNL A   1      46.530  24.874  28.368  1.00  0.00     0.021 A 
ATOM     27  C   UNL A   1      47.856  26.094  29.976  1.00  0.00     0.021 A 
ATOM     28  C   UNL A   1      47.705  25.534  28.709  1.00  0.00     0.041 A 
ATOM     29  Cl  UNL A   1      48.996  25.641  27.573  1.00  0.00    -0.084 Cl
ENDBRANCH  19  23
BRANCH  20  30
ATOM     30  C   UNL A   1      45.081  22.748  34.887  1.00  0.00    -0.025 A 
ATOM     31  C   UNL A   1      45.441  21.498  34.340  1.00  0.00     0.007 A 
ATOM     32  C   UNL A   1      45.233  22.933  36.267  1.00  0.00     0.007 A 
ATOM     33  C   UNL A   1      45.903  20.459  35.149  1.00  0.00     0.021 A 
ATOM     34  C   UNL A   1      45.709  21.898  37.078  1.00  0.00     0.021 A 
ATOM     35  C   UNL A   1      46.035  20.664  36.517  1.00  0.00     0.041 A 
ATOM     36  Cl  UNL A   1      46.615  19.393  37.520  1.00  0.00    -0.084 Cl
ENDBRANCH  20  30
ENDBRANCH  11  13
ENDBRANCH   8   9
ENDBRANCH   7   8
ENDBRANCH   6   7
ENDBRANCH   4   6
ENDBRANCH   3   4
ENDBRANCH   2   3
ENDBRANCH   1   2
BRANCH   1  37
ATOM     37  O   UNL A   1      35.208  35.137  34.940  1.00  0.00    -0.374 OA
BRANCH  37  38
ATOM     38  C   UNL A   1      34.399  35.406  33.796  1.00  0.00     0.202 C 
BRANCH  38  39
ATOM     39  C   UNL A   1      35.122  35.532  32.448  1.00  0.00     0.261 C 
BRANCH  39  40
ATOM     40  O   UNL A   1      34.499  34.773  31.396  1.00  0.00    -0.460 OA
BRANCH  40  41
ATOM     41  C   UNL A   1      34.533  33.431  31.579  1.00  0.00     0.338 C 
ATOM     42  O   UNL A   1      33.606  32.712  31.930  1.00  0.00    -0.246 OA
BRANCH  41  43
ATOM     43  C   UNL A   1      35.828  32.873  31.147  1.00  0.00     0.060 A 
ATOM     44  C   UNL A   1      36.433  31.924  31.983  1.00  0.00     0.016 A 
ATOM     45  C   UNL A   1      36.497  33.353  30.019  1.00  0.00     0.016 A 
ATOM     46  C   UNL A   1      37.735  31.495  31.727  1.00  0.00     0.010 A 
ATOM     47  C   UNL A   1      37.806  32.925  29.769  1.00  0.00     0.010 A 
ATOM     48  C   UNL A   1      38.446  32.027  30.644  1.00  0.00    -0.014 A 
BRANCH  48  49
ATOM     49  C   UNL A   1      39.901  31.767  30.516  1.00  0.00     0.031 A 
ATOM     50  C   UNL A   1      40.873  32.724  31.158  1.00  0.00     0.074 A 
ATOM     51  C   UNL A   1      40.356  30.702  29.831  1.00  0.00     0.049 A 
ATOM     52  N   UNL A   1      42.179  32.721  31.129  1.00  0.00    -0.248 NA
ATOM     53  C   UNL A   1      40.293  33.835  31.933  1.00  0.00     0.031 C 
ATOM     54  C   UNL A   1      39.519  29.696  29.178  1.00  0.00     0.029 A 
ATOM     55  N   UNL A   1      41.640  30.305  29.552  1.00  0.00    -0.354 N 
ATOM     56  C   UNL A   1      42.579  33.843  31.845  1.00  0.00     0.074 A 
ATOM     57  C   UNL A   1      41.377  34.507  32.299  1.00  0.00     0.031 C 
ATOM     58  C   UNL A   1      40.312  28.813  28.546  1.00  0.00     0.029 A 
ATOM     59  C   UNL A   1      41.709  29.201  28.733  1.00  0.00     0.049 A 
ATOM     60  H   UNL A   1      42.435  30.764  29.905  1.00  0.00     0.167 HD
ATOM     61  C   UNL A   1      43.833  34.278  32.110  1.00  0.00     0.034 A 
ATOM     62  C   UNL A   1      42.777  28.589  28.183  1.00  0.00     0.034 A 
ATOM     63  C   UNL A   1      45.029  33.598  31.693  1.00  0.00     0.049 A 
ATOM     64  C   UNL A   1      44.161  29.102  28.490  1.00  0.00     0.074 A 
ATOM     65  C   UNL A   1      46.345  33.931  31.965  1.00  0.00     0.029 A 
ATOM     66  N   UNL A   1      45.057  32.453  30.915  1.00  0.00    -0.354 N 
ATOM     67  N   UNL A   1      44.522  30.092  29.271  1.00  0.00    -0.248 NA
ATOM     68  C   UNL A   1      45.289  28.393  27.865  1.00  0.00     0.031 C 
ATOM     69  C   UNL A   1      47.170  32.996  31.333  1.00  0.00     0.029 A 
ATOM     70  C   UNL A   1      46.367  32.070  30.687  1.00  0.00     0.049 A 
ATOM     71  H   UNL A   1      44.263  31.980  30.575  1.00  0.00     0.167 HD
ATOM     72  C   UNL A   1      45.914  30.093  29.268  1.00  0.00     0.074 A 
ATOM     73  C   UNL A   1      46.332  29.001  28.416  1.00  0.00     0.031 C 
ATOM     74  C   UNL A   1      46.768  30.934  29.901  1.00  0.00     0.034 A 
BRANCH  61  75
ATOM     75  C   UNL A   1      43.991  35.538  32.917  1.00  0.00     0.023 A 
ATOM     76  C   UNL A   1      44.269  35.452  34.295  1.00  0.00     0.012 A 
ATOM     77  C   UNL A   1      43.954  36.801  32.293  1.00  0.00     0.148 A 
ATOM     78  C   UNL A   1      44.492  36.607  35.045  1.00  0.00     0.002 A 
ATOM     79  C   UNL A   1      44.217  37.943  33.038  1.00  0.00     0.091 A 
ATOM     80  F   UNL A   1      43.668  36.858  30.984  1.00  0.00    -0.205 F 
ATOM     81  C   UNL A   1      44.479  37.849  34.415  1.00  0.00     0.022 A 
BRANCH  79  82
ATOM     82  S   UNL A   1      44.295  39.581  32.306  1.00  0.00     0.127 S 
ATOM     83  O   UNL A   1      43.096  40.209  32.858  1.00  0.00    -0.237 OA
ATOM     84  O   UNL A   1      45.555  40.098  32.841  1.00  0.00    -0.237 OA
ATOM     85  O   UNL A   1      44.285  39.378  30.864  1.00  0.00    -0.744 OA
ENDBRANCH  79  82
ENDBRANCH  61  75
BRANCH  62  86
ATOM     86  C   UNL A   1      42.593  27.391  27.318  1.00  0.00     0.023 A 
ATOM     87  C   UNL A   1      42.587  27.544  25.918  1.00  0.00     0.012 A 
ATOM     88  C   UNL A   1      42.411  26.106  27.864  1.00  0.00     0.148 A 
ATOM     89  C   UNL A   1      42.366  26.450  25.082  1.00  0.00     0.002 A 
ATOM     90  C   UNL A   1      42.239  25.011  27.024  1.00  0.00     0.091 A 
ATOM     91  F   UNL A   1      42.398  25.967  29.199  1.00  0.00    -0.205 F 
ATOM     92  C   UNL A   1      42.199  25.181  25.633  1.00  0.00     0.022 A 
BRANCH  90  93
ATOM     93  S   UNL A   1      42.142  23.349  27.695  1.00  0.00     0.127 S 
ATOM     94  O   UNL A   1      42.288  23.578  29.127  1.00  0.00    -0.237 OA
ATOM     95  O   UNL A   1      40.811  22.906  27.277  1.00  0.00    -0.237 OA
ATOM     96  O   UNL A   1      43.225  22.622  27.041  1.00  0.00    -0.744 OA
ENDBRANCH  90  93
ENDBRANCH  62  86
BRANCH  74  97
ATOM     97  C   UNL A   1      48.246  30.685  29.752  1.00  0.00     0.023 A 
ATOM     98  C   UNL A   1      48.880  29.721  30.558  1.00  0.00     0.012 A 
ATOM     99  C   UNL A   1      48.982  31.338  28.743  1.00  0.00     0.148 A 
ATOM    100  C   UNL A   1      50.230  29.424  30.378  1.00  0.00     0.002 A 
ATOM    101  C   UNL A   1      50.316  31.004  28.539  1.00  0.00     0.091 A 
ATOM    102  F   UNL A   1      48.364  32.266  27.999  1.00  0.00    -0.205 F 
ATOM    103  C   UNL A   1      50.944  30.055  29.361  1.00  0.00     0.022 A 
BRANCH 101 104
ATOM    104  S   UNL A   1      51.283  31.695  27.190  1.00  0.00     0.127 S 
ATOM    105  O   UNL A   1      51.340  33.108  27.560  1.00  0.00    -0.237 OA
ATOM    106  O   UNL A   1      52.553  30.980  27.320  1.00  0.00    -0.237 OA
ATOM    107  O   UNL A   1      50.544  31.394  25.973  1.00  0.00    -0.744 OA
ENDBRANCH 101 104
ENDBRANCH  74  97
ENDBRANCH  48  49
ENDBRANCH  41  43
ENDBRANCH  40  41
ENDBRANCH  39  40
ENDBRANCH  38  39
ENDBRANCH  37  38
ENDBRANCH   1  37
TORSDOF 23
ENDMDL
