MODEL 1
REMARK VINA RESULT:     -10.5      0.000      0.000
REMARK SMILES CC(C)Cc1ccc([C@H](CF)C(=O)OCCOCCOC(=O)c2ccc(-c3c4nc(c(-c5cccc(S(=O)(=O)[O-])c5F)c5ccc([nH]5)c(-c5cccc(S(=O)(=O)[O-])c5F)c5nc(c(-c6cccc(S(=O)(=O)[O-])c6F)c6ccc3[nH]6)C=C5)C=C4)cc2)cc1
REMARK SMILES IDX 17 1 16 2 15 3 14 4 12 5 13 6 9 7 8 8 5 9 6 10 87 11 7 12
REMARK SMILES IDX 86 13 4 14 2 15 1 16 3 17 10 18 11 19 18 20 19 21 20 22
REMARK SMILES IDX 21 23 22 24 23 25 24 26 85 27 25 28 84 29 26 30 27 31 28 32
REMARK SMILES IDX 78 33 29 34 83 35 77 36 79 37 30 38 82 39 76 40 75 41 31 43
REMARK SMILES IDX 63 44 43 45 62 46 44 47 47 48 61 49 80 50 45 51 46 52 60 54
REMARK SMILES IDX 81 55 48 56 32 57 33 58 41 59 34 60 36 61 42 62 35 63 37 64
REMARK SMILES IDX 38 65 39 66 40 67 64 68 65 69 73 70 66 71 68 72 74 73 67 74
REMARK SMILES IDX 69 75 70 76 71 77 72 78 49 79 50 80 58 81 51 82 53 83 59 84
REMARK SMILES IDX 52 85 54 86 55 87 56 88 57 89
REMARK H PARENT 79 42 47 53
REMARK Flexibility Score: inf
ROOT
ATOM      1  O   UNL A   1      32.792  30.409  26.871  1.00  0.00    -0.374 OA
ENDROOT
BRANCH   1   2
ATOM      2  C   UNL A   1      32.524  29.007  26.852  1.00  0.00     0.202 C 
BRANCH   2   3
ATOM      3  C   UNL A   1      33.565  28.121  26.164  1.00  0.00     0.261 C 
BRANCH   3   4
ATOM      4  O   UNL A   1      33.286  26.724  26.368  1.00  0.00    -0.463 OA
BRANCH   4   5
ATOM      5  C   UNL A   1      32.129  26.253  25.826  1.00  0.00     0.316 C 
ATOM      6  O   UNL A   1      31.194  25.790  26.470  1.00  0.00    -0.251 OA
BRANCH   5   7
ATOM      7  C   UNL A   1      32.118  26.354  24.309  1.00  0.00     0.160 C 
BRANCH   7   8
ATOM      8  C   UNL A   1      31.086  27.351  23.829  1.00  0.00    -0.031 A 
ATOM      9  C   UNL A   1      29.136  29.000  22.671  1.00  0.00    -0.048 A 
ATOM     10  C   UNL A   1      30.483  29.375  22.640  1.00  0.00     0.004 A 
ATOM     11  C   UNL A   1      28.759  27.855  23.379  1.00  0.00     0.004 A 
ATOM     12  C   UNL A   1      31.452  28.563  23.227  1.00  0.00     0.005 A 
ATOM     13  C   UNL A   1      29.727  27.032  23.945  1.00  0.00     0.005 A 
BRANCH   9  14
ATOM     14  C   UNL A   1      28.118  29.753  21.852  1.00  0.00     0.038 C 
BRANCH  14  15
ATOM     15  C   UNL A   1      28.420  31.269  21.817  1.00  0.00    -0.013 C 
ATOM     16  C   UNL A   1      27.952  31.938  20.518  1.00  0.00     0.008 C 
ATOM     17  C   UNL A   1      27.762  31.959  23.010  1.00  0.00     0.008 C 
ENDBRANCH  14  15
ENDBRANCH   9  14
ENDBRANCH   7   8
BRANCH   7  18
ATOM     18  C   UNL A   1      32.018  25.007  23.612  1.00  0.00     0.234 C 
ATOM     19  F   UNL A   1      31.623  25.192  22.319  1.00  0.00    -0.250 F 
ENDBRANCH   7  18
ENDBRANCH   5   7
ENDBRANCH   4   5
ENDBRANCH   3   4
ENDBRANCH   2   3
ENDBRANCH   1   2
BRANCH   1  20
ATOM     20  C   UNL A   1      31.698  31.302  26.682  1.00  0.00     0.202 C 
BRANCH  20  21
ATOM     21  C   UNL A   1      31.974  32.797  26.882  1.00  0.00     0.261 C 
BRANCH  21  22
ATOM     22  O   UNL A   1      32.483  33.106  28.192  1.00  0.00    -0.460 OA
BRANCH  22  23
ATOM     23  C   UNL A   1      33.595  33.883  28.189  1.00  0.00     0.338 C 
ATOM     24  O   UNL A   1      33.634  35.106  28.142  1.00  0.00    -0.246 OA
BRANCH  23  25
ATOM     25  C   UNL A   1      34.809  33.078  28.417  1.00  0.00     0.060 A 
ATOM     26  C   UNL A   1      34.647  31.844  29.061  1.00  0.00     0.016 A 
ATOM     27  C   UNL A   1      36.085  33.568  28.132  1.00  0.00     0.016 A 
ATOM     28  C   UNL A   1      35.764  31.123  29.478  1.00  0.00     0.010 A 
ATOM     29  C   UNL A   1      37.206  32.842  28.558  1.00  0.00     0.010 A 
ATOM     30  C   UNL A   1      37.049  31.639  29.271  1.00  0.00    -0.014 A 
BRANCH  30  31
ATOM     31  C   UNL A   1      38.206  30.986  29.932  1.00  0.00     0.031 A 
ATOM     32  C   UNL A   1      38.570  31.381  31.339  1.00  0.00     0.074 A 
ATOM     33  C   UNL A   1      38.908  30.028  29.299  1.00  0.00     0.049 A 
ATOM     34  N   UNL A   1      39.518  30.914  32.110  1.00  0.00    -0.248 NA
ATOM     35  C   UNL A   1      37.757  32.439  31.961  1.00  0.00     0.031 C 
ATOM     36  C   UNL A   1      38.655  29.558  27.938  1.00  0.00     0.029 A 
ATOM     37  N   UNL A   1      39.987  29.290  29.717  1.00  0.00    -0.354 N 
ATOM     38  C   UNL A   1      39.431  31.633  33.296  1.00  0.00     0.074 A 
ATOM     39  C   UNL A   1      38.347  32.578  33.140  1.00  0.00     0.031 C 
ATOM     40  C   UNL A   1      39.571  28.625  27.624  1.00  0.00     0.029 A 
ATOM     41  C   UNL A   1      40.480  28.442  28.754  1.00  0.00     0.049 A 
ATOM     42  H   UNL A   1      40.372  29.362  30.620  1.00  0.00     0.167 HD
ATOM     43  C   UNL A   1      40.171  31.504  34.423  1.00  0.00     0.034 A 
ATOM     44  C   UNL A   1      41.548  27.620  28.778  1.00  0.00     0.034 A 
ATOM     45  C   UNL A   1      41.232  30.549  34.592  1.00  0.00     0.049 A 
ATOM     46  C   UNL A   1      42.362  27.505  30.042  1.00  0.00     0.074 A 
ATOM     47  C   UNL A   1      42.008  30.313  35.712  1.00  0.00     0.029 A 
ATOM     48  N   UNL A   1      41.672  29.674  33.610  1.00  0.00    -0.354 N 
ATOM     49  N   UNL A   1      42.182  28.098  31.197  1.00  0.00    -0.248 NA
ATOM     50  C   UNL A   1      43.503  26.577  30.017  1.00  0.00     0.031 C 
ATOM     51  C   UNL A   1      42.931  29.307  35.403  1.00  0.00     0.029 A 
ATOM     52  C   UNL A   1      42.714  28.903  34.095  1.00  0.00     0.049 A 
ATOM     53  H   UNL A   1      41.298  29.611  32.702  1.00  0.00     0.167 HD
ATOM     54  C   UNL A   1      43.161  27.588  32.045  1.00  0.00     0.074 A 
ATOM     55  C   UNL A   1      43.919  26.623  31.275  1.00  0.00     0.031 C 
ATOM     56  C   UNL A   1      43.420  27.901  33.339  1.00  0.00     0.034 A 
BRANCH  43  57
ATOM     57  C   UNL A   1      39.831  32.396  35.588  1.00  0.00     0.023 A 
ATOM     58  C   UNL A   1      40.401  33.683  35.665  1.00  0.00     0.012 A 
ATOM     59  C   UNL A   1      38.903  31.991  36.567  1.00  0.00     0.148 A 
ATOM     60  C   UNL A   1      40.073  34.544  36.710  1.00  0.00     0.002 A 
ATOM     61  C   UNL A   1      38.552  32.870  37.586  1.00  0.00     0.091 A 
ATOM     62  F   UNL A   1      38.390  30.755  36.490  1.00  0.00    -0.205 F 
ATOM     63  C   UNL A   1      39.142  34.142  37.665  1.00  0.00     0.022 A 
BRANCH  61  64
ATOM     64  S   UNL A   1      37.309  32.470  38.821  1.00  0.00     0.127 S 
ATOM     65  O   UNL A   1      36.075  32.827  38.124  1.00  0.00    -0.237 OA
ATOM     66  O   UNL A   1      37.510  31.032  39.006  1.00  0.00    -0.237 OA
ATOM     67  O   UNL A   1      37.629  33.280  39.987  1.00  0.00    -0.744 OA
ENDBRANCH  61  64
ENDBRANCH  43  57
BRANCH  44  68
ATOM     68  C   UNL A   1      41.884  26.801  27.580  1.00  0.00     0.023 A 
ATOM     69  C   UNL A   1      42.480  27.415  26.462  1.00  0.00     0.012 A 
ATOM     70  C   UNL A   1      41.631  25.415  27.548  1.00  0.00     0.148 A 
ATOM     71  C   UNL A   1      42.792  26.673  25.323  1.00  0.00     0.002 A 
ATOM     72  C   UNL A   1      41.995  24.671  26.432  1.00  0.00     0.091 A 
ATOM     73  F   UNL A   1      41.043  24.852  28.612  1.00  0.00    -0.205 F 
ATOM     74  C   UNL A   1      42.560  25.300  25.312  1.00  0.00     0.022 A 
BRANCH  72  75
ATOM     75  S   UNL A   1      41.854  22.881  26.389  1.00  0.00     0.127 S 
ATOM     76  O   UNL A   1      40.405  22.695  26.372  1.00  0.00    -0.237 OA
ATOM     77  O   UNL A   1      42.533  22.551  25.136  1.00  0.00    -0.237 OA
ATOM     78  O   UNL A   1      42.543  22.408  27.582  1.00  0.00    -0.744 OA
ENDBRANCH  72  75
ENDBRANCH  44  68
BRANCH  56  79
ATOM     79  C   UNL A   1      44.546  27.174  34.026  1.00  0.00     0.023 A 
ATOM     80  C   UNL A   1      45.858  27.676  33.939  1.00  0.00     0.012 A 
ATOM     81  C   UNL A   1      44.291  26.039  34.822  1.00  0.00     0.148 A 
ATOM     82  C   UNL A   1      46.906  27.044  34.608  1.00  0.00     0.002 A 
ATOM     83  C   UNL A   1      45.332  25.440  35.523  1.00  0.00     0.091 A 
ATOM     84  F   UNL A   1      43.039  25.563  34.878  1.00  0.00    -0.205 F 
ATOM     85  C   UNL A   1      46.642  25.935  35.408  1.00  0.00     0.022 A 
BRANCH  83  86
ATOM     86  S   UNL A   1      45.063  24.065  36.648  1.00  0.00     0.127 S 
ATOM     87  O   UNL A   1      44.216  24.676  37.669  1.00  0.00    -0.237 OA
ATOM     88  O   UNL A   1      44.383  23.090  35.793  1.00  0.00    -0.237 OA
ATOM     89  O   UNL A   1      46.387  23.652  37.093  1.00  0.00    -0.744 OA
ENDBRANCH  83  86
ENDBRANCH  56  79
ENDBRANCH  30  31
ENDBRANCH  23  25
ENDBRANCH  22  23
ENDBRANCH  21  22
ENDBRANCH  20  21
ENDBRANCH   1  20
TORSDOF 21
ENDMDL
MODEL 2
REMARK VINA RESULT:     -10.3      5.185      7.861
REMARK SMILES CC(C)Cc1ccc([C@H](CF)C(=O)OCCOCCOC(=O)c2ccc(-c3c4nc(c(-c5cccc(S(=O)(=O)[O-])c5F)c5ccc([nH]5)c(-c5cccc(S(=O)(=O)[O-])c5F)c5nc(c(-c6cccc(S(=O)(=O)[O-])c6F)c6ccc3[nH]6)C=C5)C=C4)cc2)cc1
REMARK SMILES IDX 17 1 16 2 15 3 14 4 12 5 13 6 9 7 8 8 5 9 6 10 87 11 7 12
REMARK SMILES IDX 86 13 4 14 2 15 1 16 3 17 10 18 11 19 18 20 19 21 20 22
REMARK SMILES IDX 21 23 22 24 23 25 24 26 85 27 25 28 84 29 26 30 27 31 28 32
REMARK SMILES IDX 78 33 29 34 83 35 77 36 79 37 30 38 82 39 76 40 75 41 31 43
REMARK SMILES IDX 63 44 43 45 62 46 44 47 47 48 61 49 80 50 45 51 46 52 60 54
REMARK SMILES IDX 81 55 48 56 32 57 33 58 41 59 34 60 36 61 42 62 35 63 37 64
REMARK SMILES IDX 38 65 39 66 40 67 64 68 65 69 73 70 66 71 68 72 74 73 67 74
REMARK SMILES IDX 69 75 70 76 71 77 72 78 49 79 50 80 58 81 51 82 53 83 59 84
REMARK SMILES IDX 52 85 54 86 55 87 56 88 57 89
REMARK H PARENT 79 42 47 53
REMARK Flexibility Score: inf
ROOT
ATOM      1  O   UNL A   1      35.019  22.654  25.326  1.00  0.00    -0.374 OA
ENDROOT
BRANCH   1   2
ATOM      2  C   UNL A   1      33.679  23.127  25.458  1.00  0.00     0.202 C 
BRANCH   2   3
ATOM      3  C   UNL A   1      33.354  24.458  24.775  1.00  0.00     0.261 C 
BRANCH   3   4
ATOM      4  O   UNL A   1      32.341  25.185  25.493  1.00  0.00    -0.463 OA
BRANCH   4   5
ATOM      5  C   UNL A   1      32.674  26.440  25.903  1.00  0.00     0.316 C 
ATOM      6  O   UNL A   1      33.821  26.835  26.081  1.00  0.00    -0.251 OA
BRANCH   5   7
ATOM      7  C   UNL A   1      31.453  27.316  26.133  1.00  0.00     0.160 C 
BRANCH   7   8
ATOM      8  C   UNL A   1      30.922  27.876  24.832  1.00  0.00    -0.031 A 
ATOM      9  C   UNL A   1      29.817  29.168  22.602  1.00  0.00    -0.048 A 
ATOM     10  C   UNL A   1      29.201  28.030  23.132  1.00  0.00     0.004 A 
ATOM     11  C   UNL A   1      31.043  29.590  23.123  1.00  0.00     0.004 A 
ATOM     12  C   UNL A   1      29.757  27.379  24.232  1.00  0.00     0.005 A 
ATOM     13  C   UNL A   1      31.588  28.955  24.235  1.00  0.00     0.005 A 
BRANCH   9  14
ATOM     14  C   UNL A   1      29.109  30.002  21.562  1.00  0.00     0.038 C 
BRANCH  14  15
ATOM     15  C   UNL A   1      28.726  31.395  22.112  1.00  0.00    -0.013 C 
ATOM     16  C   UNL A   1      28.046  32.282  21.060  1.00  0.00     0.008 C 
ATOM     17  C   UNL A   1      27.805  31.244  23.321  1.00  0.00     0.008 C 
ENDBRANCH  14  15
ENDBRANCH   9  14
ENDBRANCH   7   8
BRANCH   7  18
ATOM     18  C   UNL A   1      31.660  28.379  27.201  1.00  0.00     0.234 C 
ATOM     19  F   UNL A   1      31.426  27.839  28.431  1.00  0.00    -0.250 F 
ENDBRANCH   7  18
ENDBRANCH   5   7
ENDBRANCH   4   5
ENDBRANCH   3   4
ENDBRANCH   2   3
ENDBRANCH   1   2
BRANCH   1  20
ATOM     20  C   UNL A   1      35.351  21.407  25.930  1.00  0.00     0.202 C 
BRANCH  20  21
ATOM     21  C   UNL A   1      36.500  20.610  25.301  1.00  0.00     0.261 C 
BRANCH  21  22
ATOM     22  O   UNL A   1      37.639  21.425  24.974  1.00  0.00    -0.460 OA
BRANCH  22  23
ATOM     23  C   UNL A   1      38.757  21.131  25.685  1.00  0.00     0.338 C 
ATOM     24  O   UNL A   1      39.377  20.075  25.671  1.00  0.00    -0.246 OA
BRANCH  23  25
ATOM     25  C   UNL A   1      39.268  22.319  26.392  1.00  0.00     0.060 A 
ATOM     26  C   UNL A   1      38.700  23.555  26.059  1.00  0.00     0.016 A 
ATOM     27  C   UNL A   1      40.361  22.251  27.258  1.00  0.00     0.016 A 
ATOM     28  C   UNL A   1      39.262  24.735  26.543  1.00  0.00     0.010 A 
ATOM     29  C   UNL A   1      40.927  23.440  27.738  1.00  0.00     0.010 A 
ATOM     30  C   UNL A   1      40.407  24.687  27.348  1.00  0.00    -0.014 A 
BRANCH  30  31
ATOM     31  C   UNL A   1      41.132  25.946  27.650  1.00  0.00     0.031 A 
ATOM     32  C   UNL A   1      40.421  27.045  28.395  1.00  0.00     0.074 A 
ATOM     33  C   UNL A   1      42.421  26.099  27.293  1.00  0.00     0.049 A 
ATOM     34  N   UNL A   1      40.876  28.207  28.787  1.00  0.00    -0.248 NA
ATOM     35  C   UNL A   1      39.012  26.803  28.746  1.00  0.00     0.031 C 
ATOM     36  C   UNL A   1      43.218  25.111  26.569  1.00  0.00     0.029 A 
ATOM     37  N   UNL A   1      43.279  27.155  27.480  1.00  0.00    -0.354 N 
ATOM     38  C   UNL A   1      39.809  28.842  29.411  1.00  0.00     0.074 A 
ATOM     39  C   UNL A   1      38.678  27.944  29.333  1.00  0.00     0.031 C 
ATOM     40  C   UNL A   1      44.445  25.616  26.353  1.00  0.00     0.029 A 
ATOM     41  C   UNL A   1      44.515  26.967  26.910  1.00  0.00     0.049 A 
ATOM     42  H   UNL A   1      43.031  27.969  27.976  1.00  0.00     0.167 HD
ATOM     43  C   UNL A   1      39.777  30.054  30.015  1.00  0.00     0.034 A 
ATOM     44  C   UNL A   1      45.577  27.793  26.838  1.00  0.00     0.034 A 
ATOM     45  C   UNL A   1      40.907  30.938  30.118  1.00  0.00     0.049 A 
ATOM     46  C   UNL A   1      45.511  29.141  27.508  1.00  0.00     0.074 A 
ATOM     47  C   UNL A   1      40.983  32.166  30.750  1.00  0.00     0.029 A 
ATOM     48  N   UNL A   1      42.155  30.693  29.568  1.00  0.00    -0.354 N 
ATOM     49  N   UNL A   1      44.535  29.669  28.207  1.00  0.00    -0.248 NA
ATOM     50  C   UNL A   1      46.708  29.991  27.413  1.00  0.00     0.031 C 
ATOM     51  C   UNL A   1      42.275  32.673  30.568  1.00  0.00     0.029 A 
ATOM     52  C   UNL A   1      43.008  31.749  29.839  1.00  0.00     0.049 A 
ATOM     53  H   UNL A   1      42.400  29.886  29.061  1.00  0.00     0.167 HD
ATOM     54  C   UNL A   1      45.012  30.894  28.664  1.00  0.00     0.074 A 
ATOM     55  C   UNL A   1      46.372  31.020  28.181  1.00  0.00     0.031 C 
ATOM     56  C   UNL A   1      44.378  31.835  29.406  1.00  0.00     0.034 A 
BRANCH  43  57
ATOM     57  C   UNL A   1      38.483  30.483  30.654  1.00  0.00     0.023 A 
ATOM     58  C   UNL A   1      38.245  30.178  32.010  1.00  0.00     0.012 A 
ATOM     59  C   UNL A   1      37.535  31.239  29.938  1.00  0.00     0.148 A 
ATOM     60  C   UNL A   1      37.073  30.598  32.637  1.00  0.00     0.002 A 
ATOM     61  C   UNL A   1      36.386  31.687  30.581  1.00  0.00     0.091 A 
ATOM     62  F   UNL A   1      37.768  31.498  28.644  1.00  0.00    -0.205 F 
ATOM     63  C   UNL A   1      36.149  31.360  31.926  1.00  0.00     0.022 A 
BRANCH  61  64
ATOM     64  S   UNL A   1      35.172  32.734  29.770  1.00  0.00     0.127 S 
ATOM     65  O   UNL A   1      36.017  33.786  29.207  1.00  0.00    -0.237 OA
ATOM     66  O   UNL A   1      34.591  31.825  28.782  1.00  0.00    -0.237 OA
ATOM     67  O   UNL A   1      34.251  33.160  30.814  1.00  0.00    -0.744 OA
ENDBRANCH  61  64
ENDBRANCH  43  57
BRANCH  44  68
ATOM     68  C   UNL A   1      46.818  27.349  26.141  1.00  0.00     0.023 A 
ATOM     69  C   UNL A   1      47.005  27.669  24.783  1.00  0.00     0.012 A 
ATOM     70  C   UNL A   1      47.819  26.629  26.821  1.00  0.00     0.148 A 
ATOM     71  C   UNL A   1      48.152  27.255  24.105  1.00  0.00     0.002 A 
ATOM     72  C   UNL A   1      48.984  26.267  26.155  1.00  0.00     0.091 A 
ATOM     73  F   UNL A   1      47.614  26.314  28.107  1.00  0.00    -0.205 F 
ATOM     74  C   UNL A   1      49.146  26.564  24.793  1.00  0.00     0.022 A 
BRANCH  72  75
ATOM     75  S   UNL A   1      50.368  25.493  27.000  1.00  0.00     0.127 S 
ATOM     76  O   UNL A   1      51.291  25.242  25.897  1.00  0.00    -0.237 OA
ATOM     77  O   UNL A   1      50.785  26.546  27.928  1.00  0.00    -0.237 OA
ATOM     78  O   UNL A   1      49.814  24.312  27.650  1.00  0.00    -0.744 OA
ENDBRANCH  72  75
ENDBRANCH  44  68
BRANCH  56  79
ATOM     79  C   UNL A   1      45.150  33.075  29.776  1.00  0.00     0.023 A 
ATOM     80  C   UNL A   1      45.804  33.146  31.021  1.00  0.00     0.012 A 
ATOM     81  C   UNL A   1      45.291  34.136  28.859  1.00  0.00     0.148 A 
ATOM     82  C   UNL A   1      46.563  34.266  31.360  1.00  0.00     0.002 A 
ATOM     83  C   UNL A   1      46.086  35.229  29.186  1.00  0.00     0.091 A 
ATOM     84  F   UNL A   1      44.645  34.061  27.687  1.00  0.00    -0.205 F 
ATOM     85  C   UNL A   1      46.713  35.301  30.440  1.00  0.00     0.022 A 
BRANCH  83  86
ATOM     86  S   UNL A   1      46.408  36.561  28.024  1.00  0.00     0.127 S 
ATOM     87  O   UNL A   1      47.429  35.968  27.164  1.00  0.00    -0.237 OA
ATOM     88  O   UNL A   1      45.103  36.742  27.385  1.00  0.00    -0.237 OA
ATOM     89  O   UNL A   1      46.843  37.694  28.829  1.00  0.00    -0.744 OA
ENDBRANCH  83  86
ENDBRANCH  56  79
ENDBRANCH  30  31
ENDBRANCH  23  25
ENDBRANCH  22  23
ENDBRANCH  21  22
ENDBRANCH  20  21
ENDBRANCH   1  20
TORSDOF 21
ENDMDL
MODEL 3
REMARK VINA RESULT:     -10.2      2.399      8.702
REMARK SMILES CC(C)Cc1ccc([C@H](CF)C(=O)OCCOCCOC(=O)c2ccc(-c3c4nc(c(-c5cccc(S(=O)(=O)[O-])c5F)c5ccc([nH]5)c(-c5cccc(S(=O)(=O)[O-])c5F)c5nc(c(-c6cccc(S(=O)(=O)[O-])c6F)c6ccc3[nH]6)C=C5)C=C4)cc2)cc1
REMARK SMILES IDX 17 1 16 2 15 3 14 4 12 5 13 6 9 7 8 8 5 9 6 10 87 11 7 12
REMARK SMILES IDX 86 13 4 14 2 15 1 16 3 17 10 18 11 19 18 20 19 21 20 22
REMARK SMILES IDX 21 23 22 24 23 25 24 26 85 27 25 28 84 29 26 30 27 31 28 32
REMARK SMILES IDX 78 33 29 34 83 35 77 36 79 37 30 38 82 39 76 40 75 41 31 43
REMARK SMILES IDX 63 44 43 45 62 46 44 47 47 48 61 49 80 50 45 51 46 52 60 54
REMARK SMILES IDX 81 55 48 56 32 57 33 58 41 59 34 60 36 61 42 62 35 63 37 64
REMARK SMILES IDX 38 65 39 66 40 67 64 68 65 69 73 70 66 71 68 72 74 73 67 74
REMARK SMILES IDX 69 75 70 76 71 77 72 78 49 79 50 80 58 81 51 82 53 83 59 84
REMARK SMILES IDX 52 85 54 86 55 87 56 88 57 89
REMARK H PARENT 79 42 47 53
REMARK Flexibility Score: inf
ROOT
ATOM      1  O   UNL A   1      30.779  29.100  24.334  1.00  0.00    -0.374 OA
ENDROOT
BRANCH   1   2
ATOM      2  C   UNL A   1      30.961  27.816  23.739  1.00  0.00     0.202 C 
BRANCH   2   3
ATOM      3  C   UNL A   1      31.052  26.625  24.698  1.00  0.00     0.261 C 
BRANCH   3   4
ATOM      4  O   UNL A   1      32.264  25.877  24.494  1.00  0.00    -0.463 OA
BRANCH   4   5
ATOM      5  C   UNL A   1      32.229  24.561  24.846  1.00  0.00     0.316 C 
ATOM      6  O   UNL A   1      32.033  24.148  25.983  1.00  0.00    -0.251 OA
BRANCH   5   7
ATOM      7  C   UNL A   1      32.471  23.640  23.662  1.00  0.00     0.160 C 
BRANCH   7   8
ATOM      8  C   UNL A   1      33.018  22.301  24.106  1.00  0.00    -0.031 A 
ATOM      9  C   UNL A   1      34.190  19.809  24.636  1.00  0.00    -0.048 A 
ATOM     10  C   UNL A   1      32.836  19.891  24.295  1.00  0.00     0.004 A 
ATOM     11  C   UNL A   1      34.924  20.985  24.817  1.00  0.00     0.004 A 
ATOM     12  C   UNL A   1      32.249  21.131  24.045  1.00  0.00     0.005 A 
ATOM     13  C   UNL A   1      34.345  22.221  24.546  1.00  0.00     0.005 A 
BRANCH   9  14
ATOM     14  C   UNL A   1      34.882  18.470  24.689  1.00  0.00     0.038 C 
BRANCH  14  15
ATOM     15  C   UNL A   1      33.920  17.315  24.325  1.00  0.00    -0.013 C 
ATOM     16  C   UNL A   1      34.105  16.820  22.884  1.00  0.00     0.008 C 
ATOM     17  C   UNL A   1      34.114  16.150  25.292  1.00  0.00     0.008 C 
ENDBRANCH  14  15
ENDBRANCH   9  14
ENDBRANCH   7   8
BRANCH   7  18
ATOM     18  C   UNL A   1      33.290  24.280  22.551  1.00  0.00     0.234 C 
ATOM     19  F   UNL A   1      34.517  24.629  23.034  1.00  0.00    -0.250 F 
ENDBRANCH   7  18
ENDBRANCH   5   7
ENDBRANCH   4   5
ENDBRANCH   3   4
ENDBRANCH   2   3
ENDBRANCH   1   2
BRANCH   1  20
ATOM     20  C   UNL A   1      31.875  29.670  25.045  1.00  0.00     0.202 C 
BRANCH  20  21
ATOM     21  C   UNL A   1      31.549  30.756  26.078  1.00  0.00     0.261 C 
BRANCH  21  22
ATOM     22  O   UNL A   1      32.395  30.699  27.240  1.00  0.00    -0.460 OA
BRANCH  22  23
ATOM     23  C   UNL A   1      33.172  31.797  27.417  1.00  0.00     0.338 C 
ATOM     24  O   UNL A   1      32.801  32.965  27.416  1.00  0.00    -0.246 OA
BRANCH  23  25
ATOM     25  C   UNL A   1      34.549  31.423  27.787  1.00  0.00     0.060 A 
ATOM     26  C   UNL A   1      34.793  30.072  28.061  1.00  0.00     0.016 A 
ATOM     27  C   UNL A   1      35.545  32.380  27.991  1.00  0.00     0.016 A 
ATOM     28  C   UNL A   1      36.016  29.678  28.599  1.00  0.00     0.010 A 
ATOM     29  C   UNL A   1      36.773  31.982  28.537  1.00  0.00     0.010 A 
ATOM     30  C   UNL A   1      36.997  30.637  28.884  1.00  0.00    -0.014 A 
BRANCH  30  31
ATOM     31  C   UNL A   1      38.187  30.240  29.677  1.00  0.00     0.031 A 
ATOM     32  C   UNL A   1      39.170  29.262  29.091  1.00  0.00     0.074 A 
ATOM     33  C   UNL A   1      38.409  30.769  30.895  1.00  0.00     0.049 A 
ATOM     34  N   UNL A   1      40.288  28.808  29.597  1.00  0.00    -0.248 NA
ATOM     35  C   UNL A   1      38.855  28.726  27.756  1.00  0.00     0.031 C 
ATOM     36  C   UNL A   1      37.533  31.724  31.571  1.00  0.00     0.029 A 
ATOM     37  N   UNL A   1      39.434  30.562  31.784  1.00  0.00    -0.354 N 
ATOM     38  C   UNL A   1      40.798  27.920  28.658  1.00  0.00     0.074 A 
ATOM     39  C   UNL A   1      39.861  27.886  27.556  1.00  0.00     0.031 C 
ATOM     40  C   UNL A   1      38.048  32.005  32.781  1.00  0.00     0.029 A 
ATOM     41  C   UNL A   1      39.280  31.240  32.970  1.00  0.00     0.049 A 
ATOM     42  H   UNL A   1      40.207  29.983  31.590  1.00  0.00     0.167 HD
ATOM     43  C   UNL A   1      41.952  27.212  28.697  1.00  0.00     0.034 A 
ATOM     44  C   UNL A   1      40.039  31.235  34.083  1.00  0.00     0.034 A 
ATOM     45  C   UNL A   1      42.898  27.263  29.779  1.00  0.00     0.049 A 
ATOM     46  C   UNL A   1      41.313  30.429  34.104  1.00  0.00     0.074 A 
ATOM     47  C   UNL A   1      44.116  26.617  29.888  1.00  0.00     0.029 A 
ATOM     48  N   UNL A   1      42.729  27.997  30.943  1.00  0.00    -0.354 N 
ATOM     49  N   UNL A   1      41.844  29.698  33.154  1.00  0.00    -0.248 NA
ATOM     50  C   UNL A   1      42.112  30.479  35.338  1.00  0.00     0.031 C 
ATOM     51  C   UNL A   1      44.677  26.946  31.127  1.00  0.00     0.029 A 
ATOM     52  C   UNL A   1      43.815  27.814  31.780  1.00  0.00     0.049 A 
ATOM     53  H   UNL A   1      41.950  28.564  31.144  1.00  0.00     0.167 HD
ATOM     54  C   UNL A   1      43.054  29.233  33.660  1.00  0.00     0.074 A 
ATOM     55  C   UNL A   1      43.186  29.781  34.995  1.00  0.00     0.031 C 
ATOM     56  C   UNL A   1      43.966  28.414  33.080  1.00  0.00     0.034 A 
BRANCH  43  57
ATOM     57  C   UNL A   1      42.282  26.346  27.510  1.00  0.00     0.023 A 
ATOM     58  C   UNL A   1      42.996  26.898  26.427  1.00  0.00     0.012 A 
ATOM     59  C   UNL A   1      41.946  24.979  27.492  1.00  0.00     0.148 A 
ATOM     60  C   UNL A   1      43.349  26.109  25.333  1.00  0.00     0.002 A 
ATOM     61  C   UNL A   1      42.334  24.190  26.415  1.00  0.00     0.091 A 
ATOM     62  F   UNL A   1      41.245  24.479  28.520  1.00  0.00    -0.205 F 
ATOM     63  C   UNL A   1      43.027  24.754  25.332  1.00  0.00     0.022 A 
BRANCH  61  64
ATOM     64  S   UNL A   1      42.029  22.420  26.355  1.00  0.00     0.127 S 
ATOM     65  O   UNL A   1      42.637  21.972  27.606  1.00  0.00    -0.237 OA
ATOM     66  O   UNL A   1      40.567  22.360  26.332  1.00  0.00    -0.237 OA
ATOM     67  O   UNL A   1      42.672  21.944  25.138  1.00  0.00    -0.744 OA
ENDBRANCH  61  64
ENDBRANCH  43  57
BRANCH  44  68
ATOM     68  C   UNL A   1      39.642  32.061  35.258  1.00  0.00     0.023 A 
ATOM     69  C   UNL A   1      40.053  33.405  35.335  1.00  0.00     0.012 A 
ATOM     70  C   UNL A   1      38.845  31.526  36.289  1.00  0.00     0.148 A 
ATOM     71  C   UNL A   1      39.704  34.194  36.431  1.00  0.00     0.002 A 
ATOM     72  C   UNL A   1      38.454  32.333  37.351  1.00  0.00     0.091 A 
ATOM     73  F   UNL A   1      38.482  30.238  36.210  1.00  0.00    -0.205 F 
ATOM     74  C   UNL A   1      38.897  33.663  37.433  1.00  0.00     0.022 A 
BRANCH  72  75
ATOM     75  S   UNL A   1      37.308  31.766  38.613  1.00  0.00     0.127 S 
ATOM     76  O   UNL A   1      38.086  31.961  39.834  1.00  0.00    -0.237 OA
ATOM     77  O   UNL A   1      36.186  32.689  38.441  1.00  0.00    -0.237 OA
ATOM     78  O   UNL A   1      37.002  30.385  38.265  1.00  0.00    -0.744 OA
ENDBRANCH  72  75
ENDBRANCH  44  68
BRANCH  56  79
ATOM     79  C   UNL A   1      45.210  28.082  33.862  1.00  0.00     0.023 A 
ATOM     80  C   UNL A   1      46.339  28.917  33.767  1.00  0.00     0.012 A 
ATOM     81  C   UNL A   1      45.231  26.988  34.751  1.00  0.00     0.148 A 
ATOM     82  C   UNL A   1      47.483  28.652  34.520  1.00  0.00     0.002 A 
ATOM     83  C   UNL A   1      46.358  26.756  35.532  1.00  0.00     0.091 A 
ATOM     84  F   UNL A   1      44.154  26.192  34.814  1.00  0.00    -0.205 F 
ATOM     85  C   UNL A   1      47.488  27.581  35.410  1.00  0.00     0.022 A 
BRANCH  83  86
ATOM     86  S   UNL A   1      46.414  25.455  36.770  1.00  0.00     0.127 S 
ATOM     87  O   UNL A   1      47.775  25.590  37.284  1.00  0.00    -0.237 OA
ATOM     88  O   UNL A   1      45.364  25.866  37.704  1.00  0.00    -0.237 OA
ATOM     89  O   UNL A   1      46.130  24.217  36.056  1.00  0.00    -0.744 OA
ENDBRANCH  83  86
ENDBRANCH  56  79
ENDBRANCH  30  31
ENDBRANCH  23  25
ENDBRANCH  22  23
ENDBRANCH  21  22
ENDBRANCH  20  21
ENDBRANCH   1  20
TORSDOF 21
ENDMDL
