MODEL 1
REMARK VINA RESULT:     -12.0      0.000      0.000
REMARK SMILES Cc1cc(Br)cc2c1O[C@H](C(F)(F)F)C(C(=O)OCCOCCOC(=O)c1ccc(-c3c4nc(c(-c5cccc(S(=O)(=O)[O-])c5F)c5ccc([nH]5)c(-c5cccc(S(=O)(=O)[O-])c5F)c5nc(c(-c6cccc(S(=O)(=O)[O-])c6F)c6ccc3[nH]6)C=C5)C=C4)cc1)=C2
REMARK SMILES IDX 22 1 21 2 20 3 19 4 18 5 16 6 17 7 15 8 1 9 2 10 3 11 8 12
REMARK SMILES IDX 4 13 7 14 9 15 5 16 6 17 90 18 10 19 11 20 12 21 13 22 14 23
REMARK SMILES IDX 23 24 24 25 25 26 26 27 27 28 28 29 89 30 29 31 88 32 30 33
REMARK SMILES IDX 31 34 32 35 82 36 33 37 87 38 81 39 83 40 34 41 86 42 80 43
REMARK SMILES IDX 79 44 35 46 67 47 47 48 66 49 48 50 51 51 65 52 84 53 49 54
REMARK SMILES IDX 50 55 64 57 85 58 52 59 36 60 37 61 45 62 38 63 40 64 46 65
REMARK SMILES IDX 39 66 41 67 42 68 43 69 44 70 68 71 69 72 77 73 70 74 72 75
REMARK SMILES IDX 78 76 71 77 73 78 74 79 75 80 76 81 53 82 54 83 62 84 55 85
REMARK SMILES IDX 57 86 63 87 56 88 58 89 59 90 60 91 61 92
REMARK H PARENT 83 45 51 56
REMARK Flexibility Score: inf
ROOT
ATOM      1  C   UNL A   1      31.701  30.451  26.531  1.00  0.00     0.202 C 
ENDROOT
BRANCH   1   2
ATOM      2  O   UNL A   1      32.550  30.051  25.454  1.00  0.00    -0.374 OA
BRANCH   2   3
ATOM      3  C   UNL A   1      33.690  29.251  25.767  1.00  0.00     0.202 C 
BRANCH   3   4
ATOM      4  C   UNL A   1      33.586  27.752  25.476  1.00  0.00     0.261 C 
BRANCH   4   5
ATOM      5  O   UNL A   1      33.577  27.479  24.065  1.00  0.00    -0.460 OA
BRANCH   5   6
ATOM      6  C   UNL A   1      32.807  26.431  23.698  1.00  0.00     0.338 C 
ATOM      7  O   UNL A   1      33.142  25.254  23.652  1.00  0.00    -0.246 OA
BRANCH   6   8
ATOM      8  C   UNL A   1      31.420  26.877  23.479  1.00  0.00     0.087 C 
ATOM      9  C   UNL A   1      26.388  27.897  23.834  1.00  0.00     0.048 C 
ATOM     10  C   UNL A   1      27.591  28.521  23.182  1.00  0.00    -0.007 A 
ATOM     11  C   UNL A   1      27.437  29.760  22.537  1.00  0.00     0.023 A 
ATOM     12  C   UNL A   1      28.856  27.913  23.202  1.00  0.00     0.130 A 
ATOM     13  C   UNL A   1      28.529  30.382  21.935  1.00  0.00     0.019 A 
ATOM     14  C   UNL A   1      29.955  28.565  22.628  1.00  0.00     0.019 A 
ATOM     15  O   UNL A   1      28.954  26.679  23.782  1.00  0.00    -0.475 OA
ATOM     16  Br  UNL A   1      28.307  32.052  21.078  1.00  0.00    -0.051 Br
ATOM     17  C   UNL A   1      29.787  29.792  21.980  1.00  0.00     0.027 A 
ATOM     18  C   UNL A   1      31.284  28.003  22.769  1.00  0.00     0.027 C 
ATOM     19  C   UNL A   1      30.264  26.109  24.058  1.00  0.00     0.316 C 
BRANCH  19  20
ATOM     20  C   UNL A   1      30.388  25.905  25.576  1.00  0.00     0.430 C 
ATOM     21  F   UNL A   1      29.207  25.523  26.114  1.00  0.00    -0.167 F 
ATOM     22  F   UNL A   1      31.292  24.949  25.883  1.00  0.00    -0.167 F 
ATOM     23  F   UNL A   1      30.772  27.043  26.200  1.00  0.00    -0.167 F 
ENDBRANCH  19  20
ENDBRANCH   6   8
ENDBRANCH   5   6
ENDBRANCH   4   5
ENDBRANCH   3   4
ENDBRANCH   2   3
ENDBRANCH   1   2
BRANCH   1  24
ATOM     24  C   UNL A   1      31.520  31.955  26.770  1.00  0.00     0.261 C 
BRANCH  24  25
ATOM     25  O   UNL A   1      32.740  32.691  26.571  1.00  0.00    -0.460 OA
BRANCH  25  26
ATOM     26  C   UNL A   1      33.254  33.244  27.694  1.00  0.00     0.338 C 
ATOM     27  O   UNL A   1      32.705  34.050  28.439  1.00  0.00    -0.246 OA
BRANCH  26  28
ATOM     28  C   UNL A   1      34.533  32.603  28.040  1.00  0.00     0.060 A 
ATOM     29  C   UNL A   1      34.488  31.291  28.530  1.00  0.00     0.016 A 
ATOM     30  C   UNL A   1      35.739  33.304  27.988  1.00  0.00     0.016 A 
ATOM     31  C   UNL A   1      35.641  30.694  29.029  1.00  0.00     0.010 A 
ATOM     32  C   UNL A   1      36.893  32.708  28.504  1.00  0.00     0.010 A 
ATOM     33  C   UNL A   1      36.839  31.419  29.067  1.00  0.00    -0.014 A 
BRANCH  33  34
ATOM     34  C   UNL A   1      37.973  30.905  29.868  1.00  0.00     0.031 A 
ATOM     35  C   UNL A   1      38.918  29.922  29.231  1.00  0.00     0.074 A 
ATOM     36  C   UNL A   1      38.177  31.323  31.130  1.00  0.00     0.049 A 
ATOM     37  N   UNL A   1      39.957  29.320  29.746  1.00  0.00    -0.248 NA
ATOM     38  C   UNL A   1      38.657  29.574  27.823  1.00  0.00     0.031 C 
ATOM     39  C   UNL A   1      37.350  32.296  31.840  1.00  0.00     0.029 A 
ATOM     40  N   UNL A   1      39.139  30.967  32.040  1.00  0.00    -0.354 N 
ATOM     41  C   UNL A   1      40.464  28.511  28.735  1.00  0.00     0.074 A 
ATOM     42  C   UNL A   1      39.609  28.685  27.582  1.00  0.00     0.031 C 
ATOM     43  C   UNL A   1      37.829  32.445  33.086  1.00  0.00     0.029 A 
ATOM     44  C   UNL A   1      38.979  31.561  33.270  1.00  0.00     0.049 A 
ATOM     45  H   UNL A   1      39.874  30.345  31.833  1.00  0.00     0.167 HD
ATOM     46  C   UNL A   1      41.556  27.713  28.759  1.00  0.00     0.034 A 
ATOM     47  C   UNL A   1      39.671  31.393  34.415  1.00  0.00     0.034 A 
ATOM     48  C   UNL A   1      42.415  27.556  29.901  1.00  0.00     0.049 A 
ATOM     49  C   UNL A   1      40.848  30.450  34.432  1.00  0.00     0.074 A 
ATOM     50  C   UNL A   1      43.560  26.788  30.014  1.00  0.00     0.029 A 
ATOM     51  N   UNL A   1      42.222  28.172  31.126  1.00  0.00    -0.354 N 
ATOM     52  N   UNL A   1      41.371  29.763  33.444  1.00  0.00    -0.248 NA
ATOM     53  C   UNL A   1      41.544  30.276  35.715  1.00  0.00     0.031 C 
ATOM     54  C   UNL A   1      44.046  26.922  31.317  1.00  0.00     0.029 A 
ATOM     55  C   UNL A   1      43.218  27.791  32.009  1.00  0.00     0.049 A 
ATOM     56  H   UNL A   1      41.486  28.791  31.338  1.00  0.00     0.167 HD
ATOM     57  C   UNL A   1      42.466  29.094  33.981  1.00  0.00     0.074 A 
ATOM     58  C   UNL A   1      42.550  29.482  35.374  1.00  0.00     0.031 C 
ATOM     59  C   UNL A   1      43.313  28.218  33.382  1.00  0.00     0.034 A 
BRANCH  46  60
ATOM     60  C   UNL A   1      41.910  26.971  27.497  1.00  0.00     0.023 A 
ATOM     61  C   UNL A   1      42.416  27.687  26.394  1.00  0.00     0.012 A 
ATOM     62  C   UNL A   1      41.815  25.568  27.428  1.00  0.00     0.148 A 
ATOM     63  C   UNL A   1      42.803  27.021  25.233  1.00  0.00     0.002 A 
ATOM     64  C   UNL A   1      42.242  24.907  26.283  1.00  0.00     0.091 A 
ATOM     65  F   UNL A   1      41.309  24.909  28.480  1.00  0.00    -0.205 F 
ATOM     66  C   UNL A   1      42.728  25.631  25.182  1.00  0.00     0.022 A 
BRANCH  64  67
ATOM     67  S   UNL A   1      42.256  23.115  26.142  1.00  0.00     0.127 S 
ATOM     68  O   UNL A   1      40.830  22.802  26.216  1.00  0.00    -0.237 OA
ATOM     69  O   UNL A   1      42.858  22.916  24.824  1.00  0.00    -0.237 OA
ATOM     70  O   UNL A   1      43.057  22.631  27.258  1.00  0.00    -0.744 OA
ENDBRANCH  64  67
ENDBRANCH  46  60
BRANCH  47  71
ATOM     71  C   UNL A   1      39.293  32.166  35.632  1.00  0.00     0.023 A 
ATOM     72  C   UNL A   1      39.661  33.522  35.731  1.00  0.00     0.012 A 
ATOM     73  C   UNL A   1      38.544  31.580  36.671  1.00  0.00     0.148 A 
ATOM     74  C   UNL A   1      39.308  34.273  36.853  1.00  0.00     0.002 A 
ATOM     75  C   UNL A   1      38.148  32.349  37.759  1.00  0.00     0.091 A 
ATOM     76  F   UNL A   1      38.223  30.283  36.568  1.00  0.00    -0.205 F 
ATOM     77  C   UNL A   1      38.542  33.693  37.860  1.00  0.00     0.022 A 
BRANCH  75  78
ATOM     78  S   UNL A   1      37.050  31.723  39.037  1.00  0.00     0.127 S 
ATOM     79  O   UNL A   1      35.932  32.658  38.955  1.00  0.00    -0.237 OA
ATOM     80  O   UNL A   1      36.763  30.373  38.549  1.00  0.00    -0.237 OA
ATOM     81  O   UNL A   1      37.821  31.764  40.272  1.00  0.00    -0.744 OA
ENDBRANCH  75  78
ENDBRANCH  47  71
BRANCH  59  82
ATOM     82  C   UNL A   1      44.409  27.610  34.220  1.00  0.00     0.023 A 
ATOM     83  C   UNL A   1      45.635  28.291  34.353  1.00  0.00     0.012 A 
ATOM     84  C   UNL A   1      44.191  26.428  34.957  1.00  0.00     0.148 A 
ATOM     85  C   UNL A   1      46.636  27.795  35.187  1.00  0.00     0.002 A 
ATOM     86  C   UNL A   1      45.175  25.966  35.824  1.00  0.00     0.091 A 
ATOM     87  F   UNL A   1      43.025  25.785  34.804  1.00  0.00    -0.205 F 
ATOM     88  C   UNL A   1      46.402  26.642  35.931  1.00  0.00     0.022 A 
BRANCH  86  89
ATOM     89  S   UNL A   1      44.924  24.550  36.901  1.00  0.00     0.127 S 
ATOM     90  O   UNL A   1      43.751  24.964  37.668  1.00  0.00    -0.237 OA
ATOM     91  O   UNL A   1      44.676  23.470  35.944  1.00  0.00    -0.237 OA
ATOM     92  O   UNL A   1      46.154  24.406  37.667  1.00  0.00    -0.744 OA
ENDBRANCH  86  89
ENDBRANCH  59  82
ENDBRANCH  33  34
ENDBRANCH  26  28
ENDBRANCH  25  26
ENDBRANCH  24  25
ENDBRANCH   1  24
TORSDOF 18
ENDMDL
MODEL 2
REMARK VINA RESULT:     -11.8      5.426     10.499
REMARK SMILES Cc1cc(Br)cc2c1O[C@H](C(F)(F)F)C(C(=O)OCCOCCOC(=O)c1ccc(-c3c4nc(c(-c5cccc(S(=O)(=O)[O-])c5F)c5ccc([nH]5)c(-c5cccc(S(=O)(=O)[O-])c5F)c5nc(c(-c6cccc(S(=O)(=O)[O-])c6F)c6ccc3[nH]6)C=C5)C=C4)cc1)=C2
REMARK SMILES IDX 22 1 21 2 20 3 19 4 18 5 16 6 17 7 15 8 1 9 2 10 3 11 8 12
REMARK SMILES IDX 4 13 7 14 9 15 5 16 6 17 90 18 10 19 11 20 12 21 13 22 14 23
REMARK SMILES IDX 23 24 24 25 25 26 26 27 27 28 28 29 89 30 29 31 88 32 30 33
REMARK SMILES IDX 31 34 32 35 82 36 33 37 87 38 81 39 83 40 34 41 86 42 80 43
REMARK SMILES IDX 79 44 35 46 67 47 47 48 66 49 48 50 51 51 65 52 84 53 49 54
REMARK SMILES IDX 50 55 64 57 85 58 52 59 36 60 37 61 45 62 38 63 40 64 46 65
REMARK SMILES IDX 39 66 41 67 42 68 43 69 44 70 68 71 69 72 77 73 70 74 72 75
REMARK SMILES IDX 78 76 71 77 73 78 74 79 75 80 76 81 53 82 54 83 62 84 55 85
REMARK SMILES IDX 57 86 63 87 56 88 58 89 59 90 60 91 61 92
REMARK H PARENT 83 45 51 56
REMARK Flexibility Score: inf
ROOT
ATOM      1  C   UNL A   1      36.227  19.393  25.002  1.00  0.00     0.202 C 
ENDROOT
BRANCH   1   2
ATOM      2  O   UNL A   1      34.985  20.003  24.645  1.00  0.00    -0.374 OA
BRANCH   2   3
ATOM      3  C   UNL A   1      33.799  19.222  24.779  1.00  0.00     0.202 C 
BRANCH   3   4
ATOM      4  C   UNL A   1      32.490  19.861  24.305  1.00  0.00     0.261 C 
BRANCH   4   5
ATOM      5  O   UNL A   1      32.352  21.211  24.776  1.00  0.00    -0.460 OA
BRANCH   5   6
ATOM      6  C   UNL A   1      32.442  22.156  23.815  1.00  0.00     0.338 C 
ATOM      7  O   UNL A   1      32.501  21.971  22.606  1.00  0.00    -0.246 OA
BRANCH   6   8
ATOM      8  C   UNL A   1      32.320  23.497  24.413  1.00  0.00     0.087 C 
ATOM      9  C   UNL A   1      33.089  27.974  26.831  1.00  0.00     0.048 C 
ATOM     10  C   UNL A   1      32.232  27.469  25.703  1.00  0.00    -0.007 A 
ATOM     11  C   UNL A   1      31.452  28.394  24.989  1.00  0.00     0.023 A 
ATOM     12  C   UNL A   1      32.192  26.114  25.338  1.00  0.00     0.130 A 
ATOM     13  C   UNL A   1      30.657  27.972  23.925  1.00  0.00     0.019 A 
ATOM     14  C   UNL A   1      31.422  25.707  24.243  1.00  0.00     0.019 A 
ATOM     15  O   UNL A   1      32.916  25.235  26.097  1.00  0.00    -0.475 OA
ATOM     16  Br  UNL A   1      29.618  29.228  22.968  1.00  0.00    -0.051 Br
ATOM     17  C   UNL A   1      30.640  26.633  23.547  1.00  0.00     0.027 A 
ATOM     18  C   UNL A   1      31.487  24.333  23.782  1.00  0.00     0.027 C 
ATOM     19  C   UNL A   1      33.118  23.871  25.631  1.00  0.00     0.316 C 
BRANCH  19  20
ATOM     20  C   UNL A   1      34.626  23.649  25.444  1.00  0.00     0.430 C 
ATOM     21  F   UNL A   1      35.018  22.476  25.992  1.00  0.00    -0.167 F 
ATOM     22  F   UNL A   1      34.970  23.611  24.137  1.00  0.00    -0.167 F 
ATOM     23  F   UNL A   1      35.350  24.634  26.025  1.00  0.00    -0.167 F 
ENDBRANCH  19  20
ENDBRANCH   6   8
ENDBRANCH   5   6
ENDBRANCH   4   5
ENDBRANCH   3   4
ENDBRANCH   2   3
ENDBRANCH   1   2
BRANCH   1  24
ATOM     24  C   UNL A   1      37.515  20.098  24.560  1.00  0.00     0.261 C 
BRANCH  24  25
ATOM     25  O   UNL A   1      37.916  21.130  25.479  1.00  0.00    -0.460 OA
BRANCH  25  26
ATOM     26  C   UNL A   1      39.153  20.969  26.004  1.00  0.00     0.338 C 
ATOM     27  O   UNL A   1      39.899  20.006  25.854  1.00  0.00    -0.246 OA
BRANCH  26  28
ATOM     28  C   UNL A   1      39.599  22.212  26.652  1.00  0.00     0.060 A 
ATOM     29  C   UNL A   1      39.052  23.417  26.189  1.00  0.00     0.016 A 
ATOM     30  C   UNL A   1      40.608  22.211  27.617  1.00  0.00     0.016 A 
ATOM     31  C   UNL A   1      39.555  24.631  26.645  1.00  0.00     0.010 A 
ATOM     32  C   UNL A   1      41.123  23.433  28.061  1.00  0.00     0.010 A 
ATOM     33  C   UNL A   1      40.629  24.645  27.544  1.00  0.00    -0.014 A 
BRANCH  33  34
ATOM     34  C   UNL A   1      41.356  25.912  27.786  1.00  0.00     0.031 A 
ATOM     35  C   UNL A   1      40.660  27.008  28.547  1.00  0.00     0.074 A 
ATOM     36  C   UNL A   1      42.621  26.078  27.362  1.00  0.00     0.049 A 
ATOM     37  N   UNL A   1      41.087  28.205  28.850  1.00  0.00    -0.248 NA
ATOM     38  C   UNL A   1      39.300  26.713  29.033  1.00  0.00     0.031 C 
ATOM     39  C   UNL A   1      43.409  25.076  26.646  1.00  0.00     0.029 A 
ATOM     40  N   UNL A   1      43.459  27.159  27.463  1.00  0.00    -0.354 N 
ATOM     41  C   UNL A   1      40.046  28.812  29.545  1.00  0.00     0.074 A 
ATOM     42  C   UNL A   1      38.961  27.858  29.605  1.00  0.00     0.031 C 
ATOM     43  C   UNL A   1      44.612  25.598  26.353  1.00  0.00     0.029 A 
ATOM     44  C   UNL A   1      44.669  26.978  26.838  1.00  0.00     0.049 A 
ATOM     45  H   UNL A   1      43.216  27.987  27.937  1.00  0.00     0.167 HD
ATOM     46  C   UNL A   1      40.008  30.044  30.103  1.00  0.00     0.034 A 
ATOM     47  C   UNL A   1      45.696  27.834  26.661  1.00  0.00     0.034 A 
ATOM     48  C   UNL A   1      41.095  30.982  30.059  1.00  0.00     0.049 A 
ATOM     49  C   UNL A   1      45.604  29.223  27.241  1.00  0.00     0.074 A 
ATOM     50  C   UNL A   1      41.160  32.247  30.616  1.00  0.00     0.029 A 
ATOM     51  N   UNL A   1      42.304  30.764  29.418  1.00  0.00    -0.354 N 
ATOM     52  N   UNL A   1      44.653  29.751  27.974  1.00  0.00    -0.248 NA
ATOM     53  C   UNL A   1      46.735  30.128  26.987  1.00  0.00     0.031 C 
ATOM     54  C   UNL A   1      42.401  32.803  30.291  1.00  0.00     0.029 A 
ATOM     55  C   UNL A   1      43.118  31.876  29.551  1.00  0.00     0.049 A 
ATOM     56  H   UNL A   1      42.548  29.939  28.939  1.00  0.00     0.167 HD
ATOM     57  C   UNL A   1      45.079  31.038  28.286  1.00  0.00     0.074 A 
ATOM     58  C   UNL A   1      46.389  31.199  27.688  1.00  0.00     0.031 C 
ATOM     59  C   UNL A   1      44.436  32.007  28.986  1.00  0.00     0.034 A 
BRANCH  46  60
ATOM     60  C   UNL A   1      38.760  30.438  30.847  1.00  0.00     0.023 A 
ATOM     61  C   UNL A   1      38.653  30.148  32.221  1.00  0.00     0.012 A 
ATOM     62  C   UNL A   1      37.731  31.157  30.208  1.00  0.00     0.148 A 
ATOM     63  C   UNL A   1      37.532  30.549  32.946  1.00  0.00     0.002 A 
ATOM     64  C   UNL A   1      36.636  31.591  30.947  1.00  0.00     0.091 A 
ATOM     65  F   UNL A   1      37.842  31.402  28.895  1.00  0.00    -0.205 F 
ATOM     66  C   UNL A   1      36.531  31.281  32.313  1.00  0.00     0.022 A 
BRANCH  64  67
ATOM     67  S   UNL A   1      35.328  32.603  30.244  1.00  0.00     0.127 S 
ATOM     68  O   UNL A   1      34.923  31.801  29.090  1.00  0.00    -0.237 OA
ATOM     69  O   UNL A   1      34.352  32.641  31.333  1.00  0.00    -0.237 OA
ATOM     70  O   UNL A   1      35.939  33.886  29.927  1.00  0.00    -0.744 OA
ENDBRANCH  64  67
ENDBRANCH  46  60
BRANCH  47  71
ATOM     71  C   UNL A   1      46.919  27.387  25.935  1.00  0.00     0.023 A 
ATOM     72  C   UNL A   1      47.851  26.561  26.593  1.00  0.00     0.012 A 
ATOM     73  C   UNL A   1      47.148  27.747  24.592  1.00  0.00     0.148 A 
ATOM     74  C   UNL A   1      48.997  26.117  25.933  1.00  0.00     0.002 A 
ATOM     75  C   UNL A   1      48.264  27.255  23.924  1.00  0.00     0.091 A 
ATOM     76  F   UNL A   1      46.262  28.552  23.990  1.00  0.00    -0.205 F 
ATOM     77  C   UNL A   1      49.198  26.453  24.597  1.00  0.00     0.022 A 
BRANCH  75  78
ATOM     78  S   UNL A   1      48.535  27.526  22.168  1.00  0.00     0.127 S 
ATOM     79  O   UNL A   1      49.761  28.319  22.174  1.00  0.00    -0.237 OA
ATOM     80  O   UNL A   1      48.689  26.156  21.675  1.00  0.00    -0.237 OA
ATOM     81  O   UNL A   1      47.342  28.209  21.686  1.00  0.00    -0.744 OA
ENDBRANCH  75  78
ENDBRANCH  47  71
BRANCH  59  82
ATOM     82  C   UNL A   1      45.128  33.338  29.147  1.00  0.00     0.023 A 
ATOM     83  C   UNL A   1      46.045  33.516  30.201  1.00  0.00     0.012 A 
ATOM     84  C   UNL A   1      44.953  34.369  28.201  1.00  0.00     0.148 A 
ATOM     85  C   UNL A   1      46.760  34.705  30.327  1.00  0.00     0.002 A 
ATOM     86  C   UNL A   1      45.707  35.533  28.305  1.00  0.00     0.091 A 
ATOM     87  F   UNL A   1      44.064  34.187  27.214  1.00  0.00    -0.205 F 
ATOM     88  C   UNL A   1      46.602  35.707  29.373  1.00  0.00     0.022 A 
BRANCH  86  89
ATOM     89  S   UNL A   1      45.647  36.833  27.066  1.00  0.00     0.127 S 
ATOM     90  O   UNL A   1      46.566  37.822  27.629  1.00  0.00    -0.237 OA
ATOM     91  O   UNL A   1      46.145  36.149  25.872  1.00  0.00    -0.237 OA
ATOM     92  O   UNL A   1      44.254  37.248  26.987  1.00  0.00    -0.744 OA
ENDBRANCH  86  89
ENDBRANCH  59  82
ENDBRANCH  33  34
ENDBRANCH  26  28
ENDBRANCH  25  26
ENDBRANCH  24  25
ENDBRANCH   1  24
TORSDOF 18
ENDMDL
MODEL 3
REMARK VINA RESULT:     -11.8      1.393      7.609
REMARK SMILES Cc1cc(Br)cc2c1O[C@H](C(F)(F)F)C(C(=O)OCCOCCOC(=O)c1ccc(-c3c4nc(c(-c5cccc(S(=O)(=O)[O-])c5F)c5ccc([nH]5)c(-c5cccc(S(=O)(=O)[O-])c5F)c5nc(c(-c6cccc(S(=O)(=O)[O-])c6F)c6ccc3[nH]6)C=C5)C=C4)cc1)=C2
REMARK SMILES IDX 22 1 21 2 20 3 19 4 18 5 16 6 17 7 15 8 1 9 2 10 3 11 8 12
REMARK SMILES IDX 4 13 7 14 9 15 5 16 6 17 90 18 10 19 11 20 12 21 13 22 14 23
REMARK SMILES IDX 23 24 24 25 25 26 26 27 27 28 28 29 89 30 29 31 88 32 30 33
REMARK SMILES IDX 31 34 32 35 82 36 33 37 87 38 81 39 83 40 34 41 86 42 80 43
REMARK SMILES IDX 79 44 35 46 67 47 47 48 66 49 48 50 51 51 65 52 84 53 49 54
REMARK SMILES IDX 50 55 64 57 85 58 52 59 36 60 37 61 45 62 38 63 40 64 46 65
REMARK SMILES IDX 39 66 41 67 42 68 43 69 44 70 68 71 69 72 77 73 70 74 72 75
REMARK SMILES IDX 78 76 71 77 73 78 74 79 75 80 76 81 53 82 54 83 62 84 55 85
REMARK SMILES IDX 57 86 63 87 56 88 58 89 59 90 60 91 61 92
REMARK H PARENT 83 45 51 56
REMARK Flexibility Score: inf
ROOT
ATOM      1  C   UNL A   1      31.675  30.673  25.832  1.00  0.00     0.202 C 
ENDROOT
BRANCH   1   2
ATOM      2  O   UNL A   1      32.692  29.784  25.367  1.00  0.00    -0.374 OA
BRANCH   2   3
ATOM      3  C   UNL A   1      33.189  28.807  26.279  1.00  0.00     0.202 C 
BRANCH   3   4
ATOM      4  C   UNL A   1      33.813  27.546  25.674  1.00  0.00     0.261 C 
BRANCH   4   5
ATOM      5  O   UNL A   1      33.501  27.411  24.279  1.00  0.00    -0.460 OA
BRANCH   5   6
ATOM      6  C   UNL A   1      32.726  26.347  23.974  1.00  0.00     0.338 C 
ATOM      7  O   UNL A   1      33.049  25.166  24.020  1.00  0.00    -0.246 OA
BRANCH   6   8
ATOM      8  C   UNL A   1      31.348  26.788  23.697  1.00  0.00     0.087 C 
ATOM      9  C   UNL A   1      26.305  27.803  23.846  1.00  0.00     0.048 C 
ATOM     10  C   UNL A   1      27.532  28.425  23.237  1.00  0.00    -0.007 A 
ATOM     11  C   UNL A   1      27.402  29.659  22.579  1.00  0.00     0.023 A 
ATOM     12  C   UNL A   1      28.796  27.819  23.311  1.00  0.00     0.130 A 
ATOM     13  C   UNL A   1      28.516  30.278  22.016  1.00  0.00     0.019 A 
ATOM     14  C   UNL A   1      29.916  28.468  22.777  1.00  0.00     0.019 A 
ATOM     15  O   UNL A   1      28.873  26.589  23.905  1.00  0.00    -0.475 OA
ATOM     16  Br  UNL A   1      28.326  31.942  21.139  1.00  0.00    -0.051 Br
ATOM     17  C   UNL A   1      29.772  29.690  22.114  1.00  0.00     0.027 A 
ATOM     18  C   UNL A   1      31.240  27.910  22.974  1.00  0.00     0.027 C 
ATOM     19  C   UNL A   1      30.172  26.023  24.236  1.00  0.00     0.316 C 
BRANCH  19  20
ATOM     20  C   UNL A   1      30.236  25.831  25.759  1.00  0.00     0.430 C 
ATOM     21  F   UNL A   1      31.032  24.787  26.085  1.00  0.00    -0.167 F 
ATOM     22  F   UNL A   1      30.734  26.922  26.382  1.00  0.00    -0.167 F 
ATOM     23  F   UNL A   1      29.011  25.589  26.281  1.00  0.00    -0.167 F 
ENDBRANCH  19  20
ENDBRANCH   6   8
ENDBRANCH   5   6
ENDBRANCH   4   5
ENDBRANCH   3   4
ENDBRANCH   2   3
ENDBRANCH   1   2
BRANCH   1  24
ATOM     24  C   UNL A   1      31.978  31.506  27.083  1.00  0.00     0.261 C 
BRANCH  24  25
ATOM     25  O   UNL A   1      32.615  32.756  26.766  1.00  0.00    -0.460 OA
BRANCH  25  26
ATOM     26  C   UNL A   1      33.242  33.350  27.808  1.00  0.00     0.338 C 
ATOM     27  O   UNL A   1      32.780  34.205  28.558  1.00  0.00    -0.246 OA
BRANCH  26  28
ATOM     28  C   UNL A   1      34.531  32.692  28.071  1.00  0.00     0.060 A 
ATOM     29  C   UNL A   1      34.512  31.323  28.371  1.00  0.00     0.016 A 
ATOM     30  C   UNL A   1      35.723  33.418  28.130  1.00  0.00     0.016 A 
ATOM     31  C   UNL A   1      35.675  30.685  28.790  1.00  0.00     0.010 A 
ATOM     32  C   UNL A   1      36.886  32.778  28.566  1.00  0.00     0.010 A 
ATOM     33  C   UNL A   1      36.856  31.422  28.940  1.00  0.00    -0.014 A 
BRANCH  33  34
ATOM     34  C   UNL A   1      37.997  30.823  29.671  1.00  0.00     0.031 A 
ATOM     35  C   UNL A   1      38.259  31.265  31.085  1.00  0.00     0.074 A 
ATOM     36  C   UNL A   1      38.770  29.883  29.099  1.00  0.00     0.049 A 
ATOM     37  N   UNL A   1      39.210  30.901  31.904  1.00  0.00    -0.248 NA
ATOM     38  C   UNL A   1      37.319  32.249  31.654  1.00  0.00     0.031 C 
ATOM     39  C   UNL A   1      38.592  29.351  27.750  1.00  0.00     0.029 A 
ATOM     40  N   UNL A   1      39.869  29.220  29.583  1.00  0.00    -0.354 N 
ATOM     41  C   UNL A   1      38.997  31.620  33.074  1.00  0.00     0.074 A 
ATOM     42  C   UNL A   1      37.836  32.454  32.856  1.00  0.00     0.031 C 
ATOM     43  C   UNL A   1      39.564  28.456  27.504  1.00  0.00     0.029 A 
ATOM     44  C   UNL A   1      40.446  28.371  28.669  1.00  0.00     0.049 A 
ATOM     45  H   UNL A   1      40.213  29.341  30.497  1.00  0.00     0.167 HD
ATOM     46  C   UNL A   1      39.692  31.573  34.234  1.00  0.00     0.034 A 
ATOM     47  C   UNL A   1      41.566  27.626  28.757  1.00  0.00     0.034 A 
ATOM     48  C   UNL A   1      40.834  30.729  34.455  1.00  0.00     0.049 A 
ATOM     49  C   UNL A   1      42.358  27.638  30.040  1.00  0.00     0.074 A 
ATOM     50  C   UNL A   1      41.590  30.592  35.605  1.00  0.00     0.029 A 
ATOM     51  N   UNL A   1      41.388  29.883  33.508  1.00  0.00    -0.354 N 
ATOM     52  N   UNL A   1      42.093  28.250  31.170  1.00  0.00    -0.248 NA
ATOM     53  C   UNL A   1      43.591  26.838  30.070  1.00  0.00     0.031 C 
ATOM     54  C   UNL A   1      42.617  29.680  35.345  1.00  0.00     0.029 A 
ATOM     55  C   UNL A   1      42.487  29.232  34.040  1.00  0.00     0.049 A 
ATOM     56  H   UNL A   1      41.049  29.762  32.591  1.00  0.00     0.167 HD
ATOM     57  C   UNL A   1      43.111  27.894  32.047  1.00  0.00     0.074 A 
ATOM     58  C   UNL A   1      43.983  26.987  31.328  1.00  0.00     0.031 C 
ATOM     59  C   UNL A   1      43.321  28.299  33.326  1.00  0.00     0.034 A 
BRANCH  46  60
ATOM     60  C   UNL A   1      39.214  32.432  35.374  1.00  0.00     0.023 A 
ATOM     61  C   UNL A   1      38.291  31.904  36.298  1.00  0.00     0.012 A 
ATOM     62  C   UNL A   1      39.730  33.728  35.572  1.00  0.00     0.148 A 
ATOM     63  C   UNL A   1      37.872  32.659  37.393  1.00  0.00     0.002 A 
ATOM     64  C   UNL A   1      39.340  34.458  36.689  1.00  0.00     0.091 A 
ATOM     65  F   UNL A   1      40.588  34.220  34.667  1.00  0.00    -0.205 F 
ATOM     66  C   UNL A   1      38.406  33.929  37.595  1.00  0.00     0.022 A 
BRANCH  64  67
ATOM     67  S   UNL A   1      40.023  36.073  37.081  1.00  0.00     0.127 S 
ATOM     68  O   UNL A   1      41.424  35.745  37.344  1.00  0.00    -0.237 OA
ATOM     69  O   UNL A   1      39.791  36.813  35.842  1.00  0.00    -0.237 OA
ATOM     70  O   UNL A   1      39.272  36.559  38.231  1.00  0.00    -0.744 OA
ENDBRANCH  64  67
ENDBRANCH  46  60
BRANCH  47  71
ATOM     71  C   UNL A   1      41.986  26.776  27.607  1.00  0.00     0.023 A 
ATOM     72  C   UNL A   1      42.750  27.344  26.569  1.00  0.00     0.012 A 
ATOM     73  C   UNL A   1      41.663  25.405  27.550  1.00  0.00     0.148 A 
ATOM     74  C   UNL A   1      43.168  26.568  25.488  1.00  0.00     0.002 A 
ATOM     75  C   UNL A   1      42.129  24.626  26.498  1.00  0.00     0.091 A 
ATOM     76  F   UNL A   1      40.915  24.889  28.536  1.00  0.00    -0.205 F 
ATOM     77  C   UNL A   1      42.869  25.208  25.457  1.00  0.00     0.022 A 
BRANCH  75  78
ATOM     78  S   UNL A   1      41.907  22.843  26.443  1.00  0.00     0.127 S 
ATOM     79  O   UNL A   1      42.602  22.418  27.655  1.00  0.00    -0.237 OA
ATOM     80  O   UNL A   1      40.449  22.723  26.494  1.00  0.00    -0.237 OA
ATOM     81  O   UNL A   1      42.503  22.411  25.187  1.00  0.00    -0.744 OA
ENDBRANCH  75  78
ENDBRANCH  47  71
BRANCH  59  82
ATOM     82  C   UNL A   1      44.539  27.773  34.042  1.00  0.00     0.023 A 
ATOM     83  C   UNL A   1      45.728  28.529  34.030  1.00  0.00     0.012 A 
ATOM     84  C   UNL A   1      44.479  26.594  34.813  1.00  0.00     0.148 A 
ATOM     85  C   UNL A   1      46.844  28.110  34.752  1.00  0.00     0.002 A 
ATOM     86  C   UNL A   1      45.580  26.208  35.569  1.00  0.00     0.091 A 
ATOM     87  F   UNL A   1      43.344  25.879  34.799  1.00  0.00    -0.205 F 
ATOM     88  C   UNL A   1      46.766  26.958  35.531  1.00  0.00     0.022 A 
BRANCH  86  89
ATOM     89  S   UNL A   1      45.538  24.799  36.683  1.00  0.00     0.127 S 
ATOM     90  O   UNL A   1      45.683  23.680  35.754  1.00  0.00    -0.237 OA
ATOM     91  O   UNL A   1      46.705  25.039  37.534  1.00  0.00    -0.237 OA
ATOM     92  O   UNL A   1      44.260  24.875  37.377  1.00  0.00    -0.744 OA
ENDBRANCH  86  89
ENDBRANCH  59  82
ENDBRANCH  33  34
ENDBRANCH  26  28
ENDBRANCH  25  26
ENDBRANCH  24  25
ENDBRANCH   1  24
TORSDOF 18
ENDMDL
