MODEL 1
REMARK VINA RESULT:     -11.0      0.000      0.000
REMARK SMILES Cc1cc(N[C@@H]2C=C[C@@H](C(=O)OCCOCCOC(=O)c3ccc(-c4c5nc(c(-c6cccc(S(=O)(=O)[O-])c6F)c6ccc([nH]6)c(-c6cccc(S(=O)(=O)[O-])c6F)c6nc(c(-c7cccc(S(=O)(=O)[O-])c7F)c7ccc4[nH]7)C=C6)C=C5)cc3)C2)nc(C)n1
REMARK SMILES IDX 16 1 15 2 14 3 13 4 12 5 10 6 11 7 9 8 6 9 7 10 84 11 8 12
REMARK SMILES IDX 5 13 4 15 1 16 2 17 3 18 88 19 86 20 85 21 87 22 17 23 18 24
REMARK SMILES IDX 19 25 20 26 21 27 22 28 83 29 23 30 82 31 24 32 25 33 26 34
REMARK SMILES IDX 76 35 27 36 81 37 75 38 77 39 28 40 80 41 74 42 73 43 29 45
REMARK SMILES IDX 61 46 41 47 60 48 42 49 45 50 59 51 78 52 43 53 44 54 58 56
REMARK SMILES IDX 79 57 46 58 30 59 31 60 39 61 32 62 34 63 40 64 33 65 35 66
REMARK SMILES IDX 36 67 37 68 38 69 62 70 63 71 71 72 64 73 66 74 72 75 65 76
REMARK SMILES IDX 67 77 68 78 69 79 70 80 47 81 48 82 56 83 49 84 51 85 57 86
REMARK SMILES IDX 50 87 52 88 53 89 54 90 55 91
REMARK H PARENT 5 14 77 44 45 55
REMARK Flexibility Score: inf
ROOT
ATOM      1  C   UNL A   1      37.526  20.625  24.606  1.00  0.00     0.202 C 
ENDROOT
BRANCH   1   2
ATOM      2  O   UNL A   1      36.448  20.965  25.484  1.00  0.00    -0.374 OA
BRANCH   2   3
ATOM      3  C   UNL A   1      35.119  20.828  24.987  1.00  0.00     0.202 C 
BRANCH   3   4
ATOM      4  C   UNL A   1      33.995  21.392  25.860  1.00  0.00     0.261 C 
BRANCH   4   5
ATOM      5  O   UNL A   1      33.153  22.298  25.131  1.00  0.00    -0.463 OA
BRANCH   5   6
ATOM      6  C   UNL A   1      32.978  23.506  25.719  1.00  0.00     0.312 C 
ATOM      7  O   UNL A   1      33.354  23.796  26.853  1.00  0.00    -0.252 OA
BRANCH   6   8
ATOM      8  C   UNL A   1      32.375  24.552  24.799  1.00  0.00     0.124 C 
ATOM      9  C   UNL A   1      31.740  25.057  22.479  1.00  0.00     0.104 C 
ATOM     10  C   UNL A   1      30.596  24.507  23.256  1.00  0.00    -0.006 C 
ATOM     11  C   UNL A   1      32.951  24.819  23.399  1.00  0.00     0.048 C 
ATOM     12  C   UNL A   1      30.937  24.219  24.517  1.00  0.00    -0.014 C 
BRANCH   9  13
ATOM     13  N   UNL A   1      31.504  26.436  22.093  1.00  0.00    -0.364 N 
ATOM     14  H   UNL A   1      31.739  26.613  21.153  1.00  0.00     0.162 HD
BRANCH  13  15
ATOM     15  C   UNL A   1      31.029  27.541  22.734  1.00  0.00     0.130 A 
ATOM     16  C   UNL A   1      31.666  29.937  25.542  1.00  0.00     0.067 C 
ATOM     17  C   UNL A   1      31.043  29.275  24.350  1.00  0.00     0.043 A 
ATOM     18  C   UNL A   1      31.552  28.079  23.883  1.00  0.00     0.070 A 
ATOM     19  N   UNL A   1      29.980  29.866  23.784  1.00  0.00    -0.238 NA
ATOM     20  C   UNL A   1      29.464  29.238  22.714  1.00  0.00     0.127 A 
ATOM     21  N   UNL A   1      29.967  28.120  22.149  1.00  0.00    -0.216 NA
ATOM     22  C   UNL A   1      28.203  29.799  22.137  1.00  0.00     0.090 C 
ENDBRANCH  13  15
ENDBRANCH   9  13
ENDBRANCH   6   8
ENDBRANCH   5   6
ENDBRANCH   4   5
ENDBRANCH   3   4
ENDBRANCH   2   3
ENDBRANCH   1   2
BRANCH   1  23
ATOM     23  C   UNL A   1      38.483  19.513  25.057  1.00  0.00     0.261 C 
BRANCH  23  24
ATOM     24  O   UNL A   1      39.060  19.779  26.352  1.00  0.00    -0.460 OA
BRANCH  24  25
ATOM     25  C   UNL A   1      40.367  20.136  26.331  1.00  0.00     0.338 C 
ATOM     26  O   UNL A   1      41.290  19.536  25.797  1.00  0.00    -0.246 OA
BRANCH  25  27
ATOM     27  C   UNL A   1      40.534  21.479  26.905  1.00  0.00     0.060 A 
ATOM     28  C   UNL A   1      39.880  22.552  26.282  1.00  0.00     0.016 A 
ATOM     29  C   UNL A   1      41.434  21.700  27.947  1.00  0.00     0.016 A 
ATOM     30  C   UNL A   1      40.153  23.857  26.680  1.00  0.00     0.010 A 
ATOM     31  C   UNL A   1      41.720  23.013  28.332  1.00  0.00     0.010 A 
ATOM     32  C   UNL A   1      41.109  24.096  27.675  1.00  0.00    -0.014 A 
BRANCH  32  33
ATOM     33  C   UNL A   1      41.588  25.477  27.908  1.00  0.00     0.031 A 
ATOM     34  C   UNL A   1      42.974  25.848  27.461  1.00  0.00     0.074 A 
ATOM     35  C   UNL A   1      40.796  26.391  28.496  1.00  0.00     0.049 A 
ATOM     36  N   UNL A   1      43.598  26.991  27.574  1.00  0.00    -0.248 NA
ATOM     37  C   UNL A   1      43.760  24.796  26.792  1.00  0.00     0.031 C 
ATOM     38  C   UNL A   1      39.427  26.153  28.951  1.00  0.00     0.029 A 
ATOM     39  N   UNL A   1      41.039  27.701  28.822  1.00  0.00    -0.354 N 
ATOM     40  C   UNL A   1      44.851  26.794  27.007  1.00  0.00     0.074 A 
ATOM     41  C   UNL A   1      44.904  25.422  26.554  1.00  0.00     0.031 C 
ATOM     42  C   UNL A   1      38.959  27.277  29.520  1.00  0.00     0.029 A 
ATOM     43  C   UNL A   1      39.998  28.304  29.483  1.00  0.00     0.049 A 
ATOM     44  H   UNL A   1      41.881  28.163  28.603  1.00  0.00     0.167 HD
ATOM     45  C   UNL A   1      45.860  27.683  26.862  1.00  0.00     0.034 A 
ATOM     46  C   UNL A   1      39.900  29.541  30.010  1.00  0.00     0.034 A 
ATOM     47  C   UNL A   1      45.801  29.050  27.294  1.00  0.00     0.049 A 
ATOM     48  C   UNL A   1      41.053  30.499  29.873  1.00  0.00     0.074 A 
ATOM     49  C   UNL A   1      46.766  30.033  27.158  1.00  0.00     0.029 A 
ATOM     50  N   UNL A   1      44.727  29.626  27.951  1.00  0.00    -0.354 N 
ATOM     51  N   UNL A   1      42.197  30.324  29.256  1.00  0.00    -0.248 NA
ATOM     52  C   UNL A   1      40.896  31.828  30.483  1.00  0.00     0.031 C 
ATOM     53  C   UNL A   1      46.277  31.204  27.744  1.00  0.00     0.029 A 
ATOM     54  C   UNL A   1      45.006  30.950  28.235  1.00  0.00     0.049 A 
ATOM     55  H   UNL A   1      43.890  29.162  28.181  1.00  0.00     0.167 HD
ATOM     56  C   UNL A   1      42.886  31.526  29.383  1.00  0.00     0.074 A 
ATOM     57  C   UNL A   1      42.028  32.425  30.126  1.00  0.00     0.031 C 
ATOM     58  C   UNL A   1      44.123  31.848  28.933  1.00  0.00     0.034 A 
BRANCH  45  59
ATOM     59  C   UNL A   1      47.108  27.221  26.166  1.00  0.00     0.023 A 
ATOM     60  C   UNL A   1      47.268  27.496  24.794  1.00  0.00     0.012 A 
ATOM     61  C   UNL A   1      48.151  26.604  26.882  1.00  0.00     0.148 A 
ATOM     62  C   UNL A   1      48.452  27.159  24.140  1.00  0.00     0.002 A 
ATOM     63  C   UNL A   1      49.338  26.294  26.229  1.00  0.00     0.091 A 
ATOM     64  F   UNL A   1      47.963  26.340  28.182  1.00  0.00    -0.205 F 
ATOM     65  C   UNL A   1      49.488  26.567  24.858  1.00  0.00     0.022 A 
BRANCH  63  66
ATOM     66  S   UNL A   1      50.752  25.577  27.071  1.00  0.00     0.127 S 
ATOM     67  O   UNL A   1      51.719  25.464  25.979  1.00  0.00    -0.237 OA
ATOM     68  O   UNL A   1      51.070  26.604  28.063  1.00  0.00    -0.237 OA
ATOM     69  O   UNL A   1      50.295  24.309  27.623  1.00  0.00    -0.744 OA
ENDBRANCH  63  66
ENDBRANCH  45  59
BRANCH  46  70
ATOM     70  C   UNL A   1      38.636  29.952  30.677  1.00  0.00     0.023 A 
ATOM     71  C   UNL A   1      38.431  29.621  32.029  1.00  0.00     0.012 A 
ATOM     72  C   UNL A   1      37.669  30.717  29.997  1.00  0.00     0.148 A 
ATOM     73  C   UNL A   1      37.280  30.040  32.694  1.00  0.00     0.002 A 
ATOM     74  C   UNL A   1      36.541  31.163  30.675  1.00  0.00     0.091 A 
ATOM     75  F   UNL A   1      37.887  31.011  28.707  1.00  0.00    -0.205 F 
ATOM     76  C   UNL A   1      36.340  30.819  32.021  1.00  0.00     0.022 A 
BRANCH  74  77
ATOM     77  S   UNL A   1      35.324  32.250  29.925  1.00  0.00     0.127 S 
ATOM     78  O   UNL A   1      34.398  32.473  31.033  1.00  0.00    -0.237 OA
ATOM     79  O   UNL A   1      36.143  33.407  29.562  1.00  0.00    -0.237 OA
ATOM     80  O   UNL A   1      34.777  31.515  28.793  1.00  0.00    -0.744 OA
ENDBRANCH  74  77
ENDBRANCH  46  70
BRANCH  58  81
ATOM     81  C   UNL A   1      44.645  33.231  29.210  1.00  0.00     0.023 A 
ATOM     82  C   UNL A   1      45.357  33.471  30.400  1.00  0.00     0.012 A 
ATOM     83  C   UNL A   1      44.558  34.240  28.232  1.00  0.00     0.148 A 
ATOM     84  C   UNL A   1      45.975  34.702  30.615  1.00  0.00     0.002 A 
ATOM     85  C   UNL A   1      45.205  35.453  28.439  1.00  0.00     0.091 A 
ATOM     86  F   UNL A   1      43.868  33.985  27.111  1.00  0.00    -0.205 F 
ATOM     87  C   UNL A   1      45.910  35.686  29.631  1.00  0.00     0.022 A 
BRANCH  85  88
ATOM     88  S   UNL A   1      45.247  36.753  27.200  1.00  0.00     0.127 S 
ATOM     89  O   UNL A   1      46.013  36.117  26.128  1.00  0.00    -0.237 OA
ATOM     90  O   UNL A   1      43.827  36.943  26.904  1.00  0.00    -0.237 OA
ATOM     91  O   UNL A   1      45.896  37.894  27.831  1.00  0.00    -0.744 OA
ENDBRANCH  85  88
ENDBRANCH  58  81
ENDBRANCH  32  33
ENDBRANCH  25  27
ENDBRANCH  24  25
ENDBRANCH  23  24
ENDBRANCH   1  23
TORSDOF 19
ENDMDL
MODEL 2
REMARK VINA RESULT:     -10.8      1.805      2.328
REMARK SMILES Cc1cc(N[C@@H]2C=C[C@@H](C(=O)OCCOCCOC(=O)c3ccc(-c4c5nc(c(-c6cccc(S(=O)(=O)[O-])c6F)c6ccc([nH]6)c(-c6cccc(S(=O)(=O)[O-])c6F)c6nc(c(-c7cccc(S(=O)(=O)[O-])c7F)c7ccc4[nH]7)C=C6)C=C5)cc3)C2)nc(C)n1
REMARK SMILES IDX 16 1 15 2 14 3 13 4 12 5 10 6 11 7 9 8 6 9 7 10 84 11 8 12
REMARK SMILES IDX 5 13 4 15 1 16 2 17 3 18 88 19 86 20 85 21 87 22 17 23 18 24
REMARK SMILES IDX 19 25 20 26 21 27 22 28 83 29 23 30 82 31 24 32 25 33 26 34
REMARK SMILES IDX 76 35 27 36 81 37 75 38 77 39 28 40 80 41 74 42 73 43 29 45
REMARK SMILES IDX 61 46 41 47 60 48 42 49 45 50 59 51 78 52 43 53 44 54 58 56
REMARK SMILES IDX 79 57 46 58 30 59 31 60 39 61 32 62 34 63 40 64 33 65 35 66
REMARK SMILES IDX 36 67 37 68 38 69 62 70 63 71 71 72 64 73 66 74 72 75 65 76
REMARK SMILES IDX 67 77 68 78 69 79 70 80 47 81 48 82 56 83 49 84 51 85 57 86
REMARK SMILES IDX 50 87 52 88 53 89 54 90 55 91
REMARK H PARENT 5 14 77 44 45 55
REMARK Flexibility Score: inf
ROOT
ATOM      1  C   UNL A   1      37.798  19.702  24.933  1.00  0.00     0.202 C 
ENDROOT
BRANCH   1   2
ATOM      2  O   UNL A   1      36.454  19.212  24.951  1.00  0.00    -0.374 OA
BRANCH   2   3
ATOM      3  C   UNL A   1      35.399  20.169  24.991  1.00  0.00     0.202 C 
BRANCH   3   4
ATOM      4  C   UNL A   1      34.003  19.673  24.602  1.00  0.00     0.261 C 
BRANCH   4   5
ATOM      5  O   UNL A   1      32.970  20.540  25.093  1.00  0.00    -0.463 OA
BRANCH   5   6
ATOM      6  C   UNL A   1      32.390  21.321  24.150  1.00  0.00     0.312 C 
ATOM      7  O   UNL A   1      32.157  20.970  22.995  1.00  0.00    -0.252 OA
BRANCH   6   8
ATOM      8  C   UNL A   1      31.917  22.664  24.675  1.00  0.00     0.124 C 
ATOM      9  C   UNL A   1      31.321  23.933  26.693  1.00  0.00     0.104 C 
ATOM     10  C   UNL A   1      32.746  24.135  26.316  1.00  0.00    -0.006 C 
ATOM     11  C   UNL A   1      30.871  22.766  25.796  1.00  0.00     0.048 C 
ATOM     12  C   UNL A   1      33.081  23.439  25.225  1.00  0.00    -0.014 C 
BRANCH   9  13
ATOM     13  N   UNL A   1      30.559  25.161  26.560  1.00  0.00    -0.364 N 
ATOM     14  H   UNL A   1      29.632  25.070  26.882  1.00  0.00     0.162 HD
BRANCH  13  15
ATOM     15  C   UNL A   1      30.833  26.411  26.092  1.00  0.00     0.130 A 
ATOM     16  C   UNL A   1      32.418  29.697  26.940  1.00  0.00     0.067 C 
ATOM     17  C   UNL A   1      31.720  28.607  26.183  1.00  0.00     0.043 A 
ATOM     18  C   UNL A   1      31.383  27.432  26.826  1.00  0.00     0.070 A 
ATOM     19  N   UNL A   1      31.422  28.825  24.894  1.00  0.00    -0.238 NA
ATOM     20  C   UNL A   1      30.806  27.814  24.259  1.00  0.00     0.127 A 
ATOM     21  N   UNL A   1      30.531  26.607  24.797  1.00  0.00    -0.216 NA
ATOM     22  C   UNL A   1      30.344  28.069  22.859  1.00  0.00     0.090 C 
ENDBRANCH  13  15
ENDBRANCH   9  13
ENDBRANCH   6   8
ENDBRANCH   5   6
ENDBRANCH   4   5
ENDBRANCH   3   4
ENDBRANCH   2   3
ENDBRANCH   1   2
BRANCH   1  23
ATOM     23  C   UNL A   1      38.032  21.149  25.388  1.00  0.00     0.261 C 
BRANCH  23  24
ATOM     24  O   UNL A   1      39.433  21.482  25.457  1.00  0.00    -0.460 OA
BRANCH  24  25
ATOM     25  C   UNL A   1      40.002  21.307  26.674  1.00  0.00     0.338 C 
ATOM     26  O   UNL A   1      40.409  20.259  27.156  1.00  0.00    -0.246 OA
BRANCH  25  27
ATOM     27  C   UNL A   1      40.244  22.609  27.311  1.00  0.00     0.060 A 
ATOM     28  C   UNL A   1      39.443  23.694  26.928  1.00  0.00     0.016 A 
ATOM     29  C   UNL A   1      41.335  22.793  28.162  1.00  0.00     0.016 A 
ATOM     30  C   UNL A   1      39.754  24.978  27.371  1.00  0.00     0.010 A 
ATOM     31  C   UNL A   1      41.655  24.085  28.589  1.00  0.00     0.010 A 
ATOM     32  C   UNL A   1      40.888  25.185  28.165  1.00  0.00    -0.014 A 
BRANCH  32  33
ATOM     33  C   UNL A   1      41.363  26.565  28.410  1.00  0.00     0.031 A 
ATOM     34  C   UNL A   1      42.769  26.927  28.017  1.00  0.00     0.074 A 
ATOM     35  C   UNL A   1      40.552  27.485  28.959  1.00  0.00     0.049 A 
ATOM     36  N   UNL A   1      43.392  28.068  28.149  1.00  0.00    -0.248 NA
ATOM     37  C   UNL A   1      43.576  25.868  27.386  1.00  0.00     0.031 C 
ATOM     38  C   UNL A   1      39.165  27.255  29.359  1.00  0.00     0.029 A 
ATOM     39  N   UNL A   1      40.788  28.796  29.287  1.00  0.00    -0.354 N 
ATOM     40  C   UNL A   1      44.667  27.862  27.635  1.00  0.00     0.074 A 
ATOM     41  C   UNL A   1      44.732  26.488  27.192  1.00  0.00     0.031 C 
ATOM     42  C   UNL A   1      38.679  28.385  29.903  1.00  0.00     0.029 A 
ATOM     43  C   UNL A   1      39.724  29.408  29.903  1.00  0.00     0.049 A 
ATOM     44  H   UNL A   1      41.640  29.253  29.101  1.00  0.00     0.167 HD
ATOM     45  C   UNL A   1      45.685  28.746  27.526  1.00  0.00     0.034 A 
ATOM     46  C   UNL A   1      39.610  30.647  30.418  1.00  0.00     0.034 A 
ATOM     47  C   UNL A   1      45.615  30.116  27.948  1.00  0.00     0.049 A 
ATOM     48  C   UNL A   1      40.771  31.600  30.323  1.00  0.00     0.074 A 
ATOM     49  C   UNL A   1      46.588  31.094  27.847  1.00  0.00     0.029 A 
ATOM     50  N   UNL A   1      44.517  30.700  28.558  1.00  0.00    -0.354 N 
ATOM     51  N   UNL A   1      41.939  31.417  29.755  1.00  0.00    -0.248 NA
ATOM     52  C   UNL A   1      40.596  32.933  30.919  1.00  0.00     0.031 C 
ATOM     53  C   UNL A   1      46.082  32.271  28.406  1.00  0.00     0.029 A 
ATOM     54  C   UNL A   1      44.790  32.024  28.845  1.00  0.00     0.049 A 
ATOM     55  H   UNL A   1      43.669  30.242  28.756  1.00  0.00     0.167 HD
ATOM     56  C   UNL A   1      42.628  32.616  29.903  1.00  0.00     0.074 A 
ATOM     57  C   UNL A   1      41.744  33.523  30.605  1.00  0.00     0.031 C 
ATOM     58  C   UNL A   1      43.883  32.930  29.502  1.00  0.00     0.034 A 
BRANCH  45  59
ATOM     59  C   UNL A   1      46.958  28.275  26.885  1.00  0.00     0.023 A 
ATOM     60  C   UNL A   1      48.023  27.857  27.706  1.00  0.00     0.012 A 
ATOM     61  C   UNL A   1      47.066  28.159  25.487  1.00  0.00     0.148 A 
ATOM     62  C   UNL A   1      49.185  27.333  27.143  1.00  0.00     0.002 A 
ATOM     63  C   UNL A   1      48.217  27.612  24.934  1.00  0.00     0.091 A 
ATOM     64  F   UNL A   1      46.043  28.581  24.730  1.00  0.00    -0.205 F 
ATOM     65  C   UNL A   1      49.278  27.202  25.759  1.00  0.00     0.022 A 
BRANCH  63  66
ATOM     66  S   UNL A   1      48.419  27.353  23.168  1.00  0.00     0.127 S 
ATOM     67  O   UNL A   1      47.339  28.175  22.624  1.00  0.00    -0.237 OA
ATOM     68  O   UNL A   1      49.764  27.880  22.934  1.00  0.00    -0.237 OA
ATOM     69  O   UNL A   1      48.274  25.920  22.949  1.00  0.00    -0.744 OA
ENDBRANCH  63  66
ENDBRANCH  45  59
BRANCH  46  70
ATOM     70  C   UNL A   1      38.321  31.068  31.030  1.00  0.00     0.023 A 
ATOM     71  C   UNL A   1      38.118  30.874  32.410  1.00  0.00     0.012 A 
ATOM     72  C   UNL A   1      37.327  31.710  30.267  1.00  0.00     0.148 A 
ATOM     73  C   UNL A   1      36.942  31.307  33.019  1.00  0.00     0.002 A 
ATOM     74  C   UNL A   1      36.173  32.172  30.888  1.00  0.00     0.091 A 
ATOM     75  F   UNL A   1      37.544  31.874  28.955  1.00  0.00    -0.205 F 
ATOM     76  C   UNL A   1      35.974  31.965  32.262  1.00  0.00     0.022 A 
BRANCH  74  77
ATOM     77  S   UNL A   1      34.914  33.115  30.019  1.00  0.00     0.127 S 
ATOM     78  O   UNL A   1      35.711  34.166  29.389  1.00  0.00    -0.237 OA
ATOM     79  O   UNL A   1      34.375  32.113  29.100  1.00  0.00    -0.237 OA
ATOM     80  O   UNL A   1      33.980  33.567  31.041  1.00  0.00    -0.744 OA
ENDBRANCH  74  77
ENDBRANCH  46  70
BRANCH  58  81
ATOM     81  C   UNL A   1      44.400  34.312  29.793  1.00  0.00     0.023 A 
ATOM     82  C   UNL A   1      45.021  34.568  31.029  1.00  0.00     0.012 A 
ATOM     83  C   UNL A   1      44.402  35.303  28.792  1.00  0.00     0.148 A 
ATOM     84  C   UNL A   1      45.636  35.796  31.269  1.00  0.00     0.002 A 
ATOM     85  C   UNL A   1      45.046  36.512  29.025  1.00  0.00     0.091 A 
ATOM     86  F   UNL A   1      43.798  35.034  27.626  1.00  0.00    -0.205 F 
ATOM     87  C   UNL A   1      45.659  36.761  30.264  1.00  0.00     0.022 A 
BRANCH  85  88
ATOM     88  S   UNL A   1      45.201  37.787  27.769  1.00  0.00     0.127 S 
ATOM     89  O   UNL A   1      46.063  38.761  28.438  1.00  0.00    -0.237 OA
ATOM     90  O   UNL A   1      45.838  37.061  26.670  1.00  0.00    -0.237 OA
ATOM     91  O   UNL A   1      43.847  38.248  27.491  1.00  0.00    -0.744 OA
ENDBRANCH  85  88
ENDBRANCH  58  81
ENDBRANCH  32  33
ENDBRANCH  25  27
ENDBRANCH  24  25
ENDBRANCH  23  24
ENDBRANCH   1  23
TORSDOF 19
ENDMDL
MODEL 3
REMARK VINA RESULT:     -10.5      5.238      8.361
REMARK SMILES Cc1cc(N[C@@H]2C=C[C@@H](C(=O)OCCOCCOC(=O)c3ccc(-c4c5nc(c(-c6cccc(S(=O)(=O)[O-])c6F)c6ccc([nH]6)c(-c6cccc(S(=O)(=O)[O-])c6F)c6nc(c(-c7cccc(S(=O)(=O)[O-])c7F)c7ccc4[nH]7)C=C6)C=C5)cc3)C2)nc(C)n1
REMARK SMILES IDX 16 1 15 2 14 3 13 4 12 5 10 6 11 7 9 8 6 9 7 10 84 11 8 12
REMARK SMILES IDX 5 13 4 15 1 16 2 17 3 18 88 19 86 20 85 21 87 22 17 23 18 24
REMARK SMILES IDX 19 25 20 26 21 27 22 28 83 29 23 30 82 31 24 32 25 33 26 34
REMARK SMILES IDX 76 35 27 36 81 37 75 38 77 39 28 40 80 41 74 42 73 43 29 45
REMARK SMILES IDX 61 46 41 47 60 48 42 49 45 50 59 51 78 52 43 53 44 54 58 56
REMARK SMILES IDX 79 57 46 58 30 59 31 60 39 61 32 62 34 63 40 64 33 65 35 66
REMARK SMILES IDX 36 67 37 68 38 69 62 70 63 71 71 72 64 73 66 74 72 75 65 76
REMARK SMILES IDX 67 77 68 78 69 79 70 80 47 81 48 82 56 83 49 84 51 85 57 86
REMARK SMILES IDX 50 87 52 88 53 89 54 90 55 91
REMARK H PARENT 5 14 77 44 45 55
REMARK Flexibility Score: inf
ROOT
ATOM      1  C   UNL A   1      31.866  29.492  27.026  1.00  0.00     0.202 C 
ENDROOT
BRANCH   1   2
ATOM      2  O   UNL A   1      31.456  28.770  25.860  1.00  0.00    -0.374 OA
BRANCH   2   3
ATOM      3  C   UNL A   1      31.213  29.515  24.670  1.00  0.00     0.202 C 
BRANCH   3   4
ATOM      4  C   UNL A   1      30.190  28.933  23.689  1.00  0.00     0.261 C 
BRANCH   4   5
ATOM      5  O   UNL A   1      30.784  28.612  22.423  1.00  0.00    -0.463 OA
BRANCH   5   6
ATOM      6  C   UNL A   1      32.034  28.092  22.498  1.00  0.00     0.312 C 
ATOM      7  O   UNL A   1      33.066  28.755  22.569  1.00  0.00    -0.252 OA
BRANCH   6   8
ATOM      8  C   UNL A   1      32.060  26.580  22.622  1.00  0.00     0.124 C 
ATOM      9  C   UNL A   1      33.101  24.517  21.785  1.00  0.00     0.104 C 
ATOM     10  C   UNL A   1      33.789  25.026  23.003  1.00  0.00    -0.006 C 
ATOM     11  C   UNL A   1      32.169  25.674  21.385  1.00  0.00     0.048 C 
ATOM     12  C   UNL A   1      33.234  26.154  23.457  1.00  0.00    -0.014 C 
BRANCH   9  13
ATOM     13  N   UNL A   1      32.453  23.243  22.036  1.00  0.00    -0.364 N 
ATOM     14  H   UNL A   1      32.140  22.806  21.210  1.00  0.00     0.162 HD
BRANCH  13  15
ATOM     15  C   UNL A   1      32.178  22.513  23.154  1.00  0.00     0.130 A 
ATOM     16  C   UNL A   1      32.693  19.202  24.828  1.00  0.00     0.067 C 
ATOM     17  C   UNL A   1      32.263  20.615  24.572  1.00  0.00     0.043 A 
ATOM     18  C   UNL A   1      32.491  21.189  23.336  1.00  0.00     0.070 A 
ATOM     19  N   UNL A   1      31.639  21.275  25.559  1.00  0.00    -0.238 NA
ATOM     20  C   UNL A   1      31.283  22.540  25.282  1.00  0.00     0.127 A 
ATOM     21  N   UNL A   1      31.557  23.194  24.133  1.00  0.00    -0.216 NA
ATOM     22  C   UNL A   1      30.473  23.262  26.312  1.00  0.00     0.090 C 
ENDBRANCH  13  15
ENDBRANCH   9  13
ENDBRANCH   6   8
ENDBRANCH   5   6
ENDBRANCH   4   5
ENDBRANCH   3   4
ENDBRANCH   2   3
ENDBRANCH   1   2
BRANCH   1  23
ATOM     23  C   UNL A   1      32.009  31.015  26.903  1.00  0.00     0.261 C 
BRANCH  23  24
ATOM     24  O   UNL A   1      33.370  31.420  26.658  1.00  0.00    -0.460 OA
BRANCH  24  25
ATOM     25  C   UNL A   1      33.919  32.193  27.627  1.00  0.00     0.338 C 
ATOM     26  O   UNL A   1      33.377  33.099  28.245  1.00  0.00    -0.246 OA
BRANCH  25  27
ATOM     27  C   UNL A   1      35.248  31.682  27.990  1.00  0.00     0.060 A 
ATOM     28  C   UNL A   1      35.388  30.307  28.228  1.00  0.00     0.016 A 
ATOM     29  C   UNL A   1      36.305  32.559  28.235  1.00  0.00     0.016 A 
ATOM     30  C   UNL A   1      36.580  29.809  28.746  1.00  0.00     0.010 A 
ATOM     31  C   UNL A   1      37.494  32.058  28.774  1.00  0.00     0.010 A 
ATOM     32  C   UNL A   1      37.622  30.689  29.065  1.00  0.00    -0.014 A 
BRANCH  32  33
ATOM     33  C   UNL A   1      38.773  30.198  29.855  1.00  0.00     0.031 A 
ATOM     34  C   UNL A   1      39.664  29.143  29.259  1.00  0.00     0.074 A 
ATOM     35  C   UNL A   1      39.030  30.693  31.078  1.00  0.00     0.049 A 
ATOM     36  N   UNL A   1      40.716  28.566  29.776  1.00  0.00    -0.248 NA
ATOM     37  C   UNL A   1      39.331  28.684  27.899  1.00  0.00     0.031 C 
ATOM     38  C   UNL A   1      38.250  31.732  31.748  1.00  0.00     0.029 A 
ATOM     39  N   UNL A   1      40.015  30.374  31.977  1.00  0.00    -0.354 N 
ATOM     40  C   UNL A   1      41.161  27.665  28.816  1.00  0.00     0.074 A 
ATOM     41  C   UNL A   1      40.265  27.768  27.686  1.00  0.00     0.031 C 
ATOM     42  C   UNL A   1      38.775  31.948  32.967  1.00  0.00     0.029 A 
ATOM     43  C   UNL A   1      39.914  31.054  33.166  1.00  0.00     0.049 A 
ATOM     44  H   UNL A   1      40.725  29.718  31.789  1.00  0.00     0.167 HD
ATOM     45  C   UNL A   1      42.231  26.840  28.866  1.00  0.00     0.034 A 
ATOM     46  C   UNL A   1      40.649  30.957  34.291  1.00  0.00     0.034 A 
ATOM     47  C   UNL A   1      43.132  26.751  29.980  1.00  0.00     0.049 A 
ATOM     48  C   UNL A   1      41.810  30.000  34.338  1.00  0.00     0.074 A 
ATOM     49  C   UNL A   1      44.264  25.965  30.105  1.00  0.00     0.029 A 
ATOM     50  N   UNL A   1      43.002  27.462  31.161  1.00  0.00    -0.354 N 
ATOM     51  N   UNL A   1      42.271  29.221  33.390  1.00  0.00    -0.248 NA
ATOM     52  C   UNL A   1      42.565  29.923  35.598  1.00  0.00     0.031 C 
ATOM     53  C   UNL A   1      44.814  26.194  31.369  1.00  0.00     0.029 A 
ATOM     54  C   UNL A   1      44.028  27.130  32.025  1.00  0.00     0.049 A 
ATOM     55  H   UNL A   1      42.286  28.109  31.356  1.00  0.00     0.167 HD
ATOM     56  C   UNL A   1      43.381  28.579  33.928  1.00  0.00     0.074 A 
ATOM     57  C   UNL A   1      43.532  29.068  35.283  1.00  0.00     0.031 C 
ATOM     58  C   UNL A   1      44.193  27.660  33.353  1.00  0.00     0.034 A 
BRANCH  45  59
ATOM     59  C   UNL A   1      42.521  25.991  27.662  1.00  0.00     0.023 A 
ATOM     60  C   UNL A   1      43.352  26.504  26.647  1.00  0.00     0.012 A 
ATOM     61  C   UNL A   1      42.051  24.667  27.579  1.00  0.00     0.148 A 
ATOM     62  C   UNL A   1      43.710  25.710  25.560  1.00  0.00     0.002 A 
ATOM     63  C   UNL A   1      42.434  23.873  26.504  1.00  0.00     0.091 A 
ATOM     64  F   UNL A   1      41.248  24.212  28.551  1.00  0.00    -0.205 F 
ATOM     65  C   UNL A   1      43.259  24.393  25.493  1.00  0.00     0.022 A 
BRANCH  63  66
ATOM     66  S   UNL A   1      41.950  22.151  26.348  1.00  0.00     0.127 S 
ATOM     67  O   UNL A   1      42.383  21.605  27.634  1.00  0.00    -0.237 OA
ATOM     68  O   UNL A   1      40.500  22.254  26.186  1.00  0.00    -0.237 OA
ATOM     69  O   UNL A   1      42.662  21.634  25.187  1.00  0.00    -0.744 OA
ENDBRANCH  63  66
ENDBRANCH  45  59
BRANCH  46  70
ATOM     70  C   UNL A   1      40.328  31.831  35.451  1.00  0.00     0.023 A 
ATOM     71  C   UNL A   1      41.118  32.970  35.694  1.00  0.00     0.012 A 
ATOM     72  C   UNL A   1      39.215  31.571  36.273  1.00  0.00     0.148 A 
ATOM     73  C   UNL A   1      40.807  33.836  36.743  1.00  0.00     0.002 A 
ATOM     74  C   UNL A   1      38.889  32.458  37.292  1.00  0.00     0.091 A 
ATOM     75  F   UNL A   1      38.485  30.475  36.022  1.00  0.00    -0.205 F 
ATOM     76  C   UNL A   1      39.689  33.586  37.535  1.00  0.00     0.022 A 
BRANCH  74  77
ATOM     77  S   UNL A   1      37.415  32.276  38.303  1.00  0.00     0.127 S 
ATOM     78  O   UNL A   1      37.264  30.823  38.352  1.00  0.00    -0.237 OA
ATOM     79  O   UNL A   1      37.838  32.895  39.559  1.00  0.00    -0.237 OA
ATOM     80  O   UNL A   1      36.359  32.991  37.599  1.00  0.00    -0.744 OA
ENDBRANCH  74  77
ENDBRANCH  46  70
BRANCH  58  81
ATOM     81  C   UNL A   1      45.336  27.112  34.163  1.00  0.00     0.023 A 
ATOM     82  C   UNL A   1      46.566  27.795  34.167  1.00  0.00     0.012 A 
ATOM     83  C   UNL A   1      45.143  26.016  35.028  1.00  0.00     0.148 A 
ATOM     84  C   UNL A   1      47.594  27.393  35.019  1.00  0.00     0.002 A 
ATOM     85  C   UNL A   1      46.160  25.642  35.898  1.00  0.00     0.091 A 
ATOM     86  F   UNL A   1      43.963  25.381  34.999  1.00  0.00    -0.205 F 
ATOM     87  C   UNL A   1      47.387  26.326  35.891  1.00  0.00     0.022 A 
BRANCH  85  88
ATOM     88  S   UNL A   1      45.963  24.334  37.114  1.00  0.00     0.127 S 
ATOM     89  O   UNL A   1      45.754  23.164  36.261  1.00  0.00    -0.237 OA
ATOM     90  O   UNL A   1      47.250  24.362  37.808  1.00  0.00    -0.237 OA
ATOM     91  O   UNL A   1      44.820  24.713  37.934  1.00  0.00    -0.744 OA
ENDBRANCH  85  88
ENDBRANCH  58  81
ENDBRANCH  32  33
ENDBRANCH  25  27
ENDBRANCH  24  25
ENDBRANCH  23  24
ENDBRANCH   1  23
TORSDOF 19
ENDMDL
