MODEL 1
REMARK VINA RESULT:     -12.1      0.000      0.000
REMARK SMILES CC(C)n1c2c(c3ccccc31)[C@@H](c1ccccc1)N(CC(=O)OCCOCCOC(=O)c1ccc(-c3c4nc(c(-c5cccc(S(=O)(=O)[O-])c5F)c5ccc([nH]5)c(-c5cccc(S(=O)(=O)[O-])c5F)c5nc(c(-c6cccc(S(=O)(=O)[O-])c6F)c6ccc3[nH]6)C=C5)C=C4)cc1)C2=O
REMARK SMILES IDX 28 1 27 2 26 3 25 4 24 5 22 6 23 7 21 8 20 9 4 10 5 11 12 12
REMARK SMILES IDX 6 13 96 14 7 15 11 16 13 17 97 18 8 19 10 20 9 21 2 22 1 23
REMARK SMILES IDX 3 24 14 25 15 26 19 27 16 28 18 29 17 30 29 31 30 32 31 33
REMARK SMILES IDX 32 34 33 35 34 36 95 37 35 38 94 39 36 40 37 41 38 42 88 43
REMARK SMILES IDX 39 44 93 45 87 46 89 47 40 48 92 49 86 50 85 51 41 53 73 54
REMARK SMILES IDX 53 55 72 56 54 57 57 58 71 59 90 60 55 61 56 62 70 64 91 65
REMARK SMILES IDX 58 66 42 67 43 68 51 69 44 70 46 71 52 72 45 73 47 74 48 75
REMARK SMILES IDX 49 76 50 77 74 78 75 79 83 80 76 81 78 82 84 83 77 84 79 85
REMARK SMILES IDX 80 86 81 87 82 88 59 89 60 90 68 91 61 92 63 93 69 94 62 95
REMARK SMILES IDX 64 96 65 97 66 98 67 99
REMARK H PARENT 89 52 57 63
REMARK Flexibility Score: inf
ROOT
ATOM      1  C   UNL A   1      38.137  21.461  25.748  1.00  0.00     0.202 C 
ENDROOT
BRANCH   1   2
ATOM      2  O   UNL A   1      37.530  22.716  25.454  1.00  0.00    -0.374 OA
BRANCH   2   3
ATOM      3  C   UNL A   1      37.124  22.946  24.111  1.00  0.00     0.202 C 
BRANCH   3   4
ATOM      4  C   UNL A   1      35.688  22.572  23.720  1.00  0.00     0.261 C 
BRANCH   4   5
ATOM      5  O   UNL A   1      35.149  23.348  22.623  1.00  0.00    -0.462 OA
BRANCH   5   6
ATOM      6  C   UNL A   1      33.791  23.360  22.549  1.00  0.00     0.325 C 
ATOM      7  O   UNL A   1      33.071  22.415  22.864  1.00  0.00    -0.250 OA
BRANCH   6   8
ATOM      8  C   UNL A   1      33.167  24.671  22.062  1.00  0.00     0.243 C 
BRANCH   8   9
ATOM      9  N   UNL A   1      32.683  25.694  22.979  1.00  0.00    -0.315 N 
ATOM     10  N   UNL A   1      31.051  28.743  24.005  1.00  0.00    -0.334 N 
ATOM     11  C   UNL A   1      31.659  27.558  23.681  1.00  0.00     0.114 A 
ATOM     12  C   UNL A   1      31.690  29.224  25.166  1.00  0.00     0.049 A 
ATOM     13  C   UNL A   1      32.572  27.217  24.640  1.00  0.00     0.018 A 
ATOM     14  C   UNL A   1      31.667  26.589  22.622  1.00  0.00     0.272 C 
ATOM     15  C   UNL A   1      32.650  28.263  25.564  1.00  0.00     0.006 A 
ATOM     16  C   UNL A   1      31.557  30.407  25.923  1.00  0.00     0.027 A 
ATOM     17  C   UNL A   1      33.240  25.928  24.327  1.00  0.00     0.150 C 
ATOM     18  O   UNL A   1      30.983  26.535  21.625  1.00  0.00    -0.267 OA
ATOM     19  C   UNL A   1      33.457  28.492  26.697  1.00  0.00     0.011 A 
ATOM     20  C   UNL A   1      32.375  30.613  27.041  1.00  0.00     0.002 A 
ATOM     21  C   UNL A   1      33.315  29.671  27.425  1.00  0.00     0.001 A 
BRANCH  10  22
ATOM     22  C   UNL A   1      29.900  29.296  23.274  1.00  0.00     0.082 C 
ATOM     23  C   UNL A   1      30.165  29.853  21.871  1.00  0.00     0.031 C 
ATOM     24  C   UNL A   1      28.724  28.316  23.148  1.00  0.00     0.031 C 
ENDBRANCH  10  22
BRANCH  17  25
ATOM     25  C   UNL A   1      32.855  24.860  25.350  1.00  0.00    -0.021 A 
ATOM     26  C   UNL A   1      33.889  24.219  26.064  1.00  0.00     0.006 A 
ATOM     27  C   UNL A   1      31.538  24.460  25.650  1.00  0.00     0.006 A 
ATOM     28  C   UNL A   1      33.625  23.220  27.008  1.00  0.00     0.000 A 
ATOM     29  C   UNL A   1      31.270  23.483  26.619  1.00  0.00     0.000 A 
ATOM     30  C   UNL A   1      32.314  22.857  27.292  1.00  0.00     0.000 A 
ENDBRANCH  17  25
ENDBRANCH   8   9
ENDBRANCH   6   8
ENDBRANCH   5   6
ENDBRANCH   4   5
ENDBRANCH   3   4
ENDBRANCH   2   3
ENDBRANCH   1   2
BRANCH   1  31
ATOM     31  C   UNL A   1      39.641  21.457  26.083  1.00  0.00     0.261 C 
BRANCH  31  32
ATOM     32  O   UNL A   1      40.070  22.735  26.576  1.00  0.00    -0.460 OA
BRANCH  32  33
ATOM     33  C   UNL A   1      41.398  22.974  26.380  1.00  0.00     0.338 C 
ATOM     34  O   UNL A   1      42.152  22.344  25.659  1.00  0.00    -0.246 OA
BRANCH  33  35
ATOM     35  C   UNL A   1      41.595  24.371  26.807  1.00  0.00     0.060 A 
ATOM     36  C   UNL A   1      42.617  24.717  27.697  1.00  0.00     0.016 A 
ATOM     37  C   UNL A   1      40.517  25.237  26.564  1.00  0.00     0.016 A 
ATOM     38  C   UNL A   1      42.511  25.910  28.408  1.00  0.00     0.010 A 
ATOM     39  C   UNL A   1      40.393  26.401  27.311  1.00  0.00     0.010 A 
ATOM     40  C   UNL A   1      41.374  26.719  28.256  1.00  0.00    -0.014 A 
BRANCH  40  41
ATOM     41  C   UNL A   1      41.320  27.995  28.975  1.00  0.00     0.031 A 
ATOM     42  C   UNL A   1      42.294  29.004  28.478  1.00  0.00     0.074 A 
ATOM     43  C   UNL A   1      40.373  28.349  29.869  1.00  0.00     0.049 A 
ATOM     44  N   UNL A   1      43.236  29.605  29.132  1.00  0.00    -0.248 NA
ATOM     45  C   UNL A   1      42.266  29.306  27.037  1.00  0.00     0.031 C 
ATOM     46  C   UNL A   1      39.156  27.617  30.219  1.00  0.00     0.029 A 
ATOM     47  N   UNL A   1      40.227  29.527  30.552  1.00  0.00    -0.354 N 
ATOM     48  C   UNL A   1      43.794  30.502  28.224  1.00  0.00     0.074 A 
ATOM     49  C   UNL A   1      43.268  30.172  26.925  1.00  0.00     0.031 C 
ATOM     50  C   UNL A   1      38.297  28.448  30.850  1.00  0.00     0.029 A 
ATOM     51  C   UNL A   1      38.933  29.739  31.029  1.00  0.00     0.049 A 
ATOM     52  H   UNL A   1      40.964  30.164  30.693  1.00  0.00     0.167 HD
ATOM     53  C   UNL A   1      44.489  31.607  28.605  1.00  0.00     0.034 A 
ATOM     54  C   UNL A   1      38.401  30.919  31.436  1.00  0.00     0.034 A 
ATOM     55  C   UNL A   1      44.897  31.576  29.976  1.00  0.00     0.049 A 
ATOM     56  C   UNL A   1      39.529  31.830  31.736  1.00  0.00     0.074 A 
ATOM     57  C   UNL A   1      45.676  30.739  30.747  1.00  0.00     0.029 A 
ATOM     58  N   UNL A   1      44.199  32.363  30.855  1.00  0.00    -0.354 N 
ATOM     59  N   UNL A   1      40.346  31.685  32.740  1.00  0.00    -0.248 NA
ATOM     60  C   UNL A   1      39.963  32.749  30.697  1.00  0.00     0.031 C 
ATOM     61  C   UNL A   1      45.062  30.743  32.032  1.00  0.00     0.029 A 
ATOM     62  C   UNL A   1      43.962  31.600  31.966  1.00  0.00     0.049 A 
ATOM     63  H   UNL A   1      43.923  33.298  30.716  1.00  0.00     0.167 HD
ATOM     64  C   UNL A   1      41.563  32.152  32.264  1.00  0.00     0.074 A 
ATOM     65  C   UNL A   1      41.240  32.898  31.052  1.00  0.00     0.031 C 
ATOM     66  C   UNL A   1      42.740  31.654  32.736  1.00  0.00     0.034 A 
BRANCH  53  67
ATOM     67  C   UNL A   1      44.521  32.867  27.791  1.00  0.00     0.023 A 
ATOM     68  C   UNL A   1      45.597  33.078  26.908  1.00  0.00     0.012 A 
ATOM     69  C   UNL A   1      43.648  33.951  28.032  1.00  0.00     0.148 A 
ATOM     70  C   UNL A   1      45.782  34.313  26.277  1.00  0.00     0.002 A 
ATOM     71  C   UNL A   1      43.783  35.144  27.337  1.00  0.00     0.091 A 
ATOM     72  F   UNL A   1      42.755  33.873  29.028  1.00  0.00    -0.205 F 
ATOM     73  C   UNL A   1      44.862  35.339  26.472  1.00  0.00     0.022 A 
BRANCH  71  74
ATOM     74  S   UNL A   1      42.570  36.455  27.506  1.00  0.00     0.127 S 
ATOM     75  O   UNL A   1      41.328  35.746  27.221  1.00  0.00    -0.237 OA
ATOM     76  O   UNL A   1      42.751  36.859  28.901  1.00  0.00    -0.237 OA
ATOM     77  O   UNL A   1      42.976  37.468  26.540  1.00  0.00    -0.744 OA
ENDBRANCH  71  74
ENDBRANCH  53  67
BRANCH  54  78
ATOM     78  C   UNL A   1      37.009  31.439  31.349  1.00  0.00     0.023 A 
ATOM     79  C   UNL A   1      36.277  31.632  32.543  1.00  0.00     0.012 A 
ATOM     80  C   UNL A   1      36.499  32.022  30.168  1.00  0.00     0.148 A 
ATOM     81  C   UNL A   1      35.124  32.426  32.572  1.00  0.00     0.002 A 
ATOM     82  C   UNL A   1      35.340  32.797  30.199  1.00  0.00     0.091 A 
ATOM     83  F   UNL A   1      37.197  31.913  29.031  1.00  0.00    -0.205 F 
ATOM     84  C   UNL A   1      34.661  33.018  31.402  1.00  0.00     0.022 A 
BRANCH  82  85
ATOM     85  S   UNL A   1      34.698  33.586  28.716  1.00  0.00     0.127 S 
ATOM     86  O   UNL A   1      35.466  34.831  28.668  1.00  0.00    -0.237 OA
ATOM     87  O   UNL A   1      35.038  32.616  27.681  1.00  0.00    -0.237 OA
ATOM     88  O   UNL A   1      33.274  33.780  28.969  1.00  0.00    -0.744 OA
ENDBRANCH  82  85
ENDBRANCH  54  78
BRANCH  66  89
ATOM     89  C   UNL A   1      42.718  30.833  33.996  1.00  0.00     0.023 A 
ATOM     90  C   UNL A   1      42.807  31.421  35.274  1.00  0.00     0.012 A 
ATOM     91  C   UNL A   1      42.401  29.470  33.887  1.00  0.00     0.148 A 
ATOM     92  C   UNL A   1      42.588  30.658  36.422  1.00  0.00     0.002 A 
ATOM     93  C   UNL A   1      42.142  28.724  35.029  1.00  0.00     0.091 A 
ATOM     94  F   UNL A   1      42.319  28.935  32.659  1.00  0.00    -0.205 F 
ATOM     95  C   UNL A   1      42.240  29.313  36.300  1.00  0.00     0.022 A 
BRANCH  93  96
ATOM     96  S   UNL A   1      41.570  27.026  34.937  1.00  0.00     0.127 S 
ATOM     97  O   UNL A   1      42.758  26.328  34.448  1.00  0.00    -0.237 OA
ATOM     98  O   UNL A   1      41.220  26.738  36.328  1.00  0.00    -0.237 OA
ATOM     99  O   UNL A   1      40.431  27.033  34.025  1.00  0.00    -0.744 OA
ENDBRANCH  93  96
ENDBRANCH  66  89
ENDBRANCH  40  41
ENDBRANCH  33  35
ENDBRANCH  32  33
ENDBRANCH  31  32
ENDBRANCH   1  31
TORSDOF 20
ENDMDL
MODEL 2
REMARK VINA RESULT:     -12.0      1.854      2.130
REMARK SMILES CC(C)n1c2c(c3ccccc31)[C@@H](c1ccccc1)N(CC(=O)OCCOCCOC(=O)c1ccc(-c3c4nc(c(-c5cccc(S(=O)(=O)[O-])c5F)c5ccc([nH]5)c(-c5cccc(S(=O)(=O)[O-])c5F)c5nc(c(-c6cccc(S(=O)(=O)[O-])c6F)c6ccc3[nH]6)C=C5)C=C4)cc1)C2=O
REMARK SMILES IDX 28 1 27 2 26 3 25 4 24 5 22 6 23 7 21 8 20 9 4 10 5 11 12 12
REMARK SMILES IDX 6 13 96 14 7 15 11 16 13 17 97 18 8 19 10 20 9 21 2 22 1 23
REMARK SMILES IDX 3 24 14 25 15 26 19 27 16 28 18 29 17 30 29 31 30 32 31 33
REMARK SMILES IDX 32 34 33 35 34 36 95 37 35 38 94 39 36 40 37 41 38 42 88 43
REMARK SMILES IDX 39 44 93 45 87 46 89 47 40 48 92 49 86 50 85 51 41 53 73 54
REMARK SMILES IDX 53 55 72 56 54 57 57 58 71 59 90 60 55 61 56 62 70 64 91 65
REMARK SMILES IDX 58 66 42 67 43 68 51 69 44 70 46 71 52 72 45 73 47 74 48 75
REMARK SMILES IDX 49 76 50 77 74 78 75 79 83 80 76 81 78 82 84 83 77 84 79 85
REMARK SMILES IDX 80 86 81 87 82 88 59 89 60 90 68 91 61 92 63 93 69 94 62 95
REMARK SMILES IDX 64 96 65 97 66 98 67 99
REMARK H PARENT 89 52 57 63
REMARK Flexibility Score: inf
ROOT
ATOM      1  C   UNL A   1      37.509  22.104  25.725  1.00  0.00     0.202 C 
ENDROOT
BRANCH   1   2
ATOM      2  O   UNL A   1      37.268  23.057  24.693  1.00  0.00    -0.374 OA
BRANCH   2   3
ATOM      3  C   UNL A   1      36.683  22.580  23.488  1.00  0.00     0.202 C 
BRANCH   3   4
ATOM      4  C   UNL A   1      35.154  22.621  23.366  1.00  0.00     0.261 C 
BRANCH   4   5
ATOM      5  O   UNL A   1      34.669  23.318  22.193  1.00  0.00    -0.462 OA
BRANCH   5   6
ATOM      6  C   UNL A   1      33.394  23.782  22.296  1.00  0.00     0.325 C 
ATOM      7  O   UNL A   1      32.439  23.110  22.679  1.00  0.00    -0.250 OA
BRANCH   6   8
ATOM      8  C   UNL A   1      33.195  25.254  21.922  1.00  0.00     0.243 C 
BRANCH   8   9
ATOM      9  N   UNL A   1      32.678  26.236  22.864  1.00  0.00    -0.315 N 
ATOM     10  N   UNL A   1      30.859  29.146  23.980  1.00  0.00    -0.334 N 
ATOM     11  C   UNL A   1      31.544  28.013  23.623  1.00  0.00     0.114 A 
ATOM     12  C   UNL A   1      31.515  29.678  25.108  1.00  0.00     0.049 A 
ATOM     13  C   UNL A   1      32.528  27.748  24.533  1.00  0.00     0.018 A 
ATOM     14  C   UNL A   1      31.576  27.046  22.562  1.00  0.00     0.272 C 
ATOM     15  C   UNL A   1      32.569  28.799  25.455  1.00  0.00     0.006 A 
ATOM     16  C   UNL A   1      31.326  30.848  25.874  1.00  0.00     0.027 A 
ATOM     17  C   UNL A   1      33.281  26.516  24.183  1.00  0.00     0.150 C 
ATOM     18  O   UNL A   1      30.849  26.936  21.601  1.00  0.00    -0.267 OA
ATOM     19  C   UNL A   1      33.411  29.093  26.546  1.00  0.00     0.011 A 
ATOM     20  C   UNL A   1      32.181  31.121  26.949  1.00  0.00     0.002 A 
ATOM     21  C   UNL A   1      33.212  30.258  27.283  1.00  0.00     0.001 A 
BRANCH  10  22
ATOM     22  C   UNL A   1      29.631  29.602  23.310  1.00  0.00     0.082 C 
ATOM     23  C   UNL A   1      29.770  30.117  21.873  1.00  0.00     0.031 C 
ATOM     24  C   UNL A   1      28.510  28.554  23.300  1.00  0.00     0.031 C 
ENDBRANCH  10  22
BRANCH  17  25
ATOM     25  C   UNL A   1      33.037  25.423  25.221  1.00  0.00    -0.021 A 
ATOM     26  C   UNL A   1      31.710  25.185  25.639  1.00  0.00     0.006 A 
ATOM     27  C   UNL A   1      34.036  24.616  25.802  1.00  0.00     0.006 A 
ATOM     28  C   UNL A   1      31.400  24.212  26.596  1.00  0.00     0.000 A 
ATOM     29  C   UNL A   1      33.723  23.619  26.737  1.00  0.00     0.000 A 
ATOM     30  C   UNL A   1      32.406  23.423  27.140  1.00  0.00     0.000 A 
ENDBRANCH  17  25
ENDBRANCH   8   9
ENDBRANCH   6   8
ENDBRANCH   5   6
ENDBRANCH   4   5
ENDBRANCH   3   4
ENDBRANCH   2   3
ENDBRANCH   1   2
BRANCH   1  31
ATOM     31  C   UNL A   1      38.974  21.806  26.092  1.00  0.00     0.261 C 
BRANCH  31  32
ATOM     32  O   UNL A   1      39.584  22.922  26.759  1.00  0.00    -0.460 OA
BRANCH  32  33
ATOM     33  C   UNL A   1      40.939  22.964  26.618  1.00  0.00     0.338 C 
ATOM     34  O   UNL A   1      41.627  22.200  25.965  1.00  0.00    -0.246 OA
BRANCH  33  35
ATOM     35  C   UNL A   1      41.312  24.342  26.989  1.00  0.00     0.060 A 
ATOM     36  C   UNL A   1      42.291  24.588  27.958  1.00  0.00     0.016 A 
ATOM     37  C   UNL A   1      40.408  25.341  26.596  1.00  0.00     0.016 A 
ATOM     38  C   UNL A   1      42.309  25.828  28.592  1.00  0.00     0.010 A 
ATOM     39  C   UNL A   1      40.401  26.558  27.266  1.00  0.00     0.010 A 
ATOM     40  C   UNL A   1      41.330  26.787  28.286  1.00  0.00    -0.014 A 
BRANCH  40  41
ATOM     41  C   UNL A   1      41.411  28.102  28.929  1.00  0.00     0.031 A 
ATOM     42  C   UNL A   1      42.524  28.949  28.421  1.00  0.00     0.074 A 
ATOM     43  C   UNL A   1      40.483  28.626  29.757  1.00  0.00     0.049 A 
ATOM     44  N   UNL A   1      43.509  29.467  29.082  1.00  0.00    -0.248 NA
ATOM     45  C   UNL A   1      42.590  29.163  26.966  1.00  0.00     0.031 C 
ATOM     46  C   UNL A   1      39.171  28.074  30.091  1.00  0.00     0.029 A 
ATOM     47  N   UNL A   1      40.461  29.852  30.365  1.00  0.00    -0.354 N 
ATOM     48  C   UNL A   1      44.211  30.230  28.153  1.00  0.00     0.074 A 
ATOM     49  C   UNL A   1      43.698  29.888  26.851  1.00  0.00     0.031 C 
ATOM     50  C   UNL A   1      38.400  29.043  30.633  1.00  0.00     0.029 A 
ATOM     51  C   UNL A   1      39.188  30.253  30.769  1.00  0.00     0.049 A 
ATOM     52  H   UNL A   1      41.268  30.399  30.503  1.00  0.00     0.167 HD
ATOM     53  C   UNL A   1      45.025  31.261  28.502  1.00  0.00     0.034 A 
ATOM     54  C   UNL A   1      38.794  31.513  31.084  1.00  0.00     0.034 A 
ATOM     55  C   UNL A   1      45.373  31.264  29.890  1.00  0.00     0.049 A 
ATOM     56  C   UNL A   1      40.017  32.293  31.384  1.00  0.00     0.074 A 
ATOM     57  C   UNL A   1      46.009  30.385  30.742  1.00  0.00     0.029 A 
ATOM     58  N   UNL A   1      44.748  32.184  30.691  1.00  0.00    -0.354 N 
ATOM     59  N   UNL A   1      40.770  32.109  32.431  1.00  0.00    -0.248 NA
ATOM     60  C   UNL A   1      40.604  33.085  30.316  1.00  0.00     0.031 C 
ATOM     61  C   UNL A   1      45.351  30.545  31.995  1.00  0.00     0.029 A 
ATOM     62  C   UNL A   1      44.372  31.527  31.831  1.00  0.00     0.049 A 
ATOM     63  H   UNL A   1      44.598  33.136  30.487  1.00  0.00     0.167 HD
ATOM     64  C   UNL A   1      42.053  32.391  31.986  1.00  0.00     0.074 A 
ATOM     65  C   UNL A   1      41.875  33.095  30.721  1.00  0.00     0.031 C 
ATOM     66  C   UNL A   1      43.138  31.780  32.539  1.00  0.00     0.034 A 
BRANCH  53  67
ATOM     67  C   UNL A   1      45.249  32.454  27.621  1.00  0.00     0.023 A 
ATOM     68  C   UNL A   1      44.155  32.998  26.922  1.00  0.00     0.012 A 
ATOM     69  C   UNL A   1      46.541  32.918  27.282  1.00  0.00     0.148 A 
ATOM     70  C   UNL A   1      44.340  33.978  25.941  1.00  0.00     0.002 A 
ATOM     71  C   UNL A   1      46.711  33.952  26.373  1.00  0.00     0.091 A 
ATOM     72  F   UNL A   1      47.619  32.274  27.749  1.00  0.00    -0.205 F 
ATOM     73  C   UNL A   1      45.615  34.473  25.682  1.00  0.00     0.022 A 
BRANCH  71  74
ATOM     74  S   UNL A   1      48.331  34.665  26.077  1.00  0.00     0.127 S 
ATOM     75  O   UNL A   1      48.794  34.918  27.437  1.00  0.00    -0.237 OA
ATOM     76  O   UNL A   1      49.019  33.580  25.378  1.00  0.00    -0.237 OA
ATOM     77  O   UNL A   1      48.079  35.837  25.249  1.00  0.00    -0.744 OA
ENDBRANCH  71  74
ENDBRANCH  53  67
BRANCH  54  78
ATOM     78  C   UNL A   1      37.484  32.196  30.904  1.00  0.00     0.023 A 
ATOM     79  C   UNL A   1      36.688  31.861  29.785  1.00  0.00     0.012 A 
ATOM     80  C   UNL A   1      36.875  32.933  31.943  1.00  0.00     0.148 A 
ATOM     81  C   UNL A   1      35.328  32.188  29.733  1.00  0.00     0.002 A 
ATOM     82  C   UNL A   1      35.524  33.273  31.878  1.00  0.00     0.091 A 
ATOM     83  F   UNL A   1      37.580  33.216  33.045  1.00  0.00    -0.205 F 
ATOM     84  C   UNL A   1      34.743  32.884  30.784  1.00  0.00     0.022 A 
BRANCH  82  85
ATOM     85  S   UNL A   1      34.716  34.172  33.209  1.00  0.00     0.127 S 
ATOM     86  O   UNL A   1      34.943  33.296  34.360  1.00  0.00    -0.237 OA
ATOM     87  O   UNL A   1      35.466  35.423  33.233  1.00  0.00    -0.237 OA
ATOM     88  O   UNL A   1      33.316  34.273  32.811  1.00  0.00    -0.744 OA
ENDBRANCH  82  85
ENDBRANCH  54  78
BRANCH  66  89
ATOM     89  C   UNL A   1      42.964  31.047  33.841  1.00  0.00     0.023 A 
ATOM     90  C   UNL A   1      42.974  31.714  35.082  1.00  0.00     0.012 A 
ATOM     91  C   UNL A   1      42.583  29.697  33.790  1.00  0.00     0.148 A 
ATOM     92  C   UNL A   1      42.616  31.041  36.252  1.00  0.00     0.002 A 
ATOM     93  C   UNL A   1      42.187  29.042  34.948  1.00  0.00     0.091 A 
ATOM     94  F   UNL A   1      42.578  29.085  32.595  1.00  0.00    -0.205 F 
ATOM     95  C   UNL A   1      42.207  29.710  36.184  1.00  0.00     0.022 A 
BRANCH  93  96
ATOM     96  S   UNL A   1      41.533  27.372  34.911  1.00  0.00     0.127 S 
ATOM     97  O   UNL A   1      42.693  26.599  34.472  1.00  0.00    -0.237 OA
ATOM     98  O   UNL A   1      41.146  27.157  36.306  1.00  0.00    -0.237 OA
ATOM     99  O   UNL A   1      40.412  27.398  33.979  1.00  0.00    -0.744 OA
ENDBRANCH  93  96
ENDBRANCH  66  89
ENDBRANCH  40  41
ENDBRANCH  33  35
ENDBRANCH  32  33
ENDBRANCH  31  32
ENDBRANCH   1  31
TORSDOF 20
ENDMDL
MODEL 3
REMARK VINA RESULT:     -11.4      2.896      8.979
REMARK SMILES CC(C)n1c2c(c3ccccc31)[C@@H](c1ccccc1)N(CC(=O)OCCOCCOC(=O)c1ccc(-c3c4nc(c(-c5cccc(S(=O)(=O)[O-])c5F)c5ccc([nH]5)c(-c5cccc(S(=O)(=O)[O-])c5F)c5nc(c(-c6cccc(S(=O)(=O)[O-])c6F)c6ccc3[nH]6)C=C5)C=C4)cc1)C2=O
REMARK SMILES IDX 28 1 27 2 26 3 25 4 24 5 22 6 23 7 21 8 20 9 4 10 5 11 12 12
REMARK SMILES IDX 6 13 96 14 7 15 11 16 13 17 97 18 8 19 10 20 9 21 2 22 1 23
REMARK SMILES IDX 3 24 14 25 15 26 19 27 16 28 18 29 17 30 29 31 30 32 31 33
REMARK SMILES IDX 32 34 33 35 34 36 95 37 35 38 94 39 36 40 37 41 38 42 88 43
REMARK SMILES IDX 39 44 93 45 87 46 89 47 40 48 92 49 86 50 85 51 41 53 73 54
REMARK SMILES IDX 53 55 72 56 54 57 57 58 71 59 90 60 55 61 56 62 70 64 91 65
REMARK SMILES IDX 58 66 42 67 43 68 51 69 44 70 46 71 52 72 45 73 47 74 48 75
REMARK SMILES IDX 49 76 50 77 74 78 75 79 83 80 76 81 78 82 84 83 77 84 79 85
REMARK SMILES IDX 80 86 81 87 82 88 59 89 60 90 68 91 61 92 63 93 69 94 62 95
REMARK SMILES IDX 64 96 65 97 66 98 67 99
REMARK H PARENT 89 52 57 63
REMARK Flexibility Score: inf
ROOT
ATOM      1  C   UNL A   1      32.890  36.020  29.939  1.00  0.00     0.202 C 
ENDROOT
BRANCH   1   2
ATOM      2  O   UNL A   1      32.889  34.743  29.308  1.00  0.00    -0.374 OA
BRANCH   2   3
ATOM      3  C   UNL A   1      34.069  34.358  28.613  1.00  0.00     0.202 C 
BRANCH   3   4
ATOM      4  C   UNL A   1      34.188  32.900  28.151  1.00  0.00     0.261 C 
BRANCH   4   5
ATOM      5  O   UNL A   1      32.988  32.369  27.539  1.00  0.00    -0.462 OA
BRANCH   5   6
ATOM      6  C   UNL A   1      33.043  31.045  27.237  1.00  0.00     0.325 C 
ATOM      7  O   UNL A   1      34.062  30.361  27.295  1.00  0.00    -0.250 OA
BRANCH   6   8
ATOM      8  C   UNL A   1      31.712  30.404  26.828  1.00  0.00     0.243 C 
BRANCH   8   9
ATOM      9  N   UNL A   1      31.644  29.160  26.075  1.00  0.00    -0.315 N 
ATOM     10  N   UNL A   1      32.002  25.626  25.442  1.00  0.00    -0.334 N 
ATOM     11  C   UNL A   1      31.815  26.971  25.632  1.00  0.00     0.114 A 
ATOM     12  C   UNL A   1      32.259  25.441  24.068  1.00  0.00     0.049 A 
ATOM     13  C   UNL A   1      31.833  27.625  24.431  1.00  0.00     0.018 A 
ATOM     14  C   UNL A   1      31.653  27.910  26.706  1.00  0.00     0.272 C 
ATOM     15  C   UNL A   1      32.155  26.701  23.432  1.00  0.00     0.006 A 
ATOM     16  C   UNL A   1      32.591  24.312  23.290  1.00  0.00     0.027 A 
ATOM     17  C   UNL A   1      31.617  29.085  24.600  1.00  0.00     0.150 C 
ATOM     18  O   UNL A   1      31.562  27.707  27.895  1.00  0.00    -0.267 OA
ATOM     19  C   UNL A   1      32.382  26.819  22.046  1.00  0.00     0.011 A 
ATOM     20  C   UNL A   1      32.817  24.456  21.916  1.00  0.00     0.002 A 
ATOM     21  C   UNL A   1      32.717  25.692  21.299  1.00  0.00     0.001 A 
BRANCH  10  22
ATOM     22  C   UNL A   1      31.861  24.624  26.510  1.00  0.00     0.082 C 
ATOM     23  C   UNL A   1      30.640  23.700  26.444  1.00  0.00     0.031 C 
ATOM     24  C   UNL A   1      33.092  23.722  26.674  1.00  0.00     0.031 C 
ENDBRANCH  10  22
BRANCH  17  25
ATOM     25  C   UNL A   1      30.285  29.507  23.982  1.00  0.00    -0.021 A 
ATOM     26  C   UNL A   1      29.505  28.521  23.342  1.00  0.00     0.006 A 
ATOM     27  C   UNL A   1      29.759  30.814  24.001  1.00  0.00     0.006 A 
ATOM     28  C   UNL A   1      28.280  28.825  22.737  1.00  0.00     0.000 A 
ATOM     29  C   UNL A   1      28.516  31.114  23.425  1.00  0.00     0.000 A 
ATOM     30  C   UNL A   1      27.781  30.121  22.786  1.00  0.00     0.000 A 
ENDBRANCH  17  25
ENDBRANCH   8   9
ENDBRANCH   6   8
ENDBRANCH   5   6
ENDBRANCH   4   5
ENDBRANCH   3   4
ENDBRANCH   2   3
ENDBRANCH   1   2
BRANCH   1  31
ATOM     31  C   UNL A   1      32.769  36.057  31.474  1.00  0.00     0.261 C 
BRANCH  31  32
ATOM     32  O   UNL A   1      33.988  35.636  32.105  1.00  0.00    -0.460 OA
BRANCH  32  33
ATOM     33  C   UNL A   1      33.937  34.362  32.586  1.00  0.00     0.338 C 
ATOM     34  O   UNL A   1      32.958  33.789  33.029  1.00  0.00    -0.246 OA
BRANCH  33  35
ATOM     35  C   UNL A   1      35.130  33.701  32.024  1.00  0.00     0.060 A 
ATOM     36  C   UNL A   1      35.276  32.310  32.075  1.00  0.00     0.016 A 
ATOM     37  C   UNL A   1      36.226  34.540  31.774  1.00  0.00     0.016 A 
ATOM     38  C   UNL A   1      36.552  31.766  31.953  1.00  0.00     0.010 A 
ATOM     39  C   UNL A   1      37.502  33.995  31.701  1.00  0.00     0.010 A 
ATOM     40  C   UNL A   1      37.666  32.611  31.823  1.00  0.00    -0.014 A 
BRANCH  40  41
ATOM     41  C   UNL A   1      38.988  32.006  31.640  1.00  0.00     0.031 A 
ATOM     42  C   UNL A   1      39.855  32.084  32.848  1.00  0.00     0.074 A 
ATOM     43  C   UNL A   1      39.369  31.263  30.580  1.00  0.00     0.049 A 
ATOM     44  N   UNL A   1      41.020  32.635  32.969  1.00  0.00    -0.248 NA
ATOM     45  C   UNL A   1      39.296  31.559  34.105  1.00  0.00     0.031 C 
ATOM     46  C   UNL A   1      38.538  30.802  29.469  1.00  0.00     0.029 A 
ATOM     47  N   UNL A   1      40.562  30.634  30.349  1.00  0.00    -0.354 N 
ATOM     48  C   UNL A   1      41.421  32.355  34.273  1.00  0.00     0.074 A 
ATOM     49  C   UNL A   1      40.273  31.830  34.965  1.00  0.00     0.031 C 
ATOM     50  C   UNL A   1      39.168  29.795  28.823  1.00  0.00     0.029 A 
ATOM     51  C   UNL A   1      40.478  29.602  29.414  1.00  0.00     0.049 A 
ATOM     52  H   UNL A   1      41.400  30.884  30.801  1.00  0.00     0.167 HD
ATOM     53  C   UNL A   1      42.722  32.360  34.666  1.00  0.00     0.034 A 
ATOM     54  C   UNL A   1      41.377  28.603  29.223  1.00  0.00     0.034 A 
ATOM     55  C   UNL A   1      43.593  33.015  33.739  1.00  0.00     0.049 A 
ATOM     56  C   UNL A   1      42.656  29.042  29.824  1.00  0.00     0.074 A 
ATOM     57  C   UNL A   1      43.679  34.285  33.205  1.00  0.00     0.029 A 
ATOM     58  N   UNL A   1      44.386  32.218  32.953  1.00  0.00    -0.354 N 
ATOM     59  N   UNL A   1      43.402  30.000  29.352  1.00  0.00    -0.248 NA
ATOM     60  C   UNL A   1      42.955  28.621  31.183  1.00  0.00     0.031 C 
ATOM     61  C   UNL A   1      44.135  34.093  31.870  1.00  0.00     0.029 A 
ATOM     62  C   UNL A   1      44.318  32.722  31.683  1.00  0.00     0.049 A 
ATOM     63  H   UNL A   1      44.906  31.436  33.247  1.00  0.00     0.167 HD
ATOM     64  C   UNL A   1      43.967  30.584  30.477  1.00  0.00     0.074 A 
ATOM     65  C   UNL A   1      43.751  29.625  31.556  1.00  0.00     0.031 C 
ATOM     66  C   UNL A   1      44.300  31.905  30.491  1.00  0.00     0.034 A 
BRANCH  53  67
ATOM     67  C   UNL A   1      43.243  31.480  35.764  1.00  0.00     0.023 A 
ATOM     68  C   UNL A   1      44.052  32.049  36.766  1.00  0.00     0.012 A 
ATOM     69  C   UNL A   1      43.151  30.071  35.718  1.00  0.00     0.148 A 
ATOM     70  C   UNL A   1      44.723  31.247  37.695  1.00  0.00     0.002 A 
ATOM     71  C   UNL A   1      43.746  29.284  36.694  1.00  0.00     0.091 A 
ATOM     72  F   UNL A   1      42.588  29.479  34.656  1.00  0.00    -0.205 F 
ATOM     73  C   UNL A   1      44.552  29.866  37.675  1.00  0.00     0.022 A 
BRANCH  71  74
ATOM     74  S   UNL A   1      43.480  27.511  36.742  1.00  0.00     0.127 S 
ATOM     75  O   UNL A   1      44.131  27.149  37.996  1.00  0.00    -0.237 OA
ATOM     76  O   UNL A   1      42.019  27.423  36.752  1.00  0.00    -0.237 OA
ATOM     77  O   UNL A   1      44.095  27.006  35.521  1.00  0.00    -0.744 OA
ENDBRANCH  71  74
ENDBRANCH  53  67
BRANCH  54  78
ATOM     78  C   UNL A   1      41.183  27.189  28.801  1.00  0.00     0.023 A 
ATOM     79  C   UNL A   1      39.922  26.584  29.002  1.00  0.00     0.012 A 
ATOM     80  C   UNL A   1      42.097  26.529  27.950  1.00  0.00     0.148 A 
ATOM     81  C   UNL A   1      39.561  25.408  28.332  1.00  0.00     0.002 A 
ATOM     82  C   UNL A   1      41.740  25.349  27.301  1.00  0.00     0.091 A 
ATOM     83  F   UNL A   1      43.277  27.103  27.688  1.00  0.00    -0.205 F 
ATOM     84  C   UNL A   1      40.466  24.796  27.473  1.00  0.00     0.022 A 
BRANCH  82  85
ATOM     85  S   UNL A   1      42.870  24.515  26.177  1.00  0.00     0.127 S 
ATOM     86  O   UNL A   1      42.941  25.451  25.054  1.00  0.00    -0.237 OA
ATOM     87  O   UNL A   1      44.087  24.426  26.978  1.00  0.00    -0.237 OA
ATOM     88  O   UNL A   1      42.225  23.248  25.851  1.00  0.00    -0.744 OA
ENDBRANCH  82  85
ENDBRANCH  54  78
BRANCH  66  89
ATOM     89  C   UNL A   1      44.352  32.646  29.184  1.00  0.00     0.023 A 
ATOM     90  C   UNL A   1      43.312  33.500  28.765  1.00  0.00     0.012 A 
ATOM     91  C   UNL A   1      45.560  32.631  28.467  1.00  0.00     0.148 A 
ATOM     92  C   UNL A   1      43.474  34.320  27.647  1.00  0.00     0.002 A 
ATOM     93  C   UNL A   1      45.734  33.479  27.382  1.00  0.00     0.091 A 
ATOM     94  F   UNL A   1      46.536  31.812  28.888  1.00  0.00    -0.205 F 
ATOM     95  C   UNL A   1      44.690  34.322  26.965  1.00  0.00     0.022 A 
BRANCH  93  96
ATOM     96  S   UNL A   1      47.310  33.621  26.538  1.00  0.00     0.127 S 
ATOM     97  O   UNL A   1      46.972  34.471  25.398  1.00  0.00    -0.237 OA
ATOM     98  O   UNL A   1      48.151  34.260  27.551  1.00  0.00    -0.237 OA
ATOM     99  O   UNL A   1      47.712  32.259  26.203  1.00  0.00    -0.744 OA
ENDBRANCH  93  96
ENDBRANCH  66  89
ENDBRANCH  40  41
ENDBRANCH  33  35
ENDBRANCH  32  33
ENDBRANCH  31  32
ENDBRANCH   1  31
TORSDOF 20
ENDMDL
