MODEL 1
REMARK VINA RESULT:      -9.6      0.000      0.000
REMARK SMILES C/C(=N\Nc1nc(-c2ccc(Cl)cc2)cs1)c1nnn(-c2ccc(C(=O)OCCOCCOC(=O)c3ccc(-c4c5nc(c(-c6cccc(S(=O)(=O)[O-])c6F)c6ccc([nH]6)c(-c6cccc(S(=O)(=O)[O-])c6F)c6nc(c(-c7cccc(S(=O)(=O)[O-])c7F)c7ccc4[nH]7)C=C6)C=C5)cc3)cc2)c1C
REMARK SMILES IDX 29 1 28 2 27 3 25 4 26 5 24 6 21 7 22 8 100 9 23 10 99 11
REMARK SMILES IDX 20 12 17 13 18 14 101 15 19 16 102 17 2 18 1 19 3 20 4 21
REMARK SMILES IDX 5 23 6 24 16 25 7 26 15 27 8 28 9 29 14 30 10 31 13 32 11 33
REMARK SMILES IDX 12 34 30 35 31 36 32 37 33 38 34 39 35 40 36 41 37 42 98 43
REMARK SMILES IDX 38 44 97 45 39 46 40 47 41 48 91 49 42 50 96 51 90 52 92 53
REMARK SMILES IDX 43 54 95 55 89 56 88 57 44 59 76 60 56 61 75 62 57 63 60 64
REMARK SMILES IDX 74 65 93 66 58 67 59 68 73 70 94 71 61 72 45 73 46 74 54 75
REMARK SMILES IDX 47 76 49 77 55 78 48 79 50 80 51 81 52 82 53 83 77 84 78 85
REMARK SMILES IDX 86 86 79 87 81 88 87 89 80 90 82 91 83 92 84 93 85 94 62 95
REMARK SMILES IDX 63 96 71 97 64 98 66 99 72 100 65 101 67 102 68 103 69 104
REMARK SMILES IDX 70 105
REMARK H PARENT 4 22 92 58 60 69
REMARK Flexibility Score: inf
ROOT
ATOM      1  C   UNL A   1      46.247  26.614  25.315  1.00  0.00     0.202 C 
ENDROOT
BRANCH   1   2
ATOM      2  C   UNL A   1      47.374  26.780  24.296  1.00  0.00     0.261 C 
BRANCH   2   3
ATOM      3  O   UNL A   1      48.118  27.988  24.499  1.00  0.00    -0.460 OA
BRANCH   3   4
ATOM      4  C   UNL A   1      49.456  27.815  24.605  1.00  0.00     0.338 C 
ATOM      5  O   UNL A   1      50.309  28.150  23.800  1.00  0.00    -0.246 OA
BRANCH   4   6
ATOM      6  C   UNL A   1      49.794  27.263  25.934  1.00  0.00     0.060 A 
ATOM      7  C   UNL A   1      50.804  26.545  28.403  1.00  0.00     0.067 A 
ATOM      8  C   UNL A   1      49.995  27.680  28.317  1.00  0.00     0.029 A 
ATOM      9  C   UNL A   1      50.959  25.681  27.309  1.00  0.00     0.029 A 
ATOM     10  C   UNL A   1      49.509  28.048  27.064  1.00  0.00     0.018 A 
ATOM     11  C   UNL A   1      50.453  26.041  26.065  1.00  0.00     0.018 A 
BRANCH   7  12
ATOM     12  N   UNL A   1      51.695  26.429  29.492  1.00  0.00    -0.217 N 
ATOM     13  C   UNL A   1      52.635  25.745  31.339  1.00  0.00     0.132 A 
ATOM     14  N   UNL A   1      53.584  26.345  30.554  1.00  0.00    -0.128 NA
ATOM     15  C   UNL A   1      51.423  25.744  30.667  1.00  0.00     0.071 A 
ATOM     16  N   UNL A   1      53.024  26.647  29.387  1.00  0.00    -0.061 NA
ATOM     17  C   UNL A   1      50.138  25.048  30.956  1.00  0.00     0.069 C 
BRANCH  13  18
ATOM     18  C   UNL A   1      52.913  25.082  32.607  1.00  0.00     0.087 C 
ATOM     19  C   UNL A   1      53.112  26.002  33.786  1.00  0.00     0.071 C 
ATOM     20  N   UNL A   1      53.028  23.785  32.564  1.00  0.00    -0.176 NA
BRANCH  20  21
ATOM     21  N   UNL A   1      53.473  23.003  33.606  1.00  0.00    -0.252 N 
ATOM     22  H   UNL A   1      54.379  23.219  33.924  1.00  0.00     0.193 HD
BRANCH  21  23
ATOM     23  C   UNL A   1      52.870  21.983  34.269  1.00  0.00     0.203 A 
ATOM     24  N   UNL A   1      51.699  21.462  33.986  1.00  0.00    -0.219 NA
ATOM     25  S   UNL A   1      53.598  21.311  35.689  1.00  0.00    -0.103 S 
ATOM     26  C   UNL A   1      51.195  20.788  35.078  1.00  0.00     0.084 A 
ATOM     27  C   UNL A   1      52.088  20.603  36.112  1.00  0.00     0.097 A 
BRANCH  26  28
ATOM     28  C   UNL A   1      49.788  20.436  35.107  1.00  0.00     0.001 A 
ATOM     29  C   UNL A   1      49.113  20.208  33.901  1.00  0.00     0.012 A 
ATOM     30  C   UNL A   1      49.064  20.464  36.307  1.00  0.00     0.012 A 
ATOM     31  C   UNL A   1      47.734  19.984  33.894  1.00  0.00     0.021 A 
ATOM     32  C   UNL A   1      47.681  20.253  36.299  1.00  0.00     0.021 A 
ATOM     33  C   UNL A   1      47.024  20.009  35.094  1.00  0.00     0.041 A 
ATOM     34  Cl  UNL A   1      45.322  19.756  35.083  1.00  0.00    -0.084 Cl
ENDBRANCH  26  28
ENDBRANCH  21  23
ENDBRANCH  20  21
ENDBRANCH  13  18
ENDBRANCH   7  12
ENDBRANCH   4   6
ENDBRANCH   3   4
ENDBRANCH   2   3
ENDBRANCH   1   2
BRANCH   1  35
ATOM     35  O   UNL A   1      45.007  27.282  25.081  1.00  0.00    -0.374 OA
BRANCH  35  36
ATOM     36  C   UNL A   1      43.769  26.604  25.277  1.00  0.00     0.202 C 
BRANCH  36  37
ATOM     37  C   UNL A   1      43.720  25.091  25.125  1.00  0.00     0.261 C 
BRANCH  37  38
ATOM     38  O   UNL A   1      42.430  24.575  25.401  1.00  0.00    -0.460 OA
BRANCH  38  39
ATOM     39  C   UNL A   1      42.395  23.743  26.469  1.00  0.00     0.338 C 
ATOM     40  O   UNL A   1      42.616  22.549  26.478  1.00  0.00    -0.246 OA
BRANCH  39  41
ATOM     41  C   UNL A   1      41.925  24.505  27.631  1.00  0.00     0.060 A 
ATOM     42  C   UNL A   1      40.655  25.066  27.501  1.00  0.00     0.016 A 
ATOM     43  C   UNL A   1      42.837  24.921  28.615  1.00  0.00     0.016 A 
ATOM     44  C   UNL A   1      40.417  26.247  28.152  1.00  0.00     0.010 A 
ATOM     45  C   UNL A   1      42.591  26.097  29.274  1.00  0.00     0.010 A 
ATOM     46  C   UNL A   1      41.442  26.797  28.931  1.00  0.00    -0.014 A 
BRANCH  46  47
ATOM     47  C   UNL A   1      41.269  28.154  29.384  1.00  0.00     0.031 A 
ATOM     48  C   UNL A   1      42.215  29.085  28.746  1.00  0.00     0.074 A 
ATOM     49  C   UNL A   1      40.324  28.500  30.277  1.00  0.00     0.049 A 
ATOM     50  N   UNL A   1      43.268  29.603  29.280  1.00  0.00    -0.248 NA
ATOM     51  C   UNL A   1      42.103  29.280  27.296  1.00  0.00     0.031 C 
ATOM     52  C   UNL A   1      39.188  27.717  30.770  1.00  0.00     0.029 A 
ATOM     53  N   UNL A   1      40.126  29.715  30.845  1.00  0.00    -0.354 N 
ATOM     54  C   UNL A   1      43.820  30.397  28.283  1.00  0.00     0.074 A 
ATOM     55  C   UNL A   1      43.205  29.988  27.048  1.00  0.00     0.031 C 
ATOM     56  C   UNL A   1      38.288  28.557  31.335  1.00  0.00     0.029 A 
ATOM     57  C   UNL A   1      38.855  29.894  31.370  1.00  0.00     0.049 A 
ATOM     58  H   UNL A   1      40.823  30.410  30.880  1.00  0.00     0.167 HD
ATOM     59  C   UNL A   1      44.535  31.511  28.594  1.00  0.00     0.034 A 
ATOM     60  C   UNL A   1      38.300  31.088  31.696  1.00  0.00     0.034 A 
ATOM     61  C   UNL A   1      44.915  31.531  29.982  1.00  0.00     0.049 A 
ATOM     62  C   UNL A   1      39.415  32.047  31.903  1.00  0.00     0.074 A 
ATOM     63  C   UNL A   1      45.682  30.722  30.798  1.00  0.00     0.029 A 
ATOM     64  N   UNL A   1      44.141  32.294  30.824  1.00  0.00    -0.354 N 
ATOM     65  N   UNL A   1      40.284  31.928  32.868  1.00  0.00    -0.248 NA
ATOM     66  C   UNL A   1      39.849  32.846  30.767  1.00  0.00     0.031 C 
ATOM     67  C   UNL A   1      44.994  30.706  32.048  1.00  0.00     0.029 A 
ATOM     68  C   UNL A   1      43.885  31.547  31.944  1.00  0.00     0.049 A 
ATOM     69  H   UNL A   1      43.828  33.212  30.653  1.00  0.00     0.167 HD
ATOM     70  C   UNL A   1      41.505  32.224  32.274  1.00  0.00     0.074 A 
ATOM     71  C   UNL A   1      41.163  32.880  31.012  1.00  0.00     0.031 C 
ATOM     72  C   UNL A   1      42.664  31.646  32.714  1.00  0.00     0.034 A 
BRANCH  59  73
ATOM     73  C   UNL A   1      44.551  32.759  27.753  1.00  0.00     0.023 A 
ATOM     74  C   UNL A   1      45.652  32.940  26.891  1.00  0.00     0.012 A 
ATOM     75  C   UNL A   1      43.708  33.874  27.972  1.00  0.00     0.148 A 
ATOM     76  C   UNL A   1      45.928  34.183  26.314  1.00  0.00     0.002 A 
ATOM     77  C   UNL A   1      43.942  35.085  27.336  1.00  0.00     0.091 A 
ATOM     78  F   UNL A   1      42.753  33.821  28.905  1.00  0.00    -0.205 F 
ATOM     79  C   UNL A   1      45.070  35.255  26.531  1.00  0.00     0.022 A 
BRANCH  77  80
ATOM     80  S   UNL A   1      42.842  36.488  27.555  1.00  0.00     0.127 S 
ATOM     81  O   UNL A   1      43.092  36.838  28.949  1.00  0.00    -0.237 OA
ATOM     82  O   UNL A   1      43.367  37.433  26.570  1.00  0.00    -0.237 OA
ATOM     83  O   UNL A   1      41.507  35.989  27.246  1.00  0.00    -0.744 OA
ENDBRANCH  77  80
ENDBRANCH  59  73
BRANCH  60  84
ATOM     84  C   UNL A   1      36.906  31.534  31.462  1.00  0.00     0.023 A 
ATOM     85  C   UNL A   1      36.137  32.040  32.529  1.00  0.00     0.012 A 
ATOM     86  C   UNL A   1      36.427  31.726  30.146  1.00  0.00     0.148 A 
ATOM     87  C   UNL A   1      34.940  32.730  32.289  1.00  0.00     0.002 A 
ATOM     88  C   UNL A   1      35.236  32.406  29.913  1.00  0.00     0.091 A 
ATOM     89  F   UNL A   1      37.187  31.324  29.119  1.00  0.00    -0.205 F 
ATOM     90  C   UNL A   1      34.494  32.919  30.983  1.00  0.00     0.022 A 
BRANCH  88  91
ATOM     91  S   UNL A   1      34.617  32.711  28.253  1.00  0.00     0.127 S 
ATOM     92  O   UNL A   1      35.779  33.327  27.609  1.00  0.00    -0.237 OA
ATOM     93  O   UNL A   1      34.306  31.361  27.793  1.00  0.00    -0.237 OA
ATOM     94  O   UNL A   1      33.474  33.602  28.408  1.00  0.00    -0.744 OA
ENDBRANCH  88  91
ENDBRANCH  60  84
BRANCH  72  95
ATOM     95  C   UNL A   1      42.605  30.834  33.985  1.00  0.00     0.023 A 
ATOM     96  C   UNL A   1      42.660  31.428  35.266  1.00  0.00     0.012 A 
ATOM     97  C   UNL A   1      42.324  29.462  33.889  1.00  0.00     0.148 A 
ATOM     98  C   UNL A   1      42.467  30.666  36.422  1.00  0.00     0.002 A 
ATOM     99  C   UNL A   1      42.092  28.715  35.038  1.00  0.00     0.091 A 
ATOM    100  F   UNL A   1      42.259  28.915  32.666  1.00  0.00    -0.205 F 
ATOM    101  C   UNL A   1      42.172  29.310  36.307  1.00  0.00     0.022 A 
BRANCH  99 102
ATOM    102  S   UNL A   1      41.593  26.994  34.956  1.00  0.00     0.127 S 
ATOM    103  O   UNL A   1      42.797  26.352  34.433  1.00  0.00    -0.237 OA
ATOM    104  O   UNL A   1      41.295  26.687  36.356  1.00  0.00    -0.237 OA
ATOM    105  O   UNL A   1      40.431  26.954  34.077  1.00  0.00    -0.744 OA
ENDBRANCH  99 102
ENDBRANCH  72  95
ENDBRANCH  46  47
ENDBRANCH  39  41
ENDBRANCH  38  39
ENDBRANCH  37  38
ENDBRANCH  36  37
ENDBRANCH  35  36
ENDBRANCH   1  35
TORSDOF 22
ENDMDL
MODEL 2
REMARK VINA RESULT:      -9.6      5.487     11.420
REMARK SMILES C/C(=N\Nc1nc(-c2ccc(Cl)cc2)cs1)c1nnn(-c2ccc(C(=O)OCCOCCOC(=O)c3ccc(-c4c5nc(c(-c6cccc(S(=O)(=O)[O-])c6F)c6ccc([nH]6)c(-c6cccc(S(=O)(=O)[O-])c6F)c6nc(c(-c7cccc(S(=O)(=O)[O-])c7F)c7ccc4[nH]7)C=C6)C=C5)cc3)cc2)c1C
REMARK SMILES IDX 29 1 28 2 27 3 25 4 26 5 24 6 21 7 22 8 100 9 23 10 99 11
REMARK SMILES IDX 20 12 17 13 18 14 101 15 19 16 102 17 2 18 1 19 3 20 4 21
REMARK SMILES IDX 5 23 6 24 16 25 7 26 15 27 8 28 9 29 14 30 10 31 13 32 11 33
REMARK SMILES IDX 12 34 30 35 31 36 32 37 33 38 34 39 35 40 36 41 37 42 98 43
REMARK SMILES IDX 38 44 97 45 39 46 40 47 41 48 91 49 42 50 96 51 90 52 92 53
REMARK SMILES IDX 43 54 95 55 89 56 88 57 44 59 76 60 56 61 75 62 57 63 60 64
REMARK SMILES IDX 74 65 93 66 58 67 59 68 73 70 94 71 61 72 45 73 46 74 54 75
REMARK SMILES IDX 47 76 49 77 55 78 48 79 50 80 51 81 52 82 53 83 77 84 78 85
REMARK SMILES IDX 86 86 79 87 81 88 87 89 80 90 82 91 83 92 84 93 85 94 62 95
REMARK SMILES IDX 63 96 71 97 64 98 66 99 72 100 65 101 67 102 68 103 69 104
REMARK SMILES IDX 70 105
REMARK H PARENT 4 22 92 58 60 69
REMARK Flexibility Score: inf
ROOT
ATOM      1  C   UNL A   1      45.387  26.905  30.445  1.00  0.00     0.202 C 
ENDROOT
BRANCH   1   2
ATOM      2  C   UNL A   1      45.882  26.212  29.175  1.00  0.00     0.261 C 
BRANCH   2   3
ATOM      3  O   UNL A   1      45.275  26.746  27.991  1.00  0.00    -0.460 OA
BRANCH   3   4
ATOM      4  C   UNL A   1      43.924  26.817  28.033  1.00  0.00     0.338 C 
ATOM      5  O   UNL A   1      43.244  27.815  28.197  1.00  0.00    -0.246 OA
BRANCH   4   6
ATOM      6  C   UNL A   1      43.336  25.500  27.711  1.00  0.00     0.060 A 
ATOM      7  C   UNL A   1      41.832  23.296  26.993  1.00  0.00     0.067 A 
ATOM      8  C   UNL A   1      42.466  24.028  25.987  1.00  0.00     0.029 A 
ATOM      9  C   UNL A   1      42.090  23.551  28.348  1.00  0.00     0.029 A 
ATOM     10  C   UNL A   1      43.203  25.152  26.356  1.00  0.00     0.018 A 
ATOM     11  C   UNL A   1      42.845  24.661  28.712  1.00  0.00     0.018 A 
BRANCH   7  12
ATOM     12  N   UNL A   1      40.715  22.503  26.652  1.00  0.00    -0.217 N 
ATOM     13  C   UNL A   1      38.704  21.900  26.053  1.00  0.00     0.132 A 
ATOM     14  N   UNL A   1      39.583  20.901  25.726  1.00  0.00    -0.128 NA
ATOM     15  C   UNL A   1      39.405  22.959  26.609  1.00  0.00     0.071 A 
ATOM     16  N   UNL A   1      40.813  21.333  25.986  1.00  0.00    -0.061 NA
ATOM     17  C   UNL A   1      38.987  24.351  26.937  1.00  0.00     0.069 C 
BRANCH  13  18
ATOM     18  C   UNL A   1      37.286  21.891  25.719  1.00  0.00     0.087 C 
ATOM     19  C   UNL A   1      36.828  20.723  24.881  1.00  0.00     0.071 C 
ATOM     20  N   UNL A   1      36.596  22.922  26.118  1.00  0.00    -0.176 NA
BRANCH  20  21
ATOM     21  N   UNL A   1      35.299  23.189  25.741  1.00  0.00    -0.252 N 
ATOM     22  H   UNL A   1      34.635  22.538  26.062  1.00  0.00     0.193 HD
BRANCH  21  23
ATOM     23  C   UNL A   1      34.783  24.203  25.000  1.00  0.00     0.203 A 
ATOM     24  N   UNL A   1      34.583  25.434  25.407  1.00  0.00    -0.219 NA
ATOM     25  S   UNL A   1      34.221  23.910  23.389  1.00  0.00    -0.103 S 
ATOM     26  C   UNL A   1      33.663  26.066  24.597  1.00  0.00     0.084 A 
ATOM     27  C   UNL A   1      33.341  25.389  23.441  1.00  0.00     0.097 A 
BRANCH  26  28
ATOM     28  C   UNL A   1      33.040  27.294  25.055  1.00  0.00     0.001 A 
ATOM     29  C   UNL A   1      32.253  28.037  24.166  1.00  0.00     0.012 A 
ATOM     30  C   UNL A   1      33.333  27.821  26.320  1.00  0.00     0.012 A 
ATOM     31  C   UNL A   1      31.740  29.280  24.545  1.00  0.00     0.021 A 
ATOM     32  C   UNL A   1      32.830  29.071  26.696  1.00  0.00     0.021 A 
ATOM     33  C   UNL A   1      32.032  29.792  25.808  1.00  0.00     0.041 A 
ATOM     34  Cl  UNL A   1      31.420  31.333  26.267  1.00  0.00    -0.084 Cl
ENDBRANCH  26  28
ENDBRANCH  21  23
ENDBRANCH  20  21
ENDBRANCH  13  18
ENDBRANCH   7  12
ENDBRANCH   4   6
ENDBRANCH   3   4
ENDBRANCH   2   3
ENDBRANCH   1   2
BRANCH   1  35
ATOM     35  O   UNL A   1      44.869  26.102  31.506  1.00  0.00    -0.374 OA
BRANCH  35  36
ATOM     36  C   UNL A   1      45.675  25.098  32.116  1.00  0.00     0.202 C 
BRANCH  36  37
ATOM     37  C   UNL A   1      45.016  24.063  33.016  1.00  0.00     0.261 C 
BRANCH  37  38
ATOM     38  O   UNL A   1      43.738  24.485  33.457  1.00  0.00    -0.460 OA
BRANCH  38  39
ATOM     39  C   UNL A   1      43.582  24.431  34.802  1.00  0.00     0.338 C 
ATOM     40  O   UNL A   1      43.627  23.445  35.508  1.00  0.00    -0.246 OA
BRANCH  39  41
ATOM     41  C   UNL A   1      43.228  25.773  35.277  1.00  0.00     0.060 A 
ATOM     42  C   UNL A   1      41.910  26.160  35.040  1.00  0.00     0.016 A 
ATOM     43  C   UNL A   1      44.238  26.693  35.602  1.00  0.00     0.016 A 
ATOM     44  C   UNL A   1      41.672  27.492  34.825  1.00  0.00     0.010 A 
ATOM     45  C   UNL A   1      43.995  28.026  35.398  1.00  0.00     0.010 A 
ATOM     46  C   UNL A   1      42.751  28.381  34.891  1.00  0.00    -0.014 A 
BRANCH  46  47
ATOM     47  C   UNL A   1      42.533  29.719  34.405  1.00  0.00     0.031 A 
ATOM     48  C   UNL A   1      42.139  30.650  35.476  1.00  0.00     0.074 A 
ATOM     49  C   UNL A   1      42.701  30.052  33.112  1.00  0.00     0.049 A 
ATOM     50  N   UNL A   1      40.956  31.110  35.704  1.00  0.00    -0.248 NA
ATOM     51  C   UNL A   1      43.117  30.916  36.538  1.00  0.00     0.031 C 
ATOM     52  C   UNL A   1      43.326  29.282  32.034  1.00  0.00     0.029 A 
ATOM     53  N   UNL A   1      42.439  31.244  32.523  1.00  0.00    -0.354 N 
ATOM     54  C   UNL A   1      41.101  31.932  36.813  1.00  0.00     0.074 A 
ATOM     55  C   UNL A   1      42.370  31.601  37.405  1.00  0.00     0.031 C 
ATOM     56  C   UNL A   1      43.635  30.122  31.017  1.00  0.00     0.029 A 
ATOM     57  C   UNL A   1      43.099  31.438  31.319  1.00  0.00     0.049 A 
ATOM     58  H   UNL A   1      41.835  31.915  32.916  1.00  0.00     0.167 HD
ATOM     59  C   UNL A   1      40.290  33.008  36.995  1.00  0.00     0.034 A 
ATOM     60  C   UNL A   1      43.267  32.631  30.696  1.00  0.00     0.034 A 
ATOM     61  C   UNL A   1      39.130  32.952  36.143  1.00  0.00     0.049 A 
ATOM     62  C   UNL A   1      42.216  33.545  31.211  1.00  0.00     0.074 A 
ATOM     63  C   UNL A   1      38.067  32.083  35.996  1.00  0.00     0.029 A 
ATOM     64  N   UNL A   1      39.173  33.698  34.989  1.00  0.00    -0.354 N 
ATOM     65  N   UNL A   1      40.943  33.354  30.997  1.00  0.00    -0.248 NA
ATOM     66  C   UNL A   1      42.539  34.383  32.356  1.00  0.00     0.031 C 
ATOM     67  C   UNL A   1      37.830  32.029  34.590  1.00  0.00     0.029 A 
ATOM     68  C   UNL A   1      38.719  32.908  33.967  1.00  0.00     0.049 A 
ATOM     69  H   UNL A   1      39.476  34.632  34.912  1.00  0.00     0.167 HD
ATOM     70  C   UNL A   1      40.340  33.640  32.216  1.00  0.00     0.074 A 
ATOM     71  C   UNL A   1      41.357  34.365  32.981  1.00  0.00     0.031 C 
ATOM     72  C   UNL A   1      39.192  33.008  32.603  1.00  0.00     0.034 A 
BRANCH  59  73
ATOM     73  C   UNL A   1      40.733  34.294  37.641  1.00  0.00     0.023 A 
ATOM     74  C   UNL A   1      39.819  34.927  38.507  1.00  0.00     0.012 A 
ATOM     75  C   UNL A   1      41.859  35.043  37.227  1.00  0.00     0.148 A 
ATOM     76  C   UNL A   1      39.991  36.256  38.904  1.00  0.00     0.002 A 
ATOM     77  C   UNL A   1      42.068  36.336  37.686  1.00  0.00     0.091 A 
ATOM     78  F   UNL A   1      42.670  34.567  36.278  1.00  0.00    -0.205 F 
ATOM     79  C   UNL A   1      41.120  36.959  38.498  1.00  0.00     0.022 A 
BRANCH  77  80
ATOM     80  S   UNL A   1      43.528  37.273  37.220  1.00  0.00     0.127 S 
ATOM     81  O   UNL A   1      43.423  38.431  38.101  1.00  0.00    -0.237 OA
ATOM     82  O   UNL A   1      44.600  36.334  37.549  1.00  0.00    -0.237 OA
ATOM     83  O   UNL A   1      43.385  37.535  35.793  1.00  0.00    -0.744 OA
ENDBRANCH  77  80
ENDBRANCH  59  73
BRANCH  60  84
ATOM     84  C   UNL A   1      44.480  33.129  30.005  1.00  0.00     0.023 A 
ATOM     85  C   UNL A   1      45.707  33.203  30.694  1.00  0.00     0.012 A 
ATOM     86  C   UNL A   1      44.497  33.264  28.598  1.00  0.00     0.148 A 
ATOM     87  C   UNL A   1      46.911  33.386  30.000  1.00  0.00     0.002 A 
ATOM     88  C   UNL A   1      45.694  33.452  27.914  1.00  0.00     0.091 A 
ATOM     89  F   UNL A   1      43.351  33.114  27.922  1.00  0.00    -0.205 F 
ATOM     90  C   UNL A   1      46.906  33.504  28.612  1.00  0.00     0.022 A 
BRANCH  88  91
ATOM     91  S   UNL A   1      45.763  33.581  26.122  1.00  0.00     0.127 S 
ATOM     92  O   UNL A   1      44.955  34.778  25.877  1.00  0.00    -0.237 OA
ATOM     93  O   UNL A   1      47.194  33.749  25.885  1.00  0.00    -0.237 OA
ATOM     94  O   UNL A   1      45.180  32.348  25.608  1.00  0.00    -0.744 OA
ENDBRANCH  88  91
ENDBRANCH  60  84
BRANCH  72  95
ATOM     95  C   UNL A   1      38.492  32.139  31.585  1.00  0.00     0.023 A 
ATOM     96  C   UNL A   1      38.811  30.774  31.409  1.00  0.00     0.012 A 
ATOM     97  C   UNL A   1      37.380  32.665  30.910  1.00  0.00     0.148 A 
ATOM     98  C   UNL A   1      38.056  29.963  30.556  1.00  0.00     0.002 A 
ATOM     99  C   UNL A   1      36.606  31.846  30.095  1.00  0.00     0.091 A 
ATOM    100  F   UNL A   1      37.079  33.959  31.099  1.00  0.00    -0.205 F 
ATOM    101  C   UNL A   1      36.946  30.497  29.908  1.00  0.00     0.022 A 
BRANCH  99 102
ATOM    102  S   UNL A   1      35.099  32.440  29.325  1.00  0.00     0.127 S 
ATOM    103  O   UNL A   1      34.578  31.226  28.700  1.00  0.00    -0.237 OA
ATOM    104  O   UNL A   1      34.327  32.916  30.473  1.00  0.00    -0.237 OA
ATOM    105  O   UNL A   1      35.507  33.493  28.403  1.00  0.00    -0.744 OA
ENDBRANCH  99 102
ENDBRANCH  72  95
ENDBRANCH  46  47
ENDBRANCH  39  41
ENDBRANCH  38  39
ENDBRANCH  37  38
ENDBRANCH  36  37
ENDBRANCH  35  36
ENDBRANCH   1  35
TORSDOF 22
ENDMDL
MODEL 3
REMARK VINA RESULT:      -9.5      4.599     11.154
REMARK SMILES C/C(=N\Nc1nc(-c2ccc(Cl)cc2)cs1)c1nnn(-c2ccc(C(=O)OCCOCCOC(=O)c3ccc(-c4c5nc(c(-c6cccc(S(=O)(=O)[O-])c6F)c6ccc([nH]6)c(-c6cccc(S(=O)(=O)[O-])c6F)c6nc(c(-c7cccc(S(=O)(=O)[O-])c7F)c7ccc4[nH]7)C=C6)C=C5)cc3)cc2)c1C
REMARK SMILES IDX 29 1 28 2 27 3 25 4 26 5 24 6 21 7 22 8 100 9 23 10 99 11
REMARK SMILES IDX 20 12 17 13 18 14 101 15 19 16 102 17 2 18 1 19 3 20 4 21
REMARK SMILES IDX 5 23 6 24 16 25 7 26 15 27 8 28 9 29 14 30 10 31 13 32 11 33
REMARK SMILES IDX 12 34 30 35 31 36 32 37 33 38 34 39 35 40 36 41 37 42 98 43
REMARK SMILES IDX 38 44 97 45 39 46 40 47 41 48 91 49 42 50 96 51 90 52 92 53
REMARK SMILES IDX 43 54 95 55 89 56 88 57 44 59 76 60 56 61 75 62 57 63 60 64
REMARK SMILES IDX 74 65 93 66 58 67 59 68 73 70 94 71 61 72 45 73 46 74 54 75
REMARK SMILES IDX 47 76 49 77 55 78 48 79 50 80 51 81 52 82 53 83 77 84 78 85
REMARK SMILES IDX 86 86 79 87 81 88 87 89 80 90 82 91 83 92 84 93 85 94 62 95
REMARK SMILES IDX 63 96 71 97 64 98 66 99 72 100 65 101 67 102 68 103 69 104
REMARK SMILES IDX 70 105
REMARK H PARENT 4 22 92 58 60 69
REMARK Flexibility Score: inf
ROOT
ATOM      1  C   UNL A   1      48.159  21.643  39.584  1.00  0.00     0.202 C 
ENDROOT
BRANCH   1   2
ATOM      2  C   UNL A   1      49.446  22.277  40.112  1.00  0.00     0.261 C 
BRANCH   2   3
ATOM      3  O   UNL A   1      49.232  23.599  40.624  1.00  0.00    -0.460 OA
BRANCH   3   4
ATOM      4  C   UNL A   1      49.741  24.590  39.857  1.00  0.00     0.338 C 
ATOM      5  O   UNL A   1      50.905  24.741  39.524  1.00  0.00    -0.246 OA
BRANCH   4   6
ATOM      6  C   UNL A   1      48.651  25.441  39.337  1.00  0.00     0.060 A 
ATOM      7  C   UNL A   1      46.318  26.661  38.498  1.00  0.00     0.067 A 
ATOM      8  C   UNL A   1      46.665  26.740  39.849  1.00  0.00     0.029 A 
ATOM      9  C   UNL A   1      47.210  26.139  37.551  1.00  0.00     0.029 A 
ATOM     10  C   UNL A   1      47.831  26.102  40.267  1.00  0.00     0.018 A 
ATOM     11  C   UNL A   1      48.384  25.522  37.970  1.00  0.00     0.018 A 
BRANCH   7  12
ATOM     12  N   UNL A   1      44.965  26.834  38.135  1.00  0.00    -0.217 N 
ATOM     13  C   UNL A   1      43.166  27.494  37.090  1.00  0.00     0.132 A 
ATOM     14  N   UNL A   1      42.904  26.304  37.716  1.00  0.00    -0.128 NA
ATOM     15  C   UNL A   1      44.492  27.839  37.303  1.00  0.00     0.071 A 
ATOM     16  N   UNL A   1      44.038  25.857  38.244  1.00  0.00    -0.061 NA
ATOM     17  C   UNL A   1      45.344  28.895  36.690  1.00  0.00     0.069 C 
BRANCH  13  18
ATOM     18  C   UNL A   1      42.229  28.190  36.217  1.00  0.00     0.087 C 
ATOM     19  C   UNL A   1      41.669  27.366  35.084  1.00  0.00     0.071 C 
ATOM     20  N   UNL A   1      42.038  29.453  36.470  1.00  0.00    -0.176 NA
BRANCH  20  21
ATOM     21  N   UNL A   1      41.347  30.320  35.653  1.00  0.00    -0.252 N 
ATOM     22  H   UNL A   1      41.891  30.746  34.952  1.00  0.00     0.193 HD
BRANCH  21  23
ATOM     23  C   UNL A   1      40.040  30.686  35.653  1.00  0.00     0.203 A 
ATOM     24  N   UNL A   1      39.171  30.448  34.700  1.00  0.00    -0.219 NA
ATOM     25  S   UNL A   1      39.399  31.642  36.947  1.00  0.00    -0.103 S 
ATOM     26  C   UNL A   1      38.100  31.311  34.796  1.00  0.00     0.084 A 
ATOM     27  C   UNL A   1      38.049  32.049  35.960  1.00  0.00     0.097 A 
BRANCH  26  28
ATOM     28  C   UNL A   1      37.203  31.459  33.666  1.00  0.00     0.001 A 
ATOM     29  C   UNL A   1      37.172  30.464  32.680  1.00  0.00     0.012 A 
ATOM     30  C   UNL A   1      36.480  32.644  33.471  1.00  0.00     0.012 A 
ATOM     31  C   UNL A   1      36.407  30.638  31.525  1.00  0.00     0.021 A 
ATOM     32  C   UNL A   1      35.724  32.824  32.308  1.00  0.00     0.021 A 
ATOM     33  C   UNL A   1      35.687  31.818  31.343  1.00  0.00     0.041 A 
ATOM     34  Cl  UNL A   1      34.762  32.041  29.909  1.00  0.00    -0.084 Cl
ENDBRANCH  26  28
ENDBRANCH  21  23
ENDBRANCH  20  21
ENDBRANCH  13  18
ENDBRANCH   7  12
ENDBRANCH   4   6
ENDBRANCH   3   4
ENDBRANCH   2   3
ENDBRANCH   1   2
BRANCH   1  35
ATOM     35  O   UNL A   1      46.910  22.251  39.912  1.00  0.00    -0.374 OA
BRANCH  35  36
ATOM     36  C   UNL A   1      45.925  22.471  38.907  1.00  0.00     0.202 C 
BRANCH  36  37
ATOM     37  C   UNL A   1      46.334  22.419  37.442  1.00  0.00     0.261 C 
BRANCH  37  38
ATOM     38  O   UNL A   1      45.341  22.970  36.597  1.00  0.00    -0.460 OA
BRANCH  38  39
ATOM     39  C   UNL A   1      45.738  23.109  35.310  1.00  0.00     0.338 C 
ATOM     40  O   UNL A   1      46.386  22.321  34.652  1.00  0.00    -0.246 OA
BRANCH  39  41
ATOM     41  C   UNL A   1      45.351  24.447  34.850  1.00  0.00     0.060 A 
ATOM     42  C   UNL A   1      44.016  24.582  34.470  1.00  0.00     0.016 A 
ATOM     43  C   UNL A   1      46.337  25.380  34.489  1.00  0.00     0.016 A 
ATOM     44  C   UNL A   1      43.731  25.480  33.475  1.00  0.00     0.010 A 
ATOM     45  C   UNL A   1      46.046  26.285  33.503  1.00  0.00     0.010 A 
ATOM     46  C   UNL A   1      44.782  26.227  32.930  1.00  0.00    -0.014 A 
BRANCH  46  47
ATOM     47  C   UNL A   1      44.511  26.960  31.720  1.00  0.00     0.031 A 
ATOM     48  C   UNL A   1      43.701  28.165  31.961  1.00  0.00     0.074 A 
ATOM     49  C   UNL A   1      44.980  26.568  30.521  1.00  0.00     0.049 A 
ATOM     50  N   UNL A   1      42.447  28.318  31.704  1.00  0.00    -0.248 NA
ATOM     51  C   UNL A   1      44.294  29.229  32.781  1.00  0.00     0.031 C 
ATOM     52  C   UNL A   1      45.988  25.551  30.211  1.00  0.00     0.029 A 
ATOM     53  N   UNL A   1      44.718  27.117  29.310  1.00  0.00    -0.354 N 
ATOM     54  C   UNL A   1      42.153  29.612  32.115  1.00  0.00     0.074 A 
ATOM     55  C   UNL A   1      43.243  30.030  32.958  1.00  0.00     0.031 C 
ATOM     56  C   UNL A   1      46.438  25.750  28.949  1.00  0.00     0.029 A 
ATOM     57  C   UNL A   1      45.650  26.803  28.332  1.00  0.00     0.049 A 
ATOM     58  H   UNL A   1      43.935  27.690  29.139  1.00  0.00     0.167 HD
ATOM     59  C   UNL A   1      41.173  30.332  31.508  1.00  0.00     0.034 A 
ATOM     60  C   UNL A   1      45.805  27.457  27.154  1.00  0.00     0.034 A 
ATOM     61  C   UNL A   1      40.318  29.497  30.705  1.00  0.00     0.049 A 
ATOM     62  C   UNL A   1      44.528  28.161  26.873  1.00  0.00     0.074 A 
ATOM     63  C   UNL A   1      39.479  28.428  30.957  1.00  0.00     0.029 A 
ATOM     64  N   UNL A   1      40.568  29.473  29.354  1.00  0.00    -0.354 N 
ATOM     65  N   UNL A   1      43.408  27.535  26.640  1.00  0.00    -0.248 NA
ATOM     66  C   UNL A   1      44.391  29.537  27.328  1.00  0.00     0.031 C 
ATOM     67  C   UNL A   1      39.653  27.556  29.841  1.00  0.00     0.029 A 
ATOM     68  C   UNL A   1      40.538  28.164  28.949  1.00  0.00     0.049 A 
ATOM     69  H   UNL A   1      40.737  30.255  28.780  1.00  0.00     0.167 HD
ATOM     70  C   UNL A   1      42.455  28.252  27.352  1.00  0.00     0.074 A 
ATOM     71  C   UNL A   1      43.099  29.527  27.669  1.00  0.00     0.031 C 
ATOM     72  C   UNL A   1      41.352  27.637  27.875  1.00  0.00     0.034 A 
BRANCH  59  73
ATOM     73  C   UNL A   1      41.222  31.824  31.318  1.00  0.00     0.023 A 
ATOM     74  C   UNL A   1      40.056  32.552  31.632  1.00  0.00     0.012 A 
ATOM     75  C   UNL A   1      42.232  32.499  30.593  1.00  0.00     0.148 A 
ATOM     76  C   UNL A   1      39.883  33.870  31.203  1.00  0.00     0.002 A 
ATOM     77  C   UNL A   1      42.089  33.832  30.236  1.00  0.00     0.091 A 
ATOM     78  F   UNL A   1      43.282  31.823  30.116  1.00  0.00    -0.205 F 
ATOM     79  C   UNL A   1      40.902  34.514  30.510  1.00  0.00     0.022 A 
BRANCH  77  80
ATOM     80  S   UNL A   1      43.391  34.718  29.373  1.00  0.00     0.127 S 
ATOM     81  O   UNL A   1      43.422  34.015  28.094  1.00  0.00    -0.237 OA
ATOM     82  O   UNL A   1      42.847  36.074  29.325  1.00  0.00    -0.237 OA
ATOM     83  O   UNL A   1      44.577  34.582  30.210  1.00  0.00    -0.744 OA
ENDBRANCH  77  80
ENDBRANCH  59  73
BRANCH  60  84
ATOM     84  C   UNL A   1      47.074  27.819  26.478  1.00  0.00     0.023 A 
ATOM     85  C   UNL A   1      48.203  28.177  27.241  1.00  0.00     0.012 A 
ATOM     86  C   UNL A   1      47.259  27.540  25.105  1.00  0.00     0.148 A 
ATOM     87  C   UNL A   1      49.476  28.237  26.656  1.00  0.00     0.002 A 
ATOM     88  C   UNL A   1      48.522  27.607  24.527  1.00  0.00     0.091 A 
ATOM     89  F   UNL A   1      46.210  27.119  24.386  1.00  0.00    -0.205 F 
ATOM     90  C   UNL A   1      49.637  27.946  25.303  1.00  0.00     0.022 A 
BRANCH  88  91
ATOM     91  S   UNL A   1      48.805  27.215  22.795  1.00  0.00     0.127 S 
ATOM     92  O   UNL A   1      50.264  27.303  22.703  1.00  0.00    -0.237 OA
ATOM     93  O   UNL A   1      48.265  25.863  22.699  1.00  0.00    -0.237 OA
ATOM     94  O   UNL A   1      48.093  28.233  22.032  1.00  0.00    -0.744 OA
ENDBRANCH  88  91
ENDBRANCH  60  84
BRANCH  72  95
ATOM     95  C   UNL A   1      41.100  26.199  27.486  1.00  0.00     0.023 A 
ATOM     96  C   UNL A   1      40.227  25.841  26.434  1.00  0.00     0.012 A 
ATOM     97  C   UNL A   1      41.882  25.199  28.084  1.00  0.00     0.148 A 
ATOM     98  C   UNL A   1      40.119  24.514  26.009  1.00  0.00     0.002 A 
ATOM     99  C   UNL A   1      41.802  23.887  27.633  1.00  0.00     0.091 A 
ATOM    100  F   UNL A   1      42.717  25.556  29.072  1.00  0.00    -0.205 F 
ATOM    101  C   UNL A   1      40.914  23.537  26.602  1.00  0.00     0.022 A 
BRANCH  99 102
ATOM    102  S   UNL A   1      42.881  22.605  28.272  1.00  0.00     0.127 S 
ATOM    103  O   UNL A   1      42.571  22.629  29.699  1.00  0.00    -0.237 OA
ATOM    104  O   UNL A   1      42.408  21.415  27.563  1.00  0.00    -0.237 OA
ATOM    105  O   UNL A   1      44.237  23.009  27.919  1.00  0.00    -0.744 OA
ENDBRANCH  99 102
ENDBRANCH  72  95
ENDBRANCH  46  47
ENDBRANCH  39  41
ENDBRANCH  38  39
ENDBRANCH  37  38
ENDBRANCH  36  37
ENDBRANCH  35  36
ENDBRANCH   1  35
TORSDOF 22
ENDMDL
