MODEL 1
REMARK VINA RESULT:     -10.6      0.000      0.000
REMARK SMILES [NH3+][C@@]1(C(=O)OCCOCCOC(=O)c2ccc(-c3c4nc(c(-c5cccc(S(=O)(=O)[O-])c5F)c5ccc([nH]5)c(-c5cccc(S(=O)(=O)[O-])c5F)c5nc(c(-c6cccc(S(=O)(=O)[O-])c6F)c6ccc3[nH]6)C=C5)C=C4)cc2)CC[C@H](Sc2cccs2)C1
REMARK SMILES IDX 9 1 8 2 7 3 6 4 5 5 3 6 4 7 2 8 77 9 86 10 78 11 79 12 1 13
REMARK SMILES IDX 80 17 81 18 82 19 85 20 83 21 84 22 10 23 11 24 12 25 13 26
REMARK SMILES IDX 14 27 15 28 76 29 16 30 75 31 17 32 18 33 19 34 69 35 20 36
REMARK SMILES IDX 74 37 68 38 70 39 21 40 73 41 67 42 66 43 22 45 54 46 34 47
REMARK SMILES IDX 53 48 35 49 38 50 52 51 71 52 36 53 37 54 51 56 72 57 39 58
REMARK SMILES IDX 23 59 24 60 32 61 25 62 27 63 33 64 26 65 28 66 29 67 30 68
REMARK SMILES IDX 31 69 55 70 56 71 64 72 57 73 59 74 65 75 58 76 60 77 61 78
REMARK SMILES IDX 62 79 63 80 40 81 41 82 49 83 42 84 44 85 50 86 43 87 45 88
REMARK SMILES IDX 46 89 47 90 48 91
REMARK H PARENT 1 14 1 15 1 16 70 44 38 55
REMARK Flexibility Score: inf
ROOT
ATOM      1  C   UNL A   1      37.582  19.729  24.907  1.00  0.00     0.202 C 
ENDROOT
BRANCH   1   2
ATOM      2  O   UNL A   1      36.935  20.956  25.238  1.00  0.00    -0.374 OA
BRANCH   2   3
ATOM      3  C   UNL A   1      37.058  22.032  24.305  1.00  0.00     0.202 C 
BRANCH   3   4
ATOM      4  C   UNL A   1      36.097  23.209  24.497  1.00  0.00     0.261 C 
BRANCH   4   5
ATOM      5  O   UNL A   1      35.130  23.261  23.434  1.00  0.00    -0.459 OA
BRANCH   5   6
ATOM      6  C   UNL A   1      33.912  23.757  23.757  1.00  0.00     0.368 C 
ATOM      7  O   UNL A   1      33.717  24.807  24.365  1.00  0.00    -0.245 OA
BRANCH   6   8
ATOM      8  C   UNL A   1      32.738  22.885  23.223  1.00  0.00     0.193 C 
ATOM      9  C   UNL A   1      31.491  23.174  24.056  1.00  0.00     0.082 C 
ATOM     10  C   UNL A   1      32.901  21.361  23.336  1.00  0.00     0.095 C 
ATOM     11  C   UNL A   1      31.652  22.237  25.250  1.00  0.00     0.022 C 
ATOM     12  C   UNL A   1      32.200  20.941  24.644  1.00  0.00     0.059 C 
BRANCH   8  13
ATOM     13  N   UNL A   1      32.527  23.261  21.801  1.00  0.00    -0.343 N 
ATOM     14  H   UNL A   1      31.622  22.913  21.488  1.00  0.00     0.345 HD
ATOM     15  H   UNL A   1      33.266  22.851  21.228  1.00  0.00     0.345 HD
ATOM     16  H   UNL A   1      32.552  24.276  21.711  1.00  0.00     0.345 HD
ENDBRANCH   8  13
BRANCH  12  17
ATOM     17  S   UNL A   1      33.364  20.036  25.701  1.00  0.00    -0.112 SA
BRANCH  17  18
ATOM     18  C   UNL A   1      33.506  18.445  24.973  1.00  0.00     0.060 A 
ATOM     19  C   UNL A   1      34.252  18.040  23.885  1.00  0.00     0.027 A 
ATOM     20  S   UNL A   1      32.634  17.130  25.649  1.00  0.00    -0.137 S 
ATOM     21  C   UNL A   1      34.043  16.665  23.563  1.00  0.00     0.013 A 
ATOM     22  C   UNL A   1      33.175  16.056  24.438  1.00  0.00     0.066 A 
ENDBRANCH  17  18
ENDBRANCH  12  17
ENDBRANCH   6   8
ENDBRANCH   5   6
ENDBRANCH   4   5
ENDBRANCH   3   4
ENDBRANCH   2   3
ENDBRANCH   1   2
BRANCH   1  23
ATOM     23  C   UNL A   1      38.943  19.459  25.564  1.00  0.00     0.261 C 
BRANCH  23  24
ATOM     24  O   UNL A   1      39.732  20.650  25.712  1.00  0.00    -0.460 OA
BRANCH  24  25
ATOM     25  C   UNL A   1      40.579  20.640  26.769  1.00  0.00     0.338 C 
ATOM     26  O   UNL A   1      41.191  19.673  27.211  1.00  0.00    -0.246 OA
BRANCH  25  27
ATOM     27  C   UNL A   1      40.840  22.014  27.236  1.00  0.00     0.060 A 
ATOM     28  C   UNL A   1      40.267  23.060  26.502  1.00  0.00     0.016 A 
ATOM     29  C   UNL A   1      41.669  22.285  28.327  1.00  0.00     0.016 A 
ATOM     30  C   UNL A   1      40.556  24.383  26.827  1.00  0.00     0.010 A 
ATOM     31  C   UNL A   1      41.965  23.616  28.646  1.00  0.00     0.010 A 
ATOM     32  C   UNL A   1      41.435  24.669  27.880  1.00  0.00    -0.014 A 
BRANCH  32  33
ATOM     33  C   UNL A   1      41.866  26.070  28.110  1.00  0.00     0.031 A 
ATOM     34  C   UNL A   1      43.251  26.496  27.710  1.00  0.00     0.074 A 
ATOM     35  C   UNL A   1      41.021  26.959  28.661  1.00  0.00     0.049 A 
ATOM     36  N   UNL A   1      43.820  27.668  27.821  1.00  0.00    -0.248 NA
ATOM     37  C   UNL A   1      44.110  25.466  27.103  1.00  0.00     0.031 C 
ATOM     38  C   UNL A   1      39.655  26.667  29.094  1.00  0.00     0.029 A 
ATOM     39  N   UNL A   1      41.198  28.285  28.971  1.00  0.00    -0.354 N 
ATOM     40  C   UNL A   1      45.108  27.515  27.324  1.00  0.00     0.074 A 
ATOM     41  C   UNL A   1      45.241  26.133  26.916  1.00  0.00     0.031 C 
ATOM     42  C   UNL A   1      39.127  27.773  29.644  1.00  0.00     0.029 A 
ATOM     43  C   UNL A   1      40.123  28.844  29.621  1.00  0.00     0.049 A 
ATOM     44  H   UNL A   1      42.016  28.786  28.750  1.00  0.00     0.167 HD
ATOM     45  C   UNL A   1      46.088  28.444  27.205  1.00  0.00     0.034 A 
ATOM     46  C   UNL A   1      39.970  30.071  30.156  1.00  0.00     0.034 A 
ATOM     47  C   UNL A   1      45.950  29.821  27.594  1.00  0.00     0.049 A 
ATOM     48  C   UNL A   1      41.082  31.079  30.029  1.00  0.00     0.074 A 
ATOM     49  C   UNL A   1      46.867  30.849  27.457  1.00  0.00     0.029 A 
ATOM     50  N   UNL A   1      44.834  30.364  28.211  1.00  0.00    -0.354 N 
ATOM     51  N   UNL A   1      42.243  30.956  29.432  1.00  0.00    -0.248 NA
ATOM     52  C   UNL A   1      40.851  32.404  30.623  1.00  0.00     0.031 C 
ATOM     53  C   UNL A   1      46.316  32.006  28.017  1.00  0.00     0.029 A 
ATOM     54  C   UNL A   1      45.045  31.705  28.480  1.00  0.00     0.049 A 
ATOM     55  H   UNL A   1      44.012  29.867  28.427  1.00  0.00     0.167 HD
ATOM     56  C   UNL A   1      42.868  32.193  29.555  1.00  0.00     0.074 A 
ATOM     57  C   UNL A   1      41.946  33.059  30.260  1.00  0.00     0.031 C 
ATOM     58  C   UNL A   1      44.103  32.573  29.140  1.00  0.00     0.034 A 
BRANCH  45  59
ATOM     59  C   UNL A   1      47.396  28.009  26.601  1.00  0.00     0.023 A 
ATOM     60  C   UNL A   1      48.459  27.628  27.445  1.00  0.00     0.012 A 
ATOM     61  C   UNL A   1      47.551  27.906  25.205  1.00  0.00     0.148 A 
ATOM     62  C   UNL A   1      49.664  27.176  26.909  1.00  0.00     0.002 A 
ATOM     63  C   UNL A   1      48.740  27.416  24.679  1.00  0.00     0.091 A 
ATOM     64  F   UNL A   1      46.536  28.293  24.420  1.00  0.00    -0.205 F 
ATOM     65  C   UNL A   1      49.801  27.060  25.528  1.00  0.00     0.022 A 
BRANCH  63  66
ATOM     66  S   UNL A   1      48.987  27.159  22.918  1.00  0.00     0.127 S 
ATOM     67  O   UNL A   1      48.388  28.368  22.356  1.00  0.00    -0.237 OA
ATOM     68  O   UNL A   1      50.446  27.099  22.817  1.00  0.00    -0.237 OA
ATOM     69  O   UNL A   1      48.305  25.914  22.593  1.00  0.00    -0.744 OA
ENDBRANCH  63  66
ENDBRANCH  45  59
BRANCH  46  70
ATOM     70  C   UNL A   1      38.697  30.422  30.847  1.00  0.00     0.023 A 
ATOM     71  C   UNL A   1      38.507  30.049  32.191  1.00  0.00     0.012 A 
ATOM     72  C   UNL A   1      37.683  31.138  30.181  1.00  0.00     0.148 A 
ATOM     73  C   UNL A   1      37.317  30.358  32.852  1.00  0.00     0.002 A 
ATOM     74  C   UNL A   1      36.524  31.490  30.862  1.00  0.00     0.091 A 
ATOM     75  F   UNL A   1      37.874  31.465  28.896  1.00  0.00    -0.205 F 
ATOM     76  C   UNL A   1      36.332  31.087  32.192  1.00  0.00     0.022 A 
BRANCH  74  77
ATOM     77  S   UNL A   1      35.258  32.533  30.127  1.00  0.00     0.127 S 
ATOM     78  O   UNL A   1      34.786  31.699  29.025  1.00  0.00    -0.237 OA
ATOM     79  O   UNL A   1      34.313  32.686  31.234  1.00  0.00    -0.237 OA
ATOM     80  O   UNL A   1      35.935  33.765  29.740  1.00  0.00    -0.744 OA
ENDBRANCH  74  77
ENDBRANCH  46  70
BRANCH  58  81
ATOM     81  C   UNL A   1      44.530  33.992  29.415  1.00  0.00     0.023 A 
ATOM     82  C   UNL A   1      45.094  34.320  30.664  1.00  0.00     0.012 A 
ATOM     83  C   UNL A   1      44.442  34.981  28.415  1.00  0.00     0.148 A 
ATOM     84  C   UNL A   1      45.535  35.617  30.926  1.00  0.00     0.002 A 
ATOM     85  C   UNL A   1      44.926  36.260  28.667  1.00  0.00     0.091 A 
ATOM     86  F   UNL A   1      43.887  34.656  27.239  1.00  0.00    -0.205 F 
ATOM     87  C   UNL A   1      45.461  36.583  29.924  1.00  0.00     0.022 A 
BRANCH  85  88
ATOM     88  S   UNL A   1      44.957  37.544  27.410  1.00  0.00     0.127 S 
ATOM     89  O   UNL A   1      45.486  38.682  28.158  1.00  0.00    -0.237 OA
ATOM     90  O   UNL A   1      45.877  36.985  26.417  1.00  0.00    -0.237 OA
ATOM     91  O   UNL A   1      43.582  37.684  26.947  1.00  0.00    -0.744 OA
ENDBRANCH  85  88
ENDBRANCH  58  81
ENDBRANCH  32  33
ENDBRANCH  25  27
ENDBRANCH  24  25
ENDBRANCH  23  24
ENDBRANCH   1  23
TORSDOF 20
ENDMDL
MODEL 2
REMARK VINA RESULT:     -10.5      5.190      8.060
REMARK SMILES [NH3+][C@@]1(C(=O)OCCOCCOC(=O)c2ccc(-c3c4nc(c(-c5cccc(S(=O)(=O)[O-])c5F)c5ccc([nH]5)c(-c5cccc(S(=O)(=O)[O-])c5F)c5nc(c(-c6cccc(S(=O)(=O)[O-])c6F)c6ccc3[nH]6)C=C5)C=C4)cc2)CC[C@H](Sc2cccs2)C1
REMARK SMILES IDX 9 1 8 2 7 3 6 4 5 5 3 6 4 7 2 8 77 9 86 10 78 11 79 12 1 13
REMARK SMILES IDX 80 17 81 18 82 19 85 20 83 21 84 22 10 23 11 24 12 25 13 26
REMARK SMILES IDX 14 27 15 28 76 29 16 30 75 31 17 32 18 33 19 34 69 35 20 36
REMARK SMILES IDX 74 37 68 38 70 39 21 40 73 41 67 42 66 43 22 45 54 46 34 47
REMARK SMILES IDX 53 48 35 49 38 50 52 51 71 52 36 53 37 54 51 56 72 57 39 58
REMARK SMILES IDX 23 59 24 60 32 61 25 62 27 63 33 64 26 65 28 66 29 67 30 68
REMARK SMILES IDX 31 69 55 70 56 71 64 72 57 73 59 74 65 75 58 76 60 77 61 78
REMARK SMILES IDX 62 79 63 80 40 81 41 82 49 83 42 84 44 85 50 86 43 87 45 88
REMARK SMILES IDX 46 89 47 90 48 91
REMARK H PARENT 1 14 1 15 1 16 70 44 38 55
REMARK Flexibility Score: inf
ROOT
ATOM      1  C   UNL A   1      31.226  29.471  24.602  1.00  0.00     0.202 C 
ENDROOT
BRANCH   1   2
ATOM      2  O   UNL A   1      31.355  28.755  23.376  1.00  0.00    -0.374 OA
BRANCH   2   3
ATOM      3  C   UNL A   1      30.276  27.894  23.005  1.00  0.00     0.202 C 
BRANCH   3   4
ATOM      4  C   UNL A   1      29.885  26.820  24.025  1.00  0.00     0.261 C 
BRANCH   4   5
ATOM      5  O   UNL A   1      31.004  25.970  24.328  1.00  0.00    -0.459 OA
BRANCH   5   6
ATOM      6  C   UNL A   1      30.746  24.642  24.390  1.00  0.00     0.368 C 
ATOM      7  O   UNL A   1      30.539  23.917  23.420  1.00  0.00    -0.245 OA
BRANCH   6   8
ATOM      8  C   UNL A   1      30.795  24.079  25.841  1.00  0.00     0.193 C 
ATOM      9  C   UNL A   1      32.002  24.676  26.561  1.00  0.00     0.082 C 
ATOM     10  C   UNL A   1      31.001  22.564  25.989  1.00  0.00     0.095 C 
ATOM     11  C   UNL A   1      33.139  23.744  26.155  1.00  0.00     0.022 C 
ATOM     12  C   UNL A   1      32.515  22.345  26.192  1.00  0.00     0.059 C 
BRANCH   8  13
ATOM     13  N   UNL A   1      29.527  24.478  26.507  1.00  0.00    -0.343 N 
ATOM     14  H   UNL A   1      29.630  25.411  26.904  1.00  0.00     0.345 HD
ATOM     15  H   UNL A   1      29.310  23.813  27.250  1.00  0.00     0.345 HD
ATOM     16  H   UNL A   1      28.771  24.480  25.822  1.00  0.00     0.345 HD
ENDBRANCH   8  13
BRANCH  12  17
ATOM     17  S   UNL A   1      33.143  21.195  24.937  1.00  0.00    -0.112 SA
BRANCH  17  18
ATOM     18  C   UNL A   1      34.714  21.828  24.478  1.00  0.00     0.060 A 
ATOM     19  C   UNL A   1      35.040  22.748  23.502  1.00  0.00     0.027 A 
ATOM     20  S   UNL A   1      36.113  21.294  25.317  1.00  0.00    -0.137 S 
ATOM     21  C   UNL A   1      36.449  22.951  23.394  1.00  0.00     0.013 A 
ATOM     22  C   UNL A   1      37.150  22.210  24.317  1.00  0.00     0.066 A 
ENDBRANCH  17  18
ENDBRANCH  12  17
ENDBRANCH   6   8
ENDBRANCH   5   6
ENDBRANCH   4   5
ENDBRANCH   3   4
ENDBRANCH   2   3
ENDBRANCH   1   2
BRANCH   1  23
ATOM     23  C   UNL A   1      32.524  29.893  25.304  1.00  0.00     0.261 C 
BRANCH  23  24
ATOM     24  O   UNL A   1      32.331  30.176  26.700  1.00  0.00    -0.460 OA
BRANCH  24  25
ATOM     25  C   UNL A   1      32.924  31.313  27.135  1.00  0.00     0.338 C 
ATOM     26  O   UNL A   1      32.405  32.420  27.238  1.00  0.00    -0.246 OA
BRANCH  25  27
ATOM     27  C   UNL A   1      34.268  31.025  27.668  1.00  0.00     0.060 A 
ATOM     28  C   UNL A   1      34.554  29.693  27.999  1.00  0.00     0.016 A 
ATOM     29  C   UNL A   1      35.210  32.029  27.899  1.00  0.00     0.016 A 
ATOM     30  C   UNL A   1      35.766  29.367  28.602  1.00  0.00     0.010 A 
ATOM     31  C   UNL A   1      36.424  31.700  28.514  1.00  0.00     0.010 A 
ATOM     32  C   UNL A   1      36.695  30.374  28.895  1.00  0.00    -0.014 A 
BRANCH  32  33
ATOM     33  C   UNL A   1      37.905  30.041  29.687  1.00  0.00     0.031 A 
ATOM     34  C   UNL A   1      38.914  29.075  29.130  1.00  0.00     0.074 A 
ATOM     35  C   UNL A   1      38.107  30.606  30.890  1.00  0.00     0.049 A 
ATOM     36  N   UNL A   1      40.034  28.654  29.658  1.00  0.00    -0.248 NA
ATOM     37  C   UNL A   1      38.625  28.508  27.803  1.00  0.00     0.031 C 
ATOM     38  C   UNL A   1      37.200  31.553  31.538  1.00  0.00     0.029 A 
ATOM     39  N   UNL A   1      39.131  30.447  31.790  1.00  0.00    -0.354 N 
ATOM     40  C   UNL A   1      40.572  27.757  28.743  1.00  0.00     0.074 A 
ATOM     41  C   UNL A   1      39.652  27.688  27.629  1.00  0.00     0.031 C 
ATOM     42  C   UNL A   1      37.693  31.868  32.748  1.00  0.00     0.029 A 
ATOM     43  C   UNL A   1      38.936  31.129  32.968  1.00  0.00     0.049 A 
ATOM     44  H   UNL A   1      39.927  29.897  31.610  1.00  0.00     0.167 HD
ATOM     45  C   UNL A   1      41.734  27.064  28.818  1.00  0.00     0.034 A 
ATOM     46  C   UNL A   1      39.665  31.138  34.101  1.00  0.00     0.034 A 
ATOM     47  C   UNL A   1      42.657  27.146  29.918  1.00  0.00     0.049 A 
ATOM     48  C   UNL A   1      40.942  30.342  34.166  1.00  0.00     0.074 A 
ATOM     49  C   UNL A   1      43.887  26.527  30.055  1.00  0.00     0.029 A 
ATOM     50  N   UNL A   1      42.449  27.878  31.076  1.00  0.00    -0.354 N 
ATOM     51  N   UNL A   1      41.506  29.607  33.238  1.00  0.00    -0.248 NA
ATOM     52  C   UNL A   1      41.700  30.400  35.426  1.00  0.00     0.031 C 
ATOM     53  C   UNL A   1      44.409  26.862  31.309  1.00  0.00     0.029 A 
ATOM     54  C   UNL A   1      43.516  27.711  31.941  1.00  0.00     0.049 A 
ATOM     55  H   UNL A   1      41.658  28.435  31.256  1.00  0.00     0.167 HD
ATOM     56  C   UNL A   1      42.693  29.138  33.791  1.00  0.00     0.074 A 
ATOM     57  C   UNL A   1      42.782  29.695  35.125  1.00  0.00     0.031 C 
ATOM     58  C   UNL A   1      43.618  28.306  33.250  1.00  0.00     0.034 A 
BRANCH  45  59
ATOM     59  C   UNL A   1      42.092  26.170  27.661  1.00  0.00     0.023 A 
ATOM     60  C   UNL A   1      42.835  26.692  26.583  1.00  0.00     0.012 A 
ATOM     61  C   UNL A   1      41.760  24.801  27.674  1.00  0.00     0.148 A 
ATOM     62  C   UNL A   1      43.220  25.872  25.523  1.00  0.00     0.002 A 
ATOM     63  C   UNL A   1      42.182  23.981  26.634  1.00  0.00     0.091 A 
ATOM     64  F   UNL A   1      41.034  24.329  28.697  1.00  0.00    -0.205 F 
ATOM     65  C   UNL A   1      42.904  24.516  25.554  1.00  0.00     0.022 A 
BRANCH  63  66
ATOM     66  S   UNL A   1      41.888  22.209  26.617  1.00  0.00     0.127 S 
ATOM     67  O   UNL A   1      42.511  21.817  25.355  1.00  0.00    -0.237 OA
ATOM     68  O   UNL A   1      42.606  21.767  27.814  1.00  0.00    -0.237 OA
ATOM     69  O   UNL A   1      40.443  22.041  26.681  1.00  0.00    -0.744 OA
ENDBRANCH  63  66
ENDBRANCH  45  59
BRANCH  46  70
ATOM     70  C   UNL A   1      39.212  31.950  35.265  1.00  0.00     0.023 A 
ATOM     71  C   UNL A   1      38.302  31.399  36.188  1.00  0.00     0.012 A 
ATOM     72  C   UNL A   1      39.690  33.259  35.469  1.00  0.00     0.148 A 
ATOM     73  C   UNL A   1      37.856  32.147  37.278  1.00  0.00     0.002 A 
ATOM     74  C   UNL A   1      39.285  33.978  36.586  1.00  0.00     0.091 A 
ATOM     75  F   UNL A   1      40.539  33.773  34.567  1.00  0.00    -0.205 F 
ATOM     76  C   UNL A   1      38.355  33.430  37.483  1.00  0.00     0.022 A 
BRANCH  74  77
ATOM     77  S   UNL A   1      39.970  35.588  36.993  1.00  0.00     0.127 S 
ATOM     78  O   UNL A   1      39.278  35.902  38.240  1.00  0.00    -0.237 OA
ATOM     79  O   UNL A   1      41.394  35.282  37.136  1.00  0.00    -0.237 OA
ATOM     80  O   UNL A   1      39.652  36.452  35.862  1.00  0.00    -0.744 OA
ENDBRANCH  74  77
ENDBRANCH  46  70
BRANCH  58  81
ATOM     81  C   UNL A   1      44.823  27.957  34.086  1.00  0.00     0.023 A 
ATOM     82  C   UNL A   1      45.957  28.792  34.058  1.00  0.00     0.012 A 
ATOM     83  C   UNL A   1      44.804  26.845  34.953  1.00  0.00     0.148 A 
ATOM     84  C   UNL A   1      47.066  28.511  34.855  1.00  0.00     0.002 A 
ATOM     85  C   UNL A   1      45.896  26.598  35.779  1.00  0.00     0.091 A 
ATOM     86  F   UNL A   1      43.724  26.051  34.954  1.00  0.00    -0.205 F 
ATOM     87  C   UNL A   1      47.031  27.421  35.722  1.00  0.00     0.022 A 
BRANCH  85  88
ATOM     88  S   UNL A   1      45.904  25.272  36.993  1.00  0.00     0.127 S 
ATOM     89  O   UNL A   1      45.734  24.093  36.148  1.00  0.00    -0.237 OA
ATOM     90  O   UNL A   1      47.233  25.408  37.592  1.00  0.00    -0.237 OA
ATOM     91  O   UNL A   1      44.801  25.556  37.902  1.00  0.00    -0.744 OA
ENDBRANCH  85  88
ENDBRANCH  58  81
ENDBRANCH  32  33
ENDBRANCH  25  27
ENDBRANCH  24  25
ENDBRANCH  23  24
ENDBRANCH   1  23
TORSDOF 20
ENDMDL
MODEL 3
REMARK VINA RESULT:     -10.4      5.734     11.119
REMARK SMILES [NH3+][C@@]1(C(=O)OCCOCCOC(=O)c2ccc(-c3c4nc(c(-c5cccc(S(=O)(=O)[O-])c5F)c5ccc([nH]5)c(-c5cccc(S(=O)(=O)[O-])c5F)c5nc(c(-c6cccc(S(=O)(=O)[O-])c6F)c6ccc3[nH]6)C=C5)C=C4)cc2)CC[C@H](Sc2cccs2)C1
REMARK SMILES IDX 9 1 8 2 7 3 6 4 5 5 3 6 4 7 2 8 77 9 86 10 78 11 79 12 1 13
REMARK SMILES IDX 80 17 81 18 82 19 85 20 83 21 84 22 10 23 11 24 12 25 13 26
REMARK SMILES IDX 14 27 15 28 76 29 16 30 75 31 17 32 18 33 19 34 69 35 20 36
REMARK SMILES IDX 74 37 68 38 70 39 21 40 73 41 67 42 66 43 22 45 54 46 34 47
REMARK SMILES IDX 53 48 35 49 38 50 52 51 71 52 36 53 37 54 51 56 72 57 39 58
REMARK SMILES IDX 23 59 24 60 32 61 25 62 27 63 33 64 26 65 28 66 29 67 30 68
REMARK SMILES IDX 31 69 55 70 56 71 64 72 57 73 59 74 65 75 58 76 60 77 61 78
REMARK SMILES IDX 62 79 63 80 40 81 41 82 49 83 42 84 44 85 50 86 43 87 45 88
REMARK SMILES IDX 46 89 47 90 48 91
REMARK H PARENT 1 14 1 15 1 16 70 44 38 55
REMARK Flexibility Score: inf
ROOT
ATOM      1  C   UNL A   1      31.758  30.842  26.494  1.00  0.00     0.202 C 
ENDROOT
BRANCH   1   2
ATOM      2  O   UNL A   1      33.072  30.393  26.173  1.00  0.00    -0.374 OA
BRANCH   2   3
ATOM      3  C   UNL A   1      33.413  29.054  26.542  1.00  0.00     0.202 C 
BRANCH   3   4
ATOM      4  C   UNL A   1      33.180  27.977  25.478  1.00  0.00     0.261 C 
BRANCH   4   5
ATOM      5  O   UNL A   1      32.295  26.955  25.969  1.00  0.00    -0.459 OA
BRANCH   5   6
ATOM      6  C   UNL A   1      32.181  25.845  25.201  1.00  0.00     0.368 C 
ATOM      7  O   UNL A   1      33.056  24.996  25.053  1.00  0.00    -0.245 OA
BRANCH   6   8
ATOM      8  C   UNL A   1      30.776  25.700  24.545  1.00  0.00     0.193 C 
ATOM      9  C   UNL A   1      30.935  25.036  23.180  1.00  0.00     0.082 C 
ATOM     10  C   UNL A   1      30.023  27.002  24.227  1.00  0.00     0.095 C 
ATOM     11  C   UNL A   1      31.248  26.213  22.261  1.00  0.00     0.022 C 
ATOM     12  C   UNL A   1      30.327  27.334  22.751  1.00  0.00     0.059 C 
BRANCH   8  13
ATOM     13  N   UNL A   1      29.955  24.858  25.455  1.00  0.00    -0.343 N 
ATOM     14  H   UNL A   1      30.447  24.732  26.338  1.00  0.00     0.345 HD
ATOM     15  H   UNL A   1      29.792  23.949  25.022  1.00  0.00     0.345 HD
ATOM     16  H   UNL A   1      29.060  25.317  25.627  1.00  0.00     0.345 HD
ENDBRANCH   8  13
BRANCH  12  17
ATOM     17  S   UNL A   1      31.024  29.004  22.630  1.00  0.00    -0.112 SA
BRANCH  17  18
ATOM     18  C   UNL A   1      29.648  30.088  22.751  1.00  0.00     0.060 A 
ATOM     19  C   UNL A   1      29.140  30.743  23.854  1.00  0.00     0.027 A 
ATOM     20  S   UNL A   1      28.743  30.457  21.340  1.00  0.00    -0.137 S 
ATOM     21  C   UNL A   1      27.959  31.485  23.550  1.00  0.00     0.013 A 
ATOM     22  C   UNL A   1      27.627  31.405  22.218  1.00  0.00     0.066 A 
ENDBRANCH  17  18
ENDBRANCH  12  17
ENDBRANCH   6   8
ENDBRANCH   5   6
ENDBRANCH   4   5
ENDBRANCH   3   4
ENDBRANCH   2   3
ENDBRANCH   1   2
BRANCH   1  23
ATOM     23  C   UNL A   1      31.595  32.326  26.850  1.00  0.00     0.261 C 
BRANCH  23  24
ATOM     24  O   UNL A   1      32.812  33.072  26.685  1.00  0.00    -0.460 OA
BRANCH  24  25
ATOM     25  C   UNL A   1      33.302  33.616  27.825  1.00  0.00     0.338 C 
ATOM     26  O   UNL A   1      32.759  34.463  28.527  1.00  0.00    -0.246 OA
BRANCH  25  27
ATOM     27  C   UNL A   1      34.528  32.915  28.248  1.00  0.00     0.060 A 
ATOM     28  C   UNL A   1      34.371  31.677  28.884  1.00  0.00     0.016 A 
ATOM     29  C   UNL A   1      35.798  33.471  28.085  1.00  0.00     0.016 A 
ATOM     30  C   UNL A   1      35.479  31.009  29.400  1.00  0.00     0.010 A 
ATOM     31  C   UNL A   1      36.909  32.803  28.614  1.00  0.00     0.010 A 
ATOM     32  C   UNL A   1      36.752  31.585  29.298  1.00  0.00    -0.014 A 
BRANCH  32  33
ATOM     33  C   UNL A   1      37.897  30.949  29.996  1.00  0.00     0.031 A 
ATOM     34  C   UNL A   1      38.227  31.356  31.405  1.00  0.00     0.074 A 
ATOM     35  C   UNL A   1      38.631  30.007  29.378  1.00  0.00     0.049 A 
ATOM     36  N   UNL A   1      39.179  30.923  32.189  1.00  0.00    -0.248 NA
ATOM     37  C   UNL A   1      37.369  32.386  32.014  1.00  0.00     0.031 C 
ATOM     38  C   UNL A   1      38.414  29.531  28.013  1.00  0.00     0.029 A 
ATOM     39  N   UNL A   1      39.722  29.298  29.814  1.00  0.00    -0.354 N 
ATOM     40  C   UNL A   1      39.054  31.641  33.373  1.00  0.00     0.074 A 
ATOM     41  C   UNL A   1      37.937  32.544  33.202  1.00  0.00     0.031 C 
ATOM     42  C   UNL A   1      39.363  28.630  27.710  1.00  0.00     0.029 A 
ATOM     43  C   UNL A   1      40.266  28.482  28.851  1.00  0.00     0.049 A 
ATOM     44  H   UNL A   1      40.082  29.369  30.728  1.00  0.00     0.167 HD
ATOM     45  C   UNL A   1      39.794  31.547  34.504  1.00  0.00     0.034 A 
ATOM     46  C   UNL A   1      41.378  27.721  28.879  1.00  0.00     0.034 A 
ATOM     47  C   UNL A   1      40.894  30.637  34.680  1.00  0.00     0.049 A 
ATOM     48  C   UNL A   1      42.195  27.650  30.142  1.00  0.00     0.074 A 
ATOM     49  C   UNL A   1      41.664  30.429  35.810  1.00  0.00     0.029 A 
ATOM     50  N   UNL A   1      41.392  29.795  33.698  1.00  0.00    -0.354 N 
ATOM     51  N   UNL A   1      41.982  28.232  31.298  1.00  0.00    -0.248 NA
ATOM     52  C   UNL A   1      43.391  26.794  30.115  1.00  0.00     0.031 C 
ATOM     53  C   UNL A   1      42.647  29.482  35.503  1.00  0.00     0.029 A 
ATOM     54  C   UNL A   1      42.471  29.081  34.189  1.00  0.00     0.049 A 
ATOM     55  H   UNL A   1      41.031  29.718  32.786  1.00  0.00     0.167 HD
ATOM     56  C   UNL A   1      42.998  27.792  32.140  1.00  0.00     0.074 A 
ATOM     57  C   UNL A   1      43.811  26.874  31.371  1.00  0.00     0.031 C 
ATOM     58  C   UNL A   1      43.247  28.133  33.429  1.00  0.00     0.034 A 
BRANCH  45  59
ATOM     59  C   UNL A   1      39.422  32.437  35.660  1.00  0.00     0.023 A 
ATOM     60  C   UNL A   1      38.676  31.907  36.732  1.00  0.00     0.012 A 
ATOM     61  C   UNL A   1      39.872  33.770  35.721  1.00  0.00     0.148 A 
ATOM     62  C   UNL A   1      38.360  32.698  37.836  1.00  0.00     0.002 A 
ATOM     63  C   UNL A   1      39.589  34.540  36.844  1.00  0.00     0.091 A 
ATOM     64  F   UNL A   1      40.562  34.261  34.682  1.00  0.00    -0.205 F 
ATOM     65  C   UNL A   1      38.826  34.010  37.897  1.00  0.00     0.022 A 
BRANCH  63  66
ATOM     66  S   UNL A   1      40.205  36.215  37.049  1.00  0.00     0.127 S 
ATOM     67  O   UNL A   1      39.435  36.675  38.202  1.00  0.00    -0.237 OA
ATOM     68  O   UNL A   1      41.627  35.989  37.317  1.00  0.00    -0.237 OA
ATOM     69  O   UNL A   1      39.927  36.902  35.796  1.00  0.00    -0.744 OA
ENDBRANCH  63  66
ENDBRANCH  45  59
BRANCH  46  70
ATOM     70  C   UNL A   1      41.772  26.943  27.671  1.00  0.00     0.023 A 
ATOM     71  C   UNL A   1      42.366  27.605  26.579  1.00  0.00     0.012 A 
ATOM     72  C   UNL A   1      41.575  25.550  27.606  1.00  0.00     0.148 A 
ATOM     73  C   UNL A   1      42.732  26.897  25.433  1.00  0.00     0.002 A 
ATOM     74  C   UNL A   1      41.991  24.843  26.485  1.00  0.00     0.091 A 
ATOM     75  F   UNL A   1      40.988  24.943  28.647  1.00  0.00    -0.205 F 
ATOM     76  C   UNL A   1      42.555  25.517  25.391  1.00  0.00     0.022 A 
BRANCH  74  77
ATOM     77  S   UNL A   1      41.914  23.051  26.397  1.00  0.00     0.127 S 
ATOM     78  O   UNL A   1      40.473  22.812  26.424  1.00  0.00    -0.237 OA
ATOM     79  O   UNL A   1      42.560  22.784  25.111  1.00  0.00    -0.237 OA
ATOM     80  O   UNL A   1      42.655  22.564  27.554  1.00  0.00    -0.744 OA
ENDBRANCH  74  77
ENDBRANCH  46  70
BRANCH  58  81
ATOM     81  C   UNL A   1      44.436  27.499  34.106  1.00  0.00     0.023 A 
ATOM     82  C   UNL A   1      45.692  28.136  34.047  1.00  0.00     0.012 A 
ATOM     83  C   UNL A   1      44.296  26.316  34.858  1.00  0.00     0.148 A 
ATOM     84  C   UNL A   1      46.797  27.589  34.700  1.00  0.00     0.002 A 
ATOM     85  C   UNL A   1      45.390  25.802  35.545  1.00  0.00     0.091 A 
ATOM     86  F   UNL A   1      43.098  25.715  34.889  1.00  0.00    -0.205 F 
ATOM     87  C   UNL A   1      46.643  26.430  35.457  1.00  0.00     0.022 A 
BRANCH  85  88
ATOM     88  S   UNL A   1      45.267  24.366  36.619  1.00  0.00     0.127 S 
ATOM     89  O   UNL A   1      44.876  23.321  35.676  1.00  0.00    -0.237 OA
ATOM     90  O   UNL A   1      46.632  24.244  37.133  1.00  0.00    -0.237 OA
ATOM     91  O   UNL A   1      44.271  24.705  37.627  1.00  0.00    -0.744 OA
ENDBRANCH  85  88
ENDBRANCH  58  81
ENDBRANCH  32  33
ENDBRANCH  25  27
ENDBRANCH  24  25
ENDBRANCH  23  24
ENDBRANCH   1  23
TORSDOF 20
ENDMDL
