MODEL 1
REMARK VINA RESULT:     -11.6      0.000      0.000
REMARK SMILES COc1ccc([C@@](C)(NC(=O)c2csc(C)n2)C(=O)OCCOCCOC(=O)c2ccc(-c3c4nc(c(-c5cccc(S(=O)(=O)[O-])c5F)c5ccc([nH]5)c(-c5cccc(S(=O)(=O)[O-])c5F)c5nc(c(-c6cccc(S(=O)(=O)[O-])c6F)c6ccc3[nH]6)C=C5)C=C4)cc2)cc1
REMARK SMILES IDX 24 1 23 2 22 3 21 4 20 5 18 6 19 7 7 8 8 9 6 10 3 11 4 12
REMARK SMILES IDX 93 13 5 14 92 15 2 16 1 17 9 18 10 19 11 21 12 22 13 23
REMARK SMILES IDX 17 24 14 25 15 26 16 27 25 28 26 29 27 30 28 31 29 32 30 33
REMARK SMILES IDX 91 34 31 35 90 36 32 37 33 38 34 39 84 40 35 41 89 42 83 43
REMARK SMILES IDX 85 44 36 45 88 46 82 47 81 48 37 50 69 51 49 52 68 53 50 54
REMARK SMILES IDX 53 55 67 56 86 57 51 58 52 59 66 61 87 62 54 63 38 64 39 65
REMARK SMILES IDX 47 66 40 67 42 68 48 69 41 70 43 71 44 72 45 73 46 74 70 75
REMARK SMILES IDX 71 76 79 77 72 78 74 79 80 80 73 81 75 82 76 83 77 84 78 85
REMARK SMILES IDX 55 86 56 87 64 88 57 89 59 90 65 91 58 92 60 93 61 94 62 95
REMARK SMILES IDX 63 96
REMARK H PARENT 9 20 85 49 53 60
REMARK Flexibility Score: inf
ROOT
ATOM      1  C   UNL A   1      38.338  20.431  25.149  1.00  0.00     0.202 C 
ENDROOT
BRANCH   1   2
ATOM      2  O   UNL A   1      38.261  21.628  25.954  1.00  0.00    -0.374 OA
BRANCH   2   3
ATOM      3  C   UNL A   1      37.506  22.729  25.393  1.00  0.00     0.202 C 
BRANCH   3   4
ATOM      4  C   UNL A   1      36.577  22.433  24.184  1.00  0.00     0.261 C 
BRANCH   4   5
ATOM      5  O   UNL A   1      35.270  22.873  24.522  1.00  0.00    -0.461 OA
BRANCH   5   6
ATOM      6  C   UNL A   1      34.240  22.919  23.639  1.00  0.00     0.336 C 
ATOM      7  O   UNL A   1      34.346  23.167  22.448  1.00  0.00    -0.249 OA
BRANCH   6   8
ATOM      8  C   UNL A   1      33.023  22.227  24.348  1.00  0.00     0.161 C 
ATOM      9  C   UNL A   1      31.701  22.770  23.787  1.00  0.00     0.053 C 
BRANCH   8  10
ATOM     10  C   UNL A   1      33.168  20.669  24.044  1.00  0.00    -0.011 A 
ATOM     11  C   UNL A   1      33.155  17.834  23.529  1.00  0.00     0.118 A 
ATOM     12  C   UNL A   1      34.017  18.404  24.471  1.00  0.00     0.047 A 
ATOM     13  C   UNL A   1      32.313  18.675  22.828  1.00  0.00     0.047 A 
ATOM     14  C   UNL A   1      34.041  19.800  24.716  1.00  0.00     0.010 A 
ATOM     15  C   UNL A   1      32.332  20.050  23.085  1.00  0.00     0.010 A 
BRANCH  11  16
ATOM     16  O   UNL A   1      33.184  16.472  23.404  1.00  0.00    -0.497 OA
ATOM     17  C   UNL A   1      33.356  15.723  24.607  1.00  0.00     0.278 C 
ENDBRANCH  11  16
ENDBRANCH   8  10
BRANCH   8  18
ATOM     18  N   UNL A   1      33.019  22.449  25.832  1.00  0.00    -0.331 N 
ATOM     19  C   UNL A   1      32.386  23.422  26.617  1.00  0.00     0.271 C 
ATOM     20  H   UNL A   1      33.554  21.799  26.343  1.00  0.00     0.165 HD
ATOM     21  O   UNL A   1      31.919  23.009  27.682  1.00  0.00    -0.267 OA
BRANCH  19  22
ATOM     22  C   UNL A   1      32.521  24.887  26.371  1.00  0.00     0.139 A 
ATOM     23  C   UNL A   1      33.687  25.445  25.890  1.00  0.00     0.101 A 
ATOM     24  N   UNL A   1      31.576  25.883  26.672  1.00  0.00    -0.236 NA
ATOM     25  S   UNL A   1      33.678  27.132  25.805  1.00  0.00    -0.127 S 
ATOM     26  C   UNL A   1      32.094  27.086  26.444  1.00  0.00     0.090 A 
ATOM     27  C   UNL A   1      31.470  28.417  26.654  1.00  0.00     0.079 C 
ENDBRANCH  19  22
ENDBRANCH   8  18
ENDBRANCH   6   8
ENDBRANCH   5   6
ENDBRANCH   4   5
ENDBRANCH   3   4
ENDBRANCH   2   3
ENDBRANCH   1   2
BRANCH   1  28
ATOM     28  C   UNL A   1      39.214  19.288  25.764  1.00  0.00     0.261 C 
BRANCH  28  29
ATOM     29  O   UNL A   1      40.641  19.368  25.441  1.00  0.00    -0.460 OA
BRANCH  29  30
ATOM     30  C   UNL A   1      41.505  19.613  26.475  1.00  0.00     0.338 C 
ATOM     31  O   UNL A   1      42.293  18.799  26.931  1.00  0.00    -0.246 OA
BRANCH  30  32
ATOM     32  C   UNL A   1      41.582  21.070  26.846  1.00  0.00     0.060 A 
ATOM     33  C   UNL A   1      41.564  22.002  25.795  1.00  0.00     0.016 A 
ATOM     34  C   UNL A   1      41.697  21.553  28.152  1.00  0.00     0.016 A 
ATOM     35  C   UNL A   1      41.616  23.389  26.038  1.00  0.00     0.010 A 
ATOM     36  C   UNL A   1      41.808  22.949  28.392  1.00  0.00     0.010 A 
ATOM     37  C   UNL A   1      41.773  23.886  27.339  1.00  0.00    -0.014 A 
BRANCH  37  38
ATOM     38  C   UNL A   1      42.111  25.337  27.552  1.00  0.00     0.031 A 
ATOM     39  C   UNL A   1      43.476  25.826  27.116  1.00  0.00     0.074 A 
ATOM     40  C   UNL A   1      41.261  26.237  28.092  1.00  0.00     0.049 A 
ATOM     41  N   UNL A   1      44.019  27.013  27.231  1.00  0.00    -0.248 NA
ATOM     42  C   UNL A   1      44.336  24.838  26.446  1.00  0.00     0.031 C 
ATOM     43  C   UNL A   1      39.885  25.973  28.501  1.00  0.00     0.029 A 
ATOM     44  N   UNL A   1      41.447  27.573  28.403  1.00  0.00    -0.354 N 
ATOM     45  C   UNL A   1      45.290  26.907  26.676  1.00  0.00     0.074 A 
ATOM     46  C   UNL A   1      45.427  25.547  26.202  1.00  0.00     0.031 C 
ATOM     47  C   UNL A   1      39.364  27.093  29.040  1.00  0.00     0.029 A 
ATOM     48  C   UNL A   1      40.376  28.153  29.052  1.00  0.00     0.049 A 
ATOM     49  H   UNL A   1      42.270  28.065  28.181  1.00  0.00     0.167 HD
ATOM     50  C   UNL A   1      46.268  27.840  26.573  1.00  0.00     0.034 A 
ATOM     51  C   UNL A   1      40.236  29.374  29.621  1.00  0.00     0.034 A 
ATOM     52  C   UNL A   1      46.173  29.191  27.055  1.00  0.00     0.049 A 
ATOM     53  C   UNL A   1      41.379  30.371  29.579  1.00  0.00     0.074 A 
ATOM     54  C   UNL A   1      47.127  30.193  26.989  1.00  0.00     0.029 A 
ATOM     55  N   UNL A   1      45.081  29.724  27.716  1.00  0.00    -0.354 N 
ATOM     56  N   UNL A   1      42.537  30.280  28.973  1.00  0.00    -0.248 NA
ATOM     57  C   UNL A   1      41.185  31.648  30.289  1.00  0.00     0.031 C 
ATOM     58  C   UNL A   1      46.624  31.320  27.646  1.00  0.00     0.029 A 
ATOM     59  C   UNL A   1      45.343  31.032  28.084  1.00  0.00     0.049 A 
ATOM     60  H   UNL A   1      44.240  29.243  27.897  1.00  0.00     0.167 HD
ATOM     61  C   UNL A   1      43.190  31.491  29.201  1.00  0.00     0.074 A 
ATOM     62  C   UNL A   1      42.293  32.311  29.983  1.00  0.00     0.031 C 
ATOM     63  C   UNL A   1      44.430  31.879  28.809  1.00  0.00     0.034 A 
BRANCH  50  64
ATOM     64  C   UNL A   1      47.560  27.414  25.926  1.00  0.00     0.023 A 
ATOM     65  C   UNL A   1      48.569  26.810  26.703  1.00  0.00     0.012 A 
ATOM     66  C   UNL A   1      47.757  27.585  24.542  1.00  0.00     0.148 A 
ATOM     67  C   UNL A   1      49.772  26.417  26.117  1.00  0.00     0.002 A 
ATOM     68  C   UNL A   1      48.941  27.151  23.958  1.00  0.00     0.091 A 
ATOM     69  F   UNL A   1      46.791  28.178  23.826  1.00  0.00    -0.205 F 
ATOM     70  C   UNL A   1      49.954  26.579  24.746  1.00  0.00     0.022 A 
BRANCH  68  71
ATOM     71  S   UNL A   1      49.241  27.249  22.191  1.00  0.00     0.127 S 
ATOM     72  O   UNL A   1      50.691  27.067  22.127  1.00  0.00    -0.237 OA
ATOM     73  O   UNL A   1      48.462  26.119  21.684  1.00  0.00    -0.237 OA
ATOM     74  O   UNL A   1      48.758  28.558  21.771  1.00  0.00    -0.744 OA
ENDBRANCH  68  71
ENDBRANCH  50  64
BRANCH  51  75
ATOM     75  C   UNL A   1      38.964  29.754  30.316  1.00  0.00     0.023 A 
ATOM     76  C   UNL A   1      38.694  29.256  31.608  1.00  0.00     0.012 A 
ATOM     77  C   UNL A   1      37.997  30.563  29.685  1.00  0.00     0.148 A 
ATOM     78  C   UNL A   1      37.478  29.527  32.241  1.00  0.00     0.002 A 
ATOM     79  C   UNL A   1      36.813  30.877  30.345  1.00  0.00     0.091 A 
ATOM     80  F   UNL A   1      38.247  30.997  28.442  1.00  0.00    -0.205 F 
ATOM     81  C   UNL A   1      36.543  30.347  31.615  1.00  0.00     0.022 A 
BRANCH  79  82
ATOM     82  S   UNL A   1      35.596  32.012  29.665  1.00  0.00     0.127 S 
ATOM     83  O   UNL A   1      36.432  33.140  29.259  1.00  0.00    -0.237 OA
ATOM     84  O   UNL A   1      35.042  31.228  28.561  1.00  0.00    -0.237 OA
ATOM     85  O   UNL A   1      34.658  32.281  30.746  1.00  0.00    -0.744 OA
ENDBRANCH  79  82
ENDBRANCH  51  75
BRANCH  63  86
ATOM     86  C   UNL A   1      44.904  33.268  29.167  1.00  0.00     0.023 A 
ATOM     87  C   UNL A   1      45.584  33.490  30.380  1.00  0.00     0.012 A 
ATOM     88  C   UNL A   1      44.776  34.329  28.247  1.00  0.00     0.148 A 
ATOM     89  C   UNL A   1      46.109  34.747  30.681  1.00  0.00     0.002 A 
ATOM     90  C   UNL A   1      45.342  35.568  28.533  1.00  0.00     0.091 A 
ATOM     91  F   UNL A   1      44.114  34.106  27.102  1.00  0.00    -0.205 F 
ATOM     92  C   UNL A   1      46.000  35.781  29.755  1.00  0.00     0.022 A 
BRANCH  90  93
ATOM     93  S   UNL A   1      45.340  36.930  27.359  1.00  0.00     0.127 S 
ATOM     94  O   UNL A   1      46.137  36.381  26.264  1.00  0.00    -0.237 OA
ATOM     95  O   UNL A   1      43.915  37.080  27.061  1.00  0.00    -0.237 OA
ATOM     96  O   UNL A   1      45.935  38.063  28.055  1.00  0.00    -0.744 OA
ENDBRANCH  90  93
ENDBRANCH  63  86
ENDBRANCH  37  38
ENDBRANCH  30  32
ENDBRANCH  29  30
ENDBRANCH  28  29
ENDBRANCH   1  28
TORSDOF 21
ENDMDL
MODEL 2
REMARK VINA RESULT:     -11.1      2.118      4.110
REMARK SMILES COc1ccc([C@@](C)(NC(=O)c2csc(C)n2)C(=O)OCCOCCOC(=O)c2ccc(-c3c4nc(c(-c5cccc(S(=O)(=O)[O-])c5F)c5ccc([nH]5)c(-c5cccc(S(=O)(=O)[O-])c5F)c5nc(c(-c6cccc(S(=O)(=O)[O-])c6F)c6ccc3[nH]6)C=C5)C=C4)cc2)cc1
REMARK SMILES IDX 24 1 23 2 22 3 21 4 20 5 18 6 19 7 7 8 8 9 6 10 3 11 4 12
REMARK SMILES IDX 93 13 5 14 92 15 2 16 1 17 9 18 10 19 11 21 12 22 13 23
REMARK SMILES IDX 17 24 14 25 15 26 16 27 25 28 26 29 27 30 28 31 29 32 30 33
REMARK SMILES IDX 91 34 31 35 90 36 32 37 33 38 34 39 84 40 35 41 89 42 83 43
REMARK SMILES IDX 85 44 36 45 88 46 82 47 81 48 37 50 69 51 49 52 68 53 50 54
REMARK SMILES IDX 53 55 67 56 86 57 51 58 52 59 66 61 87 62 54 63 38 64 39 65
REMARK SMILES IDX 47 66 40 67 42 68 48 69 41 70 43 71 44 72 45 73 46 74 70 75
REMARK SMILES IDX 71 76 79 77 72 78 74 79 80 80 73 81 75 82 76 83 77 84 78 85
REMARK SMILES IDX 55 86 56 87 64 88 57 89 59 90 65 91 58 92 60 93 61 94 62 95
REMARK SMILES IDX 63 96
REMARK H PARENT 9 20 85 49 53 60
REMARK Flexibility Score: inf
ROOT
ATOM      1  C   UNL A   1      35.820  21.060  25.369  1.00  0.00     0.202 C 
ENDROOT
BRANCH   1   2
ATOM      2  O   UNL A   1      34.656  20.530  24.698  1.00  0.00    -0.374 OA
BRANCH   2   3
ATOM      3  C   UNL A   1      33.500  21.401  24.636  1.00  0.00     0.202 C 
BRANCH   3   4
ATOM      4  C   UNL A   1      33.513  22.689  25.505  1.00  0.00     0.261 C 
BRANCH   4   5
ATOM      5  O   UNL A   1      32.315  23.404  25.240  1.00  0.00    -0.461 OA
BRANCH   5   6
ATOM      6  C   UNL A   1      31.580  24.021  26.200  1.00  0.00     0.336 C 
ATOM      7  O   UNL A   1      31.606  23.747  27.390  1.00  0.00    -0.249 OA
BRANCH   6   8
ATOM      8  C   UNL A   1      31.037  25.343  25.554  1.00  0.00     0.161 C 
ATOM      9  C   UNL A   1      29.576  25.575  25.962  1.00  0.00     0.053 C 
BRANCH   8  10
ATOM     10  C   UNL A   1      31.969  26.513  26.104  1.00  0.00    -0.011 A 
ATOM     11  C   UNL A   1      33.472  28.808  26.988  1.00  0.00     0.118 A 
ATOM     12  C   UNL A   1      34.073  27.770  26.270  1.00  0.00     0.047 A 
ATOM     13  C   UNL A   1      32.128  28.697  27.285  1.00  0.00     0.047 A 
ATOM     14  C   UNL A   1      33.344  26.630  25.848  1.00  0.00     0.010 A 
ATOM     15  C   UNL A   1      31.410  27.576  26.853  1.00  0.00     0.010 A 
BRANCH  11  16
ATOM     16  O   UNL A   1      34.259  29.880  27.308  1.00  0.00    -0.497 OA
ATOM     17  C   UNL A   1      35.634  29.606  27.573  1.00  0.00     0.278 C 
ENDBRANCH  11  16
ENDBRANCH   8  10
BRANCH   8  18
ATOM     18  N   UNL A   1      31.098  25.319  24.055  1.00  0.00    -0.331 N 
ATOM     19  C   UNL A   1      31.283  26.349  23.123  1.00  0.00     0.271 C 
ATOM     20  H   UNL A   1      30.989  24.425  23.657  1.00  0.00     0.165 HD
ATOM     21  O   UNL A   1      32.002  26.060  22.162  1.00  0.00    -0.267 OA
BRANCH  19  22
ATOM     22  C   UNL A   1      30.452  27.587  23.095  1.00  0.00     0.139 A 
ATOM     23  C   UNL A   1      30.996  28.839  23.297  1.00  0.00     0.101 A 
ATOM     24  N   UNL A   1      29.055  27.663  22.973  1.00  0.00    -0.236 NA
ATOM     25  S   UNL A   1      29.869  30.096  23.356  1.00  0.00    -0.127 S 
ATOM     26  C   UNL A   1      28.651  28.919  23.128  1.00  0.00     0.090 A 
ATOM     27  C   UNL A   1      27.265  29.455  23.112  1.00  0.00     0.079 C 
ENDBRANCH  19  22
ENDBRANCH   8  18
ENDBRANCH   6   8
ENDBRANCH   5   6
ENDBRANCH   4   5
ENDBRANCH   3   4
ENDBRANCH   2   3
ENDBRANCH   1   2
BRANCH   1  28
ATOM     28  C   UNL A   1      37.150  20.290  25.070  1.00  0.00     0.261 C 
BRANCH  28  29
ATOM     29  O   UNL A   1      38.345  21.134  25.005  1.00  0.00    -0.460 OA
BRANCH  29  30
ATOM     30  C   UNL A   1      39.256  21.009  26.020  1.00  0.00     0.338 C 
ATOM     31  O   UNL A   1      39.826  19.972  26.322  1.00  0.00    -0.246 OA
BRANCH  30  32
ATOM     32  C   UNL A   1      39.694  22.334  26.585  1.00  0.00     0.060 A 
ATOM     33  C   UNL A   1      39.017  23.480  26.134  1.00  0.00     0.016 A 
ATOM     34  C   UNL A   1      40.736  22.504  27.501  1.00  0.00     0.016 A 
ATOM     35  C   UNL A   1      39.341  24.765  26.613  1.00  0.00     0.010 A 
ATOM     36  C   UNL A   1      41.100  23.806  27.938  1.00  0.00     0.010 A 
ATOM     37  C   UNL A   1      40.411  24.954  27.498  1.00  0.00    -0.014 A 
BRANCH  37  38
ATOM     38  C   UNL A   1      40.920  26.343  27.774  1.00  0.00     0.031 A 
ATOM     39  C   UNL A   1      42.282  26.727  27.234  1.00  0.00     0.074 A 
ATOM     40  C   UNL A   1      40.227  27.278  28.459  1.00  0.00     0.049 A 
ATOM     41  N   UNL A   1      42.957  27.841  27.373  1.00  0.00    -0.248 NA
ATOM     42  C   UNL A   1      42.964  25.715  26.413  1.00  0.00     0.031 C 
ATOM     43  C   UNL A   1      38.876  27.120  28.989  1.00  0.00     0.029 A 
ATOM     44  N   UNL A   1      40.582  28.560  28.840  1.00  0.00    -0.354 N 
ATOM     45  C   UNL A   1      44.150  27.654  26.684  1.00  0.00     0.074 A 
ATOM     46  C   UNL A   1      44.096  26.329  26.106  1.00  0.00     0.031 C 
ATOM     47  C   UNL A   1      38.531  28.240  29.654  1.00  0.00     0.029 A 
ATOM     48  C   UNL A   1      39.647  29.191  29.634  1.00  0.00     0.049 A 
ATOM     49  H   UNL A   1      41.428  28.984  28.568  1.00  0.00     0.167 HD
ATOM     50  C   UNL A   1      45.208  28.491  26.545  1.00  0.00     0.034 A 
ATOM     51  C   UNL A   1      39.692  30.370  30.296  1.00  0.00     0.034 A 
ATOM     52  C   UNL A   1      45.304  29.802  27.125  1.00  0.00     0.049 A 
ATOM     53  C   UNL A   1      40.925  31.249  30.205  1.00  0.00     0.074 A 
ATOM     54  C   UNL A   1      46.348  30.707  27.029  1.00  0.00     0.029 A 
ATOM     55  N   UNL A   1      44.343  30.387  27.930  1.00  0.00    -0.354 N 
ATOM     56  N   UNL A   1      42.005  31.092  29.478  1.00  0.00    -0.248 NA
ATOM     57  C   UNL A   1      40.938  32.480  31.017  1.00  0.00     0.031 C 
ATOM     58  C   UNL A   1      46.034  31.823  27.811  1.00  0.00     0.029 A 
ATOM     59  C   UNL A   1      44.777  31.630  28.357  1.00  0.00     0.049 A 
ATOM     60  H   UNL A   1      43.477  29.980  28.164  1.00  0.00     0.167 HD
ATOM     61  C   UNL A   1      42.801  32.211  29.719  1.00  0.00     0.074 A 
ATOM     62  C   UNL A   1      42.075  33.052  30.644  1.00  0.00     0.031 C 
ATOM     63  C   UNL A   1      44.032  32.503  29.229  1.00  0.00     0.034 A 
BRANCH  50  64
ATOM     64  C   UNL A   1      46.379  27.991  25.741  1.00  0.00     0.023 A 
ATOM     65  C   UNL A   1      46.414  28.198  24.347  1.00  0.00     0.012 A 
ATOM     66  C   UNL A   1      47.458  27.345  26.374  1.00  0.00     0.148 A 
ATOM     67  C   UNL A   1      47.490  27.734  23.591  1.00  0.00     0.002 A 
ATOM     68  C   UNL A   1      48.547  26.925  25.620  1.00  0.00     0.091 A 
ATOM     69  F   UNL A   1      47.395  27.143  27.698  1.00  0.00    -0.205 F 
ATOM     70  C   UNL A   1      48.557  27.107  24.227  1.00  0.00     0.022 A 
BRANCH  68  71
ATOM     71  S   UNL A   1      50.002  26.172  26.355  1.00  0.00     0.127 S 
ATOM     72  O   UNL A   1      50.398  27.187  27.330  1.00  0.00    -0.237 OA
ATOM     73  O   UNL A   1      49.452  24.948  26.938  1.00  0.00    -0.237 OA
ATOM     74  O   UNL A   1      50.940  25.956  25.262  1.00  0.00    -0.744 OA
ENDBRANCH  68  71
ENDBRANCH  50  64
BRANCH  51  75
ATOM     75  C   UNL A   1      38.540  30.819  31.143  1.00  0.00     0.023 A 
ATOM     76  C   UNL A   1      38.501  30.479  32.512  1.00  0.00     0.012 A 
ATOM     77  C   UNL A   1      37.458  31.534  30.590  1.00  0.00     0.148 A 
ATOM     78  C   UNL A   1      37.398  30.814  33.302  1.00  0.00     0.002 A 
ATOM     79  C   UNL A   1      36.389  31.915  31.396  1.00  0.00     0.091 A 
ATOM     80  F   UNL A   1      37.488  31.816  29.281  1.00  0.00    -0.205 F 
ATOM     81  C   UNL A   1      36.347  31.540  32.747  1.00  0.00     0.022 A 
BRANCH  79  82
ATOM     82  S   UNL A   1      35.043  32.945  30.799  1.00  0.00     0.127 S 
ATOM     83  O   UNL A   1      35.719  34.221  30.575  1.00  0.00    -0.237 OA
ATOM     84  O   UNL A   1      34.645  32.238  29.581  1.00  0.00    -0.237 OA
ATOM     85  O   UNL A   1      34.041  32.940  31.856  1.00  0.00    -0.744 OA
ENDBRANCH  79  82
ENDBRANCH  51  75
BRANCH  63  86
ATOM     86  C   UNL A   1      44.683  33.807  29.630  1.00  0.00     0.023 A 
ATOM     87  C   UNL A   1      45.580  33.841  30.716  1.00  0.00     0.012 A 
ATOM     88  C   UNL A   1      44.494  34.971  28.858  1.00  0.00     0.148 A 
ATOM     89  C   UNL A   1      46.260  35.016  31.040  1.00  0.00     0.002 A 
ATOM     90  C   UNL A   1      45.210  36.126  29.157  1.00  0.00     0.091 A 
ATOM     91  F   UNL A   1      43.628  34.926  27.836  1.00  0.00    -0.205 F 
ATOM     92  C   UNL A   1      46.086  36.153  30.254  1.00  0.00     0.022 A 
BRANCH  90  93
ATOM     93  S   UNL A   1      45.127  37.609  28.143  1.00  0.00     0.127 S 
ATOM     94  O   UNL A   1      44.733  37.062  26.846  1.00  0.00    -0.237 OA
ATOM     95  O   UNL A   1      44.089  38.389  28.818  1.00  0.00    -0.237 OA
ATOM     96  O   UNL A   1      46.456  38.204  28.190  1.00  0.00    -0.744 OA
ENDBRANCH  90  93
ENDBRANCH  63  86
ENDBRANCH  37  38
ENDBRANCH  30  32
ENDBRANCH  29  30
ENDBRANCH  28  29
ENDBRANCH   1  28
TORSDOF 21
ENDMDL
MODEL 3
REMARK VINA RESULT:     -11.1      5.299     10.838
REMARK SMILES COc1ccc([C@@](C)(NC(=O)c2csc(C)n2)C(=O)OCCOCCOC(=O)c2ccc(-c3c4nc(c(-c5cccc(S(=O)(=O)[O-])c5F)c5ccc([nH]5)c(-c5cccc(S(=O)(=O)[O-])c5F)c5nc(c(-c6cccc(S(=O)(=O)[O-])c6F)c6ccc3[nH]6)C=C5)C=C4)cc2)cc1
REMARK SMILES IDX 24 1 23 2 22 3 21 4 20 5 18 6 19 7 7 8 8 9 6 10 3 11 4 12
REMARK SMILES IDX 93 13 5 14 92 15 2 16 1 17 9 18 10 19 11 21 12 22 13 23
REMARK SMILES IDX 17 24 14 25 15 26 16 27 25 28 26 29 27 30 28 31 29 32 30 33
REMARK SMILES IDX 91 34 31 35 90 36 32 37 33 38 34 39 84 40 35 41 89 42 83 43
REMARK SMILES IDX 85 44 36 45 88 46 82 47 81 48 37 50 69 51 49 52 68 53 50 54
REMARK SMILES IDX 53 55 67 56 86 57 51 58 52 59 66 61 87 62 54 63 38 64 39 65
REMARK SMILES IDX 47 66 40 67 42 68 48 69 41 70 43 71 44 72 45 73 46 74 70 75
REMARK SMILES IDX 71 76 79 77 72 78 74 79 80 80 73 81 75 82 76 83 77 84 78 85
REMARK SMILES IDX 55 86 56 87 64 88 57 89 59 90 65 91 58 92 60 93 61 94 62 95
REMARK SMILES IDX 63 96
REMARK H PARENT 9 20 85 49 53 60
REMARK Flexibility Score: inf
ROOT
ATOM      1  C   UNL A   1      31.562  30.732  25.862  1.00  0.00     0.202 C 
ENDROOT
BRANCH   1   2
ATOM      2  O   UNL A   1      32.871  30.126  25.948  1.00  0.00    -0.374 OA
BRANCH   2   3
ATOM      3  C   UNL A   1      32.950  28.721  25.604  1.00  0.00     0.202 C 
BRANCH   3   4
ATOM      4  C   UNL A   1      32.290  27.698  26.569  1.00  0.00     0.261 C 
BRANCH   4   5
ATOM      5  O   UNL A   1      32.140  26.473  25.867  1.00  0.00    -0.461 OA
BRANCH   5   6
ATOM      6  C   UNL A   1      30.937  25.926  25.558  1.00  0.00     0.336 C 
ATOM      7  O   UNL A   1      29.991  25.832  26.325  1.00  0.00    -0.249 OA
BRANCH   6   8
ATOM      8  C   UNL A   1      30.891  25.822  23.994  1.00  0.00     0.161 C 
ATOM      9  C   UNL A   1      30.330  24.458  23.567  1.00  0.00     0.053 C 
BRANCH   8  10
ATOM     10  C   UNL A   1      29.938  27.002  23.506  1.00  0.00    -0.011 A 
ATOM     11  C   UNL A   1      28.377  29.309  22.768  1.00  0.00     0.118 A 
ATOM     12  C   UNL A   1      27.783  28.166  23.312  1.00  0.00     0.047 A 
ATOM     13  C   UNL A   1      29.743  29.299  22.571  1.00  0.00     0.047 A 
ATOM     14  C   UNL A   1      28.543  27.021  23.660  1.00  0.00     0.010 A 
ATOM     15  C   UNL A   1      30.489  28.171  22.931  1.00  0.00     0.010 A 
BRANCH  11  16
ATOM     16  O   UNL A   1      27.556  30.372  22.508  1.00  0.00    -0.497 OA
ATOM     17  C   UNL A   1      27.760  31.544  23.297  1.00  0.00     0.278 C 
ENDBRANCH  11  16
ENDBRANCH   8  10
BRANCH   8  18
ATOM     18  N   UNL A   1      32.244  25.979  23.366  1.00  0.00    -0.331 N 
ATOM     19  C   UNL A   1      33.169  25.027  22.916  1.00  0.00     0.271 C 
ATOM     20  H   UNL A   1      32.534  26.914  23.250  1.00  0.00     0.165 HD
ATOM     21  O   UNL A   1      33.750  25.319  21.867  1.00  0.00    -0.267 OA
BRANCH  19  22
ATOM     22  C   UNL A   1      33.663  23.902  23.762  1.00  0.00     0.139 A 
ATOM     23  C   UNL A   1      33.674  22.597  23.313  1.00  0.00     0.101 A 
ATOM     24  N   UNL A   1      34.070  23.972  25.105  1.00  0.00    -0.236 NA
ATOM     25  S   UNL A   1      34.149  21.459  24.467  1.00  0.00    -0.127 S 
ATOM     26  C   UNL A   1      34.312  22.752  25.572  1.00  0.00     0.090 A 
ATOM     27  C   UNL A   1      34.731  22.351  26.940  1.00  0.00     0.079 C 
ENDBRANCH  19  22
ENDBRANCH   8  18
ENDBRANCH   6   8
ENDBRANCH   5   6
ENDBRANCH   4   5
ENDBRANCH   3   4
ENDBRANCH   2   3
ENDBRANCH   1   2
BRANCH   1  28
ATOM     28  C   UNL A   1      31.476  32.181  26.446  1.00  0.00     0.261 C 
BRANCH  28  29
ATOM     29  O   UNL A   1      32.212  32.383  27.696  1.00  0.00    -0.460 OA
BRANCH  29  30
ATOM     30  C   UNL A   1      33.263  33.261  27.671  1.00  0.00     0.338 C 
ATOM     31  O   UNL A   1      33.160  34.467  27.506  1.00  0.00    -0.246 OA
BRANCH  30  32
ATOM     32  C   UNL A   1      34.560  32.642  28.120  1.00  0.00     0.060 A 
ATOM     33  C   UNL A   1      34.561  31.257  28.359  1.00  0.00     0.016 A 
ATOM     34  C   UNL A   1      35.745  33.348  28.340  1.00  0.00     0.016 A 
ATOM     35  C   UNL A   1      35.727  30.580  28.768  1.00  0.00     0.010 A 
ATOM     36  C   UNL A   1      36.905  32.673  28.808  1.00  0.00     0.010 A 
ATOM     37  C   UNL A   1      36.911  31.282  29.032  1.00  0.00    -0.014 A 
BRANCH  37  38
ATOM     38  C   UNL A   1      38.051  30.594  29.733  1.00  0.00     0.031 A 
ATOM     39  C   UNL A   1      38.335  30.966  31.174  1.00  0.00     0.074 A 
ATOM     40  C   UNL A   1      38.826  29.647  29.162  1.00  0.00     0.049 A 
ATOM     41  N   UNL A   1      39.283  30.549  31.977  1.00  0.00    -0.248 NA
ATOM     42  C   UNL A   1      37.410  31.929  31.790  1.00  0.00     0.031 C 
ATOM     43  C   UNL A   1      38.660  29.105  27.816  1.00  0.00     0.029 A 
ATOM     44  N   UNL A   1      39.933  28.976  29.652  1.00  0.00    -0.354 N 
ATOM     45  C   UNL A   1      39.086  31.219  33.180  1.00  0.00     0.074 A 
ATOM     46  C   UNL A   1      37.913  32.050  33.008  1.00  0.00     0.031 C 
ATOM     47  C   UNL A   1      39.644  28.218  27.574  1.00  0.00     0.029 A 
ATOM     48  C   UNL A   1      40.541  28.147  28.732  1.00  0.00     0.049 A 
ATOM     49  H   UNL A   1      40.258  29.082  30.575  1.00  0.00     0.167 HD
ATOM     50  C   UNL A   1      39.809  31.169  34.325  1.00  0.00     0.034 A 
ATOM     51  C   UNL A   1      41.696  27.444  28.795  1.00  0.00     0.034 A 
ATOM     52  C   UNL A   1      40.990  30.375  34.520  1.00  0.00     0.049 A 
ATOM     53  C   UNL A   1      42.543  27.479  30.054  1.00  0.00     0.074 A 
ATOM     54  C   UNL A   1      41.779  30.276  35.654  1.00  0.00     0.029 A 
ATOM     55  N   UNL A   1      41.573  29.569  33.559  1.00  0.00    -0.354 N 
ATOM     56  N   UNL A   1      42.292  28.048  31.207  1.00  0.00    -0.248 NA
ATOM     57  C   UNL A   1      43.828  26.756  30.022  1.00  0.00     0.031 C 
ATOM     58  C   UNL A   1      42.862  29.441  35.365  1.00  0.00     0.029 A 
ATOM     59  C   UNL A   1      42.723  28.987  34.064  1.00  0.00     0.049 A 
ATOM     60  H   UNL A   1      41.221  29.429  32.650  1.00  0.00     0.167 HD
ATOM     61  C   UNL A   1      43.364  27.728  32.040  1.00  0.00     0.074 A 
ATOM     62  C   UNL A   1      44.259  26.895  31.269  1.00  0.00     0.031 C 
ATOM     63  C   UNL A   1      43.589  28.105  33.323  1.00  0.00     0.034 A 
BRANCH  50  64
ATOM     64  C   UNL A   1      39.348  32.036  35.468  1.00  0.00     0.023 A 
ATOM     65  C   UNL A   1      38.456  31.517  36.428  1.00  0.00     0.012 A 
ATOM     66  C   UNL A   1      39.826  33.353  35.605  1.00  0.00     0.148 A 
ATOM     67  C   UNL A   1      38.017  32.311  37.487  1.00  0.00     0.002 A 
ATOM     68  C   UNL A   1      39.418  34.123  36.687  1.00  0.00     0.091 A 
ATOM     69  F   UNL A   1      40.659  33.832  34.670  1.00  0.00    -0.205 F 
ATOM     70  C   UNL A   1      38.504  33.608  37.621  1.00  0.00     0.022 A 
BRANCH  68  71
ATOM     71  S   UNL A   1      40.043  35.780  36.987  1.00  0.00     0.127 S 
ATOM     72  O   UNL A   1      41.477  35.531  37.138  1.00  0.00    -0.237 OA
ATOM     73  O   UNL A   1      39.672  36.476  35.755  1.00  0.00    -0.237 OA
ATOM     74  O   UNL A   1      39.364  36.258  38.183  1.00  0.00    -0.744 OA
ENDBRANCH  68  71
ENDBRANCH  50  64
BRANCH  51  75
ATOM     75  C   UNL A   1      42.169  26.640  27.622  1.00  0.00     0.023 A 
ATOM     76  C   UNL A   1      42.857  27.275  26.566  1.00  0.00     0.012 A 
ATOM     77  C   UNL A   1      41.897  25.260  27.521  1.00  0.00     0.148 A 
ATOM     78  C   UNL A   1      43.233  26.562  25.425  1.00  0.00     0.002 A 
ATOM     79  C   UNL A   1      42.326  24.544  26.408  1.00  0.00     0.091 A 
ATOM     80  F   UNL A   1      41.209  24.677  28.512  1.00  0.00    -0.205 F 
ATOM     81  C   UNL A   1      42.977  25.195  25.350  1.00  0.00     0.022 A 
BRANCH  79  82
ATOM     82  S   UNL A   1      42.139  22.762  26.270  1.00  0.00     0.127 S 
ATOM     83  O   UNL A   1      40.686  22.610  26.293  1.00  0.00    -0.237 OA
ATOM     84  O   UNL A   1      42.766  22.496  24.975  1.00  0.00    -0.237 OA
ATOM     85  O   UNL A   1      42.849  22.201  27.412  1.00  0.00    -0.744 OA
ENDBRANCH  79  82
ENDBRANCH  51  75
BRANCH  63  86
ATOM     86  C   UNL A   1      44.830  27.599  34.022  1.00  0.00     0.023 A 
ATOM     87  C   UNL A   1      46.005  28.375  34.022  1.00  0.00     0.012 A 
ATOM     88  C   UNL A   1      44.793  26.407  34.775  1.00  0.00     0.148 A 
ATOM     89  C   UNL A   1      47.128  27.965  34.741  1.00  0.00     0.002 A 
ATOM     90  C   UNL A   1      45.901  26.028  35.527  1.00  0.00     0.091 A 
ATOM     91  F   UNL A   1      43.672  25.673  34.754  1.00  0.00    -0.205 F 
ATOM     92  C   UNL A   1      47.073  26.800  35.503  1.00  0.00     0.022 A 
BRANCH  90  93
ATOM     93  S   UNL A   1      45.889  24.598  36.617  1.00  0.00     0.127 S 
ATOM     94  O   UNL A   1      44.849  24.963  37.577  1.00  0.00    -0.237 OA
ATOM     95  O   UNL A   1      45.524  23.514  35.704  1.00  0.00    -0.237 OA
ATOM     96  O   UNL A   1      47.235  24.498  37.166  1.00  0.00    -0.744 OA
ENDBRANCH  90  93
ENDBRANCH  63  86
ENDBRANCH  37  38
ENDBRANCH  30  32
ENDBRANCH  29  30
ENDBRANCH  28  29
ENDBRANCH   1  28
TORSDOF 21
ENDMDL
