MODEL 1
REMARK VINA RESULT:     -11.6      0.000      0.000
REMARK SMILES C/C(=C(/F)C(=O)OCCOCCOC(=O)c1ccc(-c2c3nc(c(-c4cccc(S(=O)(=O)[O-])c4F)c4ccc([nH]4)c(-c4cccc(S(=O)(=O)[O-])c4F)c4nc(c(-c5cccc(S(=O)(=O)[O-])c5F)c5ccc2[nH]5)C=C4)C=C3)cc1)c1cccc(-n2cnnn2)c1
REMARK SMILES IDX 11 1 10 2 9 3 8 4 7 5 5 6 6 7 3 8 1 9 2 10 4 11 79 12 80 13
REMARK SMILES IDX 89 14 81 15 83 16 82 17 84 18 85 19 88 20 86 21 87 22 12 23
REMARK SMILES IDX 13 24 14 25 15 26 16 27 17 28 78 29 18 30 77 31 19 32 20 33
REMARK SMILES IDX 21 34 71 35 22 36 76 37 70 38 72 39 23 40 75 41 69 42 68 43
REMARK SMILES IDX 24 45 56 46 36 47 55 48 37 49 40 50 54 51 73 52 38 53 39 54
REMARK SMILES IDX 53 56 74 57 41 58 25 59 26 60 34 61 27 62 29 63 35 64 28 65
REMARK SMILES IDX 30 66 31 67 32 68 33 69 57 70 58 71 66 72 59 73 61 74 67 75
REMARK SMILES IDX 60 76 62 77 63 78 64 79 65 80 42 81 43 82 51 83 44 84 46 85
REMARK SMILES IDX 52 86 45 87 47 88 48 89 49 90 50 91
REMARK H PARENT 72 44 40 55
REMARK Flexibility Score: inf
ROOT
ATOM      1  C   UNL A   1      31.303  31.516  26.143  1.00  0.00     0.202 C 
ENDROOT
BRANCH   1   2
ATOM      2  O   UNL A   1      32.262  30.458  26.160  1.00  0.00    -0.374 OA
BRANCH   2   3
ATOM      3  C   UNL A   1      32.135  29.478  27.193  1.00  0.00     0.202 C 
BRANCH   3   4
ATOM      4  C   UNL A   1      33.242  28.422  27.271  1.00  0.00     0.261 C 
BRANCH   4   5
ATOM      5  O   UNL A   1      33.572  27.927  25.965  1.00  0.00    -0.458 OA
BRANCH   5   6
ATOM      6  C   UNL A   1      32.897  26.816  25.580  1.00  0.00     0.367 C 
ATOM      7  O   UNL A   1      33.257  25.657  25.728  1.00  0.00    -0.243 OA
BRANCH   6   8
ATOM      8  C   UNL A   1      31.571  27.213  25.049  1.00  0.00     0.211 C 
ATOM      9  C   UNL A   1      32.482  27.867  22.797  1.00  0.00     0.048 C 
ATOM     10  C   UNL A   1      31.375  27.734  23.819  1.00  0.00    -0.000 C 
ATOM     11  F   UNL A   1      30.538  26.970  25.888  1.00  0.00    -0.199 F 
BRANCH  10  12
ATOM     12  C   UNL A   1      30.035  28.243  23.408  1.00  0.00    -0.017 A 
ATOM     13  C   UNL A   1      28.907  27.415  23.530  1.00  0.00     0.008 A 
ATOM     14  C   UNL A   1      29.831  29.580  23.017  1.00  0.00     0.037 A 
ATOM     15  C   UNL A   1      27.619  27.904  23.311  1.00  0.00     0.003 A 
ATOM     16  C   UNL A   1      28.531  30.084  22.823  1.00  0.00     0.069 A 
ATOM     17  C   UNL A   1      27.425  29.242  22.985  1.00  0.00     0.028 A 
BRANCH  16  18
ATOM     18  N   UNL A   1      28.319  31.445  22.502  1.00  0.00    -0.201 N 
ATOM     19  C   UNL A   1      27.857  32.008  21.339  1.00  0.00     0.252 A 
ATOM     20  N   UNL A   1      28.599  32.451  23.365  1.00  0.00    -0.040 NA
ATOM     21  N   UNL A   1      27.898  33.316  21.442  1.00  0.00    -0.117 NA
ATOM     22  N   UNL A   1      28.371  33.575  22.700  1.00  0.00    -0.024 NA
ENDBRANCH  16  18
ENDBRANCH  10  12
ENDBRANCH   6   8
ENDBRANCH   5   6
ENDBRANCH   4   5
ENDBRANCH   3   4
ENDBRANCH   2   3
ENDBRANCH   1   2
BRANCH   1  23
ATOM     23  C   UNL A   1      31.717  32.857  26.758  1.00  0.00     0.261 C 
BRANCH  23  24
ATOM     24  O   UNL A   1      32.643  32.696  27.843  1.00  0.00    -0.460 OA
BRANCH  24  25
ATOM     25  C   UNL A   1      33.708  33.530  27.808  1.00  0.00     0.338 C 
ATOM     26  O   UNL A   1      33.687  34.743  27.633  1.00  0.00    -0.246 OA
BRANCH  25  27
ATOM     27  C   UNL A   1      34.929  32.808  28.205  1.00  0.00     0.060 A 
ATOM     28  C   UNL A   1      34.782  31.487  28.650  1.00  0.00     0.016 A 
ATOM     29  C   UNL A   1      36.183  33.421  28.200  1.00  0.00     0.016 A 
ATOM     30  C   UNL A   1      35.882  30.792  29.143  1.00  0.00     0.010 A 
ATOM     31  C   UNL A   1      37.285  32.722  28.703  1.00  0.00     0.010 A 
ATOM     32  C   UNL A   1      37.131  31.419  29.210  1.00  0.00    -0.014 A 
BRANCH  32  33
ATOM     33  C   UNL A   1      38.246  30.758  29.929  1.00  0.00     0.031 A 
ATOM     34  C   UNL A   1      38.545  31.161  31.348  1.00  0.00     0.074 A 
ATOM     35  C   UNL A   1      38.983  29.809  29.324  1.00  0.00     0.049 A 
ATOM     36  N   UNL A   1      39.483  30.731  32.149  1.00  0.00    -0.248 NA
ATOM     37  C   UNL A   1      37.671  32.188  31.940  1.00  0.00     0.031 C 
ATOM     38  C   UNL A   1      38.789  29.336  27.954  1.00  0.00     0.029 A 
ATOM     39  N   UNL A   1      40.060  29.092  29.780  1.00  0.00    -0.354 N 
ATOM     40  C   UNL A   1      39.336  31.454  33.327  1.00  0.00     0.074 A 
ATOM     41  C   UNL A   1      38.223  32.358  33.131  1.00  0.00     0.031 C 
ATOM     42  C   UNL A   1      39.738  28.429  27.669  1.00  0.00     0.029 A 
ATOM     43  C   UNL A   1      40.617  28.274  28.826  1.00  0.00     0.049 A 
ATOM     44  H   UNL A   1      40.400  29.156  30.701  1.00  0.00     0.167 HD
ATOM     45  C   UNL A   1      40.053  31.363  34.472  1.00  0.00     0.034 A 
ATOM     46  C   UNL A   1      41.724  27.506  28.873  1.00  0.00     0.034 A 
ATOM     47  C   UNL A   1      41.144  30.447  34.668  1.00  0.00     0.049 A 
ATOM     48  C   UNL A   1      42.514  27.435  30.154  1.00  0.00     0.074 A 
ATOM     49  C   UNL A   1      41.896  30.240  35.811  1.00  0.00     0.029 A 
ATOM     50  N   UNL A   1      41.650  29.599  33.696  1.00  0.00    -0.354 N 
ATOM     51  N   UNL A   1      42.285  28.030  31.301  1.00  0.00    -0.248 NA
ATOM     52  C   UNL A   1      43.696  26.559  30.161  1.00  0.00     0.031 C 
ATOM     53  C   UNL A   1      42.877  29.287  35.520  1.00  0.00     0.029 A 
ATOM     54  C   UNL A   1      42.714  28.876  34.206  1.00  0.00     0.049 A 
ATOM     55  H   UNL A   1      41.304  29.522  32.777  1.00  0.00     0.167 HD
ATOM     56  C   UNL A   1      43.269  27.574  32.172  1.00  0.00     0.074 A 
ATOM     57  C   UNL A   1      44.084  26.637  31.426  1.00  0.00     0.031 C 
ATOM     58  C   UNL A   1      43.485  27.908  33.469  1.00  0.00     0.034 A 
BRANCH  45  59
ATOM     59  C   UNL A   1      39.668  32.266  35.613  1.00  0.00     0.023 A 
ATOM     60  C   UNL A   1      38.889  31.761  36.674  1.00  0.00     0.012 A 
ATOM     61  C   UNL A   1      40.127  33.597  35.666  1.00  0.00     0.148 A 
ATOM     62  C   UNL A   1      38.548  32.573  37.754  1.00  0.00     0.002 A 
ATOM     63  C   UNL A   1      39.820  34.388  36.767  1.00  0.00     0.091 A 
ATOM     64  F   UNL A   1      40.846  34.066  34.637  1.00  0.00    -0.205 F 
ATOM     65  C   UNL A   1      39.021  33.881  37.806  1.00  0.00     0.022 A 
BRANCH  63  66
ATOM     66  S   UNL A   1      40.448  36.059  36.965  1.00  0.00     0.127 S 
ATOM     67  O   UNL A   1      41.892  35.840  36.903  1.00  0.00    -0.237 OA
ATOM     68  O   UNL A   1      39.883  36.740  35.800  1.00  0.00    -0.237 OA
ATOM     69  O   UNL A   1      39.942  36.528  38.247  1.00  0.00    -0.744 OA
ENDBRANCH  63  66
ENDBRANCH  45  59
BRANCH  46  70
ATOM     70  C   UNL A   1      42.137  26.720  27.677  1.00  0.00     0.023 A 
ATOM     71  C   UNL A   1      42.877  27.343  26.656  1.00  0.00     0.012 A 
ATOM     72  C   UNL A   1      41.815  25.354  27.557  1.00  0.00     0.148 A 
ATOM     73  C   UNL A   1      43.263  26.629  25.520  1.00  0.00     0.002 A 
ATOM     74  C   UNL A   1      42.250  24.634  26.451  1.00  0.00     0.091 A 
ATOM     75  F   UNL A   1      41.094  24.783  28.533  1.00  0.00    -0.205 F 
ATOM     76  C   UNL A   1      42.959  25.273  25.423  1.00  0.00     0.022 A 
BRANCH  74  77
ATOM     77  S   UNL A   1      42.018  22.859  26.306  1.00  0.00     0.127 S 
ATOM     78  O   UNL A   1      42.637  22.582  25.011  1.00  0.00    -0.237 OA
ATOM     79  O   UNL A   1      42.762  22.362  27.463  1.00  0.00    -0.237 OA
ATOM     80  O   UNL A   1      40.580  22.643  26.379  1.00  0.00    -0.744 OA
ENDBRANCH  74  77
ENDBRANCH  46  70
BRANCH  58  81
ATOM     81  C   UNL A   1      44.623  27.231  34.187  1.00  0.00     0.023 A 
ATOM     82  C   UNL A   1      45.920  27.780  34.127  1.00  0.00     0.012 A 
ATOM     83  C   UNL A   1      44.390  26.094  34.988  1.00  0.00     0.148 A 
ATOM     84  C   UNL A   1      46.972  27.188  34.824  1.00  0.00     0.002 A 
ATOM     85  C   UNL A   1      45.434  25.540  35.720  1.00  0.00     0.091 A 
ATOM     86  F   UNL A   1      43.154  25.577  35.020  1.00  0.00    -0.205 F 
ATOM     87  C   UNL A   1      46.728  26.077  35.630  1.00  0.00     0.022 A 
BRANCH  85  88
ATOM     88  S   UNL A   1      45.192  24.171  36.858  1.00  0.00     0.127 S 
ATOM     89  O   UNL A   1      44.529  23.187  36.004  1.00  0.00    -0.237 OA
ATOM     90  O   UNL A   1      46.565  23.830  37.230  1.00  0.00    -0.237 OA
ATOM     91  O   UNL A   1      44.383  24.695  37.951  1.00  0.00    -0.744 OA
ENDBRANCH  85  88
ENDBRANCH  58  81
ENDBRANCH  32  33
ENDBRANCH  25  27
ENDBRANCH  24  25
ENDBRANCH  23  24
ENDBRANCH   1  23
TORSDOF 19
ENDMDL
MODEL 2
REMARK VINA RESULT:     -11.5      5.128     10.157
REMARK SMILES C/C(=C(/F)C(=O)OCCOCCOC(=O)c1ccc(-c2c3nc(c(-c4cccc(S(=O)(=O)[O-])c4F)c4ccc([nH]4)c(-c4cccc(S(=O)(=O)[O-])c4F)c4nc(c(-c5cccc(S(=O)(=O)[O-])c5F)c5ccc2[nH]5)C=C4)C=C3)cc1)c1cccc(-n2cnnn2)c1
REMARK SMILES IDX 11 1 10 2 9 3 8 4 7 5 5 6 6 7 3 8 1 9 2 10 4 11 79 12 80 13
REMARK SMILES IDX 89 14 81 15 83 16 82 17 84 18 85 19 88 20 86 21 87 22 12 23
REMARK SMILES IDX 13 24 14 25 15 26 16 27 17 28 78 29 18 30 77 31 19 32 20 33
REMARK SMILES IDX 21 34 71 35 22 36 76 37 70 38 72 39 23 40 75 41 69 42 68 43
REMARK SMILES IDX 24 45 56 46 36 47 55 48 37 49 40 50 54 51 73 52 38 53 39 54
REMARK SMILES IDX 53 56 74 57 41 58 25 59 26 60 34 61 27 62 29 63 35 64 28 65
REMARK SMILES IDX 30 66 31 67 32 68 33 69 57 70 58 71 66 72 59 73 61 74 67 75
REMARK SMILES IDX 60 76 62 77 63 78 64 79 65 80 42 81 43 82 51 83 44 84 46 85
REMARK SMILES IDX 52 86 45 87 47 88 48 89 49 90 50 91
REMARK H PARENT 72 44 40 55
REMARK Flexibility Score: inf
ROOT
ATOM      1  C   UNL A   1      35.726  21.522  24.776  1.00  0.00     0.202 C 
ENDROOT
BRANCH   1   2
ATOM      2  O   UNL A   1      34.474  20.845  24.653  1.00  0.00    -0.374 OA
BRANCH   2   3
ATOM      3  C   UNL A   1      33.309  21.655  24.476  1.00  0.00     0.202 C 
BRANCH   3   4
ATOM      4  C   UNL A   1      32.103  21.316  25.358  1.00  0.00     0.261 C 
BRANCH   4   5
ATOM      5  O   UNL A   1      31.300  22.480  25.599  1.00  0.00    -0.458 OA
BRANCH   5   6
ATOM      6  C   UNL A   1      31.644  23.203  26.694  1.00  0.00     0.367 C 
ATOM      7  O   UNL A   1      32.203  22.785  27.698  1.00  0.00    -0.243 OA
BRANCH   6   8
ATOM      8  C   UNL A   1      31.345  24.633  26.443  1.00  0.00     0.211 C 
ATOM      9  C   UNL A   1      33.701  25.176  25.746  1.00  0.00     0.048 C 
ATOM     10  C   UNL A   1      32.269  25.542  26.065  1.00  0.00    -0.000 C 
ATOM     11  F   UNL A   1      30.041  24.964  26.579  1.00  0.00    -0.199 F 
BRANCH  10  12
ATOM     12  C   UNL A   1      31.924  26.990  25.971  1.00  0.00    -0.017 A 
ATOM     13  C   UNL A   1      32.414  27.888  26.933  1.00  0.00     0.008 A 
ATOM     14  C   UNL A   1      31.224  27.522  24.871  1.00  0.00     0.037 A 
ATOM     15  C   UNL A   1      32.251  29.267  26.792  1.00  0.00     0.003 A 
ATOM     16  C   UNL A   1      31.081  28.913  24.711  1.00  0.00     0.069 A 
ATOM     17  C   UNL A   1      31.610  29.783  25.671  1.00  0.00     0.028 A 
BRANCH  16  18
ATOM     18  N   UNL A   1      30.442  29.452  23.571  1.00  0.00    -0.201 N 
ATOM     19  C   UNL A   1      29.362  30.295  23.490  1.00  0.00     0.252 A 
ATOM     20  N   UNL A   1      30.828  29.154  22.308  1.00  0.00    -0.040 NA
ATOM     21  N   UNL A   1      29.043  30.476  22.229  1.00  0.00    -0.117 NA
ATOM     22  N   UNL A   1      29.956  29.752  21.509  1.00  0.00    -0.024 NA
ENDBRANCH  16  18
ENDBRANCH  10  12
ENDBRANCH   6   8
ENDBRANCH   5   6
ENDBRANCH   4   5
ENDBRANCH   3   4
ENDBRANCH   2   3
ENDBRANCH   1   2
BRANCH   1  23
ATOM     23  C   UNL A   1      36.924  20.710  25.280  1.00  0.00     0.261 C 
BRANCH  23  24
ATOM     24  O   UNL A   1      38.175  21.365  25.018  1.00  0.00    -0.460 OA
BRANCH  24  25
ATOM     25  C   UNL A   1      39.143  21.123  25.932  1.00  0.00     0.338 C 
ATOM     26  O   UNL A   1      39.708  20.056  26.140  1.00  0.00    -0.246 OA
BRANCH  25  27
ATOM     27  C   UNL A   1      39.586  22.387  26.545  1.00  0.00     0.060 A 
ATOM     28  C   UNL A   1      38.961  23.566  26.118  1.00  0.00     0.016 A 
ATOM     29  C   UNL A   1      40.628  22.431  27.473  1.00  0.00     0.016 A 
ATOM     30  C   UNL A   1      39.412  24.800  26.577  1.00  0.00     0.010 A 
ATOM     31  C   UNL A   1      41.084  23.673  27.927  1.00  0.00     0.010 A 
ATOM     32  C   UNL A   1      40.502  24.862  27.452  1.00  0.00    -0.014 A 
BRANCH  32  33
ATOM     33  C   UNL A   1      41.113  26.175  27.768  1.00  0.00     0.031 A 
ATOM     34  C   UNL A   1      42.529  26.447  27.336  1.00  0.00     0.074 A 
ATOM     35  C   UNL A   1      40.415  27.113  28.434  1.00  0.00     0.049 A 
ATOM     36  N   UNL A   1      43.261  27.512  27.528  1.00  0.00    -0.248 NA
ATOM     37  C   UNL A   1      43.209  25.375  26.590  1.00  0.00     0.031 C 
ATOM     38  C   UNL A   1      39.039  26.963  28.905  1.00  0.00     0.029 A 
ATOM     39  N   UNL A   1      40.780  28.368  28.849  1.00  0.00    -0.354 N 
ATOM     40  C   UNL A   1      44.497  27.230  26.958  1.00  0.00     0.074 A 
ATOM     41  C   UNL A   1      44.418  25.888  26.421  1.00  0.00     0.031 C 
ATOM     42  C   UNL A   1      38.685  28.074  29.574  1.00  0.00     0.029 A 
ATOM     43  C   UNL A   1      39.815  29.000  29.597  1.00  0.00     0.049 A 
ATOM     44  H   UNL A   1      41.648  28.777  28.633  1.00  0.00     0.167 HD
ATOM     45  C   UNL A   1      45.593  28.020  26.877  1.00  0.00     0.034 A 
ATOM     46  C   UNL A   1      39.850  30.181  30.247  1.00  0.00     0.034 A 
ATOM     47  C   UNL A   1      45.659  29.361  27.394  1.00  0.00     0.049 A 
ATOM     48  C   UNL A   1      41.087  31.035  30.154  1.00  0.00     0.074 A 
ATOM     49  C   UNL A   1      46.705  30.263  27.310  1.00  0.00     0.029 A 
ATOM     50  N   UNL A   1      44.647  29.987  28.103  1.00  0.00    -0.354 N 
ATOM     51  N   UNL A   1      42.203  30.806  29.502  1.00  0.00    -0.248 NA
ATOM     52  C   UNL A   1      41.060  32.326  30.857  1.00  0.00     0.031 C 
ATOM     53  C   UNL A   1      46.335  31.424  27.996  1.00  0.00     0.029 A 
ATOM     54  C   UNL A   1      45.046  31.257  28.477  1.00  0.00     0.049 A 
ATOM     55  H   UNL A   1      43.771  29.586  28.311  1.00  0.00     0.167 HD
ATOM     56  C   UNL A   1      42.992  31.936  29.686  1.00  0.00     0.074 A 
ATOM     57  C   UNL A   1      42.219  32.858  30.493  1.00  0.00     0.031 C 
ATOM     58  C   UNL A   1      44.247  32.185  29.237  1.00  0.00     0.034 A 
BRANCH  45  59
ATOM     59  C   UNL A   1      46.809  27.464  26.186  1.00  0.00     0.023 A 
ATOM     60  C   UNL A   1      47.631  26.535  26.855  1.00  0.00     0.012 A 
ATOM     61  C   UNL A   1      47.104  27.814  24.853  1.00  0.00     0.148 A 
ATOM     62  C   UNL A   1      48.744  25.985  26.219  1.00  0.00     0.002 A 
ATOM     63  C   UNL A   1      48.189  27.229  24.212  1.00  0.00     0.091 A 
ATOM     64  F   UNL A   1      46.324  28.716  24.242  1.00  0.00    -0.205 F 
ATOM     65  C   UNL A   1      49.017  26.323  24.897  1.00  0.00     0.022 A 
BRANCH  63  66
ATOM     66  S   UNL A   1      48.577  27.538  22.485  1.00  0.00     0.127 S 
ATOM     67  O   UNL A   1      48.643  26.179  21.951  1.00  0.00    -0.237 OA
ATOM     68  O   UNL A   1      47.417  28.312  22.044  1.00  0.00    -0.237 OA
ATOM     69  O   UNL A   1      49.834  28.272  22.482  1.00  0.00    -0.744 OA
ENDBRANCH  63  66
ENDBRANCH  45  59
BRANCH  46  70
ATOM     70  C   UNL A   1      38.662  30.639  31.021  1.00  0.00     0.023 A 
ATOM     71  C   UNL A   1      38.597  30.395  32.406  1.00  0.00     0.012 A 
ATOM     72  C   UNL A   1      37.607  31.330  30.395  1.00  0.00     0.148 A 
ATOM     73  C   UNL A   1      37.488  30.804  33.148  1.00  0.00     0.002 A 
ATOM     74  C   UNL A   1      36.532  31.785  31.149  1.00  0.00     0.091 A 
ATOM     75  F   UNL A   1      37.680  31.537  29.072  1.00  0.00    -0.205 F 
ATOM     76  C   UNL A   1      36.461  31.507  32.522  1.00  0.00     0.022 A 
BRANCH  74  77
ATOM     77  S   UNL A   1      35.232  32.810  30.452  1.00  0.00     0.127 S 
ATOM     78  O   UNL A   1      35.980  33.991  30.025  1.00  0.00    -0.237 OA
ATOM     79  O   UNL A   1      34.735  31.969  29.365  1.00  0.00    -0.237 OA
ATOM     80  O   UNL A   1      34.278  33.023  31.531  1.00  0.00    -0.744 OA
ENDBRANCH  74  77
ENDBRANCH  46  70
BRANCH  58  81
ATOM     81  C   UNL A   1      44.859  33.522  29.568  1.00  0.00     0.023 A 
ATOM     82  C   UNL A   1      45.560  33.695  30.778  1.00  0.00     0.012 A 
ATOM     83  C   UNL A   1      44.806  34.583  28.641  1.00  0.00     0.148 A 
ATOM     84  C   UNL A   1      46.168  34.914  31.075  1.00  0.00     0.002 A 
ATOM     85  C   UNL A   1      45.458  35.778  28.923  1.00  0.00     0.091 A 
ATOM     86  F   UNL A   1      44.121  34.405  27.503  1.00  0.00    -0.205 F 
ATOM     87  C   UNL A   1      46.129  35.950  30.145  1.00  0.00     0.022 A 
BRANCH  85  88
ATOM     88  S   UNL A   1      45.544  37.130  27.743  1.00  0.00     0.127 S 
ATOM     89  O   UNL A   1      46.200  36.491  26.604  1.00  0.00    -0.237 OA
ATOM     90  O   UNL A   1      44.131  37.449  27.534  1.00  0.00    -0.237 OA
ATOM     91  O   UNL A   1      46.310  38.185  28.394  1.00  0.00    -0.744 OA
ENDBRANCH  85  88
ENDBRANCH  58  81
ENDBRANCH  32  33
ENDBRANCH  25  27
ENDBRANCH  24  25
ENDBRANCH  23  24
ENDBRANCH   1  23
TORSDOF 19
ENDMDL
MODEL 3
REMARK VINA RESULT:     -11.4      4.964      8.095
REMARK SMILES C/C(=C(/F)C(=O)OCCOCCOC(=O)c1ccc(-c2c3nc(c(-c4cccc(S(=O)(=O)[O-])c4F)c4ccc([nH]4)c(-c4cccc(S(=O)(=O)[O-])c4F)c4nc(c(-c5cccc(S(=O)(=O)[O-])c5F)c5ccc2[nH]5)C=C4)C=C3)cc1)c1cccc(-n2cnnn2)c1
REMARK SMILES IDX 11 1 10 2 9 3 8 4 7 5 5 6 6 7 3 8 1 9 2 10 4 11 79 12 80 13
REMARK SMILES IDX 89 14 81 15 83 16 82 17 84 18 85 19 88 20 86 21 87 22 12 23
REMARK SMILES IDX 13 24 14 25 15 26 16 27 17 28 78 29 18 30 77 31 19 32 20 33
REMARK SMILES IDX 21 34 71 35 22 36 76 37 70 38 72 39 23 40 75 41 69 42 68 43
REMARK SMILES IDX 24 45 56 46 36 47 55 48 37 49 40 50 54 51 73 52 38 53 39 54
REMARK SMILES IDX 53 56 74 57 41 58 25 59 26 60 34 61 27 62 29 63 35 64 28 65
REMARK SMILES IDX 30 66 31 67 32 68 33 69 57 70 58 71 66 72 59 73 61 74 67 75
REMARK SMILES IDX 60 76 62 77 63 78 64 79 65 80 42 81 43 82 51 83 44 84 46 85
REMARK SMILES IDX 52 86 45 87 47 88 48 89 49 90 50 91
REMARK H PARENT 72 44 40 55
REMARK Flexibility Score: inf
ROOT
ATOM      1  C   UNL A   1      35.660  21.253  25.046  1.00  0.00     0.202 C 
ENDROOT
BRANCH   1   2
ATOM      2  O   UNL A   1      34.396  20.600  25.173  1.00  0.00    -0.374 OA
BRANCH   2   3
ATOM      3  C   UNL A   1      33.269  21.235  24.562  1.00  0.00     0.202 C 
BRANCH   3   4
ATOM      4  C   UNL A   1      31.992  21.315  25.405  1.00  0.00     0.261 C 
BRANCH   4   5
ATOM      5  O   UNL A   1      31.429  22.633  25.359  1.00  0.00    -0.458 OA
BRANCH   5   6
ATOM      6  C   UNL A   1      31.465  23.318  26.528  1.00  0.00     0.367 C 
ATOM      7  O   UNL A   1      31.781  22.876  27.624  1.00  0.00    -0.243 OA
BRANCH   6   8
ATOM      8  C   UNL A   1      31.176  24.748  26.262  1.00  0.00     0.211 C 
ATOM      9  C   UNL A   1      33.533  25.265  25.549  1.00  0.00     0.048 C 
ATOM     10  C   UNL A   1      32.105  25.646  25.869  1.00  0.00    -0.000 C 
ATOM     11  F   UNL A   1      29.875  25.090  26.399  1.00  0.00    -0.199 F 
BRANCH  10  12
ATOM     12  C   UNL A   1      31.770  27.095  25.759  1.00  0.00    -0.017 A 
ATOM     13  C   UNL A   1      32.328  28.010  26.666  1.00  0.00     0.008 A 
ATOM     14  C   UNL A   1      31.009  27.607  24.691  1.00  0.00     0.037 A 
ATOM     15  C   UNL A   1      32.171  29.387  26.500  1.00  0.00     0.003 A 
ATOM     16  C   UNL A   1      30.871  28.995  24.504  1.00  0.00     0.069 A 
ATOM     17  C   UNL A   1      31.468  29.883  25.407  1.00  0.00     0.028 A 
BRANCH  16  18
ATOM     18  N   UNL A   1      30.169  29.513  23.392  1.00  0.00    -0.201 N 
ATOM     19  C   UNL A   1      29.171  30.454  23.349  1.00  0.00     0.252 A 
ATOM     20  N   UNL A   1      30.390  29.087  22.125  1.00  0.00    -0.040 NA
ATOM     21  N   UNL A   1      28.739  30.575  22.114  1.00  0.00    -0.117 NA
ATOM     22  N   UNL A   1      29.498  29.712  21.370  1.00  0.00    -0.024 NA
ENDBRANCH  16  18
ENDBRANCH  10  12
ENDBRANCH   6   8
ENDBRANCH   5   6
ENDBRANCH   4   5
ENDBRANCH   3   4
ENDBRANCH   2   3
ENDBRANCH   1   2
BRANCH   1  23
ATOM     23  C   UNL A   1      36.913  20.372  25.020  1.00  0.00     0.261 C 
BRANCH  23  24
ATOM     24  O   UNL A   1      38.121  21.144  24.940  1.00  0.00    -0.460 OA
BRANCH  24  25
ATOM     25  C   UNL A   1      39.049  20.845  25.878  1.00  0.00     0.338 C 
ATOM     26  O   UNL A   1      39.528  19.742  26.113  1.00  0.00    -0.246 OA
BRANCH  25  27
ATOM     27  C   UNL A   1      39.572  22.082  26.483  1.00  0.00     0.060 A 
ATOM     28  C   UNL A   1      39.020  23.295  26.052  1.00  0.00     0.016 A 
ATOM     29  C   UNL A   1      40.618  22.065  27.408  1.00  0.00     0.016 A 
ATOM     30  C   UNL A   1      39.549  24.501  26.503  1.00  0.00     0.010 A 
ATOM     31  C   UNL A   1      41.152  23.278  27.854  1.00  0.00     0.010 A 
ATOM     32  C   UNL A   1      40.644  24.499  27.375  1.00  0.00    -0.014 A 
BRANCH  32  33
ATOM     33  C   UNL A   1      41.337  25.772  27.683  1.00  0.00     0.031 A 
ATOM     34  C   UNL A   1      40.587  26.860  28.403  1.00  0.00     0.074 A 
ATOM     35  C   UNL A   1      42.621  25.957  27.325  1.00  0.00     0.049 A 
ATOM     36  N   UNL A   1      40.990  28.054  28.748  1.00  0.00    -0.248 NA
ATOM     37  C   UNL A   1      39.194  26.563  28.780  1.00  0.00     0.031 C 
ATOM     38  C   UNL A   1      43.450  24.978  26.624  1.00  0.00     0.029 A 
ATOM     39  N   UNL A   1      43.442  27.045  27.482  1.00  0.00    -0.354 N 
ATOM     40  C   UNL A   1      39.898  28.663  29.353  1.00  0.00     0.074 A 
ATOM     41  C   UNL A   1      38.809  27.710  29.319  1.00  0.00     0.031 C 
ATOM     42  C   UNL A   1      44.654  25.521  26.382  1.00  0.00     0.029 A 
ATOM     43  C   UNL A   1      44.674  26.891  26.890  1.00  0.00     0.049 A 
ATOM     44  H   UNL A   1      43.176  27.856  27.971  1.00  0.00     0.167 HD
ATOM     45  C   UNL A   1      39.812  29.899  29.900  1.00  0.00     0.034 A 
ATOM     46  C   UNL A   1      45.691  27.765  26.753  1.00  0.00     0.034 A 
ATOM     47  C   UNL A   1      40.903  30.835  29.951  1.00  0.00     0.049 A 
ATOM     48  C   UNL A   1      45.564  29.140  27.357  1.00  0.00     0.074 A 
ATOM     49  C   UNL A   1      40.932  32.089  30.534  1.00  0.00     0.029 A 
ATOM     50  N   UNL A   1      42.150  30.627  29.384  1.00  0.00    -0.354 N 
ATOM     51  N   UNL A   1      44.568  29.655  28.039  1.00  0.00    -0.248 NA
ATOM     52  C   UNL A   1      46.715  30.043  27.205  1.00  0.00     0.031 C 
ATOM     53  C   UNL A   1      42.189  32.652  30.294  1.00  0.00     0.029 A 
ATOM     54  C   UNL A   1      42.953  31.735  29.590  1.00  0.00     0.049 A 
ATOM     55  H   UNL A   1      42.425  29.812  28.905  1.00  0.00     0.167 HD
ATOM     56  C   UNL A   1      44.986  30.924  28.426  1.00  0.00     0.074 A 
ATOM     57  C   UNL A   1      46.333  31.092  27.920  1.00  0.00     0.031 C 
ATOM     58  C   UNL A   1      44.311  31.870  29.126  1.00  0.00     0.034 A 
BRANCH  45  59
ATOM     59  C   UNL A   1      38.496  30.306  30.508  1.00  0.00     0.023 A 
ATOM     60  C   UNL A   1      38.247  30.051  31.872  1.00  0.00     0.012 A 
ATOM     61  C   UNL A   1      37.532  30.995  29.746  1.00  0.00     0.148 A 
ATOM     62  C   UNL A   1      37.046  30.448  32.460  1.00  0.00     0.002 A 
ATOM     63  C   UNL A   1      36.357  31.426  30.350  1.00  0.00     0.091 A 
ATOM     64  F   UNL A   1      37.778  31.207  28.445  1.00  0.00    -0.205 F 
ATOM     65  C   UNL A   1      36.108  31.144  31.704  1.00  0.00     0.022 A 
BRANCH  63  66
ATOM     66  S   UNL A   1      35.121  32.398  29.481  1.00  0.00     0.127 S 
ATOM     67  O   UNL A   1      34.210  32.755  30.568  1.00  0.00    -0.237 OA
ATOM     68  O   UNL A   1      35.915  33.510  28.960  1.00  0.00    -0.237 OA
ATOM     69  O   UNL A   1      34.564  31.520  28.462  1.00  0.00    -0.744 OA
ENDBRANCH  63  66
ENDBRANCH  45  59
BRANCH  46  70
ATOM     70  C   UNL A   1      46.931  27.357  26.037  1.00  0.00     0.023 A 
ATOM     71  C   UNL A   1      47.083  27.670  24.673  1.00  0.00     0.012 A 
ATOM     72  C   UNL A   1      47.969  26.678  26.705  1.00  0.00     0.148 A 
ATOM     73  C   UNL A   1      48.231  27.286  23.979  1.00  0.00     0.002 A 
ATOM     74  C   UNL A   1      49.133  26.349  26.023  1.00  0.00     0.091 A 
ATOM     75  F   UNL A   1      47.798  26.374  28.000  1.00  0.00    -0.205 F 
ATOM     76  C   UNL A   1      49.260  26.635  24.656  1.00  0.00     0.022 A 
BRANCH  74  77
ATOM     77  S   UNL A   1      50.559  25.629  26.844  1.00  0.00     0.127 S 
ATOM     78  O   UNL A   1      49.977  24.444  27.470  1.00  0.00    -0.237 OA
ATOM     79  O   UNL A   1      51.450  25.356  25.717  1.00  0.00    -0.237 OA
ATOM     80  O   UNL A   1      51.045  26.653  27.759  1.00  0.00    -0.744 OA
ENDBRANCH  74  77
ENDBRANCH  46  70
BRANCH  58  81
ATOM     81  C   UNL A   1      45.026  33.161  29.430  1.00  0.00     0.023 A 
ATOM     82  C   UNL A   1      45.748  33.300  30.632  1.00  0.00     0.012 A 
ATOM     83  C   UNL A   1      45.047  34.208  28.486  1.00  0.00     0.148 A 
ATOM     84  C   UNL A   1      46.450  34.473  30.904  1.00  0.00     0.002 A 
ATOM     85  C   UNL A   1      45.791  35.354  28.743  1.00  0.00     0.091 A 
ATOM     86  F   UNL A   1      44.340  34.064  27.356  1.00  0.00    -0.205 F 
ATOM     87  C   UNL A   1      46.483  35.493  29.956  1.00  0.00     0.022 A 
BRANCH  85  88
ATOM     88  S   UNL A   1      45.969  36.676  27.540  1.00  0.00     0.127 S 
ATOM     89  O   UNL A   1      44.576  37.042  27.291  1.00  0.00    -0.237 OA
ATOM     90  O   UNL A   1      46.739  37.672  28.285  1.00  0.00    -0.237 OA
ATOM     91  O   UNL A   1      46.674  36.094  26.405  1.00  0.00    -0.744 OA
ENDBRANCH  85  88
ENDBRANCH  58  81
ENDBRANCH  32  33
ENDBRANCH  25  27
ENDBRANCH  24  25
ENDBRANCH  23  24
ENDBRANCH   1  23
TORSDOF 19
ENDMDL
