MODEL 1
REMARK VINA RESULT:     -11.9      0.000      0.000
REMARK SMILES O=C(C[C@H]1C[C@H]2CC[C@@H](C1)N2C(=O)c1c[nH]c(=O)[nH]1)OCCOCCOC(=O)c1ccc(-c2c3nc(c(-c4cccc(S(=O)(=O)[O-])c4F)c4ccc([nH]4)c(-c4cccc(S(=O)(=O)[O-])c4F)c4nc(c(-c5cccc(S(=O)(=O)[O-])c5F)c5ccc2[nH]5)C=C4)C=C3)cc1
REMARK SMILES IDX 23 1 22 2 21 3 20 4 2 5 1 6 3 7 4 8 5 9 10 10 6 11 9 12 7 13
REMARK SMILES IDX 11 14 8 15 12 16 13 17 14 18 15 19 19 20 16 21 17 22 18 25
REMARK SMILES IDX 24 26 25 27 26 28 27 29 28 30 29 31 30 32 91 33 31 34 90 35
REMARK SMILES IDX 32 36 33 37 34 38 84 39 35 40 89 41 83 42 85 43 36 44 88 45
REMARK SMILES IDX 82 46 81 47 37 49 69 50 49 51 68 52 50 53 53 54 67 55 86 56
REMARK SMILES IDX 51 57 52 58 66 60 87 61 54 62 38 63 39 64 47 65 40 66 42 67
REMARK SMILES IDX 48 68 41 69 43 70 44 71 45 72 46 73 70 74 71 75 79 76 72 77
REMARK SMILES IDX 74 78 80 79 73 80 75 81 76 82 77 83 78 84 55 85 56 86 64 87
REMARK SMILES IDX 57 88 59 89 65 90 58 91 60 92 61 93 62 94 63 95
REMARK H PARENT 19 23 16 24 85 48 53 59
REMARK Flexibility Score: inf
ROOT
ATOM      1  O   UNL A   1      30.861  29.223  24.398  1.00  0.00    -0.374 OA
ENDROOT
BRANCH   1   2
ATOM      2  C   UNL A   1      31.108  28.609  23.131  1.00  0.00     0.202 C 
BRANCH   2   3
ATOM      3  C   UNL A   1      31.342  27.086  23.174  1.00  0.00     0.261 C 
BRANCH   3   4
ATOM      4  O   UNL A   1      31.532  26.508  21.878  1.00  0.00    -0.463 OA
BRANCH   4   5
ATOM      5  C   UNL A   1      32.704  25.851  21.736  1.00  0.00     0.306 C 
ATOM      6  O   UNL A   1      33.173  25.498  20.659  1.00  0.00    -0.252 OA
BRANCH   5   7
ATOM      7  C   UNL A   1      33.291  25.426  23.070  1.00  0.00     0.126 C 
BRANCH   7   8
ATOM      8  C   UNL A   1      34.037  24.075  23.162  1.00  0.00     0.004 C 
ATOM      9  C   UNL A   1      34.766  23.735  24.498  1.00  0.00     0.029 C 
ATOM     10  C   UNL A   1      33.101  22.920  22.693  1.00  0.00     0.029 C 
ATOM     11  C   UNL A   1      34.090  22.732  25.435  1.00  0.00     0.086 C 
ATOM     12  C   UNL A   1      32.601  22.001  23.824  1.00  0.00     0.086 C 
ATOM     13  C   UNL A   1      32.723  23.142  25.965  1.00  0.00     0.027 C 
ATOM     14  N   UNL A   1      33.749  21.597  24.621  1.00  0.00    -0.331 N 
ATOM     15  C   UNL A   1      31.747  22.778  24.841  1.00  0.00     0.027 C 
BRANCH  14  16
ATOM     16  C   UNL A   1      34.389  20.399  24.769  1.00  0.00     0.272 C 
ATOM     17  O   UNL A   1      35.576  20.291  25.072  1.00  0.00    -0.267 OA
BRANCH  16  18
ATOM     18  C   UNL A   1      33.581  19.180  24.618  1.00  0.00     0.125 A 
ATOM     19  C   UNL A   1      32.872  18.766  23.558  1.00  0.00     0.119 A 
ATOM     20  N   UNL A   1      33.534  18.211  25.590  1.00  0.00    -0.302 N 
ATOM     21  N   UNL A   1      32.330  17.542  23.857  1.00  0.00    -0.312 N 
ATOM     22  C   UNL A   1      32.737  17.156  25.146  1.00  0.00     0.323 A 
ATOM     23  H   UNL A   1      33.991  18.255  26.461  1.00  0.00     0.172 HD
ATOM     24  H   UNL A   1      31.748  17.016  23.262  1.00  0.00     0.171 HD
ATOM     25  O   UNL A   1      32.453  16.133  25.731  1.00  0.00    -0.248 OA
ENDBRANCH  16  18
ENDBRANCH  14  16
ENDBRANCH   7   8
ENDBRANCH   5   7
ENDBRANCH   4   5
ENDBRANCH   3   4
ENDBRANCH   2   3
ENDBRANCH   1   2
BRANCH   1  26
ATOM     26  C   UNL A   1      32.006  29.479  25.211  1.00  0.00     0.202 C 
BRANCH  26  27
ATOM     27  C   UNL A   1      31.883  30.779  26.009  1.00  0.00     0.261 C 
BRANCH  27  28
ATOM     28  O   UNL A   1      32.619  30.669  27.233  1.00  0.00    -0.460 OA
BRANCH  28  29
ATOM     29  C   UNL A   1      33.424  31.724  27.514  1.00  0.00     0.338 C 
ATOM     30  O   UNL A   1      33.090  32.893  27.623  1.00  0.00    -0.246 OA
BRANCH  29  31
ATOM     31  C   UNL A   1      34.770  31.216  27.865  1.00  0.00     0.060 A 
ATOM     32  C   UNL A   1      34.941  29.828  27.954  1.00  0.00     0.016 A 
ATOM     33  C   UNL A   1      35.861  32.074  28.053  1.00  0.00     0.016 A 
ATOM     34  C   UNL A   1      36.177  29.300  28.316  1.00  0.00     0.010 A 
ATOM     35  C   UNL A   1      37.104  31.544  28.397  1.00  0.00     0.010 A 
ATOM     36  C   UNL A   1      37.245  30.161  28.594  1.00  0.00    -0.014 A 
BRANCH  36  37
ATOM     37  C   UNL A   1      38.422  29.648  29.329  1.00  0.00     0.031 A 
ATOM     38  C   UNL A   1      38.592  30.074  30.762  1.00  0.00     0.074 A 
ATOM     39  C   UNL A   1      39.310  28.827  28.745  1.00  0.00     0.049 A 
ATOM     40  N   UNL A   1      39.530  29.764  31.615  1.00  0.00    -0.248 NA
ATOM     41  C   UNL A   1      37.567  30.986  31.304  1.00  0.00     0.031 C 
ATOM     42  C   UNL A   1      39.245  28.352  27.363  1.00  0.00     0.029 A 
ATOM     43  N   UNL A   1      40.452  28.259  29.246  1.00  0.00    -0.354 N 
ATOM     44  C   UNL A   1      39.231  30.470  32.776  1.00  0.00     0.074 A 
ATOM     45  C   UNL A   1      38.039  31.242  32.512  1.00  0.00     0.031 C 
ATOM     46  C   UNL A   1      40.312  27.569  27.123  1.00  0.00     0.029 A 
ATOM     47  C   UNL A   1      41.141  27.507  28.325  1.00  0.00     0.049 A 
ATOM     48  H   UNL A   1      40.751  28.379  30.176  1.00  0.00     0.167 HD
ATOM     49  C   UNL A   1      39.881  30.464  33.961  1.00  0.00     0.034 A 
ATOM     50  C   UNL A   1      42.312  26.850  28.446  1.00  0.00     0.034 A 
ATOM     51  C   UNL A   1      41.054  29.677  34.221  1.00  0.00     0.049 A 
ATOM     52  C   UNL A   1      43.020  26.860  29.777  1.00  0.00     0.074 A 
ATOM     53  C   UNL A   1      41.762  29.548  35.402  1.00  0.00     0.029 A 
ATOM     54  N   UNL A   1      41.701  28.893  33.277  1.00  0.00    -0.354 N 
ATOM     55  N   UNL A   1      42.664  27.438  30.900  1.00  0.00    -0.248 NA
ATOM     56  C   UNL A   1      44.271  26.093  29.868  1.00  0.00     0.031 C 
ATOM     57  C   UNL A   1      42.862  28.720  35.159  1.00  0.00     0.029 A 
ATOM     58  C   UNL A   1      42.809  28.290  33.842  1.00  0.00     0.049 A 
ATOM     59  H   UNL A   1      41.413  28.784  32.341  1.00  0.00     0.167 HD
ATOM     60  C   UNL A   1      43.615  27.059  31.843  1.00  0.00     0.074 A 
ATOM     61  C   UNL A   1      44.558  26.198  31.158  1.00  0.00     0.031 C 
ATOM     62  C   UNL A   1      43.703  27.393  33.155  1.00  0.00     0.034 A 
BRANCH  49  63
ATOM     63  C   UNL A   1      39.336  31.339  35.059  1.00  0.00     0.023 A 
ATOM     64  C   UNL A   1      38.379  30.830  35.964  1.00  0.00     0.012 A 
ATOM     65  C   UNL A   1      39.784  32.666  35.205  1.00  0.00     0.148 A 
ATOM     66  C   UNL A   1      37.846  31.641  36.965  1.00  0.00     0.002 A 
ATOM     67  C   UNL A   1      39.288  33.451  36.238  1.00  0.00     0.091 A 
ATOM     68  F   UNL A   1      40.671  33.142  34.319  1.00  0.00    -0.205 F 
ATOM     69  C   UNL A   1      38.308  32.947  37.108  1.00  0.00     0.022 A 
BRANCH  67  70
ATOM     70  S   UNL A   1      39.882  35.116  36.554  1.00  0.00     0.127 S 
ATOM     71  O   UNL A   1      41.330  34.912  36.575  1.00  0.00    -0.237 OA
ATOM     72  O   UNL A   1      39.387  35.844  35.386  1.00  0.00    -0.237 OA
ATOM     73  O   UNL A   1      39.289  35.522  37.820  1.00  0.00    -0.744 OA
ENDBRANCH  67  70
ENDBRANCH  49  63
BRANCH  50  74
ATOM     74  C   UNL A   1      42.856  26.075  27.296  1.00  0.00     0.023 A 
ATOM     75  C   UNL A   1      43.732  26.703  26.390  1.00  0.00     0.012 A 
ATOM     76  C   UNL A   1      42.524  24.720  27.103  1.00  0.00     0.148 A 
ATOM     77  C   UNL A   1      44.242  26.007  25.293  1.00  0.00     0.002 A 
ATOM     78  C   UNL A   1      43.077  24.017  26.039  1.00  0.00     0.091 A 
ATOM     79  F   UNL A   1      41.681  24.144  27.972  1.00  0.00    -0.205 F 
ATOM     80  C   UNL A   1      43.922  24.662  25.123  1.00  0.00     0.022 A 
BRANCH  78  81
ATOM     81  S   UNL A   1      42.820  22.254  25.807  1.00  0.00     0.127 S 
ATOM     82  O   UNL A   1      41.380  22.190  25.571  1.00  0.00    -0.237 OA
ATOM     83  O   UNL A   1      43.651  21.984  24.634  1.00  0.00    -0.237 OA
ATOM     84  O   UNL A   1      43.285  21.622  27.035  1.00  0.00    -0.744 OA
ENDBRANCH  78  81
ENDBRANCH  50  74
BRANCH  62  85
ATOM     85  C   UNL A   1      44.813  26.771  33.962  1.00  0.00     0.023 A 
ATOM     86  C   UNL A   1      46.055  27.422  34.092  1.00  0.00     0.012 A 
ATOM     87  C   UNL A   1      44.592  25.560  34.652  1.00  0.00     0.148 A 
ATOM     88  C   UNL A   1      47.074  26.857  34.858  1.00  0.00     0.002 A 
ATOM     89  C   UNL A   1      45.592  25.034  35.459  1.00  0.00     0.091 A 
ATOM     90  F   UNL A   1      43.411  24.945  34.503  1.00  0.00    -0.205 F 
ATOM     91  C   UNL A   1      46.840  25.671  35.550  1.00  0.00     0.022 A 
BRANCH  89  92
ATOM     92  S   UNL A   1      45.335  23.571  36.469  1.00  0.00     0.127 S 
ATOM     93  O   UNL A   1      44.617  24.124  37.616  1.00  0.00    -0.237 OA
ATOM     94  O   UNL A   1      44.525  22.726  35.591  1.00  0.00    -0.237 OA
ATOM     95  O   UNL A   1      46.662  23.043  36.755  1.00  0.00    -0.744 OA
ENDBRANCH  89  92
ENDBRANCH  62  85
ENDBRANCH  36  37
ENDBRANCH  29  31
ENDBRANCH  28  29
ENDBRANCH  27  28
ENDBRANCH  26  27
ENDBRANCH   1  26
TORSDOF 20
ENDMDL
MODEL 2
REMARK VINA RESULT:     -11.8      4.969     10.449
REMARK SMILES O=C(C[C@H]1C[C@H]2CC[C@@H](C1)N2C(=O)c1c[nH]c(=O)[nH]1)OCCOCCOC(=O)c1ccc(-c2c3nc(c(-c4cccc(S(=O)(=O)[O-])c4F)c4ccc([nH]4)c(-c4cccc(S(=O)(=O)[O-])c4F)c4nc(c(-c5cccc(S(=O)(=O)[O-])c5F)c5ccc2[nH]5)C=C4)C=C3)cc1
REMARK SMILES IDX 23 1 22 2 21 3 20 4 2 5 1 6 3 7 4 8 5 9 10 10 6 11 9 12 7 13
REMARK SMILES IDX 11 14 8 15 12 16 13 17 14 18 15 19 19 20 16 21 17 22 18 25
REMARK SMILES IDX 24 26 25 27 26 28 27 29 28 30 29 31 30 32 91 33 31 34 90 35
REMARK SMILES IDX 32 36 33 37 34 38 84 39 35 40 89 41 83 42 85 43 36 44 88 45
REMARK SMILES IDX 82 46 81 47 37 49 69 50 49 51 68 52 50 53 53 54 67 55 86 56
REMARK SMILES IDX 51 57 52 58 66 60 87 61 54 62 38 63 39 64 47 65 40 66 42 67
REMARK SMILES IDX 48 68 41 69 43 70 44 71 45 72 46 73 70 74 71 75 79 76 72 77
REMARK SMILES IDX 74 78 80 79 73 80 75 81 76 82 77 83 78 84 55 85 56 86 64 87
REMARK SMILES IDX 57 88 59 89 65 90 58 91 60 92 61 93 62 94 63 95
REMARK H PARENT 19 23 16 24 85 48 53 59
REMARK Flexibility Score: inf
ROOT
ATOM      1  O   UNL A   1      35.152  19.795  24.808  1.00  0.00    -0.374 OA
ENDROOT
BRANCH   1   2
ATOM      2  C   UNL A   1      33.758  20.080  24.942  1.00  0.00     0.202 C 
BRANCH   2   3
ATOM      3  C   UNL A   1      33.412  21.563  25.185  1.00  0.00     0.261 C 
BRANCH   3   4
ATOM      4  O   UNL A   1      33.003  21.832  26.531  1.00  0.00    -0.463 OA
BRANCH   4   5
ATOM      5  C   UNL A   1      31.992  22.722  26.630  1.00  0.00     0.306 C 
ATOM      6  O   UNL A   1      31.408  22.993  27.674  1.00  0.00    -0.252 OA
BRANCH   5   7
ATOM      7  C   UNL A   1      31.525  23.217  25.273  1.00  0.00     0.126 C 
BRANCH   7   8
ATOM      8  C   UNL A   1      31.524  24.738  24.991  1.00  0.00     0.004 C 
ATOM      9  C   UNL A   1      32.734  25.576  25.505  1.00  0.00     0.029 C 
ATOM     10  C   UNL A   1      31.229  24.996  23.483  1.00  0.00     0.029 C 
ATOM     11  C   UNL A   1      33.784  26.002  24.477  1.00  0.00     0.086 C 
ATOM     12  C   UNL A   1      32.441  25.487  22.667  1.00  0.00     0.086 C 
ATOM     13  C   UNL A   1      34.515  24.869  23.770  1.00  0.00     0.027 C 
ATOM     14  N   UNL A   1      33.054  26.591  23.388  1.00  0.00    -0.331 N 
ATOM     15  C   UNL A   1      33.565  24.436  22.649  1.00  0.00     0.027 C 
BRANCH  14  16
ATOM     16  C   UNL A   1      33.122  27.932  23.130  1.00  0.00     0.272 C 
ATOM     17  O   UNL A   1      34.168  28.528  22.884  1.00  0.00    -0.267 OA
BRANCH  16  18
ATOM     18  C   UNL A   1      31.853  28.674  23.084  1.00  0.00     0.125 A 
ATOM     19  C   UNL A   1      31.168  29.233  24.092  1.00  0.00     0.119 A 
ATOM     20  N   UNL A   1      31.229  28.979  21.899  1.00  0.00    -0.302 N 
ATOM     21  N   UNL A   1      30.074  29.870  23.564  1.00  0.00    -0.312 N 
ATOM     22  C   UNL A   1      30.085  29.731  22.166  1.00  0.00     0.323 A 
ATOM     23  H   UNL A   1      31.541  28.709  21.005  1.00  0.00     0.172 HD
ATOM     24  H   UNL A   1      29.389  30.350  24.084  1.00  0.00     0.171 HD
ATOM     25  O   UNL A   1      29.277  30.170  21.376  1.00  0.00    -0.248 OA
ENDBRANCH  16  18
ENDBRANCH  14  16
ENDBRANCH   7   8
ENDBRANCH   5   7
ENDBRANCH   4   5
ENDBRANCH   3   4
ENDBRANCH   2   3
ENDBRANCH   1   2
BRANCH   1  26
ATOM     26  C   UNL A   1      36.046  20.883  25.041  1.00  0.00     0.202 C 
BRANCH  26  27
ATOM     27  C   UNL A   1      37.503  20.431  25.174  1.00  0.00     0.261 C 
BRANCH  27  28
ATOM     28  O   UNL A   1      38.357  21.574  25.300  1.00  0.00    -0.460 OA
BRANCH  28  29
ATOM     29  C   UNL A   1      39.477  21.373  26.039  1.00  0.00     0.338 C 
ATOM     30  O   UNL A   1      40.182  20.378  26.045  1.00  0.00    -0.246 OA
BRANCH  29  31
ATOM     31  C   UNL A   1      39.835  22.642  26.715  1.00  0.00     0.060 A 
ATOM     32  C   UNL A   1      39.089  23.784  26.396  1.00  0.00     0.016 A 
ATOM     33  C   UNL A   1      40.847  22.707  27.680  1.00  0.00     0.016 A 
ATOM     34  C   UNL A   1      39.409  25.009  26.976  1.00  0.00     0.010 A 
ATOM     35  C   UNL A   1      41.155  23.930  28.275  1.00  0.00     0.010 A 
ATOM     36  C   UNL A   1      40.480  25.093  27.873  1.00  0.00    -0.014 A 
BRANCH  36  37
ATOM     37  C   UNL A   1      41.058  26.417  28.195  1.00  0.00     0.031 A 
ATOM     38  C   UNL A   1      42.471  26.689  27.754  1.00  0.00     0.074 A 
ATOM     39  C   UNL A   1      40.350  27.349  28.853  1.00  0.00     0.049 A 
ATOM     40  N   UNL A   1      43.198  27.761  27.911  1.00  0.00    -0.248 NA
ATOM     41  C   UNL A   1      43.163  25.594  27.048  1.00  0.00     0.031 C 
ATOM     42  C   UNL A   1      38.976  27.194  29.328  1.00  0.00     0.029 A 
ATOM     43  N   UNL A   1      40.704  28.614  29.247  1.00  0.00    -0.354 N 
ATOM     44  C   UNL A   1      44.439  27.458  27.362  1.00  0.00     0.074 A 
ATOM     45  C   UNL A   1      44.376  26.095  26.888  1.00  0.00     0.031 C 
ATOM     46  C   UNL A   1      38.606  28.321  29.962  1.00  0.00     0.029 A 
ATOM     47  C   UNL A   1      39.721  29.264  29.953  1.00  0.00     0.049 A 
ATOM     48  H   UNL A   1      41.579  29.016  29.044  1.00  0.00     0.167 HD
ATOM     49  C   UNL A   1      45.530  28.249  27.247  1.00  0.00     0.034 A 
ATOM     50  C   UNL A   1      39.731  30.483  30.529  1.00  0.00     0.034 A 
ATOM     51  C   UNL A   1      45.577  29.609  27.703  1.00  0.00     0.049 A 
ATOM     52  C   UNL A   1      40.961  31.344  30.390  1.00  0.00     0.074 A 
ATOM     53  C   UNL A   1      46.609  30.522  27.587  1.00  0.00     0.029 A 
ATOM     54  N   UNL A   1      44.548  30.250  28.377  1.00  0.00    -0.354 N 
ATOM     55  N   UNL A   1      42.086  31.088  29.767  1.00  0.00    -0.248 NA
ATOM     56  C   UNL A   1      40.905  32.681  31.000  1.00  0.00     0.031 C 
ATOM     57  C   UNL A   1      46.219  31.701  28.229  1.00  0.00     0.029 A 
ATOM     58  C   UNL A   1      44.924  31.541  28.698  1.00  0.00     0.049 A 
ATOM     59  H   UNL A   1      43.678  29.844  28.596  1.00  0.00     0.167 HD
ATOM     60  C   UNL A   1      42.849  32.248  29.861  1.00  0.00     0.074 A 
ATOM     61  C   UNL A   1      42.052  33.209  30.598  1.00  0.00     0.031 C 
ATOM     62  C   UNL A   1      44.094  32.498  29.384  1.00  0.00     0.034 A 
BRANCH  49  63
ATOM     63  C   UNL A   1      46.757  27.654  26.608  1.00  0.00     0.023 A 
ATOM     64  C   UNL A   1      47.656  26.883  27.377  1.00  0.00     0.012 A 
ATOM     65  C   UNL A   1      47.013  27.845  25.236  1.00  0.00     0.148 A 
ATOM     66  C   UNL A   1      48.810  26.352  26.802  1.00  0.00     0.002 A 
ATOM     67  C   UNL A   1      48.137  27.268  24.659  1.00  0.00     0.091 A 
ATOM     68  F   UNL A   1      46.165  28.604  24.528  1.00  0.00    -0.205 F 
ATOM     69  C   UNL A   1      49.044  26.536  25.441  1.00  0.00     0.022 A 
BRANCH  67  70
ATOM     70  S   UNL A   1      48.480  27.379  22.900  1.00  0.00     0.127 S 
ATOM     71  O   UNL A   1      47.378  28.222  22.437  1.00  0.00    -0.237 OA
ATOM     72  O   UNL A   1      49.791  28.028  22.884  1.00  0.00    -0.237 OA
ATOM     73  O   UNL A   1      48.473  26.012  22.400  1.00  0.00    -0.744 OA
ENDBRANCH  67  70
ENDBRANCH  49  63
BRANCH  50  74
ATOM     74  C   UNL A   1      38.520  30.987  31.235  1.00  0.00     0.023 A 
ATOM     75  C   UNL A   1      38.424  30.850  32.633  1.00  0.00     0.012 A 
ATOM     76  C   UNL A   1      37.471  31.612  30.532  1.00  0.00     0.148 A 
ATOM     77  C   UNL A   1      37.292  31.296  33.316  1.00  0.00     0.002 A 
ATOM     78  C   UNL A   1      36.370  32.101  31.225  1.00  0.00     0.091 A 
ATOM     79  F   UNL A   1      37.578  31.723  29.200  1.00  0.00    -0.205 F 
ATOM     80  C   UNL A   1      36.270  31.929  32.614  1.00  0.00     0.022 A 
BRANCH  78  81
ATOM     81  S   UNL A   1      35.062  33.036  30.425  1.00  0.00     0.127 S 
ATOM     82  O   UNL A   1      35.808  34.135  29.817  1.00  0.00    -0.237 OA
ATOM     83  O   UNL A   1      34.528  32.055  29.480  1.00  0.00    -0.237 OA
ATOM     84  O   UNL A   1      34.139  33.414  31.487  1.00  0.00    -0.744 OA
ENDBRANCH  78  81
ENDBRANCH  50  74
BRANCH  62  85
ATOM     85  C   UNL A   1      44.652  33.885  29.575  1.00  0.00     0.023 A 
ATOM     86  C   UNL A   1      45.341  34.223  30.756  1.00  0.00     0.012 A 
ATOM     87  C   UNL A   1      44.545  34.838  28.540  1.00  0.00     0.148 A 
ATOM     88  C   UNL A   1      45.877  35.500  30.922  1.00  0.00     0.002 A 
ATOM     89  C   UNL A   1      45.131  36.088  28.691  1.00  0.00     0.091 A 
ATOM     90  F   UNL A   1      43.870  34.505  27.431  1.00  0.00    -0.205 F 
ATOM     91  C   UNL A   1      45.782  36.427  29.887  1.00  0.00     0.022 A 
BRANCH  89  92
ATOM     92  S   UNL A   1      45.151  37.300  27.366  1.00  0.00     0.127 S 
ATOM     93  O   UNL A   1      45.798  38.440  28.014  1.00  0.00    -0.237 OA
ATOM     94  O   UNL A   1      45.965  36.634  26.348  1.00  0.00    -0.237 OA
ATOM     95  O   UNL A   1      43.759  37.503  26.986  1.00  0.00    -0.744 OA
ENDBRANCH  89  92
ENDBRANCH  62  85
ENDBRANCH  36  37
ENDBRANCH  29  31
ENDBRANCH  28  29
ENDBRANCH  27  28
ENDBRANCH  26  27
ENDBRANCH   1  26
TORSDOF 20
ENDMDL
MODEL 3
REMARK VINA RESULT:     -11.5      2.015      7.770
REMARK SMILES O=C(C[C@H]1C[C@H]2CC[C@@H](C1)N2C(=O)c1c[nH]c(=O)[nH]1)OCCOCCOC(=O)c1ccc(-c2c3nc(c(-c4cccc(S(=O)(=O)[O-])c4F)c4ccc([nH]4)c(-c4cccc(S(=O)(=O)[O-])c4F)c4nc(c(-c5cccc(S(=O)(=O)[O-])c5F)c5ccc2[nH]5)C=C4)C=C3)cc1
REMARK SMILES IDX 23 1 22 2 21 3 20 4 2 5 1 6 3 7 4 8 5 9 10 10 6 11 9 12 7 13
REMARK SMILES IDX 11 14 8 15 12 16 13 17 14 18 15 19 19 20 16 21 17 22 18 25
REMARK SMILES IDX 24 26 25 27 26 28 27 29 28 30 29 31 30 32 91 33 31 34 90 35
REMARK SMILES IDX 32 36 33 37 34 38 84 39 35 40 89 41 83 42 85 43 36 44 88 45
REMARK SMILES IDX 82 46 81 47 37 49 69 50 49 51 68 52 50 53 53 54 67 55 86 56
REMARK SMILES IDX 51 57 52 58 66 60 87 61 54 62 38 63 39 64 47 65 40 66 42 67
REMARK SMILES IDX 48 68 41 69 43 70 44 71 45 72 46 73 70 74 71 75 79 76 72 77
REMARK SMILES IDX 74 78 80 79 73 80 75 81 76 82 77 83 78 84 55 85 56 86 64 87
REMARK SMILES IDX 57 88 59 89 65 90 58 91 60 92 61 93 62 94 63 95
REMARK H PARENT 19 23 16 24 85 48 53 59
REMARK Flexibility Score: inf
ROOT
ATOM      1  O   UNL A   1      32.309  29.156  25.473  1.00  0.00    -0.374 OA
ENDROOT
BRANCH   1   2
ATOM      2  C   UNL A   1      32.787  28.519  24.286  1.00  0.00     0.202 C 
BRANCH   2   3
ATOM      3  C   UNL A   1      31.797  27.543  23.620  1.00  0.00     0.261 C 
BRANCH   3   4
ATOM      4  O   UNL A   1      32.006  27.405  22.210  1.00  0.00    -0.463 OA
BRANCH   4   5
ATOM      5  C   UNL A   1      32.545  26.220  21.849  1.00  0.00     0.306 C 
ATOM      6  O   UNL A   1      33.272  26.059  20.874  1.00  0.00    -0.252 OA
BRANCH   5   7
ATOM      7  C   UNL A   1      32.003  25.066  22.673  1.00  0.00     0.126 C 
BRANCH   7   8
ATOM      8  C   UNL A   1      33.000  24.132  23.399  1.00  0.00     0.004 C 
ATOM      9  C   UNL A   1      33.941  24.763  24.471  1.00  0.00     0.029 C 
ATOM     10  C   UNL A   1      32.251  22.877  23.939  1.00  0.00     0.029 C 
ATOM     11  C   UNL A   1      33.590  24.529  25.942  1.00  0.00     0.086 C 
ATOM     12  C   UNL A   1      32.080  22.842  25.471  1.00  0.00     0.086 C 
ATOM     13  C   UNL A   1      32.246  25.082  26.396  1.00  0.00     0.027 C 
ATOM     14  N   UNL A   1      33.374  23.114  26.077  1.00  0.00    -0.331 N 
ATOM     15  C   UNL A   1      31.226  24.023  25.965  1.00  0.00     0.027 C 
BRANCH  14  16
ATOM     16  C   UNL A   1      34.244  22.326  26.776  1.00  0.00     0.272 C 
ATOM     17  O   UNL A   1      34.002  21.860  27.888  1.00  0.00    -0.267 OA
BRANCH  16  18
ATOM     18  C   UNL A   1      35.512  21.973  26.119  1.00  0.00     0.125 A 
ATOM     19  C   UNL A   1      36.609  22.724  25.948  1.00  0.00     0.119 A 
ATOM     20  N   UNL A   1      35.763  20.706  25.654  1.00  0.00    -0.302 N 
ATOM     21  N   UNL A   1      37.563  21.954  25.333  1.00  0.00    -0.312 N 
ATOM     22  C   UNL A   1      37.057  20.658  25.134  1.00  0.00     0.323 A 
ATOM     23  H   UNL A   1      35.130  19.952  25.682  1.00  0.00     0.172 HD
ATOM     24  H   UNL A   1      38.461  22.261  25.072  1.00  0.00     0.171 HD
ATOM     25  O   UNL A   1      37.626  19.716  24.626  1.00  0.00    -0.248 OA
ENDBRANCH  16  18
ENDBRANCH  14  16
ENDBRANCH   7   8
ENDBRANCH   5   7
ENDBRANCH   4   5
ENDBRANCH   3   4
ENDBRANCH   2   3
ENDBRANCH   1   2
BRANCH   1  26
ATOM     26  C   UNL A   1      31.321  30.171  25.294  1.00  0.00     0.202 C 
BRANCH  26  27
ATOM     27  C   UNL A   1      31.472  31.323  26.291  1.00  0.00     0.261 C 
BRANCH  27  28
ATOM     28  O   UNL A   1      32.565  31.058  27.178  1.00  0.00    -0.460 OA
BRANCH  28  29
ATOM     29  C   UNL A   1      33.287  32.148  27.538  1.00  0.00     0.338 C 
ATOM     30  O   UNL A   1      32.891  33.300  27.608  1.00  0.00    -0.246 OA
BRANCH  29  31
ATOM     31  C   UNL A   1      34.612  31.701  28.027  1.00  0.00     0.060 A 
ATOM     32  C   UNL A   1      34.808  30.327  28.218  1.00  0.00     0.016 A 
ATOM     33  C   UNL A   1      35.663  32.600  28.247  1.00  0.00     0.016 A 
ATOM     34  C   UNL A   1      36.022  29.858  28.711  1.00  0.00     0.010 A 
ATOM     35  C   UNL A   1      36.886  32.128  28.723  1.00  0.00     0.010 A 
ATOM     36  C   UNL A   1      37.043  30.765  29.019  1.00  0.00    -0.014 A 
BRANCH  36  37
ATOM     37  C   UNL A   1      38.168  30.332  29.877  1.00  0.00     0.031 A 
ATOM     38  C   UNL A   1      39.150  29.348  29.299  1.00  0.00     0.074 A 
ATOM     39  C   UNL A   1      38.317  30.802  31.126  1.00  0.00     0.049 A 
ATOM     40  N   UNL A   1      40.212  28.820  29.842  1.00  0.00    -0.248 NA
ATOM     41  C   UNL A   1      38.888  28.888  27.923  1.00  0.00     0.031 C 
ATOM     42  C   UNL A   1      37.427  31.755  31.786  1.00  0.00     0.029 A 
ATOM     43  N   UNL A   1      39.273  30.522  32.068  1.00  0.00    -0.354 N 
ATOM     44  C   UNL A   1      40.722  27.940  28.894  1.00  0.00     0.074 A 
ATOM     45  C   UNL A   1      39.841  27.987  27.750  1.00  0.00     0.031 C 
ATOM     46  C   UNL A   1      37.875  31.974  33.035  1.00  0.00     0.029 A 
ATOM     47  C   UNL A   1      39.067  31.162  33.266  1.00  0.00     0.049 A 
ATOM     48  H   UNL A   1      40.033  29.919  31.902  1.00  0.00     0.167 HD
ATOM     49  C   UNL A   1      41.834  27.173  28.961  1.00  0.00     0.034 A 
ATOM     50  C   UNL A   1      39.766  31.091  34.417  1.00  0.00     0.034 A 
ATOM     51  C   UNL A   1      42.715  27.148  30.094  1.00  0.00     0.049 A 
ATOM     52  C   UNL A   1      41.000  30.226  34.468  1.00  0.00     0.074 A 
ATOM     53  C   UNL A   1      43.900  26.454  30.249  1.00  0.00     0.029 A 
ATOM     54  N   UNL A   1      42.498  27.842  31.275  1.00  0.00    -0.354 N 
ATOM     55  N   UNL A   1      41.535  29.489  33.524  1.00  0.00    -0.248 NA
ATOM     56  C   UNL A   1      41.749  30.216  35.733  1.00  0.00     0.031 C 
ATOM     57  C   UNL A   1      44.377  26.694  31.541  1.00  0.00     0.029 A 
ATOM     58  C   UNL A   1      43.518  27.581  32.171  1.00  0.00     0.049 A 
ATOM     59  H   UNL A   1      41.730  28.433  31.450  1.00  0.00     0.167 HD
ATOM     60  C   UNL A   1      42.711  28.973  34.061  1.00  0.00     0.074 A 
ATOM     61  C   UNL A   1      42.810  29.488  35.411  1.00  0.00     0.031 C 
ATOM     62  C   UNL A   1      43.625  28.148  33.491  1.00  0.00     0.034 A 
BRANCH  49  63
ATOM     63  C   UNL A   1      42.149  26.298  27.776  1.00  0.00     0.023 A 
ATOM     64  C   UNL A   1      42.906  26.808  26.699  1.00  0.00     0.012 A 
ATOM     65  C   UNL A   1      41.707  24.962  27.736  1.00  0.00     0.148 A 
ATOM     66  C   UNL A   1      43.178  26.016  25.584  1.00  0.00     0.002 A 
ATOM     67  C   UNL A   1      42.027  24.163  26.645  1.00  0.00     0.091 A 
ATOM     68  F   UNL A   1      40.963  24.504  28.753  1.00  0.00    -0.205 F 
ATOM     69  C   UNL A   1      42.748  24.692  25.562  1.00  0.00     0.022 A 
BRANCH  67  70
ATOM     70  S   UNL A   1      41.589  22.424  26.564  1.00  0.00     0.127 S 
ATOM     71  O   UNL A   1      42.271  22.006  25.339  1.00  0.00    -0.237 OA
ATOM     72  O   UNL A   1      42.179  21.902  27.796  1.00  0.00    -0.237 OA
ATOM     73  O   UNL A   1      40.135  22.375  26.517  1.00  0.00    -0.744 OA
ENDBRANCH  67  70
ENDBRANCH  49  63
BRANCH  50  74
ATOM     74  C   UNL A   1      39.354  31.906  35.593  1.00  0.00     0.023 A 
ATOM     75  C   UNL A   1      39.767  33.249  35.685  1.00  0.00     0.012 A 
ATOM     76  C   UNL A   1      38.545  31.365  36.612  1.00  0.00     0.148 A 
ATOM     77  C   UNL A   1      39.411  34.031  36.785  1.00  0.00     0.002 A 
ATOM     78  C   UNL A   1      38.150  32.164  37.679  1.00  0.00     0.091 A 
ATOM     79  F   UNL A   1      38.171  30.082  36.510  1.00  0.00    -0.205 F 
ATOM     80  C   UNL A   1      38.596  33.491  37.777  1.00  0.00     0.022 A 
BRANCH  78  81
ATOM     81  S   UNL A   1      37.005  31.595  38.940  1.00  0.00     0.127 S 
ATOM     82  O   UNL A   1      36.738  30.227  38.507  1.00  0.00    -0.237 OA
ATOM     83  O   UNL A   1      37.815  31.713  40.153  1.00  0.00    -0.237 OA
ATOM     84  O   UNL A   1      35.869  32.506  38.883  1.00  0.00    -0.744 OA
ENDBRANCH  78  81
ENDBRANCH  50  74
BRANCH  62  85
ATOM     85  C   UNL A   1      44.853  27.804  34.294  1.00  0.00     0.023 A 
ATOM     86  C   UNL A   1      45.998  28.622  34.236  1.00  0.00     0.012 A 
ATOM     87  C   UNL A   1      44.840  26.694  35.163  1.00  0.00     0.148 A 
ATOM     88  C   UNL A   1      47.126  28.316  34.997  1.00  0.00     0.002 A 
ATOM     89  C   UNL A   1      45.946  26.429  35.961  1.00  0.00     0.091 A 
ATOM     90  F   UNL A   1      43.749  25.916  35.192  1.00  0.00    -0.205 F 
ATOM     91  C   UNL A   1      47.096  27.228  35.867  1.00  0.00     0.022 A 
BRANCH  89  92
ATOM     92  S   UNL A   1      45.950  25.116  37.185  1.00  0.00     0.127 S 
ATOM     93  O   UNL A   1      47.058  25.517  38.050  1.00  0.00    -0.237 OA
ATOM     94  O   UNL A   1      44.624  25.251  37.790  1.00  0.00    -0.237 OA
ATOM     95  O   UNL A   1      46.150  23.877  36.445  1.00  0.00    -0.744 OA
ENDBRANCH  89  92
ENDBRANCH  62  85
ENDBRANCH  36  37
ENDBRANCH  29  31
ENDBRANCH  28  29
ENDBRANCH  27  28
ENDBRANCH  26  27
ENDBRANCH   1  26
TORSDOF 20
ENDMDL
