MODEL 1
REMARK VINA RESULT:     -11.6      0.000      0.000
REMARK SMILES CCSc1ccc(-c2cc(Cl)cc3c2O[C@@H](C(F)(F)F)C(C(=O)OCCOCCOC(=O)c2ccc(-c4c5nc(c(-c6cccc(S(=O)(=O)[O-])c6F)c6ccc([nH]6)c(-c6cccc(S(=O)(=O)[O-])c6F)c6nc(c(-c7cccc(S(=O)(=O)[O-])c7F)c7ccc4[nH]7)C=C6)C=C5)cc2)=C3)cc1
REMARK SMILES IDX 27 1 26 2 25 3 24 4 22 5 23 6 21 7 8 8 9 9 14 10 10 11 13 12
REMARK SMILES IDX 15 13 11 14 12 15 96 16 16 17 7 18 4 19 5 20 98 21 6 22
REMARK SMILES IDX 97 23 3 24 2 25 1 26 17 27 18 28 19 29 20 30 28 31 29 32
REMARK SMILES IDX 30 33 31 34 32 35 33 36 34 37 95 38 35 39 94 40 36 41 37 42
REMARK SMILES IDX 38 43 88 44 39 45 93 46 87 47 89 48 40 49 92 50 86 51 85 52
REMARK SMILES IDX 41 54 73 55 53 56 72 57 54 58 57 59 71 60 90 61 55 62 56 63
REMARK SMILES IDX 70 65 91 66 58 67 42 68 43 69 51 70 44 71 46 72 52 73 45 74
REMARK SMILES IDX 47 75 48 76 49 77 50 78 74 79 75 80 83 81 76 82 78 83 84 84
REMARK SMILES IDX 77 85 79 86 80 87 81 88 82 89 59 90 60 91 68 92 61 93 63 94
REMARK SMILES IDX 69 95 62 96 64 97 65 98 66 99 67 100
REMARK H PARENT 89 53 57 64
REMARK Flexibility Score: inf
ROOT
ATOM      1  O   UNL A   1      33.350  30.613  27.229  1.00  0.00    -0.374 OA
ENDROOT
BRANCH   1   2
ATOM      2  C   UNL A   1      32.106  30.655  26.542  1.00  0.00     0.202 C 
BRANCH   2   3
ATOM      3  C   UNL A   1      31.781  29.544  25.531  1.00  0.00     0.261 C 
BRANCH   3   4
ATOM      4  O   UNL A   1      32.208  28.241  25.960  1.00  0.00    -0.460 OA
BRANCH   4   5
ATOM      5  C   UNL A   1      31.745  27.205  25.235  1.00  0.00     0.338 C 
ATOM      6  O   UNL A   1      30.576  27.027  24.922  1.00  0.00    -0.246 OA
BRANCH   5   7
ATOM      7  C   UNL A   1      32.832  26.370  24.671  1.00  0.00     0.087 C 
ATOM      8  C   UNL A   1      31.962  22.332  24.273  1.00  0.00     0.026 A 
ATOM      9  C   UNL A   1      30.915  22.098  25.197  1.00  0.00     0.033 A 
ATOM     10  C   UNL A   1      32.505  23.633  24.307  1.00  0.00     0.135 A 
ATOM     11  C   UNL A   1      30.720  22.944  26.288  1.00  0.00     0.042 A 
ATOM     12  C   UNL A   1      32.503  24.334  25.522  1.00  0.00     0.019 A 
ATOM     13  O   UNL A   1      32.564  24.394  23.123  1.00  0.00    -0.475 OA
ATOM     14  Cl  UNL A   1      29.482  22.590  27.426  1.00  0.00    -0.084 Cl
ATOM     15  C   UNL A   1      31.583  24.006  26.509  1.00  0.00     0.032 A 
ATOM     16  C   UNL A   1      33.320  25.561  25.626  1.00  0.00     0.027 C 
ATOM     17  C   UNL A   1      32.966  25.824  23.264  1.00  0.00     0.316 C 
BRANCH   8  18
ATOM     18  C   UNL A   1      32.776  21.088  23.992  1.00  0.00    -0.015 A 
ATOM     19  C   UNL A   1      33.849  18.429  24.236  1.00  0.00     0.007 A 
ATOM     20  C   UNL A   1      32.725  18.690  23.446  1.00  0.00     0.015 A 
ATOM     21  C   UNL A   1      34.480  19.512  24.847  1.00  0.00     0.015 A 
ATOM     22  C   UNL A   1      32.213  19.993  23.308  1.00  0.00     0.010 A 
ATOM     23  C   UNL A   1      33.959  20.819  24.718  1.00  0.00     0.010 A 
BRANCH  19  24
ATOM     24  S   UNL A   1      34.266  16.708  24.505  1.00  0.00    -0.126 SA
BRANCH  24  25
ATOM     25  C   UNL A   1      33.078  16.127  25.761  1.00  0.00     0.071 C 
ATOM     26  C   UNL A   1      32.552  14.737  25.461  1.00  0.00     0.016 C 
ENDBRANCH  24  25
ENDBRANCH  19  24
ENDBRANCH   8  18
BRANCH  17  27
ATOM     27  C   UNL A   1      32.530  26.785  22.134  1.00  0.00     0.430 C 
ATOM     28  F   UNL A   1      33.119  26.394  20.971  1.00  0.00    -0.167 F 
ATOM     29  F   UNL A   1      31.194  26.730  21.922  1.00  0.00    -0.167 F 
ATOM     30  F   UNL A   1      32.852  28.076  22.323  1.00  0.00    -0.167 F 
ENDBRANCH  17  27
ENDBRANCH   5   7
ENDBRANCH   4   5
ENDBRANCH   3   4
ENDBRANCH   2   3
ENDBRANCH   1   2
BRANCH   1  31
ATOM     31  C   UNL A   1      33.915  31.845  27.671  1.00  0.00     0.202 C 
BRANCH  31  32
ATOM     32  C   UNL A   1      33.033  33.096  27.708  1.00  0.00     0.261 C 
BRANCH  32  33
ATOM     33  O   UNL A   1      33.728  34.282  28.117  1.00  0.00    -0.460 OA
BRANCH  33  34
ATOM     34  C   UNL A   1      33.575  34.602  29.424  1.00  0.00     0.338 C 
ATOM     35  O   UNL A   1      32.603  35.133  29.950  1.00  0.00    -0.246 OA
BRANCH  34  36
ATOM     36  C   UNL A   1      34.698  34.067  30.205  1.00  0.00     0.060 A 
ATOM     37  C   UNL A   1      35.999  34.387  29.793  1.00  0.00     0.016 A 
ATOM     38  C   UNL A   1      34.477  33.186  31.264  1.00  0.00     0.016 A 
ATOM     39  C   UNL A   1      37.089  33.791  30.419  1.00  0.00     0.010 A 
ATOM     40  C   UNL A   1      35.574  32.584  31.885  1.00  0.00     0.010 A 
ATOM     41  C   UNL A   1      36.880  32.856  31.442  1.00  0.00    -0.014 A 
BRANCH  41  42
ATOM     42  C   UNL A   1      38.022  32.070  31.962  1.00  0.00     0.031 A 
ATOM     43  C   UNL A   1      38.635  32.454  33.280  1.00  0.00     0.074 A 
ATOM     44  C   UNL A   1      38.509  31.031  31.260  1.00  0.00     0.049 A 
ATOM     45  N   UNL A   1      39.669  31.942  33.893  1.00  0.00    -0.248 NA
ATOM     46  C   UNL A   1      38.001  33.570  34.001  1.00  0.00     0.031 C 
ATOM     47  C   UNL A   1      37.993  30.569  29.973  1.00  0.00     0.029 A 
ATOM     48  N   UNL A   1      39.567  30.199  31.520  1.00  0.00    -0.354 N 
ATOM     49  C   UNL A   1      39.831  32.688  35.054  1.00  0.00     0.074 A 
ATOM     50  C   UNL A   1      38.795  33.699  35.053  1.00  0.00     0.031 C 
ATOM     51  C   UNL A   1      38.758  29.555  29.537  1.00  0.00     0.029 A 
ATOM     52  C   UNL A   1      39.833  29.319  30.498  1.00  0.00     0.049 A 
ATOM     53  H   UNL A   1      40.087  30.229  32.355  1.00  0.00     0.167 HD
ATOM     54  C   UNL A   1      40.748  32.536  36.037  1.00  0.00     0.034 A 
ATOM     55  C   UNL A   1      40.847  28.445  30.343  1.00  0.00     0.034 A 
ATOM     56  C   UNL A   1      41.767  31.521  36.034  1.00  0.00     0.049 A 
ATOM     57  C   UNL A   1      41.872  28.312  31.438  1.00  0.00     0.074 A 
ATOM     58  C   UNL A   1      42.719  31.254  37.002  1.00  0.00     0.029 A 
ATOM     59  N   UNL A   1      41.978  30.616  35.005  1.00  0.00    -0.354 N 
ATOM     60  N   UNL A   1      41.949  28.952  32.581  1.00  0.00    -0.248 NA
ATOM     61  C   UNL A   1      42.932  27.314  31.239  1.00  0.00     0.031 C 
ATOM     62  C   UNL A   1      43.528  30.210  36.541  1.00  0.00     0.029 A 
ATOM     63  C   UNL A   1      43.053  29.797  35.307  1.00  0.00     0.049 A 
ATOM     64  H   UNL A   1      41.442  30.562  34.182  1.00  0.00     0.167 HD
ATOM     65  C   UNL A   1      43.038  28.408  33.252  1.00  0.00     0.074 A 
ATOM     66  C   UNL A   1      43.581  27.375  32.394  1.00  0.00     0.031 C 
ATOM     67  C   UNL A   1      43.551  28.741  34.463  1.00  0.00     0.034 A 
BRANCH  54  68
ATOM     68  C   UNL A   1      40.683  33.484  37.207  1.00  0.00     0.023 A 
ATOM     69  C   UNL A   1      41.514  34.623  37.234  1.00  0.00     0.012 A 
ATOM     70  C   UNL A   1      39.767  33.274  38.257  1.00  0.00     0.148 A 
ATOM     71  C   UNL A   1      41.462  35.516  38.304  1.00  0.00     0.002 A 
ATOM     72  C   UNL A   1      39.686  34.195  39.295  1.00  0.00     0.091 A 
ATOM     73  F   UNL A   1      38.999  32.176  38.225  1.00  0.00    -0.205 F 
ATOM     74  C   UNL A   1      40.542  35.308  39.328  1.00  0.00     0.022 A 
BRANCH  72  75
ATOM     75  S   UNL A   1      38.481  34.058  40.620  1.00  0.00     0.127 S 
ATOM     76  O   UNL A   1      39.257  33.378  41.656  1.00  0.00    -0.237 OA
ATOM     77  O   UNL A   1      38.181  35.462  40.906  1.00  0.00    -0.237 OA
ATOM     78  O   UNL A   1      37.366  33.297  40.075  1.00  0.00    -0.744 OA
ENDBRANCH  72  75
ENDBRANCH  54  68
BRANCH  55  79
ATOM     79  C   UNL A   1      40.931  27.617  29.108  1.00  0.00     0.023 A 
ATOM     80  C   UNL A   1      40.119  26.474  28.976  1.00  0.00     0.012 A 
ATOM     81  C   UNL A   1      41.798  27.969  28.055  1.00  0.00     0.148 A 
ATOM     82  C   UNL A   1      40.192  25.680  27.831  1.00  0.00     0.002 A 
ATOM     83  C   UNL A   1      41.824  27.207  26.894  1.00  0.00     0.091 A 
ATOM     84  F   UNL A   1      42.572  29.054  28.207  1.00  0.00    -0.205 F 
ATOM     85  C   UNL A   1      41.035  26.051  26.787  1.00  0.00     0.022 A 
BRANCH  83  86
ATOM     86  S   UNL A   1      42.782  27.680  25.451  1.00  0.00     0.127 S 
ATOM     87  O   UNL A   1      43.996  28.217  26.060  1.00  0.00    -0.237 OA
ATOM     88  O   UNL A   1      42.950  26.396  24.769  1.00  0.00    -0.237 OA
ATOM     89  O   UNL A   1      41.961  28.641  24.728  1.00  0.00    -0.744 OA
ENDBRANCH  83  86
ENDBRANCH  55  79
BRANCH  67  90
ATOM     90  C   UNL A   1      44.734  27.951  34.963  1.00  0.00     0.023 A 
ATOM     91  C   UNL A   1      46.044  28.399  34.705  1.00  0.00     0.012 A 
ATOM     92  C   UNL A   1      44.540  26.799  35.752  1.00  0.00     0.148 A 
ATOM     93  C   UNL A   1      47.144  27.694  35.195  1.00  0.00     0.002 A 
ATOM     94  C   UNL A   1      45.639  26.133  36.282  1.00  0.00     0.091 A 
ATOM     95  F   UNL A   1      43.286  26.379  35.973  1.00  0.00    -0.205 F 
ATOM     96  C   UNL A   1      46.941  26.569  35.992  1.00  0.00     0.022 A 
BRANCH  94  97
ATOM     97  S   UNL A   1      45.473  24.736  37.398  1.00  0.00     0.127 S 
ATOM     98  O   UNL A   1      44.701  23.796  36.587  1.00  0.00    -0.237 OA
ATOM     99  O   UNL A   1      46.867  24.350  37.620  1.00  0.00    -0.237 OA
ATOM    100  O   UNL A   1      44.790  25.244  38.581  1.00  0.00    -0.744 OA
ENDBRANCH  94  97
ENDBRANCH  67  90
ENDBRANCH  41  42
ENDBRANCH  34  36
ENDBRANCH  33  34
ENDBRANCH  32  33
ENDBRANCH  31  32
ENDBRANCH   1  31
TORSDOF 21
ENDMDL
MODEL 2
REMARK VINA RESULT:     -11.6      6.506     10.310
REMARK SMILES CCSc1ccc(-c2cc(Cl)cc3c2O[C@@H](C(F)(F)F)C(C(=O)OCCOCCOC(=O)c2ccc(-c4c5nc(c(-c6cccc(S(=O)(=O)[O-])c6F)c6ccc([nH]6)c(-c6cccc(S(=O)(=O)[O-])c6F)c6nc(c(-c7cccc(S(=O)(=O)[O-])c7F)c7ccc4[nH]7)C=C6)C=C5)cc2)=C3)cc1
REMARK SMILES IDX 27 1 26 2 25 3 24 4 22 5 23 6 21 7 8 8 9 9 14 10 10 11 13 12
REMARK SMILES IDX 15 13 11 14 12 15 96 16 16 17 7 18 4 19 5 20 98 21 6 22
REMARK SMILES IDX 97 23 3 24 2 25 1 26 17 27 18 28 19 29 20 30 28 31 29 32
REMARK SMILES IDX 30 33 31 34 32 35 33 36 34 37 95 38 35 39 94 40 36 41 37 42
REMARK SMILES IDX 38 43 88 44 39 45 93 46 87 47 89 48 40 49 92 50 86 51 85 52
REMARK SMILES IDX 41 54 73 55 53 56 72 57 54 58 57 59 71 60 90 61 55 62 56 63
REMARK SMILES IDX 70 65 91 66 58 67 42 68 43 69 51 70 44 71 46 72 52 73 45 74
REMARK SMILES IDX 47 75 48 76 49 77 50 78 74 79 75 80 83 81 76 82 78 83 84 84
REMARK SMILES IDX 77 85 79 86 80 87 81 88 82 89 59 90 60 91 68 92 61 93 63 94
REMARK SMILES IDX 69 95 62 96 64 97 65 98 66 99 67 100
REMARK H PARENT 89 53 57 64
REMARK Flexibility Score: inf
ROOT
ATOM      1  O   UNL A   1      37.527  20.267  25.109  1.00  0.00    -0.374 OA
ENDROOT
BRANCH   1   2
ATOM      2  C   UNL A   1      37.960  21.620  25.162  1.00  0.00     0.202 C 
BRANCH   2   3
ATOM      3  C   UNL A   1      36.917  22.723  25.408  1.00  0.00     0.261 C 
BRANCH   3   4
ATOM      4  O   UNL A   1      35.563  22.247  25.360  1.00  0.00    -0.460 OA
BRANCH   4   5
ATOM      5  C   UNL A   1      34.709  22.982  24.623  1.00  0.00     0.338 C 
ATOM      6  O   UNL A   1      34.370  22.734  23.474  1.00  0.00    -0.246 OA
BRANCH   5   7
ATOM      7  C   UNL A   1      34.047  24.049  25.411  1.00  0.00     0.087 C 
ATOM      8  C   UNL A   1      30.989  26.069  23.465  1.00  0.00     0.026 A 
ATOM      9  C   UNL A   1      31.251  25.877  22.088  1.00  0.00     0.033 A 
ATOM     10  C   UNL A   1      31.971  25.555  24.335  1.00  0.00     0.135 A 
ATOM     11  C   UNL A   1      32.534  25.566  21.639  1.00  0.00     0.042 A 
ATOM     12  C   UNL A   1      33.304  25.512  23.899  1.00  0.00     0.019 A 
ATOM     13  O   UNL A   1      31.598  24.660  25.357  1.00  0.00    -0.475 OA
ATOM     14  Cl  UNL A   1      32.830  25.407  19.954  1.00  0.00    -0.084 Cl
ATOM     15  C   UNL A   1      33.586  25.487  22.538  1.00  0.00     0.032 A 
ATOM     16  C   UNL A   1      34.362  25.250  24.896  1.00  0.00     0.027 C 
ATOM     17  C   UNL A   1      32.705  24.006  26.113  1.00  0.00     0.316 C 
BRANCH   8  18
ATOM     18  C   UNL A   1      30.206  27.336  23.734  1.00  0.00    -0.015 A 
ATOM     19  C   UNL A   1      28.917  29.875  23.319  1.00  0.00     0.007 A 
ATOM     20  C   UNL A   1      28.219  28.673  23.170  1.00  0.00     0.015 A 
ATOM     21  C   UNL A   1      30.243  29.810  23.747  1.00  0.00     0.015 A 
ATOM     22  C   UNL A   1      28.842  27.432  23.395  1.00  0.00     0.010 A 
ATOM     23  C   UNL A   1      30.872  28.562  23.961  1.00  0.00     0.010 A 
BRANCH  19  24
ATOM     24  S   UNL A   1      28.078  31.367  22.793  1.00  0.00    -0.126 SA
BRANCH  24  25
ATOM     25  C   UNL A   1      27.940  31.215  20.980  1.00  0.00     0.071 C 
ATOM     26  C   UNL A   1      27.883  32.564  20.289  1.00  0.00     0.016 C 
ENDBRANCH  24  25
ENDBRANCH  19  24
ENDBRANCH   8  18
BRANCH  17  27
ATOM     27  C   UNL A   1      32.370  22.675  26.826  1.00  0.00     0.430 C 
ATOM     28  F   UNL A   1      33.384  22.364  27.679  1.00  0.00    -0.167 F 
ATOM     29  F   UNL A   1      31.254  22.784  27.583  1.00  0.00    -0.167 F 
ATOM     30  F   UNL A   1      32.201  21.617  26.014  1.00  0.00    -0.167 F 
ENDBRANCH  17  27
ENDBRANCH   5   7
ENDBRANCH   4   5
ENDBRANCH   3   4
ENDBRANCH   2   3
ENDBRANCH   1   2
BRANCH   1  31
ATOM     31  C   UNL A   1      38.499  19.242  25.296  1.00  0.00     0.202 C 
BRANCH  31  32
ATOM     32  C   UNL A   1      39.771  19.562  26.087  1.00  0.00     0.261 C 
BRANCH  32  33
ATOM     33  O   UNL A   1      40.982  19.238  25.389  1.00  0.00    -0.460 OA
BRANCH  33  34
ATOM     34  C   UNL A   1      42.115  19.431  26.105  1.00  0.00     0.338 C 
ATOM     35  O   UNL A   1      43.012  18.621  26.308  1.00  0.00    -0.246 OA
BRANCH  34  36
ATOM     36  C   UNL A   1      42.226  20.843  26.495  1.00  0.00     0.060 A 
ATOM     37  C   UNL A   1      42.284  21.805  25.478  1.00  0.00     0.016 A 
ATOM     38  C   UNL A   1      42.372  21.205  27.834  1.00  0.00     0.016 A 
ATOM     39  C   UNL A   1      42.529  23.137  25.798  1.00  0.00     0.010 A 
ATOM     40  C   UNL A   1      42.626  22.541  28.152  1.00  0.00     0.010 A 
ATOM     41  C   UNL A   1      42.740  23.505  27.134  1.00  0.00    -0.014 A 
BRANCH  41  42
ATOM     42  C   UNL A   1      43.205  24.874  27.453  1.00  0.00     0.031 A 
ATOM     43  C   UNL A   1      42.229  25.864  28.023  1.00  0.00     0.074 A 
ATOM     44  C   UNL A   1      44.484  25.228  27.227  1.00  0.00     0.049 A 
ATOM     45  N   UNL A   1      42.406  27.123  28.323  1.00  0.00    -0.248 NA
ATOM     46  C   UNL A   1      40.867  25.370  28.285  1.00  0.00     0.031 C 
ATOM     47  C   UNL A   1      45.516  24.350  26.680  1.00  0.00     0.029 A 
ATOM     48  N   UNL A   1      45.119  26.430  27.404  1.00  0.00    -0.354 N 
ATOM     49  C   UNL A   1      41.177  27.582  28.778  1.00  0.00     0.074 A 
ATOM     50  C   UNL A   1      40.256  26.469  28.703  1.00  0.00     0.031 C 
ATOM     51  C   UNL A   1      46.651  25.054  26.533  1.00  0.00     0.029 A 
ATOM     52  C   UNL A   1      46.415  26.435  26.945  1.00  0.00     0.049 A 
ATOM     53  H   UNL A   1      44.689  27.213  27.817  1.00  0.00     0.167 HD
ATOM     54  C   UNL A   1      40.848  28.814  29.232  1.00  0.00     0.034 A 
ATOM     55  C   UNL A   1      47.297  27.448  26.842  1.00  0.00     0.034 A 
ATOM     56  C   UNL A   1      41.773  29.913  29.313  1.00  0.00     0.049 A 
ATOM     57  C   UNL A   1      46.900  28.817  27.328  1.00  0.00     0.074 A 
ATOM     58  C   UNL A   1      41.553  31.190  29.797  1.00  0.00     0.029 A 
ATOM     59  N   UNL A   1      43.091  29.870  28.884  1.00  0.00    -0.354 N 
ATOM     60  N   UNL A   1      45.766  29.210  27.858  1.00  0.00    -0.248 NA
ATOM     61  C   UNL A   1      47.915  29.876  27.234  1.00  0.00     0.031 C 
ATOM     62  C   UNL A   1      42.728  31.930  29.627  1.00  0.00     0.029 A 
ATOM     63  C   UNL A   1      43.694  31.101  29.079  1.00  0.00     0.049 A 
ATOM     64  H   UNL A   1      43.533  29.080  28.498  1.00  0.00     0.167 HD
ATOM     65  C   UNL A   1      45.943  30.547  28.194  1.00  0.00     0.074 A 
ATOM     66  C   UNL A   1      47.301  30.892  27.824  1.00  0.00     0.031 C 
ATOM     67  C   UNL A   1      45.060  31.415  28.748  1.00  0.00     0.034 A 
BRANCH  54  68
ATOM     68  C   UNL A   1      39.429  29.037  29.688  1.00  0.00     0.023 A 
ATOM     69  C   UNL A   1      39.040  28.645  30.986  1.00  0.00     0.012 A 
ATOM     70  C   UNL A   1      38.493  29.676  28.851  1.00  0.00     0.148 A 
ATOM     71  C   UNL A   1      37.734  28.851  31.429  1.00  0.00     0.002 A 
ATOM     72  C   UNL A   1      37.207  29.922  29.318  1.00  0.00     0.091 A 
ATOM     73  F   UNL A   1      38.874  30.023  27.614  1.00  0.00    -0.205 F 
ATOM     74  C   UNL A   1      36.822  29.498  30.600  1.00  0.00     0.022 A 
BRANCH  72  75
ATOM     75  S   UNL A   1      35.982  30.818  28.357  1.00  0.00     0.127 S 
ATOM     76  O   UNL A   1      36.596  32.141  28.256  1.00  0.00    -0.237 OA
ATOM     77  O   UNL A   1      35.961  30.059  27.105  1.00  0.00    -0.237 OA
ATOM     78  O   UNL A   1      34.746  30.761  29.124  1.00  0.00    -0.744 OA
ENDBRANCH  72  75
ENDBRANCH  54  68
BRANCH  55  79
ATOM     79  C   UNL A   1      48.649  27.199  26.270  1.00  0.00     0.023 A 
ATOM     80  C   UNL A   1      49.663  26.655  27.081  1.00  0.00     0.012 A 
ATOM     81  C   UNL A   1      48.928  27.479  24.917  1.00  0.00     0.148 A 
ATOM     82  C   UNL A   1      50.939  26.425  26.566  1.00  0.00     0.002 A 
ATOM     83  C   UNL A   1      50.183  27.193  24.394  1.00  0.00     0.091 A 
ATOM     84  F   UNL A   1      47.952  28.007  24.165  1.00  0.00    -0.205 F 
ATOM     85  C   UNL A   1      51.196  26.683  25.222  1.00  0.00     0.022 A 
BRANCH  83  86
ATOM     86  S   UNL A   1      50.565  27.373  22.650  1.00  0.00     0.127 S 
ATOM     87  O   UNL A   1      51.881  26.745  22.564  1.00  0.00    -0.237 OA
ATOM     88  O   UNL A   1      49.479  26.617  22.025  1.00  0.00    -0.237 OA
ATOM     89  O   UNL A   1      50.531  28.805  22.383  1.00  0.00    -0.744 OA
ENDBRANCH  83  86
ENDBRANCH  55  79
BRANCH  67  90
ATOM     90  C   UNL A   1      45.542  32.815  29.037  1.00  0.00     0.023 A 
ATOM     91  C   UNL A   1      46.248  33.088  30.224  1.00  0.00     0.012 A 
ATOM     92  C   UNL A   1      45.356  33.842  28.090  1.00  0.00     0.148 A 
ATOM     93  C   UNL A   1      46.730  34.372  30.483  1.00  0.00     0.002 A 
ATOM     94  C   UNL A   1      45.885  35.104  28.329  1.00  0.00     0.091 A 
ATOM     95  F   UNL A   1      44.668  33.565  26.973  1.00  0.00    -0.205 F 
ATOM     96  C   UNL A   1      46.559  35.376  29.531  1.00  0.00     0.022 A 
BRANCH  94  97
ATOM     97  S   UNL A   1      45.802  36.430  27.120  1.00  0.00     0.127 S 
ATOM     98  O   UNL A   1      46.611  37.467  27.759  1.00  0.00    -0.237 OA
ATOM     99  O   UNL A   1      46.416  35.814  25.943  1.00  0.00    -0.237 OA
ATOM    100  O   UNL A   1      44.388  36.749  26.968  1.00  0.00    -0.744 OA
ENDBRANCH  94  97
ENDBRANCH  67  90
ENDBRANCH  41  42
ENDBRANCH  34  36
ENDBRANCH  33  34
ENDBRANCH  32  33
ENDBRANCH  31  32
ENDBRANCH   1  31
TORSDOF 21
ENDMDL
MODEL 3
REMARK VINA RESULT:     -11.5      6.008     11.034
REMARK SMILES CCSc1ccc(-c2cc(Cl)cc3c2O[C@@H](C(F)(F)F)C(C(=O)OCCOCCOC(=O)c2ccc(-c4c5nc(c(-c6cccc(S(=O)(=O)[O-])c6F)c6ccc([nH]6)c(-c6cccc(S(=O)(=O)[O-])c6F)c6nc(c(-c7cccc(S(=O)(=O)[O-])c7F)c7ccc4[nH]7)C=C6)C=C5)cc2)=C3)cc1
REMARK SMILES IDX 27 1 26 2 25 3 24 4 22 5 23 6 21 7 8 8 9 9 14 10 10 11 13 12
REMARK SMILES IDX 15 13 11 14 12 15 96 16 16 17 7 18 4 19 5 20 98 21 6 22
REMARK SMILES IDX 97 23 3 24 2 25 1 26 17 27 18 28 19 29 20 30 28 31 29 32
REMARK SMILES IDX 30 33 31 34 32 35 33 36 34 37 95 38 35 39 94 40 36 41 37 42
REMARK SMILES IDX 38 43 88 44 39 45 93 46 87 47 89 48 40 49 92 50 86 51 85 52
REMARK SMILES IDX 41 54 73 55 53 56 72 57 54 58 57 59 71 60 90 61 55 62 56 63
REMARK SMILES IDX 70 65 91 66 58 67 42 68 43 69 51 70 44 71 46 72 52 73 45 74
REMARK SMILES IDX 47 75 48 76 49 77 50 78 74 79 75 80 83 81 76 82 78 83 84 84
REMARK SMILES IDX 77 85 79 86 80 87 81 88 82 89 59 90 60 91 68 92 61 93 63 94
REMARK SMILES IDX 69 95 62 96 64 97 65 98 66 99 67 100
REMARK H PARENT 89 53 57 64
REMARK Flexibility Score: inf
ROOT
ATOM      1  O   UNL A   1      36.598  21.148  24.538  1.00  0.00    -0.374 OA
ENDROOT
BRANCH   1   2
ATOM      2  C   UNL A   1      35.590  21.194  25.540  1.00  0.00     0.202 C 
BRANCH   2   3
ATOM      3  C   UNL A   1      35.314  22.528  26.251  1.00  0.00     0.261 C 
BRANCH   3   4
ATOM      4  O   UNL A   1      34.109  23.172  25.809  1.00  0.00    -0.460 OA
BRANCH   4   5
ATOM      5  C   UNL A   1      32.966  22.707  26.346  1.00  0.00     0.338 C 
ATOM      6  O   UNL A   1      32.850  22.245  27.474  1.00  0.00    -0.246 OA
BRANCH   5   7
ATOM      7  C   UNL A   1      31.781  22.984  25.499  1.00  0.00     0.087 C 
ATOM      8  C   UNL A   1      31.659  26.757  23.776  1.00  0.00     0.026 A 
ATOM      9  C   UNL A   1      32.495  27.552  24.595  1.00  0.00     0.033 A 
ATOM     10  C   UNL A   1      31.457  25.439  24.234  1.00  0.00     0.135 A 
ATOM     11  C   UNL A   1      32.763  27.189  25.914  1.00  0.00     0.042 A 
ATOM     12  C   UNL A   1      31.487  25.192  25.615  1.00  0.00     0.019 A 
ATOM     13  O   UNL A   1      31.733  24.354  23.379  1.00  0.00    -0.475 OA
ATOM     14  Cl  UNL A   1      33.726  28.214  26.899  1.00  0.00    -0.084 Cl
ATOM     15  C   UNL A   1      32.171  26.060  26.458  1.00  0.00     0.032 A 
ATOM     16  C   UNL A   1      30.995  23.889  26.107  1.00  0.00     0.027 C 
ATOM     17  C   UNL A   1      31.686  22.992  23.987  1.00  0.00     0.316 C 
BRANCH   8  18
ATOM     18  C   UNL A   1      30.601  27.571  23.064  1.00  0.00    -0.015 A 
ATOM     19  C   UNL A   1      28.669  29.632  22.514  1.00  0.00     0.007 A 
ATOM     20  C   UNL A   1      30.001  29.756  22.106  1.00  0.00     0.015 A 
ATOM     21  C   UNL A   1      28.287  28.443  23.135  1.00  0.00     0.015 A 
ATOM     22  C   UNL A   1      30.941  28.739  22.354  1.00  0.00     0.010 A 
ATOM     23  C   UNL A   1      29.234  27.426  23.394  1.00  0.00     0.010 A 
BRANCH  19  24
ATOM     24  S   UNL A   1      27.631  31.080  22.335  1.00  0.00    -0.126 SA
BRANCH  24  25
ATOM     25  C   UNL A   1      28.782  32.438  21.937  1.00  0.00     0.071 C 
ATOM     26  C   UNL A   1      28.960  33.402  23.094  1.00  0.00     0.016 C 
ENDBRANCH  24  25
ENDBRANCH  19  24
ENDBRANCH   8  18
BRANCH  17  27
ATOM     27  C   UNL A   1      32.480  21.879  23.265  1.00  0.00     0.430 C 
ATOM     28  F   UNL A   1      32.501  20.770  24.053  1.00  0.00    -0.167 F 
ATOM     29  F   UNL A   1      31.882  21.513  22.107  1.00  0.00    -0.167 F 
ATOM     30  F   UNL A   1      33.757  22.181  22.976  1.00  0.00    -0.167 F 
ENDBRANCH  17  27
ENDBRANCH   5   7
ENDBRANCH   4   5
ENDBRANCH   3   4
ENDBRANCH   2   3
ENDBRANCH   1   2
BRANCH   1  31
ATOM     31  C   UNL A   1      37.788  20.413  24.815  1.00  0.00     0.202 C 
BRANCH  31  32
ATOM     32  C   UNL A   1      38.630  20.798  26.034  1.00  0.00     0.261 C 
BRANCH  32  33
ATOM     33  O   UNL A   1      40.028  20.514  25.883  1.00  0.00    -0.460 OA
BRANCH  33  34
ATOM     34  C   UNL A   1      40.735  20.532  27.038  1.00  0.00     0.338 C 
ATOM     35  O   UNL A   1      40.955  19.587  27.789  1.00  0.00    -0.246 OA
BRANCH  34  36
ATOM     36  C   UNL A   1      41.376  21.841  27.212  1.00  0.00     0.060 A 
ATOM     37  C   UNL A   1      41.735  22.232  28.509  1.00  0.00     0.016 A 
ATOM     38  C   UNL A   1      41.530  22.712  26.133  1.00  0.00     0.016 A 
ATOM     39  C   UNL A   1      42.216  23.517  28.737  1.00  0.00     0.010 A 
ATOM     40  C   UNL A   1      42.005  24.004  26.366  1.00  0.00     0.010 A 
ATOM     41  C   UNL A   1      42.316  24.422  27.672  1.00  0.00    -0.014 A 
BRANCH  41  42
ATOM     42  C   UNL A   1      42.627  25.844  27.945  1.00  0.00     0.031 A 
ATOM     43  C   UNL A   1      44.035  26.336  27.756  1.00  0.00     0.074 A 
ATOM     44  C   UNL A   1      41.661  26.683  28.364  1.00  0.00     0.049 A 
ATOM     45  N   UNL A   1      44.537  27.520  27.987  1.00  0.00    -0.248 NA
ATOM     46  C   UNL A   1      45.010  25.359  27.244  1.00  0.00     0.031 C 
ATOM     47  C   UNL A   1      40.263  26.316  28.579  1.00  0.00     0.029 A 
ATOM     48  N   UNL A   1      41.723  28.008  28.711  1.00  0.00    -0.354 N 
ATOM     49  C   UNL A   1      45.888  27.426  27.681  1.00  0.00     0.074 A 
ATOM     50  C   UNL A   1      46.132  26.063  27.259  1.00  0.00     0.031 C 
ATOM     51  C   UNL A   1      39.602  27.385  29.055  1.00  0.00     0.029 A 
ATOM     52  C   UNL A   1      40.537  28.497  29.207  1.00  0.00     0.049 A 
ATOM     53  H   UNL A   1      42.535  28.555  28.616  1.00  0.00     0.167 HD
ATOM     54  C   UNL A   1      46.837  28.389  27.731  1.00  0.00     0.034 A 
ATOM     55  C   UNL A   1      40.250  29.696  29.751  1.00  0.00     0.034 A 
ATOM     56  C   UNL A   1      46.583  29.745  28.142  1.00  0.00     0.049 A 
ATOM     57  C   UNL A   1      41.329  30.745  29.822  1.00  0.00     0.074 A 
ATOM     58  C   UNL A   1      47.465  30.810  28.188  1.00  0.00     0.029 A 
ATOM     59  N   UNL A   1      45.360  30.218  28.593  1.00  0.00    -0.354 N 
ATOM     60  N   UNL A   1      42.578  30.674  29.426  1.00  0.00    -0.248 NA
ATOM     61  C   UNL A   1      40.952  32.050  30.382  1.00  0.00     0.031 C 
ATOM     62  C   UNL A   1      46.784  31.918  28.702  1.00  0.00     0.029 A 
ATOM     63  C   UNL A   1      45.466  31.556  28.933  1.00  0.00     0.049 A 
ATOM     64  H   UNL A   1      44.538  29.682  28.661  1.00  0.00     0.167 HD
ATOM     65  C   UNL A   1      43.123  31.933  29.654  1.00  0.00     0.074 A 
ATOM     66  C   UNL A   1      42.063  32.751  30.206  1.00  0.00     0.031 C 
ATOM     67  C   UNL A   1      44.389  32.369  29.437  1.00  0.00     0.034 A 
BRANCH  54  68
ATOM     68  C   UNL A   1      48.238  28.015  27.319  1.00  0.00     0.023 A 
ATOM     69  C   UNL A   1      49.195  27.690  28.304  1.00  0.00     0.012 A 
ATOM     70  C   UNL A   1      48.594  27.939  25.958  1.00  0.00     0.148 A 
ATOM     71  C   UNL A   1      50.493  27.332  27.941  1.00  0.00     0.002 A 
ATOM     72  C   UNL A   1      49.876  27.534  25.605  1.00  0.00     0.091 A 
ATOM     73  F   UNL A   1      47.679  28.270  25.038  1.00  0.00    -0.205 F 
ATOM     74  C   UNL A   1      50.830  27.244  26.594  1.00  0.00     0.022 A 
BRANCH  72  75
ATOM     75  S   UNL A   1      50.386  27.313  23.896  1.00  0.00     0.127 S 
ATOM     76  O   UNL A   1      49.249  26.580  23.341  1.00  0.00    -0.237 OA
ATOM     77  O   UNL A   1      50.505  28.695  23.432  1.00  0.00    -0.237 OA
ATOM     78  O   UNL A   1      51.640  26.576  23.941  1.00  0.00    -0.744 OA
ENDBRANCH  72  75
ENDBRANCH  54  68
BRANCH  55  79
ATOM     79  C   UNL A   1      38.876  29.973  30.254  1.00  0.00     0.023 A 
ATOM     80  C   UNL A   1      38.488  29.502  31.523  1.00  0.00     0.012 A 
ATOM     81  C   UNL A   1      37.960  30.720  29.489  1.00  0.00     0.148 A 
ATOM     82  C   UNL A   1      37.202  29.741  32.007  1.00  0.00     0.002 A 
ATOM     83  C   UNL A   1      36.700  31.005  30.000  1.00  0.00     0.091 A 
ATOM     84  F   UNL A   1      38.346  31.149  28.278  1.00  0.00    -0.205 F 
ATOM     85  C   UNL A   1      36.312  30.501  31.252  1.00  0.00     0.022 A 
BRANCH  83  86
ATOM     86  S   UNL A   1      35.537  32.081  29.155  1.00  0.00     0.127 S 
ATOM     87  O   UNL A   1      34.540  32.321  30.196  1.00  0.00    -0.237 OA
ATOM     88  O   UNL A   1      36.376  33.233  28.829  1.00  0.00    -0.237 OA
ATOM     89  O   UNL A   1      35.072  31.329  27.998  1.00  0.00    -0.744 OA
ENDBRANCH  83  86
ENDBRANCH  55  79
BRANCH  67  90
ATOM     90  C   UNL A   1      44.695  33.812  29.751  1.00  0.00     0.023 A 
ATOM     91  C   UNL A   1      45.181  34.172  31.022  1.00  0.00     0.012 A 
ATOM     92  C   UNL A   1      44.567  34.801  28.754  1.00  0.00     0.148 A 
ATOM     93  C   UNL A   1      45.501  35.499  31.309  1.00  0.00     0.002 A 
ATOM     94  C   UNL A   1      44.939  36.111  29.030  1.00  0.00     0.091 A 
ATOM     95  F   UNL A   1      44.087  34.442  27.554  1.00  0.00    -0.205 F 
ATOM     96  C   UNL A   1      45.391  36.465  30.311  1.00  0.00     0.022 A 
BRANCH  94  97
ATOM     97  S   UNL A   1      44.926  37.401  27.781  1.00  0.00     0.127 S 
ATOM     98  O   UNL A   1      45.859  36.865  26.790  1.00  0.00    -0.237 OA
ATOM     99  O   UNL A   1      43.524  37.408  27.358  1.00  0.00    -0.237 OA
ATOM    100  O   UNL A   1      45.362  38.618  28.453  1.00  0.00    -0.744 OA
ENDBRANCH  94  97
ENDBRANCH  67  90
ENDBRANCH  41  42
ENDBRANCH  34  36
ENDBRANCH  33  34
ENDBRANCH  32  33
ENDBRANCH  31  32
ENDBRANCH   1  31
TORSDOF 21
ENDMDL
