MODEL 1
REMARK VINA RESULT:      -9.4      0.000      0.000
REMARK SMILES CN(C)S(=O)(=O)c1ccc(-n2c(CCC(=O)OCCOCCOC(=O)c3ccc(-c4c5nc(c(-c6cccc(S(=O)(=O)[O-])c6F)c6ccc([nH]6)c(-c6cccc(S(=O)(=O)[O-])c6F)c6nc(c(-c7cccc(S(=O)(=O)[O-])c7F)c7ccc4[nH]7)C=C6)C=C5)cc3)ccc2-c2ccc(F)cc2)cc1
REMARK SMILES IDX 19 1 18 2 17 3 15 4 16 5 14 6 13 7 12 8 11 9 91 10 89 11
REMARK SMILES IDX 90 12 10 13 7 14 8 15 100 16 9 17 99 18 4 19 5 20 6 21 2 22
REMARK SMILES IDX 1 23 3 24 92 25 93 26 98 27 94 28 97 29 95 30 96 31 20 32
REMARK SMILES IDX 21 33 22 34 23 35 24 36 25 37 26 38 27 39 88 40 28 41 87 42
REMARK SMILES IDX 29 43 30 44 31 45 81 46 32 47 86 48 80 49 82 50 33 51 85 52
REMARK SMILES IDX 79 53 78 54 34 56 66 57 46 58 65 59 47 60 50 61 64 62 83 63
REMARK SMILES IDX 48 64 49 65 63 67 84 68 51 69 35 70 36 71 44 72 37 73 39 74
REMARK SMILES IDX 45 75 38 76 40 77 41 78 42 79 43 80 67 81 68 82 76 83 69 84
REMARK SMILES IDX 71 85 77 86 70 87 72 88 73 89 74 90 75 91 52 92 53 93 61 94
REMARK SMILES IDX 54 95 56 96 62 97 55 98 57 99 58 100 59 101 60 102
REMARK H PARENT 82 55 50 66
REMARK Flexibility Score: inf
ROOT
ATOM      1  C   UNL A   1      48.069  27.698  26.262  1.00  0.00     0.202 C 
ENDROOT
BRANCH   1   2
ATOM      2  C   UNL A   1      47.264  26.637  25.147  1.00  0.00     0.261 C 
BRANCH   2   3
ATOM      3  O   UNL A   1      46.328  25.636  25.640  1.00  0.00    -0.463 OA
BRANCH   3   4
ATOM      4  C   UNL A   1      45.023  25.775  25.274  1.00  0.00     0.306 C 
ATOM      5  O   UNL A   1      44.282  24.824  25.040  1.00  0.00    -0.252 OA
BRANCH   4   6
ATOM      6  C   UNL A   1      44.502  27.217  25.255  1.00  0.00     0.129 C 
BRANCH   6   7
ATOM      7  C   UNL A   1      44.168  27.964  26.557  1.00  0.00     0.066 C 
BRANCH   7   8
ATOM      8  C   UNL A   1      42.713  28.083  26.810  1.00  0.00     0.024 A 
ATOM      9  N   UNL A   1      42.064  27.651  27.961  1.00  0.00    -0.314 N 
ATOM     10  C   UNL A   1      40.770  28.220  27.933  1.00  0.00     0.053 A 
ATOM     11  C   UNL A   1      41.762  28.581  25.940  1.00  0.00     0.024 A 
ATOM     12  C   UNL A   1      40.550  28.664  26.639  1.00  0.00     0.029 A 
BRANCH   9  13
ATOM     13  C   UNL A   1      42.631  26.859  29.019  1.00  0.00     0.046 A 
ATOM     14  C   UNL A   1      44.331  25.207  31.755  1.00  0.00     0.082 A 
ATOM     15  C   UNL A   1      43.889  26.926  31.862  1.00  0.00     0.024 A 
ATOM     16  C   UNL A   1      43.985  24.264  30.249  1.00  0.00     0.024 A 
ATOM     17  C   UNL A   1      43.037  27.750  30.523  1.00  0.00     0.028 A 
ATOM     18  C   UNL A   1      43.070  25.077  28.887  1.00  0.00     0.028 A 
BRANCH  14  19
ATOM     19  S   UNL A   1      44.956  24.321  33.150  1.00  0.00     0.242 S 
ATOM     20  O   UNL A   1      46.317  24.777  33.355  1.00  0.00    -0.207 OA
ATOM     21  O   UNL A   1      44.689  22.921  32.877  1.00  0.00    -0.207 OA
BRANCH  19  22
ATOM     22  N   UNL A   1      44.052  24.765  34.537  1.00  0.00    -0.204 NA
ATOM     23  C   UNL A   1      42.891  23.873  34.791  1.00  0.00     0.124 C 
ATOM     24  C   UNL A   1      44.812  24.957  35.793  1.00  0.00     0.124 C 
ENDBRANCH  19  22
ENDBRANCH  14  19
ENDBRANCH   9  13
BRANCH  10  25
ATOM     25  C   UNL A   1      39.833  28.419  29.056  1.00  0.00    -0.001 A 
ATOM     26  C   UNL A   1      39.339  27.318  29.777  1.00  0.00     0.013 A 
ATOM     27  C   UNL A   1      39.368  29.700  29.393  1.00  0.00     0.013 A 
ATOM     28  C   UNL A   1      38.462  27.505  30.852  1.00  0.00     0.040 A 
ATOM     29  C   UNL A   1      38.505  29.889  30.478  1.00  0.00     0.040 A 
ATOM     30  C   UNL A   1      38.067  28.789  31.203  1.00  0.00     0.123 A 
ATOM     31  F   UNL A   1      37.246  28.973  32.246  1.00  0.00    -0.207 F 
ENDBRANCH  10  25
ENDBRANCH   7   8
ENDBRANCH   6   7
ENDBRANCH   4   6
ENDBRANCH   3   4
ENDBRANCH   2   3
ENDBRANCH   1   2
BRANCH   1  32
ATOM     32  O   UNL A   1      47.938  29.676  26.525  1.00  0.00    -0.374 OA
BRANCH  32  33
ATOM     33  C   UNL A   1      47.946  30.862  27.543  1.00  0.00     0.202 C 
BRANCH  33  34
ATOM     34  C   UNL A   1      47.758  32.234  26.889  1.00  0.00     0.261 C 
BRANCH  34  35
ATOM     35  O   UNL A   1      46.587  32.901  27.287  1.00  0.00    -0.460 OA
BRANCH  35  36
ATOM     36  C   UNL A   1      45.463  32.394  26.736  1.00  0.00     0.338 C 
ATOM     37  O   UNL A   1      45.266  32.057  25.592  1.00  0.00    -0.246 OA
BRANCH  36  38
ATOM     38  C   UNL A   1      44.438  32.393  27.776  1.00  0.00     0.060 A 
ATOM     39  C   UNL A   1      44.428  33.450  28.691  1.00  0.00     0.016 A 
ATOM     40  C   UNL A   1      43.632  31.264  27.924  1.00  0.00     0.016 A 
ATOM     41  C   UNL A   1      43.682  33.324  29.842  1.00  0.00     0.010 A 
ATOM     42  C   UNL A   1      42.943  31.118  29.096  1.00  0.00     0.010 A 
ATOM     43  C   UNL A   1      42.994  32.128  30.056  1.00  0.00    -0.014 A 
BRANCH  43  44
ATOM     44  C   UNL A   1      42.174  31.963  31.255  1.00  0.00     0.031 A 
ATOM     45  C   UNL A   1      42.958  31.110  32.296  1.00  0.00     0.074 A 
ATOM     46  C   UNL A   1      40.960  32.610  31.187  1.00  0.00     0.049 A 
ATOM     47  N   UNL A   1      42.543  30.492  33.355  1.00  0.00    -0.248 NA
ATOM     48  C   UNL A   1      44.425  30.846  32.111  1.00  0.00     0.031 C 
ATOM     49  C   UNL A   1      40.501  33.477  30.062  1.00  0.00     0.029 A 
ATOM     50  N   UNL A   1      39.869  32.710  32.024  1.00  0.00    -0.354 N 
ATOM     51  C   UNL A   1      43.690  30.107  34.102  1.00  0.00     0.074 A 
ATOM     52  C   UNL A   1      44.801  30.210  33.221  1.00  0.00     0.031 C 
ATOM     53  C   UNL A   1      39.222  33.890  30.235  1.00  0.00     0.029 A 
ATOM     54  C   UNL A   1      38.728  33.402  31.507  1.00  0.00     0.049 A 
ATOM     55  H   UNL A   1      39.874  32.325  32.930  1.00  0.00     0.167 HD
ATOM     56  C   UNL A   1      43.644  29.931  35.457  1.00  0.00     0.034 A 
ATOM     57  C   UNL A   1      37.483  33.540  32.079  1.00  0.00     0.034 A 
ATOM     58  C   UNL A   1      42.289  30.084  35.872  1.00  0.00     0.049 A 
ATOM     59  C   UNL A   1      37.713  33.150  33.470  1.00  0.00     0.074 A 
ATOM     60  C   UNL A   1      41.187  29.301  35.657  1.00  0.00     0.029 A 
ATOM     61  N   UNL A   1      41.914  31.377  36.163  1.00  0.00    -0.354 N 
ATOM     62  N   UNL A   1      38.362  33.885  34.324  1.00  0.00    -0.248 NA
ATOM     63  C   UNL A   1      37.332  31.804  33.904  1.00  0.00     0.031 C 
ATOM     64  C   UNL A   1      40.222  30.258  35.302  1.00  0.00     0.029 A 
ATOM     65  C   UNL A   1      40.649  31.542  35.673  1.00  0.00     0.049 A 
ATOM     66  H   UNL A   1      42.453  32.052  36.635  1.00  0.00     0.167 HD
ATOM     67  C   UNL A   1      38.812  32.938  35.201  1.00  0.00     0.074 A 
ATOM     68  C   UNL A   1      37.883  31.826  35.113  1.00  0.00     0.031 C 
ATOM     69  C   UNL A   1      40.141  32.873  35.490  1.00  0.00     0.034 A 
BRANCH  56  70
ATOM     70  C   UNL A   1      44.670  29.916  36.566  1.00  0.00     0.023 A 
ATOM     71  C   UNL A   1      45.592  31.003  36.536  1.00  0.00     0.012 A 
ATOM     72  C   UNL A   1      45.005  28.814  37.368  1.00  0.00     0.148 A 
ATOM     73  C   UNL A   1      46.863  30.924  37.096  1.00  0.00     0.002 A 
ATOM     74  C   UNL A   1      46.257  28.770  37.991  1.00  0.00     0.091 A 
ATOM     75  F   UNL A   1      44.153  27.789  37.473  1.00  0.00    -0.205 F 
ATOM     76  C   UNL A   1      47.203  29.792  37.807  1.00  0.00     0.022 A 
BRANCH  74  77
ATOM     77  S   UNL A   1      46.776  27.422  39.058  1.00  0.00     0.127 S 
ATOM     78  O   UNL A   1      47.973  27.973  39.686  1.00  0.00    -0.237 OA
ATOM     79  O   UNL A   1      45.625  27.293  39.954  1.00  0.00    -0.237 OA
ATOM     80  O   UNL A   1      46.976  26.277  38.179  1.00  0.00    -0.744 OA
ENDBRANCH  74  77
ENDBRANCH  56  70
BRANCH  57  81
ATOM     81  C   UNL A   1      36.047  33.910  31.743  1.00  0.00     0.023 A 
ATOM     82  C   UNL A   1      35.271  34.858  32.417  1.00  0.00     0.012 A 
ATOM     83  C   UNL A   1      35.449  33.362  30.556  1.00  0.00     0.148 A 
ATOM     84  C   UNL A   1      34.036  35.304  31.880  1.00  0.00     0.002 A 
ATOM     85  C   UNL A   1      34.321  33.907  29.953  1.00  0.00     0.091 A 
ATOM     86  F   UNL A   1      35.953  32.254  30.006  1.00  0.00    -0.205 F 
ATOM     87  C   UNL A   1      33.592  34.877  30.624  1.00  0.00     0.022 A 
BRANCH  85  88
ATOM     88  S   UNL A   1      33.881  33.520  28.242  1.00  0.00     0.127 S 
ATOM     89  O   UNL A   1      32.614  34.228  28.073  1.00  0.00    -0.237 OA
ATOM     90  O   UNL A   1      35.011  34.098  27.514  1.00  0.00    -0.237 OA
ATOM     91  O   UNL A   1      33.793  32.068  28.157  1.00  0.00    -0.744 OA
ENDBRANCH  85  88
ENDBRANCH  57  81
BRANCH  69  92
ATOM     92  C   UNL A   1      40.921  34.189  35.348  1.00  0.00     0.023 A 
ATOM     93  C   UNL A   1      40.392  35.279  36.077  1.00  0.00     0.012 A 
ATOM     94  C   UNL A   1      42.038  34.464  34.511  1.00  0.00     0.148 A 
ATOM     95  C   UNL A   1      40.901  36.575  35.970  1.00  0.00     0.002 A 
ATOM     96  C   UNL A   1      42.544  35.776  34.399  1.00  0.00     0.091 A 
ATOM     97  F   UNL A   1      42.600  33.462  33.827  1.00  0.00    -0.205 F 
ATOM     98  C   UNL A   1      41.971  36.825  35.130  1.00  0.00     0.022 A 
BRANCH  96  99
ATOM     99  S   UNL A   1      43.904  36.293  33.327  1.00  0.00     0.127 S 
ATOM    100  O   UNL A   1      43.361  36.055  31.987  1.00  0.00    -0.237 OA
ATOM    101  O   UNL A   1      44.055  37.705  33.667  1.00  0.00    -0.237 OA
ATOM    102  O   UNL A   1      45.036  35.453  33.678  1.00  0.00    -0.744 OA
ENDBRANCH  96  99
ENDBRANCH  69  92
ENDBRANCH  43  44
ENDBRANCH  36  38
ENDBRANCH  35  36
ENDBRANCH  34  35
ENDBRANCH  33  34
ENDBRANCH  32  33
ENDBRANCH   1  32
TORSDOF 23
ENDMDL
MODEL 2
REMARK VINA RESULT:      -8.2      5.894     12.066
REMARK SMILES CN(C)S(=O)(=O)c1ccc(-n2c(CCC(=O)OCCOCCOC(=O)c3ccc(-c4c5nc(c(-c6cccc(S(=O)(=O)[O-])c6F)c6ccc([nH]6)c(-c6cccc(S(=O)(=O)[O-])c6F)c6nc(c(-c7cccc(S(=O)(=O)[O-])c7F)c7ccc4[nH]7)C=C6)C=C5)cc3)ccc2-c2ccc(F)cc2)cc1
REMARK SMILES IDX 19 1 18 2 17 3 15 4 16 5 14 6 13 7 12 8 11 9 91 10 89 11
REMARK SMILES IDX 90 12 10 13 7 14 8 15 100 16 9 17 99 18 4 19 5 20 6 21 2 22
REMARK SMILES IDX 1 23 3 24 92 25 93 26 98 27 94 28 97 29 95 30 96 31 20 32
REMARK SMILES IDX 21 33 22 34 23 35 24 36 25 37 26 38 27 39 88 40 28 41 87 42
REMARK SMILES IDX 29 43 30 44 31 45 81 46 32 47 86 48 80 49 82 50 33 51 85 52
REMARK SMILES IDX 79 53 78 54 34 56 66 57 46 58 65 59 47 60 50 61 64 62 83 63
REMARK SMILES IDX 48 64 49 65 63 67 84 68 51 69 35 70 36 71 44 72 37 73 39 74
REMARK SMILES IDX 45 75 38 76 40 77 41 78 42 79 43 80 67 81 68 82 76 83 69 84
REMARK SMILES IDX 71 85 77 86 70 87 72 88 73 89 74 90 75 91 52 92 53 93 61 94
REMARK SMILES IDX 54 95 56 96 62 97 55 98 57 99 58 100 59 101 60 102
REMARK H PARENT 82 55 50 66
REMARK Flexibility Score: inf
ROOT
ATOM      1  C   UNL A   1      37.738  22.744  25.898  1.00  0.00     0.202 C 
ENDROOT
BRANCH   1   2
ATOM      2  C   UNL A   1      36.289  23.678  26.108  1.00  0.00     0.261 C 
BRANCH   2   3
ATOM      3  O   UNL A   1      35.190  23.150  26.905  1.00  0.00    -0.463 OA
BRANCH   3   4
ATOM      4  C   UNL A   1      34.197  22.500  26.238  1.00  0.00     0.306 C 
ATOM      5  O   UNL A   1      34.166  21.280  26.093  1.00  0.00    -0.252 OA
BRANCH   4   6
ATOM      6  C   UNL A   1      33.052  23.392  25.744  1.00  0.00     0.129 C 
BRANCH   6   7
ATOM      7  C   UNL A   1      33.069  24.008  24.335  1.00  0.00     0.066 C 
BRANCH   7   8
ATOM      8  C   UNL A   1      31.788  24.649  23.958  1.00  0.00     0.024 A 
ATOM      9  N   UNL A   1      31.442  25.966  24.236  1.00  0.00    -0.314 N 
ATOM     10  C   UNL A   1      30.301  26.259  23.452  1.00  0.00     0.053 A 
ATOM     11  C   UNL A   1      30.715  24.045  23.329  1.00  0.00     0.024 A 
ATOM     12  C   UNL A   1      29.787  25.048  23.016  1.00  0.00     0.029 A 
BRANCH   9  13
ATOM     13  C   UNL A   1      32.160  26.882  25.080  1.00  0.00     0.046 A 
ATOM     14  C   UNL A   1      34.333  28.972  27.084  1.00  0.00     0.082 A 
ATOM     15  C   UNL A   1      34.788  28.506  25.429  1.00  0.00     0.024 A 
ATOM     16  C   UNL A   1      32.794  28.363  27.817  1.00  0.00     0.024 A 
ATOM     17  C   UNL A   1      33.717  27.486  24.425  1.00  0.00     0.028 A 
ATOM     18  C   UNL A   1      31.662  27.358  26.787  1.00  0.00     0.028 A 
BRANCH  14  19
ATOM     19  S   UNL A   1      35.259  30.166  28.000  1.00  0.00     0.242 S 
ATOM     20  O   UNL A   1      36.333  30.610  27.134  1.00  0.00    -0.207 OA
ATOM     21  O   UNL A   1      35.560  29.536  29.272  1.00  0.00    -0.207 OA
BRANCH  19  22
ATOM     22  N   UNL A   1      34.258  31.522  28.313  1.00  0.00    -0.204 NA
ATOM     23  C   UNL A   1      35.022  32.767  28.584  1.00  0.00     0.124 C 
ATOM     24  C   UNL A   1      33.191  31.802  27.324  1.00  0.00     0.124 C 
ENDBRANCH  19  22
ENDBRANCH  14  19
ENDBRANCH   9  13
BRANCH  10  25
ATOM     25  C   UNL A   1      29.774  27.581  23.059  1.00  0.00    -0.001 A 
ATOM     26  C   UNL A   1      30.600  28.514  22.410  1.00  0.00     0.013 A 
ATOM     27  C   UNL A   1      28.460  27.959  23.375  1.00  0.00     0.013 A 
ATOM     28  C   UNL A   1      30.099  29.763  22.023  1.00  0.00     0.040 A 
ATOM     29  C   UNL A   1      27.953  29.200  22.974  1.00  0.00     0.040 A 
ATOM     30  C   UNL A   1      28.776  30.087  22.293  1.00  0.00     0.123 A 
ATOM     31  F   UNL A   1      28.287  31.272  21.904  1.00  0.00    -0.207 F 
ENDBRANCH  10  25
ENDBRANCH   7   8
ENDBRANCH   6   7
ENDBRANCH   4   6
ENDBRANCH   3   4
ENDBRANCH   2   3
ENDBRANCH   1   2
BRANCH   1  32
ATOM     32  O   UNL A   1      38.076  21.042  24.905  1.00  0.00    -0.374 OA
BRANCH  32  33
ATOM     33  C   UNL A   1      38.110  19.480  24.963  1.00  0.00     0.202 C 
BRANCH  33  34
ATOM     34  C   UNL A   1      39.429  18.914  25.496  1.00  0.00     0.261 C 
BRANCH  34  35
ATOM     35  O   UNL A   1      40.055  19.729  26.455  1.00  0.00    -0.460 OA
BRANCH  35  36
ATOM     36  C   UNL A   1      41.369  19.928  26.220  1.00  0.00     0.338 C 
ATOM     37  O   UNL A   1      42.215  19.120  25.914  1.00  0.00    -0.246 OA
BRANCH  36  38
ATOM     38  C   UNL A   1      41.646  21.338  26.487  1.00  0.00     0.060 A 
ATOM     39  C   UNL A   1      42.128  22.123  25.437  1.00  0.00     0.016 A 
ATOM     40  C   UNL A   1      41.588  21.795  27.803  1.00  0.00     0.016 A 
ATOM     41  C   UNL A   1      42.675  23.354  25.726  1.00  0.00     0.010 A 
ATOM     42  C   UNL A   1      42.187  22.989  28.093  1.00  0.00     0.010 A 
ATOM     43  C   UNL A   1      42.751  23.745  27.065  1.00  0.00    -0.014 A 
BRANCH  43  44
ATOM     44  C   UNL A   1      43.305  25.052  27.412  1.00  0.00     0.031 A 
ATOM     45  C   UNL A   1      42.140  26.075  27.566  1.00  0.00     0.074 A 
ATOM     46  C   UNL A   1      44.675  25.054  27.548  1.00  0.00     0.049 A 
ATOM     47  N   UNL A   1      42.160  27.369  27.591  1.00  0.00    -0.248 NA
ATOM     48  C   UNL A   1      40.718  25.599  27.647  1.00  0.00     0.031 C 
ATOM     49  C   UNL A   1      45.558  23.855  27.443  1.00  0.00     0.029 A 
ATOM     50  N   UNL A   1      45.620  26.021  27.818  1.00  0.00    -0.354 N 
ATOM     51  C   UNL A   1      40.881  27.807  28.032  1.00  0.00     0.074 A 
ATOM     52  C   UNL A   1      40.003  26.697  27.898  1.00  0.00     0.031 C 
ATOM     53  C   UNL A   1      46.870  24.188  27.521  1.00  0.00     0.029 A 
ATOM     54  C   UNL A   1      46.990  25.614  27.748  1.00  0.00     0.049 A 
ATOM     55  H   UNL A   1      45.365  26.944  28.046  1.00  0.00     0.167 HD
ATOM     56  C   UNL A   1      40.708  29.005  28.667  1.00  0.00     0.034 A 
ATOM     57  C   UNL A   1      48.118  26.397  27.854  1.00  0.00     0.034 A 
ATOM     58  C   UNL A   1      41.959  29.687  28.664  1.00  0.00     0.049 A 
ATOM     59  C   UNL A   1      47.604  27.644  28.419  1.00  0.00     0.074 A 
ATOM     60  C   UNL A   1      42.677  30.248  27.642  1.00  0.00     0.029 A 
ATOM     61  N   UNL A   1      42.781  29.395  29.729  1.00  0.00    -0.354 N 
ATOM     62  N   UNL A   1      47.212  27.765  29.652  1.00  0.00    -0.248 NA
ATOM     63  C   UNL A   1      47.372  28.785  27.530  1.00  0.00     0.031 C 
ATOM     64  C   UNL A   1      43.975  29.784  27.917  1.00  0.00     0.029 A 
ATOM     65  C   UNL A   1      44.053  29.311  29.236  1.00  0.00     0.049 A 
ATOM     66  H   UNL A   1      42.507  29.271  30.666  1.00  0.00     0.167 HD
ATOM     67  C   UNL A   1      46.333  28.807  29.550  1.00  0.00     0.074 A 
ATOM     68  C   UNL A   1      46.749  29.579  28.393  1.00  0.00     0.031 C 
ATOM     69  C   UNL A   1      45.063  28.658  30.021  1.00  0.00     0.034 A 
BRANCH  56  70
ATOM     70  C   UNL A   1      39.647  29.590  29.570  1.00  0.00     0.023 A 
ATOM     71  C   UNL A   1      39.155  30.865  29.160  1.00  0.00     0.012 A 
ATOM     72  C   UNL A   1      39.367  29.189  30.885  1.00  0.00     0.148 A 
ATOM     73  C   UNL A   1      38.602  31.777  30.052  1.00  0.00     0.002 A 
ATOM     74  C   UNL A   1      38.744  30.085  31.762  1.00  0.00     0.091 A 
ATOM     75  F   UNL A   1      39.760  27.983  31.307  1.00  0.00    -0.205 F 
ATOM     76  C   UNL A   1      38.417  31.392  31.363  1.00  0.00     0.022 A 
BRANCH  74  77
ATOM     77  S   UNL A   1      38.318  29.666  33.455  1.00  0.00     0.127 S 
ATOM     78  O   UNL A   1      37.699  30.901  33.929  1.00  0.00    -0.237 OA
ATOM     79  O   UNL A   1      37.382  28.556  33.259  1.00  0.00    -0.237 OA
ATOM     80  O   UNL A   1      39.570  29.283  34.094  1.00  0.00    -0.744 OA
ENDBRANCH  74  77
ENDBRANCH  56  70
BRANCH  57  81
ATOM     81  C   UNL A   1      49.610  26.388  27.561  1.00  0.00     0.023 A 
ATOM     82  C   UNL A   1      50.313  25.350  26.937  1.00  0.00     0.012 A 
ATOM     83  C   UNL A   1      50.373  27.582  27.806  1.00  0.00     0.148 A 
ATOM     84  C   UNL A   1      51.646  25.538  26.494  1.00  0.00     0.002 A 
ATOM     85  C   UNL A   1      51.619  27.817  27.237  1.00  0.00     0.091 A 
ATOM     86  F   UNL A   1      49.907  28.510  28.647  1.00  0.00    -0.205 F 
ATOM     87  C   UNL A   1      52.276  26.784  26.587  1.00  0.00     0.022 A 
BRANCH  85  88
ATOM     88  S   UNL A   1      52.328  29.479  27.161  1.00  0.00     0.127 S 
ATOM     89  O   UNL A   1      51.178  30.297  26.781  1.00  0.00    -0.237 OA
ATOM     90  O   UNL A   1      52.784  29.663  28.539  1.00  0.00    -0.237 OA
ATOM     91  O   UNL A   1      53.400  29.426  26.176  1.00  0.00    -0.744 OA
ENDBRANCH  85  88
ENDBRANCH  57  81
BRANCH  69  92
ATOM     92  C   UNL A   1      44.889  27.643  31.161  1.00  0.00     0.023 A 
ATOM     93  C   UNL A   1      44.476  26.353  30.756  1.00  0.00     0.012 A 
ATOM     94  C   UNL A   1      44.998  27.867  32.562  1.00  0.00     0.148 A 
ATOM     95  C   UNL A   1      44.152  25.345  31.667  1.00  0.00     0.002 A 
ATOM     96  C   UNL A   1      44.663  26.849  33.478  1.00  0.00     0.091 A 
ATOM     97  F   UNL A   1      45.420  29.058  32.999  1.00  0.00    -0.205 F 
ATOM     98  C   UNL A   1      44.241  25.593  33.024  1.00  0.00     0.022 A 
BRANCH  96  99
ATOM     99  S   UNL A   1      44.681  27.004  35.279  1.00  0.00     0.127 S 
ATOM    100  O   UNL A   1      44.090  28.328  35.490  1.00  0.00    -0.237 OA
ATOM    101  O   UNL A   1      43.828  25.896  35.700  1.00  0.00    -0.237 OA
ATOM    102  O   UNL A   1      46.073  26.894  35.679  1.00  0.00    -0.744 OA
ENDBRANCH  96  99
ENDBRANCH  69  92
ENDBRANCH  43  44
ENDBRANCH  36  38
ENDBRANCH  35  36
ENDBRANCH  34  35
ENDBRANCH  33  34
ENDBRANCH  32  33
ENDBRANCH   1  32
TORSDOF 23
ENDMDL
MODEL 3
REMARK VINA RESULT:      -8.1      5.982     12.493
REMARK SMILES CN(C)S(=O)(=O)c1ccc(-n2c(CCC(=O)OCCOCCOC(=O)c3ccc(-c4c5nc(c(-c6cccc(S(=O)(=O)[O-])c6F)c6ccc([nH]6)c(-c6cccc(S(=O)(=O)[O-])c6F)c6nc(c(-c7cccc(S(=O)(=O)[O-])c7F)c7ccc4[nH]7)C=C6)C=C5)cc3)ccc2-c2ccc(F)cc2)cc1
REMARK SMILES IDX 19 1 18 2 17 3 15 4 16 5 14 6 13 7 12 8 11 9 91 10 89 11
REMARK SMILES IDX 90 12 10 13 7 14 8 15 100 16 9 17 99 18 4 19 5 20 6 21 2 22
REMARK SMILES IDX 1 23 3 24 92 25 93 26 98 27 94 28 97 29 95 30 96 31 20 32
REMARK SMILES IDX 21 33 22 34 23 35 24 36 25 37 26 38 27 39 88 40 28 41 87 42
REMARK SMILES IDX 29 43 30 44 31 45 81 46 32 47 86 48 80 49 82 50 33 51 85 52
REMARK SMILES IDX 79 53 78 54 34 56 66 57 46 58 65 59 47 60 50 61 64 62 83 63
REMARK SMILES IDX 48 64 49 65 63 67 84 68 51 69 35 70 36 71 44 72 37 73 39 74
REMARK SMILES IDX 45 75 38 76 40 77 41 78 42 79 43 80 67 81 68 82 76 83 69 84
REMARK SMILES IDX 71 85 77 86 70 87 72 88 73 89 74 90 75 91 52 92 53 93 61 94
REMARK SMILES IDX 54 95 56 96 62 97 55 98 57 99 58 100 59 101 60 102
REMARK H PARENT 82 55 50 66
REMARK Flexibility Score: inf
ROOT
ATOM      1  C   UNL A   1      37.715  22.933  25.980  1.00  0.00     0.202 C 
ENDROOT
BRANCH   1   2
ATOM      2  C   UNL A   1      36.197  23.771  26.068  1.00  0.00     0.261 C 
BRANCH   2   3
ATOM      3  O   UNL A   1      35.121  23.246  26.897  1.00  0.00    -0.463 OA
BRANCH   3   4
ATOM      4  C   UNL A   1      34.198  22.453  26.285  1.00  0.00     0.306 C 
ATOM      5  O   UNL A   1      34.292  21.229  26.225  1.00  0.00    -0.252 OA
BRANCH   4   6
ATOM      6  C   UNL A   1      32.967  23.188  25.741  1.00  0.00     0.129 C 
BRANCH   6   7
ATOM      7  C   UNL A   1      32.995  23.891  24.373  1.00  0.00     0.066 C 
BRANCH   7   8
ATOM      8  C   UNL A   1      31.734  24.596  24.049  1.00  0.00     0.024 A 
ATOM      9  N   UNL A   1      31.493  25.947  24.273  1.00  0.00    -0.314 N 
ATOM     10  C   UNL A   1      30.320  26.274  23.553  1.00  0.00     0.053 A 
ATOM     11  C   UNL A   1      30.581  24.033  23.533  1.00  0.00     0.024 A 
ATOM     12  C   UNL A   1      29.699  25.078  23.226  1.00  0.00     0.029 A 
BRANCH   9  13
ATOM     13  C   UNL A   1      32.328  26.856  25.010  1.00  0.00     0.046 A 
ATOM     14  C   UNL A   1      34.057  29.340  26.996  1.00  0.00     0.082 A 
ATOM     15  C   UNL A   1      32.593  28.539  27.611  1.00  0.00     0.024 A 
ATOM     16  C   UNL A   1      34.679  28.965  25.339  1.00  0.00     0.024 A 
ATOM     17  C   UNL A   1      31.738  27.301  26.645  1.00  0.00     0.028 A 
ATOM     18  C   UNL A   1      33.846  27.664  24.355  1.00  0.00     0.028 A 
BRANCH  14  19
ATOM     19  S   UNL A   1      35.044  30.386  28.024  1.00  0.00     0.242 S 
ATOM     20  O   UNL A   1      36.044  30.987  27.165  1.00  0.00    -0.207 OA
ATOM     21  O   UNL A   1      35.446  29.562  29.149  1.00  0.00    -0.207 OA
BRANCH  19  22
ATOM     22  N   UNL A   1      34.060  31.653  28.630  1.00  0.00    -0.204 NA
ATOM     23  C   UNL A   1      34.668  32.369  29.781  1.00  0.00     0.124 C 
ATOM     24  C   UNL A   1      33.560  32.637  27.643  1.00  0.00     0.124 C 
ENDBRANCH  19  22
ENDBRANCH  14  19
ENDBRANCH   9  13
BRANCH  10  25
ATOM     25  C   UNL A   1      29.851  27.605  23.121  1.00  0.00    -0.001 A 
ATOM     26  C   UNL A   1      28.490  27.944  23.207  1.00  0.00     0.013 A 
ATOM     27  C   UNL A   1      30.738  28.539  22.563  1.00  0.00     0.013 A 
ATOM     28  C   UNL A   1      28.045  29.211  22.812  1.00  0.00     0.040 A 
ATOM     29  C   UNL A   1      30.297  29.811  22.184  1.00  0.00     0.040 A 
ATOM     30  C   UNL A   1      28.955  30.138  22.320  1.00  0.00     0.123 A 
ATOM     31  F   UNL A   1      28.536  31.360  21.963  1.00  0.00    -0.207 F 
ENDBRANCH  10  25
ENDBRANCH   7   8
ENDBRANCH   6   7
ENDBRANCH   4   6
ENDBRANCH   3   4
ENDBRANCH   2   3
ENDBRANCH   1   2
BRANCH   1  32
ATOM     32  O   UNL A   1      38.246  21.267  25.010  1.00  0.00    -0.374 OA
BRANCH  32  33
ATOM     33  C   UNL A   1      38.237  19.704  24.996  1.00  0.00     0.202 C 
BRANCH  33  34
ATOM     34  C   UNL A   1      39.453  19.077  25.686  1.00  0.00     0.261 C 
BRANCH  34  35
ATOM     35  O   UNL A   1      40.007  19.874  26.702  1.00  0.00    -0.460 OA
BRANCH  35  36
ATOM     36  C   UNL A   1      41.354  19.947  26.657  1.00  0.00     0.338 C 
ATOM     37  O   UNL A   1      42.157  19.051  26.539  1.00  0.00    -0.246 OA
BRANCH  36  38
ATOM     38  C   UNL A   1      41.716  21.346  26.866  1.00  0.00     0.060 A 
ATOM     39  C   UNL A   1      41.626  22.219  25.778  1.00  0.00     0.016 A 
ATOM     40  C   UNL A   1      42.299  21.715  28.078  1.00  0.00     0.016 A 
ATOM     41  C   UNL A   1      42.238  23.450  25.862  1.00  0.00     0.010 A 
ATOM     42  C   UNL A   1      42.957  22.912  28.135  1.00  0.00     0.010 A 
ATOM     43  C   UNL A   1      42.949  23.756  27.024  1.00  0.00    -0.014 A 
BRANCH  43  44
ATOM     44  C   UNL A   1      43.593  25.061  27.162  1.00  0.00     0.031 A 
ATOM     45  C   UNL A   1      42.586  26.063  27.801  1.00  0.00     0.074 A 
ATOM     46  C   UNL A   1      44.904  25.078  26.739  1.00  0.00     0.049 A 
ATOM     47  N   UNL A   1      42.612  27.355  27.856  1.00  0.00    -0.248 NA
ATOM     48  C   UNL A   1      41.315  25.566  28.428  1.00  0.00     0.031 C 
ATOM     49  C   UNL A   1      45.672  23.894  26.252  1.00  0.00     0.029 A 
ATOM     50  N   UNL A   1      45.876  26.050  26.638  1.00  0.00    -0.354 N 
ATOM     51  C   UNL A   1      41.616  27.763  28.785  1.00  0.00     0.074 A 
ATOM     52  C   UNL A   1      40.759  26.646  28.979  1.00  0.00     0.031 C 
ATOM     53  C   UNL A   1      46.905  24.243  25.809  1.00  0.00     0.029 A 
ATOM     54  C   UNL A   1      47.104  25.665  26.014  1.00  0.00     0.049 A 
ATOM     55  H   UNL A   1      45.733  26.962  26.978  1.00  0.00     0.167 HD
ATOM     56  C   UNL A   1      41.709  28.941  29.474  1.00  0.00     0.034 A 
ATOM     57  C   UNL A   1      48.179  26.459  25.684  1.00  0.00     0.034 A 
ATOM     58  C   UNL A   1      42.854  29.640  28.993  1.00  0.00     0.049 A 
ATOM     59  C   UNL A   1      47.933  27.683  26.446  1.00  0.00     0.074 A 
ATOM     60  C   UNL A   1      43.102  30.239  27.787  1.00  0.00     0.029 A 
ATOM     61  N   UNL A   1      44.034  29.329  29.630  1.00  0.00    -0.354 N 
ATOM     62  N   UNL A   1      48.066  27.764  27.737  1.00  0.00    -0.248 NA
ATOM     63  C   UNL A   1      47.362  28.845  25.760  1.00  0.00     0.031 C 
ATOM     64  C   UNL A   1      44.402  29.786  27.505  1.00  0.00     0.029 A 
ATOM     65  C   UNL A   1      45.002  29.277  28.667  1.00  0.00     0.049 A 
ATOM     66  H   UNL A   1      44.158  29.176  30.594  1.00  0.00     0.167 HD
ATOM     67  C   UNL A   1      47.218  28.795  28.027  1.00  0.00     0.074 A 
ATOM     68  C   UNL A   1      47.136  29.606  26.825  1.00  0.00     0.031 C 
ATOM     69  C   UNL A   1      46.243  28.616  28.961  1.00  0.00     0.034 A 
BRANCH  56  70
ATOM     70  C   UNL A   1      41.098  29.485  30.744  1.00  0.00     0.023 A 
ATOM     71  C   UNL A   1      40.984  28.535  31.802  1.00  0.00     0.012 A 
ATOM     72  C   UNL A   1      40.352  30.667  30.862  1.00  0.00     0.148 A 
ATOM     73  C   UNL A   1      40.036  28.649  32.813  1.00  0.00     0.002 A 
ATOM     74  C   UNL A   1      39.450  30.811  31.923  1.00  0.00     0.091 A 
ATOM     75  F   UNL A   1      40.459  31.614  29.925  1.00  0.00    -0.205 F 
ATOM     76  C   UNL A   1      39.250  29.782  32.859  1.00  0.00     0.022 A 
BRANCH  74  77
ATOM     77  S   UNL A   1      38.466  32.291  32.182  1.00  0.00     0.127 S 
ATOM     78  O   UNL A   1      37.552  31.869  33.240  1.00  0.00    -0.237 OA
ATOM     79  O   UNL A   1      39.485  33.252  32.609  1.00  0.00    -0.237 OA
ATOM     80  O   UNL A   1      37.864  32.596  30.891  1.00  0.00    -0.744 OA
ENDBRANCH  74  77
ENDBRANCH  56  70
BRANCH  57  81
ATOM     81  C   UNL A   1      49.430  26.479  24.819  1.00  0.00     0.023 A 
ATOM     82  C   UNL A   1      49.518  27.008  23.526  1.00  0.00     0.012 A 
ATOM     83  C   UNL A   1      50.678  26.055  25.392  1.00  0.00     0.148 A 
ATOM     84  C   UNL A   1      50.777  27.197  22.901  1.00  0.00     0.002 A 
ATOM     85  C   UNL A   1      51.914  26.382  24.848  1.00  0.00     0.091 A 
ATOM     86  F   UNL A   1      50.681  25.275  26.477  1.00  0.00    -0.205 F 
ATOM     87  C   UNL A   1      51.973  26.944  23.582  1.00  0.00     0.022 A 
BRANCH  85  88
ATOM     88  S   UNL A   1      53.437  26.264  25.816  1.00  0.00     0.127 S 
ATOM     89  O   UNL A   1      53.414  27.500  26.595  1.00  0.00    -0.237 OA
ATOM     90  O   UNL A   1      53.195  25.045  26.589  1.00  0.00    -0.237 OA
ATOM     91  O   UNL A   1      54.529  26.159  24.856  1.00  0.00    -0.744 OA
ENDBRANCH  85  88
ENDBRANCH  57  81
BRANCH  69  92
ATOM     92  C   UNL A   1      46.541  27.568  30.044  1.00  0.00     0.023 A 
ATOM     93  C   UNL A   1      45.668  26.456  30.057  1.00  0.00     0.012 A 
ATOM     94  C   UNL A   1      47.515  27.625  31.080  1.00  0.00     0.148 A 
ATOM     95  C   UNL A   1      45.715  25.471  31.045  1.00  0.00     0.002 A 
ATOM     96  C   UNL A   1      47.555  26.632  32.081  1.00  0.00     0.091 A 
ATOM     97  F   UNL A   1      48.390  28.635  31.094  1.00  0.00    -0.205 F 
ATOM     98  C   UNL A   1      46.654  25.560  32.057  1.00  0.00     0.022 A 
BRANCH  96  99
ATOM     99  S   UNL A   1      48.682  26.606  33.494  1.00  0.00     0.127 S 
ATOM    100  O   UNL A   1      48.120  27.639  34.367  1.00  0.00    -0.237 OA
ATOM    101  O   UNL A   1      48.521  25.245  34.000  1.00  0.00    -0.237 OA
ATOM    102  O   UNL A   1      49.999  26.913  32.966  1.00  0.00    -0.744 OA
ENDBRANCH  96  99
ENDBRANCH  69  92
ENDBRANCH  43  44
ENDBRANCH  36  38
ENDBRANCH  35  36
ENDBRANCH  34  35
ENDBRANCH  33  34
ENDBRANCH  32  33
ENDBRANCH   1  32
TORSDOF 23
ENDMDL
