MODEL 1
REMARK VINA RESULT:     -10.4      0.000      0.000
REMARK SMILES Cc1nc(CCC(F)(F)F)[nH]c(=O)c1CCC(=O)OCCOCCOC(=O)c1ccc(-c2c3nc(c(-c4cccc(S(=O)(=O)[O-])c4F)c4ccc([nH]4)c(-c4cccc(S(=O)(=O)[O-])c4F)c4nc(c(-c5cccc(S(=O)(=O)[O-])c5F)c5ccc2[nH]5)C=C4)C=C3)cc1
REMARK SMILES IDX 21 1 20 2 19 3 17 4 18 5 16 6 15 7 14 8 1 9 2 10 3 11 4 12
REMARK SMILES IDX 12 13 11 14 13 15 5 17 6 18 7 19 8 20 9 21 10 22 22 23 23 24
REMARK SMILES IDX 24 25 25 26 26 27 27 28 28 29 29 30 90 31 30 32 89 33 31 34
REMARK SMILES IDX 32 35 33 36 83 37 34 38 88 39 82 40 84 41 35 42 87 43 81 44
REMARK SMILES IDX 80 45 36 47 68 48 48 49 67 50 49 51 52 52 66 53 85 54 50 55
REMARK SMILES IDX 51 56 65 58 86 59 53 60 37 61 38 62 46 63 39 64 41 65 47 66
REMARK SMILES IDX 40 67 42 68 43 69 44 70 45 71 69 72 70 73 78 74 71 75 73 76
REMARK SMILES IDX 79 77 72 78 74 79 75 80 76 81 77 82 54 83 55 84 63 85 56 86
REMARK SMILES IDX 58 87 64 88 57 89 59 90 60 91 61 92 62 93
REMARK H PARENT 11 16 84 46 52 57
REMARK Flexibility Score: inf
ROOT
ATOM      1  C   UNL A   1      32.590  28.791  23.917  1.00  0.00     0.202 C 
ENDROOT
BRANCH   1   2
ATOM      2  C   UNL A   1      33.637  27.669  24.002  1.00  0.00     0.261 C 
BRANCH   2   3
ATOM      3  O   UNL A   1      33.168  26.419  23.459  1.00  0.00    -0.463 OA
BRANCH   3   4
ATOM      4  C   UNL A   1      33.970  25.337  23.582  1.00  0.00     0.306 C 
ATOM      5  O   UNL A   1      34.287  24.584  22.670  1.00  0.00    -0.252 OA
BRANCH   4   6
ATOM      6  C   UNL A   1      34.413  25.129  25.015  1.00  0.00     0.128 C 
BRANCH   6   7
ATOM      7  C   UNL A   1      33.441  24.354  25.920  1.00  0.00     0.055 C 
BRANCH   7   8
ATOM      8  C   UNL A   1      33.316  22.884  25.600  1.00  0.00     0.039 A 
ATOM      9  C   UNL A   1      31.153  23.064  24.367  1.00  0.00     0.067 C 
ATOM     10  C   UNL A   1      32.305  22.284  24.939  1.00  0.00     0.048 A 
ATOM     11  N   UNL A   1      32.208  20.923  24.744  1.00  0.00    -0.240 NA
ATOM     12  C   UNL A   1      33.093  20.168  25.309  1.00  0.00     0.109 A 
ATOM     13  C   UNL A   1      34.445  21.992  25.948  1.00  0.00     0.254 A 
ATOM     14  N   UNL A   1      34.166  20.667  25.981  1.00  0.00    -0.310 N 
ATOM     15  O   UNL A   1      35.578  22.417  26.131  1.00  0.00    -0.269 OA
ATOM     16  H   UNL A   1      34.745  20.059  26.494  1.00  0.00     0.171 HD
BRANCH  12  17
ATOM     17  C   UNL A   1      32.996  18.662  25.233  1.00  0.00     0.084 C 
BRANCH  17  18
ATOM     18  C   UNL A   1      33.114  18.098  23.818  1.00  0.00     0.123 C 
BRANCH  18  19
ATOM     19  C   UNL A   1      34.016  16.897  23.734  1.00  0.00     0.389 C 
ATOM     20  F   UNL A   1      34.392  16.660  22.458  1.00  0.00    -0.171 F 
ATOM     21  F   UNL A   1      35.122  17.047  24.487  1.00  0.00    -0.171 F 
ATOM     22  F   UNL A   1      33.381  15.784  24.171  1.00  0.00    -0.171 F 
ENDBRANCH  18  19
ENDBRANCH  17  18
ENDBRANCH  12  17
ENDBRANCH   7   8
ENDBRANCH   6   7
ENDBRANCH   4   6
ENDBRANCH   3   4
ENDBRANCH   2   3
ENDBRANCH   1   2
BRANCH   1  23
ATOM     23  O   UNL A   1      31.692  28.861  25.028  1.00  0.00    -0.374 OA
BRANCH  23  24
ATOM     24  C   UNL A   1      31.730  30.095  25.745  1.00  0.00     0.202 C 
BRANCH  24  25
ATOM     25  C   UNL A   1      32.525  30.069  27.057  1.00  0.00     0.261 C 
BRANCH  25  26
ATOM     26  O   UNL A   1      33.936  30.245  26.840  1.00  0.00    -0.460 OA
BRANCH  26  27
ATOM     27  C   UNL A   1      34.538  31.171  27.627  1.00  0.00     0.338 C 
ATOM     28  O   UNL A   1      34.118  32.271  27.916  1.00  0.00    -0.246 OA
BRANCH  27  29
ATOM     29  C   UNL A   1      35.757  30.584  28.235  1.00  0.00     0.060 A 
ATOM     30  C   UNL A   1      36.993  30.843  27.629  1.00  0.00     0.016 A 
ATOM     31  C   UNL A   1      35.697  29.772  29.363  1.00  0.00     0.016 A 
ATOM     32  C   UNL A   1      38.171  30.281  28.142  1.00  0.00     0.010 A 
ATOM     33  C   UNL A   1      36.879  29.215  29.868  1.00  0.00     0.010 A 
ATOM     34  C   UNL A   1      38.134  29.451  29.270  1.00  0.00    -0.014 A 
BRANCH  34  35
ATOM     35  C   UNL A   1      39.372  28.786  29.801  1.00  0.00     0.031 A 
ATOM     36  C   UNL A   1      40.064  29.347  31.025  1.00  0.00     0.074 A 
ATOM     37  C   UNL A   1      39.945  27.732  29.177  1.00  0.00     0.049 A 
ATOM     38  N   UNL A   1      41.184  28.970  31.594  1.00  0.00    -0.248 NA
ATOM     39  C   UNL A   1      39.425  30.501  31.678  1.00  0.00     0.031 C 
ATOM     40  C   UNL A   1      39.460  27.092  27.953  1.00  0.00     0.029 A 
ATOM     41  N   UNL A   1      41.099  27.035  29.470  1.00  0.00    -0.354 N 
ATOM     42  C   UNL A   1      41.403  29.866  32.634  1.00  0.00     0.074 A 
ATOM     43  C   UNL A   1      40.334  30.839  32.579  1.00  0.00     0.031 C 
ATOM     44  C   UNL A   1      40.319  26.125  27.586  1.00  0.00     0.029 A 
ATOM     45  C   UNL A   1      41.424  26.071  28.542  1.00  0.00     0.049 A 
ATOM     46  H   UNL A   1      41.642  27.212  30.272  1.00  0.00     0.167 HD
ATOM     47  C   UNL A   1      42.368  29.865  33.587  1.00  0.00     0.034 A 
ATOM     48  C   UNL A   1      42.484  25.239  28.458  1.00  0.00     0.034 A 
ATOM     49  C   UNL A   1      43.392  28.867  33.713  1.00  0.00     0.049 A 
ATOM     50  C   UNL A   1      43.534  25.234  29.542  1.00  0.00     0.074 A 
ATOM     51  C   UNL A   1      44.328  28.720  34.723  1.00  0.00     0.029 A 
ATOM     52  N   UNL A   1      43.622  27.848  32.807  1.00  0.00    -0.354 N 
ATOM     53  N   UNL A   1      43.614  25.976  30.617  1.00  0.00    -0.248 NA
ATOM     54  C   UNL A   1      44.611  24.235  29.428  1.00  0.00     0.031 C 
ATOM     55  C   UNL A   1      45.140  27.624  34.416  1.00  0.00     0.029 A 
ATOM     56  C   UNL A   1      44.688  27.070  33.230  1.00  0.00     0.049 A 
ATOM     57  H   UNL A   1      43.105  27.697  31.983  1.00  0.00     0.167 HD
ATOM     58  C   UNL A   1      44.704  25.491  31.337  1.00  0.00     0.074 A 
ATOM     59  C   UNL A   1      45.257  24.394  30.575  1.00  0.00     0.031 C 
ATOM     60  C   UNL A   1      45.197  25.924  32.523  1.00  0.00     0.034 A 
BRANCH  47  61
ATOM     61  C   UNL A   1      42.310  30.950  34.633  1.00  0.00     0.023 A 
ATOM     62  C   UNL A   1      41.609  30.718  35.835  1.00  0.00     0.012 A 
ATOM     63  C   UNL A   1      42.982  32.174  34.452  1.00  0.00     0.148 A 
ATOM     64  C   UNL A   1      41.529  31.705  36.815  1.00  0.00     0.002 A 
ATOM     65  C   UNL A   1      42.944  33.134  35.457  1.00  0.00     0.091 A 
ATOM     66  F   UNL A   1      43.635  32.383  33.299  1.00  0.00    -0.205 F 
ATOM     67  C   UNL A   1      42.204  32.907  36.630  1.00  0.00     0.022 A 
BRANCH  65  68
ATOM     68  S   UNL A   1      43.856  34.677  35.360  1.00  0.00     0.127 S 
ATOM     69  O   UNL A   1      45.161  34.219  34.885  1.00  0.00    -0.237 OA
ATOM     70  O   UNL A   1      43.080  35.432  34.377  1.00  0.00    -0.237 OA
ATOM     71  O   UNL A   1      43.842  35.237  36.704  1.00  0.00    -0.744 OA
ENDBRANCH  65  68
ENDBRANCH  47  61
BRANCH  48  72
ATOM     72  C   UNL A   1      42.589  24.269  27.330  1.00  0.00     0.023 A 
ATOM     73  C   UNL A   1      43.216  24.667  26.131  1.00  0.00     0.012 A 
ATOM     74  C   UNL A   1      42.052  22.972  27.426  1.00  0.00     0.148 A 
ATOM     75  C   UNL A   1      43.264  23.807  25.034  1.00  0.00     0.002 A 
ATOM     76  C   UNL A   1      42.146  22.103  26.345  1.00  0.00     0.091 A 
ATOM     77  F   UNL A   1      41.460  22.615  28.575  1.00  0.00    -0.205 F 
ATOM     78  C   UNL A   1      42.733  22.525  25.141  1.00  0.00     0.022 A 
BRANCH  76  79
ATOM     79  S   UNL A   1      41.589  20.399  26.424  1.00  0.00     0.127 S 
ATOM     80  O   UNL A   1      41.993  20.012  27.773  1.00  0.00    -0.237 OA
ATOM     81  O   UNL A   1      40.146  20.548  26.230  1.00  0.00    -0.237 OA
ATOM     82  O   UNL A   1      42.273  19.710  25.338  1.00  0.00    -0.744 OA
ENDBRANCH  76  79
ENDBRANCH  48  72
BRANCH  60  83
ATOM     83  C   UNL A   1      46.347  25.173  33.146  1.00  0.00     0.023 A 
ATOM     84  C   UNL A   1      47.665  25.651  33.013  1.00  0.00     0.012 A 
ATOM     85  C   UNL A   1      46.102  24.043  33.954  1.00  0.00     0.148 A 
ATOM     86  C   UNL A   1      48.722  25.003  33.654  1.00  0.00     0.002 A 
ATOM     87  C   UNL A   1      47.153  23.433  34.630  1.00  0.00     0.091 A 
ATOM     88  F   UNL A   1      44.843  23.591  34.054  1.00  0.00    -0.205 F 
ATOM     89  C   UNL A   1      48.465  23.905  34.472  1.00  0.00     0.022 A 
BRANCH  87  90
ATOM     90  S   UNL A   1      46.902  22.079  35.786  1.00  0.00     0.127 S 
ATOM     91  O   UNL A   1      46.039  22.701  36.789  1.00  0.00    -0.237 OA
ATOM     92  O   UNL A   1      46.240  21.078  34.950  1.00  0.00    -0.237 OA
ATOM     93  O   UNL A   1      48.227  21.698  36.253  1.00  0.00    -0.744 OA
ENDBRANCH  87  90
ENDBRANCH  60  83
ENDBRANCH  34  35
ENDBRANCH  27  29
ENDBRANCH  26  27
ENDBRANCH  25  26
ENDBRANCH  24  25
ENDBRANCH  23  24
ENDBRANCH   1  23
TORSDOF 22
ENDMDL
MODEL 2
REMARK VINA RESULT:     -10.3      2.634      3.332
REMARK SMILES Cc1nc(CCC(F)(F)F)[nH]c(=O)c1CCC(=O)OCCOCCOC(=O)c1ccc(-c2c3nc(c(-c4cccc(S(=O)(=O)[O-])c4F)c4ccc([nH]4)c(-c4cccc(S(=O)(=O)[O-])c4F)c4nc(c(-c5cccc(S(=O)(=O)[O-])c5F)c5ccc2[nH]5)C=C4)C=C3)cc1
REMARK SMILES IDX 21 1 20 2 19 3 17 4 18 5 16 6 15 7 14 8 1 9 2 10 3 11 4 12
REMARK SMILES IDX 12 13 11 14 13 15 5 17 6 18 7 19 8 20 9 21 10 22 22 23 23 24
REMARK SMILES IDX 24 25 25 26 26 27 27 28 28 29 29 30 90 31 30 32 89 33 31 34
REMARK SMILES IDX 32 35 33 36 83 37 34 38 88 39 82 40 84 41 35 42 87 43 81 44
REMARK SMILES IDX 80 45 36 47 68 48 48 49 67 50 49 51 52 52 66 53 85 54 50 55
REMARK SMILES IDX 51 56 65 58 86 59 53 60 37 61 38 62 46 63 39 64 41 65 47 66
REMARK SMILES IDX 40 67 42 68 43 69 44 70 45 71 69 72 70 73 78 74 71 75 73 76
REMARK SMILES IDX 79 77 72 78 74 79 75 80 76 81 77 82 54 83 55 84 63 85 56 86
REMARK SMILES IDX 58 87 64 88 57 89 59 90 60 91 61 92 62 93
REMARK H PARENT 11 16 84 46 52 57
REMARK Flexibility Score: inf
ROOT
ATOM      1  C   UNL A   1      31.987  28.815  27.232  1.00  0.00     0.202 C 
ENDROOT
BRANCH   1   2
ATOM      2  C   UNL A   1      31.660  27.635  26.304  1.00  0.00     0.261 C 
BRANCH   2   3
ATOM      3  O   UNL A   1      31.430  26.404  27.019  1.00  0.00    -0.463 OA
BRANCH   3   4
ATOM      4  C   UNL A   1      31.445  25.252  26.312  1.00  0.00     0.306 C 
ATOM      5  O   UNL A   1      30.605  24.364  26.388  1.00  0.00    -0.252 OA
BRANCH   4   6
ATOM      6  C   UNL A   1      32.667  25.158  25.421  1.00  0.00     0.128 C 
BRANCH   6   7
ATOM      7  C   UNL A   1      33.863  24.378  25.991  1.00  0.00     0.055 C 
BRANCH   7   8
ATOM      8  C   UNL A   1      33.823  22.889  25.744  1.00  0.00     0.039 A 
ATOM      9  C   UNL A   1      35.061  22.947  23.578  1.00  0.00     0.067 C 
ATOM     10  C   UNL A   1      34.320  22.234  24.676  1.00  0.00     0.048 A 
ATOM     11  N   UNL A   1      34.185  20.878  24.467  1.00  0.00    -0.240 NA
ATOM     12  C   UNL A   1      33.456  20.210  25.301  1.00  0.00     0.109 A 
ATOM     13  C   UNL A   1      33.272  22.018  26.806  1.00  0.00     0.254 A 
ATOM     14  N   UNL A   1      32.924  20.765  26.423  1.00  0.00    -0.310 N 
ATOM     15  O   UNL A   1      33.197  22.380  27.973  1.00  0.00    -0.269 OA
ATOM     16  H   UNL A   1      32.280  20.252  26.963  1.00  0.00     0.171 HD
BRANCH  12  17
ATOM     17  C   UNL A   1      33.171  18.742  25.084  1.00  0.00     0.084 C 
BRANCH  17  18
ATOM     18  C   UNL A   1      34.235  18.012  24.268  1.00  0.00     0.123 C 
BRANCH  18  19
ATOM     19  C   UNL A   1      33.661  16.972  23.344  1.00  0.00     0.389 C 
ATOM     20  F   UNL A   1      34.597  16.517  22.482  1.00  0.00    -0.171 F 
ATOM     21  F   UNL A   1      33.155  15.924  24.020  1.00  0.00    -0.171 F 
ATOM     22  F   UNL A   1      32.657  17.490  22.598  1.00  0.00    -0.171 F 
ENDBRANCH  18  19
ENDBRANCH  17  18
ENDBRANCH  12  17
ENDBRANCH   7   8
ENDBRANCH   6   7
ENDBRANCH   4   6
ENDBRANCH   3   4
ENDBRANCH   2   3
ENDBRANCH   1   2
BRANCH   1  23
ATOM     23  O   UNL A   1      31.828  30.108  26.640  1.00  0.00    -0.374 OA
BRANCH  23  24
ATOM     24  C   UNL A   1      32.732  31.099  27.127  1.00  0.00     0.202 C 
BRANCH  24  25
ATOM     25  C   UNL A   1      32.148  32.511  27.265  1.00  0.00     0.261 C 
BRANCH  25  26
ATOM     26  O   UNL A   1      33.170  33.524  27.251  1.00  0.00    -0.460 OA
BRANCH  26  27
ATOM     27  C   UNL A   1      33.438  34.102  28.449  1.00  0.00     0.338 C 
ATOM     28  O   UNL A   1      32.784  34.952  29.014  1.00  0.00    -0.246 OA
BRANCH  27  29
ATOM     29  C   UNL A   1      34.600  33.425  29.074  1.00  0.00     0.060 A 
ATOM     30  C   UNL A   1      35.875  33.674  28.551  1.00  0.00     0.016 A 
ATOM     31  C   UNL A   1      34.451  32.539  30.137  1.00  0.00     0.016 A 
ATOM     32  C   UNL A   1      37.002  33.031  29.081  1.00  0.00     0.010 A 
ATOM     33  C   UNL A   1      35.582  31.901  30.660  1.00  0.00     0.010 A 
ATOM     34  C   UNL A   1      36.876  32.127  30.144  1.00  0.00    -0.014 A 
BRANCH  34  35
ATOM     35  C   UNL A   1      38.058  31.376  30.687  1.00  0.00     0.031 A 
ATOM     36  C   UNL A   1      38.660  31.779  32.017  1.00  0.00     0.074 A 
ATOM     37  C   UNL A   1      38.662  30.387  29.992  1.00  0.00     0.049 A 
ATOM     38  N   UNL A   1      39.726  31.314  32.622  1.00  0.00    -0.248 NA
ATOM     39  C   UNL A   1      37.990  32.866  32.747  1.00  0.00     0.031 C 
ATOM     40  C   UNL A   1      38.264  29.901  28.670  1.00  0.00     0.029 A 
ATOM     41  N   UNL A   1      39.778  29.634  30.291  1.00  0.00    -0.354 N 
ATOM     42  C   UNL A   1      39.878  32.081  33.771  1.00  0.00     0.074 A 
ATOM     43  C   UNL A   1      38.831  33.079  33.747  1.00  0.00     0.031 C 
ATOM     44  C   UNL A   1      39.135  28.961  28.261  1.00  0.00     0.029 A 
ATOM     45  C   UNL A   1      40.161  28.773  29.286  1.00  0.00     0.049 A 
ATOM     46  H   UNL A   1      40.260  29.706  31.147  1.00  0.00     0.167 HD
ATOM     47  C   UNL A   1      40.765  31.949  34.789  1.00  0.00     0.034 A 
ATOM     48  C   UNL A   1      41.211  27.931  29.188  1.00  0.00     0.034 A 
ATOM     49  C   UNL A   1      41.761  30.919  34.877  1.00  0.00     0.049 A 
ATOM     50  C   UNL A   1      42.173  27.777  30.341  1.00  0.00     0.074 A 
ATOM     51  C   UNL A   1      42.613  30.636  35.932  1.00  0.00     0.029 A 
ATOM     52  N   UNL A   1      42.045  30.003  33.881  1.00  0.00    -0.354 N 
ATOM     53  N   UNL A   1      42.180  28.391  31.497  1.00  0.00    -0.248 NA
ATOM     54  C   UNL A   1      43.241  26.772  30.195  1.00  0.00     0.031 C 
ATOM     55  C   UNL A   1      43.429  29.563  35.563  1.00  0.00     0.029 A 
ATOM     56  C   UNL A   1      43.063  29.157  34.292  1.00  0.00     0.049 A 
ATOM     57  H   UNL A   1      41.592  29.958  33.008  1.00  0.00     0.167 HD
ATOM     58  C   UNL A   1      43.203  27.803  32.236  1.00  0.00     0.074 A 
ATOM     59  C   UNL A   1      43.797  26.785  31.399  1.00  0.00     0.031 C 
ATOM     60  C   UNL A   1      43.608  28.087  33.499  1.00  0.00     0.034 A 
BRANCH  47  61
ATOM     61  C   UNL A   1      40.641  32.910  35.945  1.00  0.00     0.023 A 
ATOM     62  C   UNL A   1      41.400  34.100  35.941  1.00  0.00     0.012 A 
ATOM     63  C   UNL A   1      39.749  32.665  37.005  1.00  0.00     0.148 A 
ATOM     64  C   UNL A   1      41.315  35.002  36.999  1.00  0.00     0.002 A 
ATOM     65  C   UNL A   1      39.628  33.595  38.031  1.00  0.00     0.091 A 
ATOM     66  F   UNL A   1      39.042  31.524  36.998  1.00  0.00    -0.205 F 
ATOM     67  C   UNL A   1      40.423  34.754  38.038  1.00  0.00     0.022 A 
BRANCH  65  68
ATOM     68  S   UNL A   1      38.441  33.419  39.367  1.00  0.00     0.127 S 
ATOM     69  O   UNL A   1      39.034  32.333  40.147  1.00  0.00    -0.237 OA
ATOM     70  O   UNL A   1      38.501  34.733  40.006  1.00  0.00    -0.237 OA
ATOM     71  O   UNL A   1      37.167  33.110  38.733  1.00  0.00    -0.744 OA
ENDBRANCH  65  68
ENDBRANCH  47  61
BRANCH  48  72
ATOM     72  C   UNL A   1      41.390  27.092  27.967  1.00  0.00     0.023 A 
ATOM     73  C   UNL A   1      41.881  27.684  26.786  1.00  0.00     0.012 A 
ATOM     74  C   UNL A   1      41.052  25.725  27.961  1.00  0.00     0.148 A 
ATOM     75  C   UNL A   1      41.988  26.943  25.609  1.00  0.00     0.002 A 
ATOM     76  C   UNL A   1      41.208  24.980  26.798  1.00  0.00     0.091 A 
ATOM     77  F   UNL A   1      40.586  25.182  29.095  1.00  0.00    -0.205 F 
ATOM     78  C   UNL A   1      41.656  25.591  25.615  1.00  0.00     0.022 A 
BRANCH  76  79
ATOM     79  S   UNL A   1      40.908  23.211  26.736  1.00  0.00     0.127 S 
ATOM     80  O   UNL A   1      39.454  23.156  26.615  1.00  0.00    -0.237 OA
ATOM     81  O   UNL A   1      41.644  22.826  25.531  1.00  0.00    -0.237 OA
ATOM     82  O   UNL A   1      41.459  22.676  27.974  1.00  0.00    -0.744 OA
ENDBRANCH  76  79
ENDBRANCH  48  72
BRANCH  60  83
ATOM     83  C   UNL A   1      44.695  27.242  34.117  1.00  0.00     0.023 A 
ATOM     84  C   UNL A   1      46.038  27.666  34.072  1.00  0.00     0.012 A 
ATOM     85  C   UNL A   1      44.363  26.075  34.835  1.00  0.00     0.148 A 
ATOM     86  C   UNL A   1      47.034  26.928  34.711  1.00  0.00     0.002 A 
ATOM     87  C   UNL A   1      45.355  25.373  35.512  1.00  0.00     0.091 A 
ATOM     88  F   UNL A   1      43.083  25.677  34.851  1.00  0.00    -0.205 F 
ATOM     89  C   UNL A   1      46.693  25.792  35.442  1.00  0.00     0.022 A 
BRANCH  87  90
ATOM     90  S   UNL A   1      44.992  23.959  36.562  1.00  0.00     0.127 S 
ATOM     91  O   UNL A   1      43.963  23.269  35.785  1.00  0.00    -0.237 OA
ATOM     92  O   UNL A   1      46.283  23.271  36.610  1.00  0.00    -0.237 OA
ATOM     93  O   UNL A   1      44.550  24.506  37.836  1.00  0.00    -0.744 OA
ENDBRANCH  87  90
ENDBRANCH  60  83
ENDBRANCH  34  35
ENDBRANCH  27  29
ENDBRANCH  26  27
ENDBRANCH  25  26
ENDBRANCH  24  25
ENDBRANCH  23  24
ENDBRANCH   1  23
TORSDOF 22
ENDMDL
MODEL 3
REMARK VINA RESULT:     -10.2      5.840     10.519
REMARK SMILES Cc1nc(CCC(F)(F)F)[nH]c(=O)c1CCC(=O)OCCOCCOC(=O)c1ccc(-c2c3nc(c(-c4cccc(S(=O)(=O)[O-])c4F)c4ccc([nH]4)c(-c4cccc(S(=O)(=O)[O-])c4F)c4nc(c(-c5cccc(S(=O)(=O)[O-])c5F)c5ccc2[nH]5)C=C4)C=C3)cc1
REMARK SMILES IDX 21 1 20 2 19 3 17 4 18 5 16 6 15 7 14 8 1 9 2 10 3 11 4 12
REMARK SMILES IDX 12 13 11 14 13 15 5 17 6 18 7 19 8 20 9 21 10 22 22 23 23 24
REMARK SMILES IDX 24 25 25 26 26 27 27 28 28 29 29 30 90 31 30 32 89 33 31 34
REMARK SMILES IDX 32 35 33 36 83 37 34 38 88 39 82 40 84 41 35 42 87 43 81 44
REMARK SMILES IDX 80 45 36 47 68 48 48 49 67 50 49 51 52 52 66 53 85 54 50 55
REMARK SMILES IDX 51 56 65 58 86 59 53 60 37 61 38 62 46 63 39 64 41 65 47 66
REMARK SMILES IDX 40 67 42 68 43 69 44 70 45 71 69 72 70 73 78 74 71 75 73 76
REMARK SMILES IDX 79 77 72 78 74 79 75 80 76 81 77 82 54 83 55 84 63 85 56 86
REMARK SMILES IDX 58 87 64 88 57 89 59 90 60 91 61 92 62 93
REMARK H PARENT 11 16 84 46 52 57
REMARK Flexibility Score: inf
ROOT
ATOM      1  C   UNL A   1      34.492  20.007  24.982  1.00  0.00     0.202 C 
ENDROOT
BRANCH   1   2
ATOM      2  C   UNL A   1      32.958  19.994  25.074  1.00  0.00     0.261 C 
BRANCH   2   3
ATOM      3  O   UNL A   1      32.330  20.907  24.152  1.00  0.00    -0.463 OA
BRANCH   3   4
ATOM      4  C   UNL A   1      31.846  22.069  24.645  1.00  0.00     0.306 C 
ATOM      5  O   UNL A   1      31.514  22.259  25.809  1.00  0.00    -0.252 OA
BRANCH   4   6
ATOM      6  C   UNL A   1      31.717  23.125  23.567  1.00  0.00     0.128 C 
BRANCH   6   7
ATOM      7  C   UNL A   1      32.447  24.452  23.828  1.00  0.00     0.055 C 
BRANCH   7   8
ATOM      8  C   UNL A   1      31.727  25.679  23.322  1.00  0.00     0.039 A 
ATOM      9  C   UNL A   1      32.612  25.563  20.991  1.00  0.00     0.067 C 
ATOM     10  C   UNL A   1      31.802  26.207  22.083  1.00  0.00     0.048 A 
ATOM     11  N   UNL A   1      31.180  27.376  21.701  1.00  0.00    -0.240 NA
ATOM     12  C   UNL A   1      30.564  28.057  22.612  1.00  0.00     0.109 A 
ATOM     13  C   UNL A   1      30.757  26.343  24.222  1.00  0.00     0.254 A 
ATOM     14  N   UNL A   1      30.409  27.609  23.887  1.00  0.00    -0.310 N 
ATOM     15  O   UNL A   1      30.248  25.765  25.173  1.00  0.00    -0.269 OA
ATOM     16  H   UNL A   1      30.040  28.211  24.573  1.00  0.00     0.171 HD
BRANCH  12  17
ATOM     17  C   UNL A   1      29.949  29.401  22.298  1.00  0.00     0.084 C 
BRANCH  17  18
ATOM     18  C   UNL A   1      29.147  30.006  23.449  1.00  0.00     0.123 C 
BRANCH  18  19
ATOM     19  C   UNL A   1      28.069  30.947  22.986  1.00  0.00     0.389 C 
ATOM     20  F   UNL A   1      27.466  31.550  24.035  1.00  0.00    -0.171 F 
ATOM     21  F   UNL A   1      28.552  31.898  22.165  1.00  0.00    -0.171 F 
ATOM     22  F   UNL A   1      27.105  30.283  22.307  1.00  0.00    -0.171 F 
ENDBRANCH  18  19
ENDBRANCH  17  18
ENDBRANCH  12  17
ENDBRANCH   7   8
ENDBRANCH   6   7
ENDBRANCH   4   6
ENDBRANCH   3   4
ENDBRANCH   2   3
ENDBRANCH   1   2
BRANCH   1  23
ATOM     23  O   UNL A   1      35.067  21.288  24.704  1.00  0.00    -0.374 OA
BRANCH  23  24
ATOM     24  C   UNL A   1      36.183  21.628  25.526  1.00  0.00     0.202 C 
BRANCH  24  25
ATOM     25  C   UNL A   1      37.408  20.717  25.381  1.00  0.00     0.261 C 
BRANCH  25  26
ATOM     26  O   UNL A   1      38.632  21.467  25.283  1.00  0.00    -0.460 OA
BRANCH  26  27
ATOM     27  C   UNL A   1      39.489  21.330  26.326  1.00  0.00     0.338 C 
ATOM     28  O   UNL A   1      39.941  20.296  26.770  1.00  0.00    -0.246 OA
BRANCH  27  29
ATOM     29  C   UNL A   1      39.936  22.670  26.776  1.00  0.00     0.060 A 
ATOM     30  C   UNL A   1      39.372  23.798  26.167  1.00  0.00     0.016 A 
ATOM     31  C   UNL A   1      40.908  22.829  27.758  1.00  0.00     0.016 A 
ATOM     32  C   UNL A   1      39.787  25.087  26.529  1.00  0.00     0.010 A 
ATOM     33  C   UNL A   1      41.317  24.121  28.114  1.00  0.00     0.010 A 
ATOM     34  C   UNL A   1      40.773  25.272  27.508  1.00  0.00    -0.014 A 
BRANCH  34  35
ATOM     35  C   UNL A   1      41.280  26.639  27.868  1.00  0.00     0.031 A 
ATOM     36  C   UNL A   1      42.727  27.001  27.600  1.00  0.00     0.074 A 
ATOM     37  C   UNL A   1      40.506  27.550  28.499  1.00  0.00     0.049 A 
ATOM     38  N   UNL A   1      43.381  28.095  27.907  1.00  0.00    -0.248 NA
ATOM     39  C   UNL A   1      43.550  25.987  26.922  1.00  0.00     0.031 C 
ATOM     40  C   UNL A   1      39.110  27.362  28.895  1.00  0.00     0.029 A 
ATOM     41  N   UNL A   1      40.805  28.815  28.960  1.00  0.00    -0.354 N 
ATOM     42  C   UNL A   1      44.694  27.880  27.504  1.00  0.00     0.074 A 
ATOM     43  C   UNL A   1      44.755  26.529  26.987  1.00  0.00     0.031 C 
ATOM     44  C   UNL A   1      38.686  28.451  29.561  1.00  0.00     0.029 A 
ATOM     45  C   UNL A   1      39.777  29.420  29.649  1.00  0.00     0.049 A 
ATOM     46  H   UNL A   1      41.677  29.248  28.811  1.00  0.00     0.167 HD
ATOM     47  C   UNL A   1      45.750  28.730  27.507  1.00  0.00     0.034 A 
ATOM     48  C   UNL A   1      39.709  30.610  30.282  1.00  0.00     0.034 A 
ATOM     49  C   UNL A   1      45.697  30.099  27.938  1.00  0.00     0.049 A 
ATOM     50  C   UNL A   1      40.886  31.555  30.252  1.00  0.00     0.074 A 
ATOM     51  C   UNL A   1      46.686  31.065  27.854  1.00  0.00     0.029 A 
ATOM     52  N   UNL A   1      44.604  30.701  28.534  1.00  0.00    -0.354 N 
ATOM     53  N   UNL A   1      42.061  31.393  29.699  1.00  0.00    -0.248 NA
ATOM     54  C   UNL A   1      40.705  32.872  30.887  1.00  0.00     0.031 C 
ATOM     55  C   UNL A   1      46.197  32.246  28.421  1.00  0.00     0.029 A 
ATOM     56  C   UNL A   1      44.894  32.023  28.829  1.00  0.00     0.049 A 
ATOM     57  H   UNL A   1      43.746  30.255  28.722  1.00  0.00     0.167 HD
ATOM     58  C   UNL A   1      42.731  32.603  29.860  1.00  0.00     0.074 A 
ATOM     59  C   UNL A   1      41.833  33.491  30.565  1.00  0.00     0.031 C 
ATOM     60  C   UNL A   1      43.980  32.941  29.456  1.00  0.00     0.034 A 
BRANCH  47  61
ATOM     61  C   UNL A   1      47.052  28.220  26.944  1.00  0.00     0.023 A 
ATOM     62  C   UNL A   1      48.096  27.863  27.824  1.00  0.00     0.012 A 
ATOM     63  C   UNL A   1      47.230  28.048  25.558  1.00  0.00     0.148 A 
ATOM     64  C   UNL A   1      49.314  27.398  27.334  1.00  0.00     0.002 A 
ATOM     65  C   UNL A   1      48.429  27.532  25.078  1.00  0.00     0.091 A 
ATOM     66  F   UNL A   1      46.232  28.400  24.734  1.00  0.00    -0.205 F 
ATOM     67  C   UNL A   1      49.476  27.223  25.963  1.00  0.00     0.022 A 
BRANCH  65  68
ATOM     68  S   UNL A   1      48.706  27.178  23.340  1.00  0.00     0.127 S 
ATOM     69  O   UNL A   1      48.038  25.886  23.191  1.00  0.00    -0.237 OA
ATOM     70  O   UNL A   1      48.025  28.296  22.686  1.00  0.00    -0.237 OA
ATOM     71  O   UNL A   1      50.151  27.159  23.159  1.00  0.00    -0.744 OA
ENDBRANCH  65  68
ENDBRANCH  47  61
BRANCH  48  72
ATOM     72  C   UNL A   1      38.448  31.031  30.957  1.00  0.00     0.023 A 
ATOM     73  C   UNL A   1      38.250  30.713  32.316  1.00  0.00     0.012 A 
ATOM     74  C   UNL A   1      37.436  31.716  30.258  1.00  0.00     0.148 A 
ATOM     75  C   UNL A   1      37.050  31.028  32.954  1.00  0.00     0.002 A 
ATOM     76  C   UNL A   1      36.262  32.070  30.913  1.00  0.00     0.091 A 
ATOM     77  F   UNL A   1      37.644  32.008  28.966  1.00  0.00    -0.205 F 
ATOM     78  C   UNL A   1      36.058  31.710  32.255  1.00  0.00     0.022 A 
BRANCH  76  79
ATOM     79  S   UNL A   1      34.973  33.042  30.128  1.00  0.00     0.127 S 
ATOM     80  O   UNL A   1      35.736  34.147  29.554  1.00  0.00    -0.237 OA
ATOM     81  O   UNL A   1      34.436  32.092  29.153  1.00  0.00    -0.237 OA
ATOM     82  O   UNL A   1      34.046  33.401  31.193  1.00  0.00    -0.744 OA
ENDBRANCH  76  79
ENDBRANCH  48  72
BRANCH  60  83
ATOM     83  C   UNL A   1      44.452  34.357  29.675  1.00  0.00     0.023 A 
ATOM     84  C   UNL A   1      45.081  34.720  30.883  1.00  0.00     0.012 A 
ATOM     85  C   UNL A   1      44.363  35.304  28.633  1.00  0.00     0.148 A 
ATOM     86  C   UNL A   1      45.590  36.007  31.058  1.00  0.00     0.002 A 
ATOM     87  C   UNL A   1      44.918  36.568  28.797  1.00  0.00     0.091 A 
ATOM     88  F   UNL A   1      43.745  34.948  27.498  1.00  0.00    -0.205 F 
ATOM     89  C   UNL A   1      45.522  36.925  30.012  1.00  0.00     0.022 A 
BRANCH  87  90
ATOM     90  S   UNL A   1      44.968  37.780  27.470  1.00  0.00     0.127 S 
ATOM     91  O   UNL A   1      45.518  38.949  28.155  1.00  0.00    -0.237 OA
ATOM     92  O   UNL A   1      45.877  37.152  26.511  1.00  0.00    -0.237 OA
ATOM     93  O   UNL A   1      43.597  37.921  27.001  1.00  0.00    -0.744 OA
ENDBRANCH  87  90
ENDBRANCH  60  83
ENDBRANCH  34  35
ENDBRANCH  27  29
ENDBRANCH  26  27
ENDBRANCH  25  26
ENDBRANCH  24  25
ENDBRANCH  23  24
ENDBRANCH   1  23
TORSDOF 22
ENDMDL
