MODEL 1
REMARK VINA RESULT:     -10.0      0.000      0.000
REMARK SMILES Cc1nc(C(=O)OCCOCCOC(=O)c2ccc(-c3c4nc(c(-c5cccc(S(=O)(=O)[O-])c5F)c5ccc([nH]5)c(-c5cccc(S(=O)(=O)[O-])c5F)c5nc(c(-c6cccc(S(=O)(=O)[O-])c6F)c6ccc3[nH]6)C=C5)C=C4)cc2)nn1-c1cccc(C(F)(F)F)c1
REMARK SMILES IDX 11 1 10 2 9 3 8 4 7 5 5 6 6 7 4 8 1 9 2 10 3 11 80 12 79 13
REMARK SMILES IDX 81 14 82 15 90 16 83 17 85 18 84 19 86 20 87 21 88 22 89 23
REMARK SMILES IDX 12 24 13 25 14 26 15 27 16 28 17 29 78 30 18 31 77 32 19 33
REMARK SMILES IDX 20 34 21 35 71 36 22 37 76 38 70 39 72 40 23 41 75 42 69 43
REMARK SMILES IDX 68 44 24 46 56 47 36 48 55 49 37 50 40 51 54 52 73 53 38 54
REMARK SMILES IDX 39 55 53 57 74 58 41 59 25 60 26 61 34 62 27 63 29 64 35 65
REMARK SMILES IDX 28 66 30 67 31 68 32 69 33 70 57 71 58 72 66 73 59 74 61 75
REMARK SMILES IDX 67 76 60 77 62 78 63 79 64 80 65 81 42 82 43 83 51 84 44 85
REMARK SMILES IDX 46 86 52 87 45 88 47 89 48 90 49 91 50 92
REMARK H PARENT 72 45 40 56
REMARK Flexibility Score: inf
ROOT
ATOM      1  C   UNL A   1      36.756  21.433  25.438  1.00  0.00     0.202 C 
ENDROOT
BRANCH   1   2
ATOM      2  O   UNL A   1      35.567  20.863  24.894  1.00  0.00    -0.374 OA
BRANCH   2   3
ATOM      3  C   UNL A   1      34.501  21.711  24.463  1.00  0.00     0.202 C 
BRANCH   3   4
ATOM      4  C   UNL A   1      33.074  21.306  24.830  1.00  0.00     0.261 C 
BRANCH   4   5
ATOM      5  O   UNL A   1      32.894  21.152  26.245  1.00  0.00    -0.457 OA
BRANCH   5   6
ATOM      6  C   UNL A   1      33.295  22.213  27.011  1.00  0.00     0.378 C 
ATOM      7  O   UNL A   1      34.184  22.152  27.859  1.00  0.00    -0.242 OA
BRANCH   6   8
ATOM      8  C   UNL A   1      32.637  23.471  26.624  1.00  0.00     0.260 A 
ATOM      9  C   UNL A   1      29.738  25.417  25.916  1.00  0.00     0.090 C 
ATOM     10  C   UNL A   1      31.073  24.871  26.265  1.00  0.00     0.130 A 
ATOM     11  N   UNL A   1      31.270  23.635  26.679  1.00  0.00    -0.206 NA
ATOM     12  N   UNL A   1      32.298  25.461  25.997  1.00  0.00    -0.217 N 
ATOM     13  N   UNL A   1      33.290  24.548  26.163  1.00  0.00    -0.138 NA
BRANCH  12  14
ATOM     14  C   UNL A   1      32.602  26.756  25.512  1.00  0.00     0.067 A 
ATOM     15  C   UNL A   1      33.308  26.864  24.304  1.00  0.00     0.028 A 
ATOM     16  C   UNL A   1      32.244  27.911  26.218  1.00  0.00     0.041 A 
ATOM     17  C   UNL A   1      33.596  28.120  23.773  1.00  0.00     0.003 A 
ATOM     18  C   UNL A   1      32.564  29.181  25.702  1.00  0.00     0.058 A 
ATOM     19  C   UNL A   1      33.224  29.270  24.465  1.00  0.00     0.013 A 
BRANCH  18  20
ATOM     20  C   UNL A   1      32.226  30.450  26.456  1.00  0.00     0.416 C 
ATOM     21  F   UNL A   1      33.330  31.140  26.833  1.00  0.00    -0.166 F 
ATOM     22  F   UNL A   1      31.492  31.303  25.684  1.00  0.00    -0.166 F 
ATOM     23  F   UNL A   1      31.482  30.229  27.570  1.00  0.00    -0.166 F 
ENDBRANCH  18  20
ENDBRANCH  12  14
ENDBRANCH   6   8
ENDBRANCH   5   6
ENDBRANCH   4   5
ENDBRANCH   3   4
ENDBRANCH   2   3
ENDBRANCH   1   2
BRANCH   1  24
ATOM     24  C   UNL A   1      38.095  20.870  24.986  1.00  0.00     0.261 C 
BRANCH  24  25
ATOM     25  O   UNL A   1      39.122  21.211  25.898  1.00  0.00    -0.460 OA
BRANCH  25  26
ATOM     26  C   UNL A   1      40.156  20.346  25.936  1.00  0.00     0.338 C 
ATOM     27  O   UNL A   1      40.131  19.145  25.674  1.00  0.00    -0.246 OA
BRANCH  26  28
ATOM     28  C   UNL A   1      41.315  21.050  26.487  1.00  0.00     0.060 A 
ATOM     29  C   UNL A   1      41.425  20.976  27.875  1.00  0.00     0.016 A 
ATOM     30  C   UNL A   1      41.895  22.083  25.733  1.00  0.00     0.016 A 
ATOM     31  C   UNL A   1      41.790  22.120  28.533  1.00  0.00     0.010 A 
ATOM     32  C   UNL A   1      42.231  23.235  26.390  1.00  0.00     0.010 A 
ATOM     33  C   UNL A   1      42.060  23.260  27.770  1.00  0.00    -0.014 A 
BRANCH  33  34
ATOM     34  C   UNL A   1      42.203  24.501  28.481  1.00  0.00     0.031 A 
ATOM     35  C   UNL A   1      41.075  25.413  28.243  1.00  0.00     0.074 A 
ATOM     36  C   UNL A   1      43.243  24.742  29.297  1.00  0.00     0.049 A 
ATOM     37  N   UNL A   1      41.089  26.494  27.540  1.00  0.00    -0.248 NA
ATOM     38  C   UNL A   1      39.738  24.955  28.640  1.00  0.00     0.031 C 
ATOM     39  C   UNL A   1      44.248  23.801  29.799  1.00  0.00     0.029 A 
ATOM     40  N   UNL A   1      43.516  25.884  29.975  1.00  0.00    -0.354 N 
ATOM     41  C   UNL A   1      39.786  26.971  27.597  1.00  0.00     0.074 A 
ATOM     42  C   UNL A   1      38.973  25.882  28.065  1.00  0.00     0.031 C 
ATOM     43  C   UNL A   1      44.830  24.340  30.896  1.00  0.00     0.029 A 
ATOM     44  C   UNL A   1      44.315  25.686  31.090  1.00  0.00     0.049 A 
ATOM     45  H   UNL A   1      43.179  26.767  29.702  1.00  0.00     0.167 HD
ATOM     46  C   UNL A   1      39.524  28.301  27.510  1.00  0.00     0.034 A 
ATOM     47  C   UNL A   1      44.405  26.530  32.148  1.00  0.00     0.034 A 
ATOM     48  C   UNL A   1      40.665  29.032  27.020  1.00  0.00     0.049 A 
ATOM     49  C   UNL A   1      43.937  27.865  31.689  1.00  0.00     0.074 A 
ATOM     50  C   UNL A   1      41.415  28.997  25.861  1.00  0.00     0.029 A 
ATOM     51  N   UNL A   1      41.431  29.692  27.953  1.00  0.00    -0.354 N 
ATOM     52  N   UNL A   1      44.575  28.581  30.803  1.00  0.00    -0.248 NA
ATOM     53  C   UNL A   1      42.530  28.199  31.857  1.00  0.00     0.031 C 
ATOM     54  C   UNL A   1      42.757  29.223  26.285  1.00  0.00     0.029 A 
ATOM     55  C   UNL A   1      42.745  29.436  27.665  1.00  0.00     0.049 A 
ATOM     56  H   UNL A   1      41.095  30.247  28.693  1.00  0.00     0.167 HD
ATOM     57  C   UNL A   1      43.574  29.108  29.994  1.00  0.00     0.074 A 
ATOM     58  C   UNL A   1      42.339  28.936  30.758  1.00  0.00     0.031 C 
ATOM     59  C   UNL A   1      43.789  29.347  28.665  1.00  0.00     0.034 A 
BRANCH  46  60
ATOM     60  C   UNL A   1      38.379  28.990  28.206  1.00  0.00     0.023 A 
ATOM     61  C   UNL A   1      37.485  29.718  27.393  1.00  0.00     0.012 A 
ATOM     62  C   UNL A   1      38.281  29.187  29.603  1.00  0.00     0.148 A 
ATOM     63  C   UNL A   1      36.583  30.637  27.938  1.00  0.00     0.002 A 
ATOM     64  C   UNL A   1      37.327  30.036  30.146  1.00  0.00     0.091 A 
ATOM     65  F   UNL A   1      39.197  28.668  30.426  1.00  0.00    -0.205 F 
ATOM     66  C   UNL A   1      36.498  30.790  29.316  1.00  0.00     0.022 A 
BRANCH  64  67
ATOM     67  S   UNL A   1      37.149  30.226  31.923  1.00  0.00     0.127 S 
ATOM     68  O   UNL A   1      35.950  31.055  32.012  1.00  0.00    -0.237 OA
ATOM     69  O   UNL A   1      36.979  28.840  32.358  1.00  0.00    -0.237 OA
ATOM     70  O   UNL A   1      38.390  30.842  32.377  1.00  0.00    -0.744 OA
ENDBRANCH  64  67
ENDBRANCH  46  60
BRANCH  47  71
ATOM     71  C   UNL A   1      44.539  26.179  33.582  1.00  0.00     0.023 A 
ATOM     72  C   UNL A   1      45.816  26.130  34.174  1.00  0.00     0.012 A 
ATOM     73  C   UNL A   1      43.414  26.143  34.438  1.00  0.00     0.148 A 
ATOM     74  C   UNL A   1      45.965  26.066  35.566  1.00  0.00     0.002 A 
ATOM     75  C   UNL A   1      43.565  26.060  35.817  1.00  0.00     0.091 A 
ATOM     76  F   UNL A   1      42.191  26.296  33.915  1.00  0.00    -0.205 F 
ATOM     77  C   UNL A   1      44.841  26.033  36.388  1.00  0.00     0.022 A 
BRANCH  75  78
ATOM     78  S   UNL A   1      42.144  26.030  36.920  1.00  0.00     0.127 S 
ATOM     79  O   UNL A   1      41.343  27.148  36.420  1.00  0.00    -0.237 OA
ATOM     80  O   UNL A   1      41.587  24.707  36.654  1.00  0.00    -0.237 OA
ATOM     81  O   UNL A   1      42.682  26.237  38.260  1.00  0.00    -0.744 OA
ENDBRANCH  75  78
ENDBRANCH  47  71
BRANCH  59  82
ATOM     82  C   UNL A   1      45.200  29.225  28.136  1.00  0.00     0.023 A 
ATOM     83  C   UNL A   1      46.137  30.272  28.260  1.00  0.00     0.012 A 
ATOM     84  C   UNL A   1      45.646  27.969  27.695  1.00  0.00     0.148 A 
ATOM     85  C   UNL A   1      47.482  30.079  27.931  1.00  0.00     0.002 A 
ATOM     86  C   UNL A   1      46.993  27.766  27.418  1.00  0.00     0.091 A 
ATOM     87  F   UNL A   1      44.748  26.977  27.589  1.00  0.00    -0.205 F 
ATOM     88  C   UNL A   1      47.913  28.821  27.524  1.00  0.00     0.022 A 
BRANCH  86  89
ATOM     89  S   UNL A   1      47.633  26.134  27.029  1.00  0.00     0.127 S 
ATOM     90  O   UNL A   1      47.456  25.427  28.295  1.00  0.00    -0.237 OA
ATOM     91  O   UNL A   1      46.743  25.694  25.953  1.00  0.00    -0.237 OA
ATOM     92  O   UNL A   1      49.014  26.338  26.609  1.00  0.00    -0.744 OA
ENDBRANCH  86  89
ENDBRANCH  59  82
ENDBRANCH  33  34
ENDBRANCH  26  28
ENDBRANCH  25  26
ENDBRANCH  24  25
ENDBRANCH   1  24
TORSDOF 19
ENDMDL
MODEL 2
REMARK VINA RESULT:     -10.0      1.804      2.220
REMARK SMILES Cc1nc(C(=O)OCCOCCOC(=O)c2ccc(-c3c4nc(c(-c5cccc(S(=O)(=O)[O-])c5F)c5ccc([nH]5)c(-c5cccc(S(=O)(=O)[O-])c5F)c5nc(c(-c6cccc(S(=O)(=O)[O-])c6F)c6ccc3[nH]6)C=C5)C=C4)cc2)nn1-c1cccc(C(F)(F)F)c1
REMARK SMILES IDX 11 1 10 2 9 3 8 4 7 5 5 6 6 7 4 8 1 9 2 10 3 11 80 12 79 13
REMARK SMILES IDX 81 14 82 15 90 16 83 17 85 18 84 19 86 20 87 21 88 22 89 23
REMARK SMILES IDX 12 24 13 25 14 26 15 27 16 28 17 29 78 30 18 31 77 32 19 33
REMARK SMILES IDX 20 34 21 35 71 36 22 37 76 38 70 39 72 40 23 41 75 42 69 43
REMARK SMILES IDX 68 44 24 46 56 47 36 48 55 49 37 50 40 51 54 52 73 53 38 54
REMARK SMILES IDX 39 55 53 57 74 58 41 59 25 60 26 61 34 62 27 63 29 64 35 65
REMARK SMILES IDX 28 66 30 67 31 68 32 69 33 70 57 71 58 72 66 73 59 74 61 75
REMARK SMILES IDX 67 76 60 77 62 78 63 79 64 80 65 81 42 82 43 83 51 84 44 85
REMARK SMILES IDX 46 86 52 87 45 88 47 89 48 90 49 91 50 92
REMARK H PARENT 72 45 40 56
REMARK Flexibility Score: inf
ROOT
ATOM      1  C   UNL A   1      36.669  22.360  25.732  1.00  0.00     0.202 C 
ENDROOT
BRANCH   1   2
ATOM      2  O   UNL A   1      35.262  22.203  25.908  1.00  0.00    -0.374 OA
BRANCH   2   3
ATOM      3  C   UNL A   1      34.660  20.920  25.733  1.00  0.00     0.202 C 
BRANCH   3   4
ATOM      4  C   UNL A   1      33.439  20.823  24.819  1.00  0.00     0.261 C 
BRANCH   4   5
ATOM      5  O   UNL A   1      33.635  21.500  23.570  1.00  0.00    -0.457 OA
BRANCH   5   6
ATOM      6  C   UNL A   1      32.494  21.905  22.931  1.00  0.00     0.378 C 
ATOM      7  O   UNL A   1      31.796  21.168  22.235  1.00  0.00    -0.242 OA
BRANCH   6   8
ATOM      8  C   UNL A   1      32.115  23.286  23.269  1.00  0.00     0.260 A 
ATOM      9  C   UNL A   1      29.688  25.826  23.861  1.00  0.00     0.090 C 
ATOM     10  C   UNL A   1      30.876  24.942  23.779  1.00  0.00     0.130 A 
ATOM     11  N   UNL A   1      30.810  23.652  23.517  1.00  0.00    -0.206 NA
ATOM     12  N   UNL A   1      32.200  25.348  23.727  1.00  0.00    -0.217 N 
ATOM     13  N   UNL A   1      32.982  24.307  23.338  1.00  0.00    -0.138 NA
BRANCH  12  14
ATOM     14  C   UNL A   1      32.772  26.630  23.913  1.00  0.00     0.067 A 
ATOM     15  C   UNL A   1      33.203  27.336  22.780  1.00  0.00     0.028 A 
ATOM     16  C   UNL A   1      32.939  27.185  25.188  1.00  0.00     0.041 A 
ATOM     17  C   UNL A   1      33.737  28.616  22.915  1.00  0.00     0.003 A 
ATOM     18  C   UNL A   1      33.511  28.463  25.332  1.00  0.00     0.058 A 
ATOM     19  C   UNL A   1      33.888  29.177  24.182  1.00  0.00     0.013 A 
BRANCH  18  20
ATOM     20  C   UNL A   1      33.742  29.079  26.696  1.00  0.00     0.416 C 
ATOM     21  F   UNL A   1      32.680  28.922  27.524  1.00  0.00    -0.166 F 
ATOM     22  F   UNL A   1      34.803  28.497  27.328  1.00  0.00    -0.166 F 
ATOM     23  F   UNL A   1      34.027  30.405  26.643  1.00  0.00    -0.166 F 
ENDBRANCH  18  20
ENDBRANCH  12  14
ENDBRANCH   6   8
ENDBRANCH   5   6
ENDBRANCH   4   5
ENDBRANCH   3   4
ENDBRANCH   2   3
ENDBRANCH   1   2
BRANCH   1  24
ATOM     24  C   UNL A   1      37.506  21.114  25.480  1.00  0.00     0.261 C 
BRANCH  24  25
ATOM     25  O   UNL A   1      38.882  21.435  25.405  1.00  0.00    -0.460 OA
BRANCH  25  26
ATOM     26  C   UNL A   1      39.717  20.407  25.657  1.00  0.00     0.338 C 
ATOM     27  O   UNL A   1      39.492  19.208  25.499  1.00  0.00    -0.246 OA
BRANCH  26  28
ATOM     28  C   UNL A   1      40.917  20.946  26.298  1.00  0.00     0.060 A 
ATOM     29  C   UNL A   1      40.932  20.822  27.686  1.00  0.00     0.016 A 
ATOM     30  C   UNL A   1      41.666  21.918  25.613  1.00  0.00     0.016 A 
ATOM     31  C   UNL A   1      41.394  21.894  28.402  1.00  0.00     0.010 A 
ATOM     32  C   UNL A   1      42.099  23.002  26.327  1.00  0.00     0.010 A 
ATOM     33  C   UNL A   1      41.848  23.012  27.695  1.00  0.00    -0.014 A 
BRANCH  33  34
ATOM     34  C   UNL A   1      42.099  24.206  28.454  1.00  0.00     0.031 A 
ATOM     35  C   UNL A   1      41.037  25.207  28.284  1.00  0.00     0.074 A 
ATOM     36  C   UNL A   1      43.172  24.334  29.252  1.00  0.00     0.049 A 
ATOM     37  N   UNL A   1      41.115  26.315  27.628  1.00  0.00    -0.248 NA
ATOM     38  C   UNL A   1      39.678  24.831  28.695  1.00  0.00     0.031 C 
ATOM     39  C   UNL A   1      44.115  23.301  29.688  1.00  0.00     0.029 A 
ATOM     40  N   UNL A   1      43.544  25.421  29.971  1.00  0.00    -0.354 N 
ATOM     41  C   UNL A   1      39.852  26.883  27.739  1.00  0.00     0.074 A 
ATOM     42  C   UNL A   1      38.971  25.836  28.181  1.00  0.00     0.031 C 
ATOM     43  C   UNL A   1      44.760  23.746  30.791  1.00  0.00     0.029 A 
ATOM     44  C   UNL A   1      44.352  25.116  31.056  1.00  0.00     0.049 A 
ATOM     45  H   UNL A   1      43.268  26.338  29.745  1.00  0.00     0.167 HD
ATOM     46  C   UNL A   1      39.687  28.230  27.715  1.00  0.00     0.034 A 
ATOM     47  C   UNL A   1      44.527  25.904  32.146  1.00  0.00     0.034 A 
ATOM     48  C   UNL A   1      40.868  28.898  27.228  1.00  0.00     0.049 A 
ATOM     49  C   UNL A   1      44.150  27.289  31.757  1.00  0.00     0.074 A 
ATOM     50  C   UNL A   1      41.587  28.859  26.049  1.00  0.00     0.029 A 
ATOM     51  N   UNL A   1      41.701  29.458  28.168  1.00  0.00    -0.354 N 
ATOM     52  N   UNL A   1      44.818  27.995  30.886  1.00  0.00    -0.248 NA
ATOM     53  C   UNL A   1      42.775  27.716  31.975  1.00  0.00     0.031 C 
ATOM     54  C   UNL A   1      42.951  28.968  26.448  1.00  0.00     0.029 A 
ATOM     55  C   UNL A   1      42.986  29.120  27.836  1.00  0.00     0.049 A 
ATOM     56  H   UNL A   1      41.424  30.002  28.940  1.00  0.00     0.167 HD
ATOM     57  C   UNL A   1      43.841  28.629  30.127  1.00  0.00     0.074 A 
ATOM     58  C   UNL A   1      42.614  28.514  30.914  1.00  0.00     0.031 C 
ATOM     59  C   UNL A   1      44.043  28.911  28.804  1.00  0.00     0.034 A 
BRANCH  46  60
ATOM     60  C   UNL A   1      38.613  28.970  28.470  1.00  0.00     0.023 A 
ATOM     61  C   UNL A   1      37.824  29.877  27.730  1.00  0.00     0.012 A 
ATOM     62  C   UNL A   1      38.507  29.029  29.879  1.00  0.00     0.148 A 
ATOM     63  C   UNL A   1      37.020  30.831  28.360  1.00  0.00     0.002 A 
ATOM     64  C   UNL A   1      37.643  29.921  30.499  1.00  0.00     0.091 A 
ATOM     65  F   UNL A   1      39.340  28.326  30.651  1.00  0.00    -0.205 F 
ATOM     66  C   UNL A   1      36.923  30.848  29.746  1.00  0.00     0.022 A 
BRANCH  64  67
ATOM     67  S   UNL A   1      37.449  29.943  32.285  1.00  0.00     0.127 S 
ATOM     68  O   UNL A   1      38.722  30.517  32.712  1.00  0.00    -0.237 OA
ATOM     69  O   UNL A   1      36.287  30.817  32.450  1.00  0.00    -0.237 OA
ATOM     70  O   UNL A   1      37.208  28.558  32.670  1.00  0.00    -0.744 OA
ENDBRANCH  64  67
ENDBRANCH  46  60
BRANCH  47  71
ATOM     71  C   UNL A   1      44.668  25.481  33.560  1.00  0.00     0.023 A 
ATOM     72  C   UNL A   1      43.553  24.971  34.254  1.00  0.00     0.012 A 
ATOM     73  C   UNL A   1      45.941  25.334  34.159  1.00  0.00     0.148 A 
ATOM     74  C   UNL A   1      43.703  24.322  35.486  1.00  0.00     0.002 A 
ATOM     75  C   UNL A   1      46.084  24.707  35.392  1.00  0.00     0.091 A 
ATOM     76  F   UNL A   1      47.030  25.711  33.479  1.00  0.00    -0.205 F 
ATOM     77  C   UNL A   1      44.968  24.188  36.055  1.00  0.00     0.022 A 
BRANCH  75  78
ATOM     78  S   UNL A   1      47.697  24.497  36.159  1.00  0.00     0.127 S 
ATOM     79  O   UNL A   1      48.196  25.873  36.205  1.00  0.00    -0.237 OA
ATOM     80  O   UNL A   1      47.342  23.929  37.455  1.00  0.00    -0.237 OA
ATOM     81  O   UNL A   1      48.448  23.624  35.264  1.00  0.00    -0.744 OA
ENDBRANCH  75  78
ENDBRANCH  47  71
BRANCH  59  82
ATOM     82  C   UNL A   1      45.428  28.709  28.234  1.00  0.00     0.023 A 
ATOM     83  C   UNL A   1      46.443  29.680  28.376  1.00  0.00     0.012 A 
ATOM     84  C   UNL A   1      45.772  27.444  27.732  1.00  0.00     0.148 A 
ATOM     85  C   UNL A   1      47.762  29.405  28.004  1.00  0.00     0.002 A 
ATOM     86  C   UNL A   1      47.094  27.156  27.411  1.00  0.00     0.091 A 
ATOM     87  F   UNL A   1      44.802  26.524  27.609  1.00  0.00    -0.205 F 
ATOM     88  C   UNL A   1      48.090  28.137  27.536  1.00  0.00     0.022 A 
BRANCH  86  89
ATOM     89  S   UNL A   1      47.603  25.501  26.941  1.00  0.00     0.127 S 
ATOM     90  O   UNL A   1      47.031  25.374  25.603  1.00  0.00    -0.237 OA
ATOM     91  O   UNL A   1      49.064  25.597  26.975  1.00  0.00    -0.237 OA
ATOM     92  O   UNL A   1      47.045  24.610  27.951  1.00  0.00    -0.744 OA
ENDBRANCH  86  89
ENDBRANCH  59  82
ENDBRANCH  33  34
ENDBRANCH  26  28
ENDBRANCH  25  26
ENDBRANCH  24  25
ENDBRANCH   1  24
TORSDOF 19
ENDMDL
MODEL 3
REMARK VINA RESULT:     -10.0      4.615      9.476
REMARK SMILES Cc1nc(C(=O)OCCOCCOC(=O)c2ccc(-c3c4nc(c(-c5cccc(S(=O)(=O)[O-])c5F)c5ccc([nH]5)c(-c5cccc(S(=O)(=O)[O-])c5F)c5nc(c(-c6cccc(S(=O)(=O)[O-])c6F)c6ccc3[nH]6)C=C5)C=C4)cc2)nn1-c1cccc(C(F)(F)F)c1
REMARK SMILES IDX 11 1 10 2 9 3 8 4 7 5 5 6 6 7 4 8 1 9 2 10 3 11 80 12 79 13
REMARK SMILES IDX 81 14 82 15 90 16 83 17 85 18 84 19 86 20 87 21 88 22 89 23
REMARK SMILES IDX 12 24 13 25 14 26 15 27 16 28 17 29 78 30 18 31 77 32 19 33
REMARK SMILES IDX 20 34 21 35 71 36 22 37 76 38 70 39 72 40 23 41 75 42 69 43
REMARK SMILES IDX 68 44 24 46 56 47 36 48 55 49 37 50 40 51 54 52 73 53 38 54
REMARK SMILES IDX 39 55 53 57 74 58 41 59 25 60 26 61 34 62 27 63 29 64 35 65
REMARK SMILES IDX 28 66 30 67 31 68 32 69 33 70 57 71 58 72 66 73 59 74 61 75
REMARK SMILES IDX 67 76 60 77 62 78 63 79 64 80 65 81 42 82 43 83 51 84 44 85
REMARK SMILES IDX 46 86 52 87 45 88 47 89 48 90 49 91 50 92
REMARK H PARENT 72 45 40 56
REMARK Flexibility Score: inf
ROOT
ATOM      1  C   UNL A   1      34.846  34.032  28.060  1.00  0.00     0.202 C 
ENDROOT
BRANCH   1   2
ATOM      2  O   UNL A   1      34.592  35.030  29.047  1.00  0.00    -0.374 OA
BRANCH   2   3
ATOM      3  C   UNL A   1      33.248  35.411  29.347  1.00  0.00     0.202 C 
BRANCH   3   4
ATOM      4  C   UNL A   1      33.034  36.518  30.378  1.00  0.00     0.261 C 
BRANCH   4   5
ATOM      5  O   UNL A   1      33.915  36.398  31.504  1.00  0.00    -0.457 OA
BRANCH   5   6
ATOM      6  C   UNL A   1      33.612  35.399  32.388  1.00  0.00     0.378 C 
ATOM      7  O   UNL A   1      32.473  34.980  32.590  1.00  0.00    -0.242 OA
BRANCH   6   8
ATOM      8  C   UNL A   1      34.811  34.786  32.982  1.00  0.00     0.260 A 
ATOM      9  C   UNL A   1      36.701  33.639  35.776  1.00  0.00     0.090 C 
ATOM     10  C   UNL A   1      36.084  33.927  34.458  1.00  0.00     0.130 A 
ATOM     11  N   UNL A   1      34.876  34.435  34.313  1.00  0.00    -0.206 NA
ATOM     12  N   UNL A   1      36.729  33.934  33.232  1.00  0.00    -0.217 N 
ATOM     13  N   UNL A   1      35.943  34.542  32.306  1.00  0.00    -0.138 NA
BRANCH  12  14
ATOM     14  C   UNL A   1      38.037  33.517  32.884  1.00  0.00     0.067 A 
ATOM     15  C   UNL A   1      38.638  32.507  33.651  1.00  0.00     0.028 A 
ATOM     16  C   UNL A   1      38.741  34.103  31.826  1.00  0.00     0.041 A 
ATOM     17  C   UNL A   1      39.909  32.040  33.320  1.00  0.00     0.003 A 
ATOM     18  C   UNL A   1      40.039  33.659  31.510  1.00  0.00     0.058 A 
ATOM     19  C   UNL A   1      40.604  32.610  32.255  1.00  0.00     0.013 A 
BRANCH  18  20
ATOM     20  C   UNL A   1      40.845  34.295  30.396  1.00  0.00     0.416 C 
ATOM     21  F   UNL A   1      41.382  33.379  29.555  1.00  0.00    -0.166 F 
ATOM     22  F   UNL A   1      40.066  35.107  29.624  1.00  0.00    -0.166 F 
ATOM     23  F   UNL A   1      41.858  35.078  30.849  1.00  0.00    -0.166 F 
ENDBRANCH  18  20
ENDBRANCH  12  14
ENDBRANCH   6   8
ENDBRANCH   5   6
ENDBRANCH   4   5
ENDBRANCH   3   4
ENDBRANCH   2   3
ENDBRANCH   1   2
BRANCH   1  24
ATOM     24  C   UNL A   1      33.973  32.785  28.057  1.00  0.00     0.261 C 
BRANCH  24  25
ATOM     25  O   UNL A   1      34.455  31.827  28.981  1.00  0.00    -0.460 OA
BRANCH  25  26
ATOM     26  C   UNL A   1      35.327  30.935  28.469  1.00  0.00     0.338 C 
ATOM     27  O   UNL A   1      35.222  30.312  27.414  1.00  0.00    -0.246 OA
BRANCH  26  28
ATOM     28  C   UNL A   1      36.382  30.715  29.459  1.00  0.00     0.060 A 
ATOM     29  C   UNL A   1      37.474  31.572  29.336  1.00  0.00     0.016 A 
ATOM     30  C   UNL A   1      36.468  29.458  30.081  1.00  0.00     0.016 A 
ATOM     31  C   UNL A   1      38.718  31.023  29.495  1.00  0.00     0.010 A 
ATOM     32  C   UNL A   1      37.711  28.901  30.210  1.00  0.00     0.010 A 
ATOM     33  C   UNL A   1      38.802  29.662  29.804  1.00  0.00    -0.014 A 
BRANCH  33  34
ATOM     34  C   UNL A   1      40.103  29.055  29.729  1.00  0.00     0.031 A 
ATOM     35  C   UNL A   1      40.725  28.907  31.052  1.00  0.00     0.074 A 
ATOM     36  C   UNL A   1      40.633  28.643  28.565  1.00  0.00     0.049 A 
ATOM     37  N   UNL A   1      41.717  29.585  31.521  1.00  0.00    -0.248 NA
ATOM     38  C   UNL A   1      40.027  28.076  32.041  1.00  0.00     0.031 C 
ATOM     39  C   UNL A   1      39.980  28.501  27.262  1.00  0.00     0.029 A 
ATOM     40  N   UNL A   1      41.863  28.110  28.359  1.00  0.00    -0.354 N 
ATOM     41  C   UNL A   1      41.906  29.095  32.807  1.00  0.00     0.074 A 
ATOM     42  C   UNL A   1      40.713  28.367  33.145  1.00  0.00     0.031 C 
ATOM     43  C   UNL A   1      40.726  27.672  26.496  1.00  0.00     0.029 A 
ATOM     44  C   UNL A   1      41.942  27.329  27.216  1.00  0.00     0.049 A 
ATOM     45  H   UNL A   1      42.625  28.263  28.963  1.00  0.00     0.167 HD
ATOM     46  C   UNL A   1      43.134  29.103  33.385  1.00  0.00     0.034 A 
ATOM     47  C   UNL A   1      42.876  26.374  26.985  1.00  0.00     0.034 A 
ATOM     48  C   UNL A   1      44.048  29.958  32.670  1.00  0.00     0.049 A 
ATOM     49  C   UNL A   1      44.033  26.662  27.874  1.00  0.00     0.074 A 
ATOM     50  C   UNL A   1      44.072  31.303  32.354  1.00  0.00     0.029 A 
ATOM     51  N   UNL A   1      44.937  29.348  31.817  1.00  0.00    -0.354 N 
ATOM     52  N   UNL A   1      44.788  27.720  27.746  1.00  0.00    -0.248 NA
ATOM     53  C   UNL A   1      44.069  26.031  29.186  1.00  0.00     0.031 C 
ATOM     54  C   UNL A   1      44.619  31.361  31.039  1.00  0.00     0.029 A 
ATOM     55  C   UNL A   1      44.946  30.061  30.648  1.00  0.00     0.049 A 
ATOM     56  H   UNL A   1      45.471  28.543  32.011  1.00  0.00     0.167 HD
ATOM     57  C   UNL A   1      45.013  28.147  29.050  1.00  0.00     0.074 A 
ATOM     58  C   UNL A   1      44.647  27.009  29.892  1.00  0.00     0.031 C 
ATOM     59  C   UNL A   1      45.174  29.473  29.344  1.00  0.00     0.034 A 
BRANCH  46  60
ATOM     60  C   UNL A   1      43.620  28.067  34.365  1.00  0.00     0.023 A 
ATOM     61  C   UNL A   1      44.188  28.544  35.566  1.00  0.00     0.012 A 
ATOM     62  C   UNL A   1      43.796  26.695  34.074  1.00  0.00     0.148 A 
ATOM     63  C   UNL A   1      44.941  27.713  36.400  1.00  0.00     0.002 A 
ATOM     64  C   UNL A   1      44.472  25.854  34.947  1.00  0.00     0.091 A 
ATOM     65  F   UNL A   1      43.439  26.204  32.884  1.00  0.00    -0.205 F 
ATOM     66  C   UNL A   1      45.077  26.365  36.095  1.00  0.00     0.022 A 
BRANCH  64  67
ATOM     67  S   UNL A   1      44.627  24.095  34.616  1.00  0.00     0.127 S 
ATOM     68  O   UNL A   1      45.649  24.081  33.574  1.00  0.00    -0.237 OA
ATOM     69  O   UNL A   1      45.060  23.582  35.917  1.00  0.00    -0.237 OA
ATOM     70  O   UNL A   1      43.297  23.652  34.217  1.00  0.00    -0.744 OA
ENDBRANCH  64  67
ENDBRANCH  46  60
BRANCH  47  71
ATOM     71  C   UNL A   1      42.692  25.066  26.311  1.00  0.00     0.023 A 
ATOM     72  C   UNL A   1      43.666  24.601  25.407  1.00  0.00     0.012 A 
ATOM     73  C   UNL A   1      41.697  24.155  26.736  1.00  0.00     0.148 A 
ATOM     74  C   UNL A   1      43.662  23.272  24.961  1.00  0.00     0.002 A 
ATOM     75  C   UNL A   1      41.684  22.843  26.275  1.00  0.00     0.091 A 
ATOM     76  F   UNL A   1      40.821  24.535  27.674  1.00  0.00    -0.205 F 
ATOM     77  C   UNL A   1      42.673  22.393  25.395  1.00  0.00     0.022 A 
BRANCH  75  78
ATOM     78  S   UNL A   1      40.436  21.668  26.819  1.00  0.00     0.127 S 
ATOM     79  O   UNL A   1      40.757  21.513  28.238  1.00  0.00    -0.237 OA
ATOM     80  O   UNL A   1      39.200  22.394  26.544  1.00  0.00    -0.237 OA
ATOM     81  O   UNL A   1      40.658  20.464  26.026  1.00  0.00    -0.744 OA
ENDBRANCH  75  78
ENDBRANCH  47  71
BRANCH  59  82
ATOM     82  C   UNL A   1      45.311  30.447  28.197  1.00  0.00     0.023 A 
ATOM     83  C   UNL A   1      44.187  30.961  27.515  1.00  0.00     0.012 A 
ATOM     84  C   UNL A   1      46.572  31.009  27.938  1.00  0.00     0.148 A 
ATOM     85  C   UNL A   1      44.320  31.993  26.581  1.00  0.00     0.002 A 
ATOM     86  C   UNL A   1      46.693  32.070  27.048  1.00  0.00     0.091 A 
ATOM     87  F   UNL A   1      47.633  30.519  28.598  1.00  0.00    -0.205 F 
ATOM     88  C   UNL A   1      45.572  32.558  26.359  1.00  0.00     0.022 A 
BRANCH  86  89
ATOM     89  S   UNL A   1      48.251  32.933  26.828  1.00  0.00     0.127 S 
ATOM     90  O   UNL A   1      48.494  33.470  28.165  1.00  0.00    -0.237 OA
ATOM     91  O   UNL A   1      49.157  31.854  26.428  1.00  0.00    -0.237 OA
ATOM     92  O   UNL A   1      48.014  33.923  25.785  1.00  0.00    -0.744 OA
ENDBRANCH  86  89
ENDBRANCH  59  82
ENDBRANCH  33  34
ENDBRANCH  26  28
ENDBRANCH  25  26
ENDBRANCH  24  25
ENDBRANCH   1  24
TORSDOF 19
ENDMDL
