MODEL 1
REMARK VINA RESULT:     -11.7      0.000      0.000
REMARK SMILES O=C(OCCOCCOC(=O)c1cc(N2C(=O)C[C@H](Nc3ccccc3O)C2=O)ccc1O)c1ccc(-c2c3nc(c(-c4cccc(S(=O)(=O)[O-])c4F)c4ccc([nH]4)c(-c4cccc(S(=O)(=O)[O-])c4F)c4nc(c(-c5cccc(S(=O)(=O)[O-])c5F)c5ccc2[nH]5)C=C4)C=C3)cc1
REMARK SMILES IDX 7 1 6 2 5 3 4 4 3 5 2 6 1 7 34 8 35 9 96 10 36 11 95 12
REMARK SMILES IDX 37 13 38 14 39 15 89 16 40 17 94 18 88 19 90 20 41 21 93 22
REMARK SMILES IDX 87 23 86 24 42 26 74 27 54 28 73 29 55 30 58 31 72 32 91 33
REMARK SMILES IDX 56 34 57 35 71 37 92 38 59 39 43 40 44 41 52 42 45 43 47 44
REMARK SMILES IDX 53 45 46 46 48 47 49 48 50 49 51 50 75 51 76 52 84 53 77 54
REMARK SMILES IDX 79 55 85 56 78 57 80 58 81 59 82 60 83 61 60 62 61 63 69 64
REMARK SMILES IDX 62 65 64 66 70 67 63 68 65 69 66 70 67 71 68 72 8 73 9 74
REMARK SMILES IDX 10 75 11 76 12 77 13 78 32 79 14 80 31 81 30 82 33 83 15 85
REMARK SMILES IDX 16 86 28 87 17 88 18 89 19 90 29 91 20 92 21 94 22 95 26 96
REMARK SMILES IDX 23 97 25 98 24 99 27 100
REMARK H PARENT 90 25 58 36 33 84 20 93 27 101
REMARK Flexibility Score: inf
ROOT
ATOM      1  C   UNL A   1      34.313  30.033  27.130  1.00  0.00     0.202 C 
ENDROOT
BRANCH   1   2
ATOM      2  O   UNL A   1      33.285  30.898  27.625  1.00  0.00    -0.374 OA
BRANCH   2   3
ATOM      3  C   UNL A   1      33.456  32.289  27.351  1.00  0.00     0.202 C 
BRANCH   3   4
ATOM      4  C   UNL A   1      32.201  33.139  27.554  1.00  0.00     0.261 C 
BRANCH   4   5
ATOM      5  O   UNL A   1      32.556  34.491  27.895  1.00  0.00    -0.460 OA
BRANCH   5   6
ATOM      6  C   UNL A   1      33.091  34.952  29.052  1.00  0.00     0.338 C 
ATOM      7  O   UNL A   1      32.634  35.985  29.538  1.00  0.00    -0.246 OA
BRANCH   6   8
ATOM      8  C   UNL A   1      34.209  34.267  29.772  1.00  0.00     0.060 A 
ATOM      9  C   UNL A   1      34.035  33.336  30.794  1.00  0.00     0.016 A 
ATOM     10  C   UNL A   1      35.521  34.513  29.329  1.00  0.00     0.016 A 
ATOM     11  C   UNL A   1      35.108  32.722  31.413  1.00  0.00     0.010 A 
ATOM     12  C   UNL A   1      36.612  33.855  29.911  1.00  0.00     0.010 A 
ATOM     13  C   UNL A   1      36.402  32.966  30.970  1.00  0.00    -0.014 A 
BRANCH  13  14
ATOM     14  C   UNL A   1      37.492  32.301  31.705  1.00  0.00     0.031 A 
ATOM     15  C   UNL A   1      38.263  31.216  31.023  1.00  0.00     0.074 A 
ATOM     16  C   UNL A   1      37.877  32.808  32.891  1.00  0.00     0.049 A 
ATOM     17  N   UNL A   1      39.303  30.555  31.449  1.00  0.00    -0.248 NA
ATOM     18  C   UNL A   1      37.819  30.838  29.669  1.00  0.00     0.031 C 
ATOM     19  C   UNL A   1      37.225  33.930  33.577  1.00  0.00     0.029 A 
ATOM     20  N   UNL A   1      38.922  32.480  33.712  1.00  0.00    -0.354 N 
ATOM     21  C   UNL A   1      39.621  29.663  30.434  1.00  0.00     0.074 A 
ATOM     22  C   UNL A   1      38.667  29.867  29.367  1.00  0.00     0.031 C 
ATOM     23  C   UNL A   1      37.897  34.207  34.703  1.00  0.00     0.029 A 
ATOM     24  C   UNL A   1      38.987  33.251  34.849  1.00  0.00     0.049 A 
ATOM     25  H   UNL A   1      39.563  31.762  33.508  1.00  0.00     0.167 HD
ATOM     26  C   UNL A   1      40.627  28.760  30.400  1.00  0.00     0.034 A 
ATOM     27  C   UNL A   1      39.824  33.168  35.901  1.00  0.00     0.034 A 
ATOM     28  C   UNL A   1      41.561  28.582  31.475  1.00  0.00     0.049 A 
ATOM     29  C   UNL A   1      40.903  32.121  35.854  1.00  0.00     0.074 A 
ATOM     30  C   UNL A   1      42.575  27.651  31.595  1.00  0.00     0.029 A 
ATOM     31  N   UNL A   1      41.593  29.365  32.623  1.00  0.00    -0.354 N 
ATOM     32  N   UNL A   1      41.195  31.283  34.888  1.00  0.00    -0.248 NA
ATOM     33  C   UNL A   1      41.778  32.016  37.028  1.00  0.00     0.031 C 
ATOM     34  C   UNL A   1      43.210  27.861  32.825  1.00  0.00     0.029 A 
ATOM     35  C   UNL A   1      42.609  28.940  33.458  1.00  0.00     0.049 A 
ATOM     36  H   UNL A   1      40.981  30.112  32.814  1.00  0.00     0.167 HD
ATOM     37  C   UNL A   1      42.293  30.557  35.330  1.00  0.00     0.074 A 
ATOM     38  C   UNL A   1      42.639  31.086  36.636  1.00  0.00     0.031 C 
ATOM     39  C   UNL A   1      42.943  29.527  34.732  1.00  0.00     0.034 A 
BRANCH  26  40
ATOM     40  C   UNL A   1      40.736  27.903  29.169  1.00  0.00     0.023 A 
ATOM     41  C   UNL A   1      40.021  26.691  29.093  1.00  0.00     0.012 A 
ATOM     42  C   UNL A   1      41.564  28.287  28.097  1.00  0.00     0.148 A 
ATOM     43  C   UNL A   1      40.153  25.858  27.983  1.00  0.00     0.002 A 
ATOM     44  C   UNL A   1      41.663  27.469  26.977  1.00  0.00     0.091 A 
ATOM     45  F   UNL A   1      42.256  29.430  28.201  1.00  0.00    -0.205 F 
ATOM     46  C   UNL A   1      40.968  26.249  26.925  1.00  0.00     0.022 A 
BRANCH  44  47
ATOM     47  S   UNL A   1      42.652  27.900  25.542  1.00  0.00     0.127 S 
ATOM     48  O   UNL A   1      42.528  26.693  24.725  1.00  0.00    -0.237 OA
ATOM     49  O   UNL A   1      41.939  29.065  25.019  1.00  0.00    -0.237 OA
ATOM     50  O   UNL A   1      43.991  28.176  26.042  1.00  0.00    -0.744 OA
ENDBRANCH  44  47
ENDBRANCH  26  40
BRANCH  27  51
ATOM     51  C   UNL A   1      39.663  34.081  37.070  1.00  0.00     0.023 A 
ATOM     52  C   UNL A   1      40.087  35.422  36.989  1.00  0.00     0.012 A 
ATOM     53  C   UNL A   1      39.078  33.625  38.269  1.00  0.00     0.148 A 
ATOM     54  C   UNL A   1      39.960  36.278  38.085  1.00  0.00     0.002 A 
ATOM     55  C   UNL A   1      38.898  34.499  39.336  1.00  0.00     0.091 A 
ATOM     56  F   UNL A   1      38.705  32.340  38.348  1.00  0.00    -0.205 F 
ATOM     57  C   UNL A   1      39.355  35.821  39.253  1.00  0.00     0.022 A 
BRANCH  55  58
ATOM     58  S   UNL A   1      38.005  34.012  40.818  1.00  0.00     0.127 S 
ATOM     59  O   UNL A   1      36.891  33.252  40.260  1.00  0.00    -0.237 OA
ATOM     60  O   UNL A   1      39.001  33.211  41.531  1.00  0.00    -0.237 OA
ATOM     61  O   UNL A   1      37.659  35.260  41.486  1.00  0.00    -0.744 OA
ENDBRANCH  55  58
ENDBRANCH  27  51
BRANCH  39  62
ATOM     62  C   UNL A   1      44.097  28.924  35.483  1.00  0.00     0.023 A 
ATOM     63  C   UNL A   1      45.383  29.481  35.344  1.00  0.00     0.012 A 
ATOM     64  C   UNL A   1      43.893  27.858  36.377  1.00  0.00     0.148 A 
ATOM     65  C   UNL A   1      46.459  28.961  36.061  1.00  0.00     0.002 A 
ATOM     66  C   UNL A   1      44.958  27.378  37.126  1.00  0.00     0.091 A 
ATOM     67  F   UNL A   1      42.663  27.329  36.474  1.00  0.00    -0.205 F 
ATOM     68  C   UNL A   1      46.243  27.920  36.960  1.00  0.00     0.022 A 
BRANCH  66  69
ATOM     69  S   UNL A   1      44.745  26.110  38.379  1.00  0.00     0.127 S 
ATOM     70  O   UNL A   1      44.199  25.004  37.596  1.00  0.00    -0.237 OA
ATOM     71  O   UNL A   1      46.115  25.907  38.852  1.00  0.00    -0.237 OA
ATOM     72  O   UNL A   1      43.846  26.682  39.372  1.00  0.00    -0.744 OA
ENDBRANCH  66  69
ENDBRANCH  39  62
ENDBRANCH  13  14
ENDBRANCH   6   8
ENDBRANCH   5   6
ENDBRANCH   4   5
ENDBRANCH   3   4
ENDBRANCH   2   3
ENDBRANCH   1   2
BRANCH   1  73
ATOM     73  C   UNL A   1      33.675  28.930  26.287  1.00  0.00     0.261 C 
BRANCH  73  74
ATOM     74  O   UNL A   1      33.269  29.511  25.038  1.00  0.00    -0.460 OA
BRANCH  74  75
ATOM     75  C   UNL A   1      33.278  28.673  23.974  1.00  0.00     0.342 C 
ATOM     76  O   UNL A   1      34.203  28.428  23.216  1.00  0.00    -0.246 OA
BRANCH  75  77
ATOM     77  C   UNL A   1      32.035  27.882  24.003  1.00  0.00     0.103 A 
ATOM     78  C   UNL A   1      32.119  26.550  24.447  1.00  0.00     0.046 A 
ATOM     79  C   UNL A   1      30.799  28.425  23.653  1.00  0.00     0.130 A 
ATOM     80  C   UNL A   1      30.971  25.759  24.529  1.00  0.00     0.053 A 
ATOM     81  C   UNL A   1      29.653  27.635  23.714  1.00  0.00     0.049 A 
ATOM     82  C   UNL A   1      29.743  26.302  24.130  1.00  0.00     0.031 A 
BRANCH  79  83
ATOM     83  O   UNL A   1      30.705  29.718  23.225  1.00  0.00    -0.507 OA
ATOM     84  H   UNL A   1      29.864  30.102  23.074  1.00  0.00     0.293 HD
ENDBRANCH  79  83
BRANCH  80  85
ATOM     85  N   UNL A   1      31.047  24.428  24.995  1.00  0.00    -0.249 N 
ATOM     86  C   UNL A   1      31.216  24.097  26.312  1.00  0.00     0.236 C 
ATOM     87  C   UNL A   1      31.038  23.323  24.168  1.00  0.00     0.256 C 
ATOM     88  O   UNL A   1      31.377  24.851  27.262  1.00  0.00    -0.274 OA
ATOM     89  C   UNL A   1      31.094  22.612  26.460  1.00  0.00     0.136 C 
ATOM     90  C   UNL A   1      31.208  22.077  25.039  1.00  0.00     0.179 C 
ATOM     91  O   UNL A   1      30.983  23.336  22.943  1.00  0.00    -0.272 OA
BRANCH  90  92
ATOM     92  N   UNL A   1      32.520  21.431  24.877  1.00  0.00    -0.370 N 
ATOM     93  H   UNL A   1      33.353  21.933  25.035  1.00  0.00     0.161 HD
BRANCH  92  94
ATOM     94  C   UNL A   1      32.553  20.088  24.495  1.00  0.00     0.077 A 
ATOM     95  C   UNL A   1      32.330  19.744  23.154  1.00  0.00     0.029 A 
ATOM     96  C   UNL A   1      32.878  19.053  25.388  1.00  0.00     0.138 A 
ATOM     97  C   UNL A   1      32.409  18.414  22.726  1.00  0.00     0.002 A 
ATOM     98  C   UNL A   1      32.938  17.720  24.973  1.00  0.00     0.048 A 
ATOM     99  C   UNL A   1      32.705  17.402  23.637  1.00  0.00     0.004 A 
BRANCH  96 100
ATOM    100  O   UNL A   1      33.110  19.362  26.702  1.00  0.00    -0.506 OA
ATOM    101  H   UNL A   1      33.779  19.979  26.926  1.00  0.00     0.293 HD
ENDBRANCH  96 100
ENDBRANCH  92  94
ENDBRANCH  90  92
ENDBRANCH  80  85
ENDBRANCH  75  77
ENDBRANCH  74  75
ENDBRANCH  73  74
ENDBRANCH   1  73
TORSDOF 22
ENDMDL
MODEL 2
REMARK VINA RESULT:     -11.7      1.862      7.725
REMARK SMILES O=C(OCCOCCOC(=O)c1cc(N2C(=O)C[C@H](Nc3ccccc3O)C2=O)ccc1O)c1ccc(-c2c3nc(c(-c4cccc(S(=O)(=O)[O-])c4F)c4ccc([nH]4)c(-c4cccc(S(=O)(=O)[O-])c4F)c4nc(c(-c5cccc(S(=O)(=O)[O-])c5F)c5ccc2[nH]5)C=C4)C=C3)cc1
REMARK SMILES IDX 7 1 6 2 5 3 4 4 3 5 2 6 1 7 34 8 35 9 96 10 36 11 95 12
REMARK SMILES IDX 37 13 38 14 39 15 89 16 40 17 94 18 88 19 90 20 41 21 93 22
REMARK SMILES IDX 87 23 86 24 42 26 74 27 54 28 73 29 55 30 58 31 72 32 91 33
REMARK SMILES IDX 56 34 57 35 71 37 92 38 59 39 43 40 44 41 52 42 45 43 47 44
REMARK SMILES IDX 53 45 46 46 48 47 49 48 50 49 51 50 75 51 76 52 84 53 77 54
REMARK SMILES IDX 79 55 85 56 78 57 80 58 81 59 82 60 83 61 60 62 61 63 69 64
REMARK SMILES IDX 62 65 64 66 70 67 63 68 65 69 66 70 67 71 68 72 8 73 9 74
REMARK SMILES IDX 10 75 11 76 12 77 13 78 32 79 14 80 31 81 30 82 33 83 15 85
REMARK SMILES IDX 16 86 28 87 17 88 18 89 19 90 29 91 20 92 21 94 22 95 26 96
REMARK SMILES IDX 23 97 25 98 24 99 27 100
REMARK H PARENT 90 25 58 36 33 84 20 93 27 101
REMARK Flexibility Score: inf
ROOT
ATOM      1  C   UNL A   1      33.113  29.563  25.980  1.00  0.00     0.202 C 
ENDROOT
BRANCH   1   2
ATOM      2  O   UNL A   1      32.873  30.812  26.637  1.00  0.00    -0.374 OA
BRANCH   2   3
ATOM      3  C   UNL A   1      31.605  31.416  26.381  1.00  0.00     0.202 C 
BRANCH   3   4
ATOM      4  C   UNL A   1      31.387  32.763  27.073  1.00  0.00     0.261 C 
BRANCH   4   5
ATOM      5  O   UNL A   1      32.609  33.523  27.095  1.00  0.00    -0.460 OA
BRANCH   5   6
ATOM      6  C   UNL A   1      33.235  34.073  28.163  1.00  0.00     0.338 C 
ATOM      7  O   UNL A   1      32.781  35.113  28.637  1.00  0.00    -0.246 OA
BRANCH   6   8
ATOM      8  C   UNL A   1      34.452  33.481  28.800  1.00  0.00     0.060 A 
ATOM      9  C   UNL A   1      35.693  34.111  28.864  1.00  0.00     0.016 A 
ATOM     10  C   UNL A   1      34.313  32.244  29.455  1.00  0.00     0.016 A 
ATOM     11  C   UNL A   1      36.781  33.521  29.481  1.00  0.00     0.010 A 
ATOM     12  C   UNL A   1      35.393  31.663  30.131  1.00  0.00     0.010 A 
ATOM     13  C   UNL A   1      36.637  32.300  30.130  1.00  0.00    -0.014 A 
BRANCH  13  14
ATOM     14  C   UNL A   1      37.851  31.722  30.731  1.00  0.00     0.031 A 
ATOM     15  C   UNL A   1      38.144  32.001  32.171  1.00  0.00     0.074 A 
ATOM     16  C   UNL A   1      38.558  30.820  30.024  1.00  0.00     0.049 A 
ATOM     17  N   UNL A   1      39.105  31.536  32.919  1.00  0.00    -0.248 NA
ATOM     18  C   UNL A   1      37.218  32.908  32.871  1.00  0.00     0.031 C 
ATOM     19  C   UNL A   1      38.274  30.429  28.639  1.00  0.00     0.029 A 
ATOM     20  N   UNL A   1      39.629  30.043  30.375  1.00  0.00    -0.354 N 
ATOM     21  C   UNL A   1      38.922  32.114  34.167  1.00  0.00     0.074 A 
ATOM     22  C   UNL A   1      37.755  32.963  34.081  1.00  0.00     0.031 C 
ATOM     23  C   UNL A   1      39.137  29.472  28.266  1.00  0.00     0.029 A 
ATOM     24  C   UNL A   1      40.068  29.225  29.360  1.00  0.00     0.049 A 
ATOM     25  H   UNL A   1      40.044  30.068  31.267  1.00  0.00     0.167 HD
ATOM     26  C   UNL A   1      39.662  31.941  35.286  1.00  0.00     0.034 A 
ATOM     27  C   UNL A   1      41.123  28.390  29.319  1.00  0.00     0.034 A 
ATOM     28  C   UNL A   1      40.815  31.088  35.342  1.00  0.00     0.049 A 
ATOM     29  C   UNL A   1      41.956  28.256  30.565  1.00  0.00     0.074 A 
ATOM     30  C   UNL A   1      41.694  30.888  36.389  1.00  0.00     0.029 A 
ATOM     31  N   UNL A   1      41.247  30.285  34.293  1.00  0.00    -0.354 N 
ATOM     32  N   UNL A   1      41.773  28.808  31.741  1.00  0.00    -0.248 NA
ATOM     33  C   UNL A   1      43.128  27.377  30.488  1.00  0.00     0.031 C 
ATOM     34  C   UNL A   1      42.667  29.975  35.967  1.00  0.00     0.029 A 
ATOM     35  C   UNL A   1      42.380  29.586  34.667  1.00  0.00     0.049 A 
ATOM     36  H   UNL A   1      40.811  30.224  33.412  1.00  0.00     0.167 HD
ATOM     37  C   UNL A   1      42.797  28.336  32.550  1.00  0.00     0.074 A 
ATOM     38  C   UNL A   1      43.574  27.419  31.737  1.00  0.00     0.031 C 
ATOM     39  C   UNL A   1      43.094  28.650  33.836  1.00  0.00     0.034 A 
BRANCH  26  40
ATOM     40  C   UNL A   1      39.242  32.707  36.510  1.00  0.00     0.023 A 
ATOM     41  C   UNL A   1      39.760  33.998  36.740  1.00  0.00     0.012 A 
ATOM     42  C   UNL A   1      38.353  32.140  37.443  1.00  0.00     0.148 A 
ATOM     43  C   UNL A   1      39.424  34.700  37.897  1.00  0.00     0.002 A 
ATOM     44  C   UNL A   1      37.995  32.861  38.577  1.00  0.00     0.091 A 
ATOM     45  F   UNL A   1      37.895  30.901  37.217  1.00  0.00    -0.205 F 
ATOM     46  C   UNL A   1      38.539  34.134  38.811  1.00  0.00     0.022 A 
BRANCH  44  47
ATOM     47  S   UNL A   1      36.830  32.241  39.794  1.00  0.00     0.127 S 
ATOM     48  O   UNL A   1      37.534  31.065  40.305  1.00  0.00    -0.237 OA
ATOM     49  O   UNL A   1      36.749  33.359  40.735  1.00  0.00    -0.237 OA
ATOM     50  O   UNL A   1      35.599  31.961  39.070  1.00  0.00    -0.744 OA
ENDBRANCH  44  47
ENDBRANCH  26  40
BRANCH  27  51
ATOM     51  C   UNL A   1      41.450  27.643  28.070  1.00  0.00     0.023 A 
ATOM     52  C   UNL A   1      42.051  28.306  26.983  1.00  0.00     0.012 A 
ATOM     53  C   UNL A   1      41.173  26.266  27.957  1.00  0.00     0.148 A 
ATOM     54  C   UNL A   1      42.342  27.620  25.801  1.00  0.00     0.002 A 
ATOM     55  C   UNL A   1      41.520  25.575  26.800  1.00  0.00     0.091 A 
ATOM     56  F   UNL A   1      40.573  25.649  28.985  1.00  0.00    -0.205 F 
ATOM     57  C   UNL A   1      42.088  26.254  25.714  1.00  0.00     0.022 A 
BRANCH  55  58
ATOM     58  S   UNL A   1      41.346  23.791  26.675  1.00  0.00     0.127 S 
ATOM     59  O   UNL A   1      42.230  23.480  25.557  1.00  0.00    -0.237 OA
ATOM     60  O   UNL A   1      41.825  23.340  27.982  1.00  0.00    -0.237 OA
ATOM     61  O   UNL A   1      39.924  23.558  26.453  1.00  0.00    -0.744 OA
ENDBRANCH  55  58
ENDBRANCH  27  51
BRANCH  39  62
ATOM     62  C   UNL A   1      44.299  27.981  34.437  1.00  0.00     0.023 A 
ATOM     63  C   UNL A   1      45.559  28.604  34.345  1.00  0.00     0.012 A 
ATOM     64  C   UNL A   1      44.169  26.775  35.151  1.00  0.00     0.148 A 
ATOM     65  C   UNL A   1      46.680  28.019  34.929  1.00  0.00     0.002 A 
ATOM     66  C   UNL A   1      45.280  26.225  35.773  1.00  0.00     0.091 A 
ATOM     67  F   UNL A   1      42.963  26.188  35.204  1.00  0.00    -0.205 F 
ATOM     68  C   UNL A   1      46.538  26.838  35.653  1.00  0.00     0.022 A 
BRANCH  66  69
ATOM     69  S   UNL A   1      45.163  24.763  36.809  1.00  0.00     0.127 S 
ATOM     70  O   UNL A   1      44.812  23.732  35.834  1.00  0.00    -0.237 OA
ATOM     71  O   UNL A   1      46.519  24.655  37.350  1.00  0.00    -0.237 OA
ATOM     72  O   UNL A   1      44.142  25.063  37.804  1.00  0.00    -0.744 OA
ENDBRANCH  66  69
ENDBRANCH  39  62
ENDBRANCH  13  14
ENDBRANCH   6   8
ENDBRANCH   5   6
ENDBRANCH   4   5
ENDBRANCH   3   4
ENDBRANCH   2   3
ENDBRANCH   1   2
BRANCH   1  73
ATOM     73  C   UNL A   1      31.774  28.892  25.677  1.00  0.00     0.261 C 
BRANCH  73  74
ATOM     74  O   UNL A   1      32.045  27.556  25.224  1.00  0.00    -0.460 OA
BRANCH  74  75
ATOM     75  C   UNL A   1      31.371  26.574  25.869  1.00  0.00     0.342 C 
ATOM     76  O   UNL A   1      30.726  26.656  26.903  1.00  0.00    -0.246 OA
BRANCH  75  77
ATOM     77  C   UNL A   1      31.324  25.395  24.986  1.00  0.00     0.103 A 
ATOM     78  C   UNL A   1      32.283  24.388  25.192  1.00  0.00     0.046 A 
ATOM     79  C   UNL A   1      30.345  25.238  24.005  1.00  0.00     0.130 A 
ATOM     80  C   UNL A   1      32.271  23.230  24.410  1.00  0.00     0.053 A 
ATOM     81  C   UNL A   1      30.340  24.095  23.208  1.00  0.00     0.049 A 
ATOM     82  C   UNL A   1      31.312  23.106  23.398  1.00  0.00     0.031 A 
BRANCH  79  83
ATOM     83  O   UNL A   1      29.407  26.208  23.800  1.00  0.00    -0.507 OA
ATOM     84  H   UNL A   1      28.496  25.987  23.799  1.00  0.00     0.293 HD
ENDBRANCH  79  83
BRANCH  80  85
ATOM     85  N   UNL A   1      33.218  22.206  24.628  1.00  0.00    -0.249 N 
ATOM     86  C   UNL A   1      34.548  22.329  24.325  1.00  0.00     0.236 C 
ATOM     87  C   UNL A   1      32.895  20.948  25.094  1.00  0.00     0.256 C 
ATOM     88  O   UNL A   1      35.113  23.274  23.792  1.00  0.00    -0.274 OA
ATOM     89  C   UNL A   1      35.275  21.122  24.830  1.00  0.00     0.136 C 
ATOM     90  C   UNL A   1      34.176  20.111  25.127  1.00  0.00     0.179 C 
ATOM     91  O   UNL A   1      31.770  20.542  25.362  1.00  0.00    -0.272 OA
BRANCH  90  92
ATOM     92  N   UNL A   1      34.206  19.058  24.099  1.00  0.00    -0.370 N 
ATOM     93  H   UNL A   1      34.326  19.283  23.148  1.00  0.00     0.161 HD
BRANCH  92  94
ATOM     94  C   UNL A   1      34.064  17.731  24.509  1.00  0.00     0.077 A 
ATOM     95  C   UNL A   1      35.203  16.974  24.815  1.00  0.00     0.029 A 
ATOM     96  C   UNL A   1      32.809  17.128  24.705  1.00  0.00     0.138 A 
ATOM     97  C   UNL A   1      35.095  15.659  25.281  1.00  0.00     0.002 A 
ATOM     98  C   UNL A   1      32.692  15.808  25.150  1.00  0.00     0.048 A 
ATOM     99  C   UNL A   1      33.840  15.074  25.441  1.00  0.00     0.004 A 
BRANCH  96 100
ATOM    100  O   UNL A   1      31.679  17.847  24.423  1.00  0.00    -0.506 OA
ATOM    101  H   UNL A   1      30.835  17.452  24.527  1.00  0.00     0.293 HD
ENDBRANCH  96 100
ENDBRANCH  92  94
ENDBRANCH  90  92
ENDBRANCH  80  85
ENDBRANCH  75  77
ENDBRANCH  74  75
ENDBRANCH  73  74
ENDBRANCH   1  73
TORSDOF 22
ENDMDL
MODEL 3
REMARK VINA RESULT:     -11.5      0.312      7.529
REMARK SMILES O=C(OCCOCCOC(=O)c1cc(N2C(=O)C[C@H](Nc3ccccc3O)C2=O)ccc1O)c1ccc(-c2c3nc(c(-c4cccc(S(=O)(=O)[O-])c4F)c4ccc([nH]4)c(-c4cccc(S(=O)(=O)[O-])c4F)c4nc(c(-c5cccc(S(=O)(=O)[O-])c5F)c5ccc2[nH]5)C=C4)C=C3)cc1
REMARK SMILES IDX 7 1 6 2 5 3 4 4 3 5 2 6 1 7 34 8 35 9 96 10 36 11 95 12
REMARK SMILES IDX 37 13 38 14 39 15 89 16 40 17 94 18 88 19 90 20 41 21 93 22
REMARK SMILES IDX 87 23 86 24 42 26 74 27 54 28 73 29 55 30 58 31 72 32 91 33
REMARK SMILES IDX 56 34 57 35 71 37 92 38 59 39 43 40 44 41 52 42 45 43 47 44
REMARK SMILES IDX 53 45 46 46 48 47 49 48 50 49 51 50 75 51 76 52 84 53 77 54
REMARK SMILES IDX 79 55 85 56 78 57 80 58 81 59 82 60 83 61 60 62 61 63 69 64
REMARK SMILES IDX 62 65 64 66 70 67 63 68 65 69 66 70 67 71 68 72 8 73 9 74
REMARK SMILES IDX 10 75 11 76 12 77 13 78 32 79 14 80 31 81 30 82 33 83 15 85
REMARK SMILES IDX 16 86 28 87 17 88 18 89 19 90 29 91 20 92 21 94 22 95 26 96
REMARK SMILES IDX 23 97 25 98 24 99 27 100
REMARK H PARENT 90 25 58 36 33 84 20 93 27 101
REMARK Flexibility Score: inf
ROOT
ATOM      1  C   UNL A   1      34.488  29.906  27.167  1.00  0.00     0.202 C 
ENDROOT
BRANCH   1   2
ATOM      2  O   UNL A   1      33.374  30.730  27.527  1.00  0.00    -0.374 OA
BRANCH   2   3
ATOM      3  C   UNL A   1      33.567  32.137  27.380  1.00  0.00     0.202 C 
BRANCH   3   4
ATOM      4  C   UNL A   1      32.297  32.976  27.535  1.00  0.00     0.261 C 
BRANCH   4   5
ATOM      5  O   UNL A   1      32.627  34.336  27.870  1.00  0.00    -0.460 OA
BRANCH   5   6
ATOM      6  C   UNL A   1      33.176  34.808  29.015  1.00  0.00     0.338 C 
ATOM      7  O   UNL A   1      32.653  35.780  29.558  1.00  0.00    -0.246 OA
BRANCH   6   8
ATOM      8  C   UNL A   1      34.387  34.208  29.656  1.00  0.00     0.060 A 
ATOM      9  C   UNL A   1      35.699  34.524  29.310  1.00  0.00     0.016 A 
ATOM     10  C   UNL A   1      34.189  33.335  30.740  1.00  0.00     0.016 A 
ATOM     11  C   UNL A   1      36.782  33.949  29.950  1.00  0.00     0.010 A 
ATOM     12  C   UNL A   1      35.279  32.790  31.433  1.00  0.00     0.010 A 
ATOM     13  C   UNL A   1      36.581  33.089  31.023  1.00  0.00    -0.014 A 
BRANCH  13  14
ATOM     14  C   UNL A   1      37.784  32.491  31.628  1.00  0.00     0.031 A 
ATOM     15  C   UNL A   1      38.172  32.899  33.013  1.00  0.00     0.074 A 
ATOM     16  C   UNL A   1      38.390  31.470  30.992  1.00  0.00     0.049 A 
ATOM     17  N   UNL A   1      39.138  32.447  33.762  1.00  0.00    -0.248 NA
ATOM     18  C   UNL A   1      37.348  33.940  33.652  1.00  0.00     0.031 C 
ATOM     19  C   UNL A   1      38.006  30.957  29.672  1.00  0.00     0.029 A 
ATOM     20  N   UNL A   1      39.423  30.659  31.375  1.00  0.00    -0.354 N 
ATOM     21  C   UNL A   1      39.062  33.166  34.947  1.00  0.00     0.074 A 
ATOM     22  C   UNL A   1      37.952  34.084  34.822  1.00  0.00     0.031 C 
ATOM     23  C   UNL A   1      38.782  29.906  29.366  1.00  0.00     0.029 A 
ATOM     24  C   UNL A   1      39.751  29.709  30.437  1.00  0.00     0.049 A 
ATOM     25  H   UNL A   1      39.886  30.749  32.239  1.00  0.00     0.167 HD
ATOM     26  C   UNL A   1      39.847  33.059  36.042  1.00  0.00     0.034 A 
ATOM     27  C   UNL A   1      40.745  28.800  30.439  1.00  0.00     0.034 A 
ATOM     28  C   UNL A   1      40.942  32.135  36.138  1.00  0.00     0.049 A 
ATOM     29  C   UNL A   1      41.633  28.739  31.652  1.00  0.00     0.074 A 
ATOM     30  C   UNL A   1      41.860  31.984  37.159  1.00  0.00     0.029 A 
ATOM     31  N   UNL A   1      41.262  31.197  35.164  1.00  0.00    -0.354 N 
ATOM     32  N   UNL A   1      41.550  29.424  32.768  1.00  0.00    -0.248 NA
ATOM     33  C   UNL A   1      42.737  27.774  31.618  1.00  0.00     0.031 C 
ATOM     34  C   UNL A   1      42.746  30.964  36.795  1.00  0.00     0.029 A 
ATOM     35  C   UNL A   1      42.364  30.462  35.560  1.00  0.00     0.049 A 
ATOM     36  H   UNL A   1      40.777  31.075  34.317  1.00  0.00     0.167 HD
ATOM     37  C   UNL A   1      42.582  28.967  33.575  1.00  0.00     0.074 A 
ATOM     38  C   UNL A   1      43.251  27.915  32.833  1.00  0.00     0.031 C 
ATOM     39  C   UNL A   1      42.968  29.393  34.804  1.00  0.00     0.034 A 
BRANCH  26  40
ATOM     40  C   UNL A   1      39.547  33.979  37.193  1.00  0.00     0.023 A 
ATOM     41  C   UNL A   1      39.935  35.332  37.129  1.00  0.00     0.012 A 
ATOM     42  C   UNL A   1      38.899  33.498  38.347  1.00  0.00     0.148 A 
ATOM     43  C   UNL A   1      39.713  36.186  38.209  1.00  0.00     0.002 A 
ATOM     44  C   UNL A   1      38.649  34.363  39.406  1.00  0.00     0.091 A 
ATOM     45  F   UNL A   1      38.563  32.202  38.398  1.00  0.00    -0.205 F 
ATOM     46  C   UNL A   1      39.066  35.703  39.343  1.00  0.00     0.022 A 
BRANCH  44  47
ATOM     47  S   UNL A   1      37.785  33.853  40.895  1.00  0.00     0.127 S 
ATOM     48  O   UNL A   1      38.725  32.889  41.467  1.00  0.00    -0.237 OA
ATOM     49  O   UNL A   1      37.679  35.112  41.633  1.00  0.00    -0.237 OA
ATOM     50  O   UNL A   1      36.515  33.295  40.454  1.00  0.00    -0.744 OA
ENDBRANCH  44  47
ENDBRANCH  26  40
BRANCH  27  51
ATOM     51  C   UNL A   1      40.953  27.904  29.264  1.00  0.00     0.023 A 
ATOM     52  C   UNL A   1      40.219  26.708  29.144  1.00  0.00     0.012 A 
ATOM     53  C   UNL A   1      41.877  28.239  28.254  1.00  0.00     0.148 A 
ATOM     54  C   UNL A   1      40.422  25.853  28.059  1.00  0.00     0.002 A 
ATOM     55  C   UNL A   1      42.031  27.413  27.145  1.00  0.00     0.091 A 
ATOM     56  F   UNL A   1      42.594  29.363  28.391  1.00  0.00    -0.205 F 
ATOM     57  C   UNL A   1      41.318  26.210  27.054  1.00  0.00     0.022 A 
BRANCH  55  58
ATOM     58  S   UNL A   1      43.066  27.880  25.753  1.00  0.00     0.127 S 
ATOM     59  O   UNL A   1      43.952  28.871  26.357  1.00  0.00    -0.237 OA
ATOM     60  O   UNL A   1      43.709  26.613  25.404  1.00  0.00    -0.237 OA
ATOM     61  O   UNL A   1      42.145  28.377  24.739  1.00  0.00    -0.744 OA
ENDBRANCH  55  58
ENDBRANCH  27  51
BRANCH  39  62
ATOM     62  C   UNL A   1      44.156  28.706  35.418  1.00  0.00     0.023 A 
ATOM     63  C   UNL A   1      45.456  29.105  35.053  1.00  0.00     0.012 A 
ATOM     64  C   UNL A   1      43.982  27.719  36.406  1.00  0.00     0.148 A 
ATOM     65  C   UNL A   1      46.570  28.507  35.639  1.00  0.00     0.002 A 
ATOM     66  C   UNL A   1      45.094  27.164  37.022  1.00  0.00     0.091 A 
ATOM     67  F   UNL A   1      42.734  27.338  36.720  1.00  0.00    -0.205 F 
ATOM     68  C   UNL A   1      46.388  27.547  36.632  1.00  0.00     0.022 A 
BRANCH  66  69
ATOM     69  S   UNL A   1      44.947  25.998  38.380  1.00  0.00     0.127 S 
ATOM     70  O   UNL A   1      46.348  25.716  38.685  1.00  0.00    -0.237 OA
ATOM     71  O   UNL A   1      44.248  26.787  39.395  1.00  0.00    -0.237 OA
ATOM     72  O   UNL A   1      44.179  24.877  37.857  1.00  0.00    -0.744 OA
ENDBRANCH  66  69
ENDBRANCH  39  62
ENDBRANCH  13  14
ENDBRANCH   6   8
ENDBRANCH   5   6
ENDBRANCH   4   5
ENDBRANCH   3   4
ENDBRANCH   2   3
ENDBRANCH   1   2
BRANCH   1  73
ATOM     73  C   UNL A   1      33.990  28.733  26.323  1.00  0.00     0.261 C 
BRANCH  73  74
ATOM     74  O   UNL A   1      33.356  29.273  25.153  1.00  0.00    -0.460 OA
BRANCH  74  75
ATOM     75  C   UNL A   1      33.382  28.477  24.057  1.00  0.00     0.342 C 
ATOM     76  O   UNL A   1      34.324  28.244  23.316  1.00  0.00    -0.246 OA
BRANCH  75  77
ATOM     77  C   UNL A   1      32.123  27.711  24.018  1.00  0.00     0.103 A 
ATOM     78  C   UNL A   1      32.158  26.377  24.460  1.00  0.00     0.046 A 
ATOM     79  C   UNL A   1      30.918  28.280  23.606  1.00  0.00     0.130 A 
ATOM     80  C   UNL A   1      30.992  25.608  24.479  1.00  0.00     0.053 A 
ATOM     81  C   UNL A   1      29.755  27.513  23.604  1.00  0.00     0.049 A 
ATOM     82  C   UNL A   1      29.798  26.177  24.019  1.00  0.00     0.031 A 
BRANCH  79  83
ATOM     83  O   UNL A   1      30.873  29.575  23.179  1.00  0.00    -0.507 OA
ATOM     84  H   UNL A   1      31.314  29.824  22.391  1.00  0.00     0.293 HD
ENDBRANCH  79  83
BRANCH  80  85
ATOM     85  N   UNL A   1      31.017  24.275  24.943  1.00  0.00    -0.249 N 
ATOM     86  C   UNL A   1      31.069  23.936  26.268  1.00  0.00     0.236 C 
ATOM     87  C   UNL A   1      31.073  23.174  24.113  1.00  0.00     0.256 C 
ATOM     88  O   UNL A   1      31.151  24.685  27.232  1.00  0.00    -0.274 OA
ATOM     89  C   UNL A   1      30.923  22.452  26.398  1.00  0.00     0.136 C 
ATOM     90  C   UNL A   1      31.157  21.923  24.990  1.00  0.00     0.179 C 
ATOM     91  O   UNL A   1      31.125  23.192  22.888  1.00  0.00    -0.272 OA
BRANCH  90  92
ATOM     92  N   UNL A   1      32.474  21.267  24.939  1.00  0.00    -0.370 N 
ATOM     93  H   UNL A   1      33.295  21.765  25.159  1.00  0.00     0.161 HD
BRANCH  92  94
ATOM     94  C   UNL A   1      32.528  19.920  24.574  1.00  0.00     0.077 A 
ATOM     95  C   UNL A   1      32.342  19.559  23.233  1.00  0.00     0.029 A 
ATOM     96  C   UNL A   1      32.840  18.899  25.488  1.00  0.00     0.138 A 
ATOM     97  C   UNL A   1      32.444  18.224  22.823  1.00  0.00     0.002 A 
ATOM     98  C   UNL A   1      32.923  17.561  25.091  1.00  0.00     0.048 A 
ATOM     99  C   UNL A   1      32.726  17.226  23.752  1.00  0.00     0.004 A 
BRANCH  96 100
ATOM    100  O   UNL A   1      33.036  19.225  26.803  1.00  0.00    -0.506 OA
ATOM    101  H   UNL A   1      32.511  19.891  27.203  1.00  0.00     0.293 HD
ENDBRANCH  96 100
ENDBRANCH  92  94
ENDBRANCH  90  92
ENDBRANCH  80  85
ENDBRANCH  75  77
ENDBRANCH  74  75
ENDBRANCH  73  74
ENDBRANCH   1  73
TORSDOF 22
ENDMDL
