MODEL 1
REMARK VINA RESULT:     -13.0      0.000      0.000
REMARK SMILES O=C(OCCOCCOC(=O)[C@@H]1C=C[C@H](NC(=O)[C@@H]2Cc3ccccc3O2)C1)c1ccc(-c2c3nc(c(-c4cccc(S(=O)(=O)[O-])c4F)c4ccc([nH]4)c(-c4cccc(S(=O)(=O)[O-])c4F)c4nc(c(-c5cccc(S(=O)(=O)[O-])c5F)c5ccc2[nH]5)C=C4)C=C3)cc1
REMARK SMILES IDX 5 1 4 2 3 3 2 4 1 5 29 6 30 7 91 8 31 9 90 10 32 11 33 12
REMARK SMILES IDX 34 13 84 14 35 15 89 16 83 17 85 18 36 19 88 20 82 21 81 22
REMARK SMILES IDX 37 24 69 25 49 26 68 27 50 28 53 29 67 30 86 31 51 32 52 33
REMARK SMILES IDX 66 35 87 36 54 37 38 38 39 39 47 40 40 41 42 42 48 43 41 44
REMARK SMILES IDX 43 45 44 46 45 47 46 48 70 49 71 50 79 51 72 52 74 53 80 54
REMARK SMILES IDX 73 55 75 56 76 57 77 58 78 59 55 60 56 61 64 62 57 63 59 64
REMARK SMILES IDX 65 65 58 66 60 67 61 68 62 69 63 70 6 71 7 72 8 73 9 74
REMARK SMILES IDX 10 75 11 76 12 77 13 78 28 79 14 80 15 81 16 82 17 83 18 85
REMARK SMILES IDX 19 86 20 87 27 88 21 89 26 90 22 91 25 92 23 93 24 94
REMARK H PARENT 85 23 53 34 16 84
REMARK Flexibility Score: inf
ROOT
ATOM      1  C   UNL A   1      37.099  20.170  25.006  1.00  0.00     0.202 C 
ENDROOT
BRANCH   1   2
ATOM      2  C   UNL A   1      38.524  19.457  25.069  1.00  0.00     0.261 C 
BRANCH   2   3
ATOM      3  O   UNL A   1      39.421  19.791  26.179  1.00  0.00    -0.460 OA
BRANCH   3   4
ATOM      4  C   UNL A   1      40.763  20.091  26.183  1.00  0.00     0.338 C 
ATOM      5  O   UNL A   1      41.581  19.273  25.771  1.00  0.00    -0.246 OA
BRANCH   4   6
ATOM      6  C   UNL A   1      41.248  21.361  26.789  1.00  0.00     0.060 A 
ATOM      7  C   UNL A   1      40.883  22.529  26.176  1.00  0.00     0.016 A 
ATOM      8  C   UNL A   1      41.948  21.497  27.983  1.00  0.00     0.016 A 
ATOM      9  C   UNL A   1      41.173  23.788  26.550  1.00  0.00     0.010 A 
ATOM     10  C   UNL A   1      42.223  22.796  28.470  1.00  0.00     0.010 A 
ATOM     11  C   UNL A   1      41.824  23.927  27.736  1.00  0.00    -0.014 A 
BRANCH  11  12
ATOM     12  C   UNL A   1      42.216  25.308  27.943  1.00  0.00     0.031 A 
ATOM     13  C   UNL A   1      43.504  25.707  27.318  1.00  0.00     0.074 A 
ATOM     14  C   UNL A   1      41.290  26.194  28.350  1.00  0.00     0.049 A 
ATOM     15  N   UNL A   1      44.101  26.858  27.340  1.00  0.00    -0.248 NA
ATOM     16  C   UNL A   1      44.201  24.670  26.527  1.00  0.00     0.031 C 
ATOM     17  C   UNL A   1      39.882  25.890  28.650  1.00  0.00     0.029 A 
ATOM     18  N   UNL A   1      41.388  27.538  28.551  1.00  0.00    -0.354 N 
ATOM     19  C   UNL A   1      45.288  26.657  26.656  1.00  0.00     0.074 A 
ATOM     20  C   UNL A   1      45.308  25.297  26.178  1.00  0.00     0.031 C 
ATOM     21  C   UNL A   1      39.272  27.011  29.068  1.00  0.00     0.029 A 
ATOM     22  C   UNL A   1      40.260  28.078  29.118  1.00  0.00     0.049 A 
ATOM     23  H   UNL A   1      42.184  28.066  28.315  1.00  0.00     0.167 HD
ATOM     24  C   UNL A   1      46.293  27.541  26.501  1.00  0.00     0.034 A 
ATOM     25  C   UNL A   1      40.101  29.291  29.674  1.00  0.00     0.034 A 
ATOM     26  C   UNL A   1      46.224  28.863  27.047  1.00  0.00     0.049 A 
ATOM     27  C   UNL A   1      41.293  30.208  29.634  1.00  0.00     0.074 A 
ATOM     28  C   UNL A   1      47.191  29.844  27.063  1.00  0.00     0.029 A 
ATOM     29  N   UNL A   1      45.112  29.370  27.713  1.00  0.00    -0.354 N 
ATOM     30  N   UNL A   1      42.463  30.014  29.067  1.00  0.00    -0.248 NA
ATOM     31  C   UNL A   1      41.150  31.509  30.292  1.00  0.00     0.031 C 
ATOM     32  C   UNL A   1      46.686  30.921  27.798  1.00  0.00     0.029 A 
ATOM     33  C   UNL A   1      45.375  30.644  28.168  1.00  0.00     0.049 A 
ATOM     34  H   UNL A   1      44.263  28.888  27.839  1.00  0.00     0.167 HD
ATOM     35  C   UNL A   1      43.183  31.183  29.257  1.00  0.00     0.074 A 
ATOM     36  C   UNL A   1      42.309  32.081  29.991  1.00  0.00     0.031 C 
ATOM     37  C   UNL A   1      44.445  31.496  28.868  1.00  0.00     0.034 A 
BRANCH  24  38
ATOM     38  C   UNL A   1      47.547  27.018  25.871  1.00  0.00     0.023 A 
ATOM     39  C   UNL A   1      48.537  26.377  26.642  1.00  0.00     0.012 A 
ATOM     40  C   UNL A   1      47.787  27.275  24.508  1.00  0.00     0.148 A 
ATOM     41  C   UNL A   1      49.770  26.051  26.078  1.00  0.00     0.002 A 
ATOM     42  C   UNL A   1      48.991  26.890  23.939  1.00  0.00     0.091 A 
ATOM     43  F   UNL A   1      46.855  27.938  23.809  1.00  0.00    -0.205 F 
ATOM     44  C   UNL A   1      49.993  26.299  24.725  1.00  0.00     0.022 A 
BRANCH  42  45
ATOM     45  S   UNL A   1      49.338  27.105  22.193  1.00  0.00     0.127 S 
ATOM     46  O   UNL A   1      48.451  26.111  21.589  1.00  0.00    -0.237 OA
ATOM     47  O   UNL A   1      48.936  28.495  21.977  1.00  0.00    -0.237 OA
ATOM     48  O   UNL A   1      50.761  26.848  22.027  1.00  0.00    -0.744 OA
ENDBRANCH  42  45
ENDBRANCH  24  38
BRANCH  25  49
ATOM     49  C   UNL A   1      38.821  29.669  30.335  1.00  0.00     0.023 A 
ATOM     50  C   UNL A   1      38.517  29.158  31.610  1.00  0.00     0.012 A 
ATOM     51  C   UNL A   1      37.901  30.536  29.708  1.00  0.00     0.148 A 
ATOM     52  C   UNL A   1      37.310  29.477  32.235  1.00  0.00     0.002 A 
ATOM     53  C   UNL A   1      36.723  30.888  30.356  1.00  0.00     0.091 A 
ATOM     54  F   UNL A   1      38.201  31.008  28.490  1.00  0.00    -0.205 F 
ATOM     55  C   UNL A   1      36.416  30.345  31.612  1.00  0.00     0.022 A 
BRANCH  53  56
ATOM     56  S   UNL A   1      35.557  32.077  29.678  1.00  0.00     0.127 S 
ATOM     57  O   UNL A   1      35.000  31.340  28.547  1.00  0.00    -0.237 OA
ATOM     58  O   UNL A   1      34.639  32.267  30.801  1.00  0.00    -0.237 OA
ATOM     59  O   UNL A   1      36.343  33.254  29.332  1.00  0.00    -0.744 OA
ENDBRANCH  53  56
ENDBRANCH  25  49
BRANCH  37  60
ATOM     60  C   UNL A   1      44.923  32.888  29.167  1.00  0.00     0.023 A 
ATOM     61  C   UNL A   1      45.735  33.140  30.288  1.00  0.00     0.012 A 
ATOM     62  C   UNL A   1      44.639  33.925  28.258  1.00  0.00     0.148 A 
ATOM     63  C   UNL A   1      46.230  34.420  30.519  1.00  0.00     0.002 A 
ATOM     64  C   UNL A   1      45.190  35.179  28.459  1.00  0.00     0.091 A 
ATOM     65  F   UNL A   1      43.853  33.656  27.205  1.00  0.00    -0.205 F 
ATOM     66  C   UNL A   1      45.971  35.435  29.597  1.00  0.00     0.022 A 
BRANCH  64  67
ATOM     67  S   UNL A   1      45.011  36.504  27.263  1.00  0.00     0.127 S 
ATOM     68  O   UNL A   1      45.634  37.624  27.967  1.00  0.00    -0.237 OA
ATOM     69  O   UNL A   1      45.775  35.994  26.124  1.00  0.00    -0.237 OA
ATOM     70  O   UNL A   1      43.581  36.641  27.019  1.00  0.00    -0.744 OA
ENDBRANCH  64  67
ENDBRANCH  37  60
ENDBRANCH  11  12
ENDBRANCH   4   6
ENDBRANCH   3   4
ENDBRANCH   2   3
ENDBRANCH   1   2
BRANCH   1  71
ATOM     71  O   UNL A   1      36.828  21.514  25.575  1.00  0.00    -0.374 OA
BRANCH  71  72
ATOM     72  C   UNL A   1      36.346  22.887  24.742  1.00  0.00     0.202 C 
BRANCH  72  73
ATOM     73  C   UNL A   1      35.066  24.510  25.458  1.00  0.00     0.261 C 
BRANCH  73  74
ATOM     74  O   UNL A   1      34.165  25.643  24.431  1.00  0.00    -0.463 OA
BRANCH  74  75
ATOM     75  C   UNL A   1      33.927  25.735  23.071  1.00  0.00     0.312 C 
ATOM     76  O   UNL A   1      34.165  24.861  22.234  1.00  0.00    -0.252 OA
BRANCH  75  77
ATOM     77  C   UNL A   1      33.336  27.075  22.565  1.00  0.00     0.124 C 
ATOM     78  C   UNL A   1      33.160  28.105  23.665  1.00  0.00    -0.014 C 
ATOM     79  C   UNL A   1      31.981  27.135  21.844  1.00  0.00     0.048 C 
ATOM     80  C   UNL A   1      31.916  28.600  23.731  1.00  0.00    -0.006 C 
ATOM     81  C   UNL A   1      31.038  28.047  22.665  1.00  0.00     0.106 C 
BRANCH  81  82
ATOM     82  N   UNL A   1      29.770  27.588  23.217  1.00  0.00    -0.347 N 
ATOM     83  C   UNL A   1      29.366  26.468  23.887  1.00  0.00     0.261 C 
ATOM     84  H   UNL A   1      29.038  28.232  23.074  1.00  0.00     0.164 HD
ATOM     85  O   UNL A   1      28.176  26.350  24.178  1.00  0.00    -0.271 OA
BRANCH  83  86
ATOM     86  C   UNL A   1      30.387  25.416  24.187  1.00  0.00     0.266 C 
ATOM     87  C   UNL A   1      30.375  24.165  23.275  1.00  0.00     0.095 C 
ATOM     88  O   UNL A   1      30.233  25.142  25.623  1.00  0.00    -0.480 OA
ATOM     89  C   UNL A   1      31.211  23.332  24.161  1.00  0.00    -0.002 A 
ATOM     90  C   UNL A   1      31.001  24.034  25.768  1.00  0.00     0.123 A 
ATOM     91  C   UNL A   1      32.269  21.958  23.913  1.00  0.00     0.008 A 
ATOM     92  C   UNL A   1      31.868  23.287  27.223  1.00  0.00     0.047 A 
ATOM     93  C   UNL A   1      33.112  21.239  25.289  1.00  0.00     0.001 A 
ATOM     94  C   UNL A   1      32.948  21.872  26.953  1.00  0.00     0.004 A 
ENDBRANCH  83  86
ENDBRANCH  81  82
ENDBRANCH  75  77
ENDBRANCH  74  75
ENDBRANCH  73  74
ENDBRANCH  72  73
ENDBRANCH  71  72
ENDBRANCH   1  71
TORSDOF 19
ENDMDL
MODEL 2
REMARK VINA RESULT:     -12.9      5.028     10.445
REMARK SMILES O=C(OCCOCCOC(=O)[C@@H]1C=C[C@H](NC(=O)[C@@H]2Cc3ccccc3O2)C1)c1ccc(-c2c3nc(c(-c4cccc(S(=O)(=O)[O-])c4F)c4ccc([nH]4)c(-c4cccc(S(=O)(=O)[O-])c4F)c4nc(c(-c5cccc(S(=O)(=O)[O-])c5F)c5ccc2[nH]5)C=C4)C=C3)cc1
REMARK SMILES IDX 5 1 4 2 3 3 2 4 1 5 29 6 30 7 91 8 31 9 90 10 32 11 33 12
REMARK SMILES IDX 34 13 84 14 35 15 89 16 83 17 85 18 36 19 88 20 82 21 81 22
REMARK SMILES IDX 37 24 69 25 49 26 68 27 50 28 53 29 67 30 86 31 51 32 52 33
REMARK SMILES IDX 66 35 87 36 54 37 38 38 39 39 47 40 40 41 42 42 48 43 41 44
REMARK SMILES IDX 43 45 44 46 45 47 46 48 70 49 71 50 79 51 72 52 74 53 80 54
REMARK SMILES IDX 73 55 75 56 76 57 77 58 78 59 55 60 56 61 64 62 57 63 59 64
REMARK SMILES IDX 65 65 58 66 60 67 61 68 62 69 63 70 6 71 7 72 8 73 9 74
REMARK SMILES IDX 10 75 11 76 12 77 13 78 28 79 14 80 15 81 16 82 17 83 18 85
REMARK SMILES IDX 19 86 20 87 27 88 21 89 26 90 22 91 25 92 23 93 24 94
REMARK H PARENT 85 23 53 34 16 84
REMARK Flexibility Score: inf
ROOT
ATOM      1  C   UNL A   1      31.881  29.725  25.794  1.00  0.00     0.202 C 
ENDROOT
BRANCH   1   2
ATOM      2  C   UNL A   1      31.800  30.931  26.834  1.00  0.00     0.261 C 
BRANCH   2   3
ATOM      3  O   UNL A   1      32.766  32.026  26.707  1.00  0.00    -0.460 OA
BRANCH   3   4
ATOM      4  C   UNL A   1      33.340  32.826  27.666  1.00  0.00     0.338 C 
ATOM      5  O   UNL A   1      32.779  33.856  28.030  1.00  0.00    -0.246 OA
BRANCH   4   6
ATOM      6  C   UNL A   1      34.696  32.512  28.193  1.00  0.00     0.060 A 
ATOM      7  C   UNL A   1      34.928  31.230  28.609  1.00  0.00     0.016 A 
ATOM      8  C   UNL A   1      35.797  33.362  28.208  1.00  0.00     0.016 A 
ATOM      9  C   UNL A   1      36.070  30.706  29.091  1.00  0.00     0.010 A 
ATOM     10  C   UNL A   1      37.046  32.854  28.635  1.00  0.00     0.010 A 
ATOM     11  C   UNL A   1      37.158  31.522  29.072  1.00  0.00    -0.014 A 
BRANCH  11  12
ATOM     12  C   UNL A   1      38.273  30.900  29.760  1.00  0.00     0.031 A 
ATOM     13  C   UNL A   1      38.339  31.147  31.224  1.00  0.00     0.074 A 
ATOM     14  C   UNL A   1      38.939  29.903  29.152  1.00  0.00     0.049 A 
ATOM     15  N   UNL A   1      39.214  30.729  32.085  1.00  0.00    -0.248 NA
ATOM     16  C   UNL A   1      37.242  31.951  31.805  1.00  0.00     0.031 C 
ATOM     17  C   UNL A   1      38.667  29.384  27.802  1.00  0.00     0.029 A 
ATOM     18  N   UNL A   1      39.963  29.125  29.603  1.00  0.00    -0.354 N 
ATOM     19  C   UNL A   1      38.833  31.302  33.287  1.00  0.00     0.074 A 
ATOM     20  C   UNL A   1      37.619  32.047  33.066  1.00  0.00     0.031 C 
ATOM     21  C   UNL A   1      39.559  28.421  27.514  1.00  0.00     0.029 A 
ATOM     22  C   UNL A   1      40.485  28.309  28.630  1.00  0.00     0.049 A 
ATOM     23  H   UNL A   1      40.294  29.148  30.530  1.00  0.00     0.167 HD
ATOM     24  C   UNL A   1      39.495  31.239  34.459  1.00  0.00     0.034 A 
ATOM     25  C   UNL A   1      41.634  27.612  28.650  1.00  0.00     0.034 A 
ATOM     26  C   UNL A   1      40.725  30.519  34.592  1.00  0.00     0.049 A 
ATOM     27  C   UNL A   1      42.442  27.688  29.917  1.00  0.00     0.074 A 
ATOM     28  C   UNL A   1      41.567  30.439  35.679  1.00  0.00     0.029 A 
ATOM     29  N   UNL A   1      41.303  29.775  33.567  1.00  0.00    -0.354 N 
ATOM     30  N   UNL A   1      42.149  28.294  31.046  1.00  0.00    -0.248 NA
ATOM     31  C   UNL A   1      43.727  26.983  29.926  1.00  0.00     0.031 C 
ATOM     32  C   UNL A   1      42.688  29.700  35.289  1.00  0.00     0.029 A 
ATOM     33  C   UNL A   1      42.506  29.250  33.986  1.00  0.00     0.049 A 
ATOM     34  H   UNL A   1      40.909  29.644  32.675  1.00  0.00     0.167 HD
ATOM     35  C   UNL A   1      43.187  28.007  31.919  1.00  0.00     0.074 A 
ATOM     36  C   UNL A   1      44.115  27.167  31.182  1.00  0.00     0.031 C 
ATOM     37  C   UNL A   1      43.368  28.394  33.207  1.00  0.00     0.034 A 
BRANCH  24  38
ATOM     38  C   UNL A   1      38.963  32.094  35.568  1.00  0.00     0.023 A 
ATOM     39  C   UNL A   1      39.253  33.473  35.628  1.00  0.00     0.012 A 
ATOM     40  C   UNL A   1      38.261  31.487  36.625  1.00  0.00     0.148 A 
ATOM     41  C   UNL A   1      38.901  34.219  36.752  1.00  0.00     0.002 A 
ATOM     42  C   UNL A   1      37.858  32.249  37.710  1.00  0.00     0.091 A 
ATOM     43  F   UNL A   1      38.048  30.164  36.573  1.00  0.00    -0.205 F 
ATOM     44  C   UNL A   1      38.196  33.610  37.787  1.00  0.00     0.022 A 
BRANCH  42  45
ATOM     45  S   UNL A   1      36.887  31.567  39.053  1.00  0.00     0.127 S 
ATOM     46  O   UNL A   1      35.661  32.361  38.967  1.00  0.00    -0.237 OA
ATOM     47  O   UNL A   1      36.742  30.172  38.639  1.00  0.00    -0.237 OA
ATOM     48  O   UNL A   1      37.670  31.768  40.264  1.00  0.00    -0.744 OA
ENDBRANCH  42  45
ENDBRANCH  24  38
BRANCH  25  49
ATOM     49  C   UNL A   1      42.090  26.853  27.453  1.00  0.00     0.023 A 
ATOM     50  C   UNL A   1      42.651  27.543  26.362  1.00  0.00     0.012 A 
ATOM     51  C   UNL A   1      41.975  25.449  27.388  1.00  0.00     0.148 A 
ATOM     52  C   UNL A   1      43.059  26.854  25.218  1.00  0.00     0.002 A 
ATOM     53  C   UNL A   1      42.427  24.763  26.266  1.00  0.00     0.091 A 
ATOM     54  F   UNL A   1      41.431  24.807  28.431  1.00  0.00    -0.205 F 
ATOM     55  C   UNL A   1      42.952  25.466  25.172  1.00  0.00     0.022 A 
BRANCH  53  56
ATOM     56  S   UNL A   1      42.424  22.969  26.155  1.00  0.00     0.127 S 
ATOM     57  O   UNL A   1      41.009  22.659  26.340  1.00  0.00    -0.237 OA
ATOM     58  O   UNL A   1      42.930  22.754  24.799  1.00  0.00    -0.237 OA
ATOM     59  O   UNL A   1      43.310  22.503  27.213  1.00  0.00    -0.744 OA
ENDBRANCH  53  56
ENDBRANCH  25  49
BRANCH  37  60
ATOM     60  C   UNL A   1      44.576  27.854  33.917  1.00  0.00     0.023 A 
ATOM     61  C   UNL A   1      45.760  28.610  33.989  1.00  0.00     0.012 A 
ATOM     62  C   UNL A   1      44.483  26.627  34.601  1.00  0.00     0.148 A 
ATOM     63  C   UNL A   1      46.853  28.131  34.707  1.00  0.00     0.002 A 
ATOM     64  C   UNL A   1      45.550  26.190  35.368  1.00  0.00     0.091 A 
ATOM     65  F   UNL A   1      43.345  25.924  34.503  1.00  0.00    -0.205 F 
ATOM     66  C   UNL A   1      46.742  26.931  35.408  1.00  0.00     0.022 A 
BRANCH  64  67
ATOM     67  S   UNL A   1      45.450  24.724  36.397  1.00  0.00     0.127 S 
ATOM     68  O   UNL A   1      44.283  25.023  37.224  1.00  0.00    -0.237 OA
ATOM     69  O   UNL A   1      45.245  23.668  35.405  1.00  0.00    -0.237 OA
ATOM     70  O   UNL A   1      46.717  24.644  37.113  1.00  0.00    -0.744 OA
ENDBRANCH  64  67
ENDBRANCH  37  60
ENDBRANCH  11  12
ENDBRANCH   4   6
ENDBRANCH   3   4
ENDBRANCH   2   3
ENDBRANCH   1   2
BRANCH   1  71
ATOM     71  O   UNL A   1      31.121  29.688  24.519  1.00  0.00    -0.374 OA
BRANCH  71  72
ATOM     72  C   UNL A   1      31.703  29.258  23.007  1.00  0.00     0.202 C 
BRANCH  72  73
ATOM     73  C   UNL A   1      33.627  28.336  22.523  1.00  0.00     0.261 C 
BRANCH  73  74
ATOM     74  O   UNL A   1      33.854  26.693  21.891  1.00  0.00    -0.463 OA
BRANCH  74  75
ATOM     75  C   UNL A   1      33.577  25.426  22.373  1.00  0.00     0.312 C 
ATOM     76  O   UNL A   1      34.393  24.648  22.872  1.00  0.00    -0.252 OA
BRANCH  75  77
ATOM     77  C   UNL A   1      32.111  24.943  22.237  1.00  0.00     0.124 C 
ATOM     78  C   UNL A   1      31.094  26.006  22.607  1.00  0.00    -0.014 C 
ATOM     79  C   UNL A   1      31.594  23.717  23.005  1.00  0.00     0.048 C 
ATOM     80  C   UNL A   1      30.212  25.596  23.530  1.00  0.00    -0.006 C 
ATOM     81  C   UNL A   1      30.428  24.175  23.915  1.00  0.00     0.106 C 
BRANCH  81  82
ATOM     82  N   UNL A   1      30.444  24.022  25.364  1.00  0.00    -0.347 N 
ATOM     83  C   UNL A   1      31.342  23.524  26.266  1.00  0.00     0.261 C 
ATOM     84  H   UNL A   1      29.619  24.350  25.789  1.00  0.00     0.164 HD
ATOM     85  O   UNL A   1      31.025  23.482  27.454  1.00  0.00    -0.271 OA
BRANCH  83  86
ATOM     86  C   UNL A   1      32.649  23.008  25.751  1.00  0.00     0.266 C 
ATOM     87  C   UNL A   1      32.881  21.482  25.868  1.00  0.00     0.095 C 
ATOM     88  O   UNL A   1      33.666  23.845  26.404  1.00  0.00    -0.480 OA
ATOM     89  C   UNL A   1      34.336  21.538  25.631  1.00  0.00    -0.002 A 
ATOM     90  C   UNL A   1      34.804  23.178  26.090  1.00  0.00     0.123 A 
ATOM     91  C   UNL A   1      35.522  20.405  25.015  1.00  0.00     0.008 A 
ATOM     92  C   UNL A   1      36.575  23.701  25.968  1.00  0.00     0.047 A 
ATOM     93  C   UNL A   1      37.216  20.891  24.884  1.00  0.00     0.001 A 
ATOM     94  C   UNL A   1      37.784  22.523  25.339  1.00  0.00     0.004 A 
ENDBRANCH  83  86
ENDBRANCH  81  82
ENDBRANCH  75  77
ENDBRANCH  74  75
ENDBRANCH  73  74
ENDBRANCH  72  73
ENDBRANCH  71  72
ENDBRANCH   1  71
TORSDOF 19
ENDMDL
MODEL 3
REMARK VINA RESULT:     -12.7      2.478      8.534
REMARK SMILES O=C(OCCOCCOC(=O)[C@@H]1C=C[C@H](NC(=O)[C@@H]2Cc3ccccc3O2)C1)c1ccc(-c2c3nc(c(-c4cccc(S(=O)(=O)[O-])c4F)c4ccc([nH]4)c(-c4cccc(S(=O)(=O)[O-])c4F)c4nc(c(-c5cccc(S(=O)(=O)[O-])c5F)c5ccc2[nH]5)C=C4)C=C3)cc1
REMARK SMILES IDX 5 1 4 2 3 3 2 4 1 5 29 6 30 7 91 8 31 9 90 10 32 11 33 12
REMARK SMILES IDX 34 13 84 14 35 15 89 16 83 17 85 18 36 19 88 20 82 21 81 22
REMARK SMILES IDX 37 24 69 25 49 26 68 27 50 28 53 29 67 30 86 31 51 32 52 33
REMARK SMILES IDX 66 35 87 36 54 37 38 38 39 39 47 40 40 41 42 42 48 43 41 44
REMARK SMILES IDX 43 45 44 46 45 47 46 48 70 49 71 50 79 51 72 52 74 53 80 54
REMARK SMILES IDX 73 55 75 56 76 57 77 58 78 59 55 60 56 61 64 62 57 63 59 64
REMARK SMILES IDX 65 65 58 66 60 67 61 68 62 69 63 70 6 71 7 72 8 73 9 74
REMARK SMILES IDX 10 75 11 76 12 77 13 78 28 79 14 80 15 81 16 82 17 83 18 85
REMARK SMILES IDX 19 86 20 87 27 88 21 89 26 90 22 91 25 92 23 93 24 94
REMARK H PARENT 85 23 53 34 16 84
REMARK Flexibility Score: inf
ROOT
ATOM      1  C   UNL A   1      34.560  33.916  28.394  1.00  0.00     0.202 C 
ENDROOT
BRANCH   1   2
ATOM      2  C   UNL A   1      34.333  33.893  29.973  1.00  0.00     0.261 C 
BRANCH   2   3
ATOM      3  O   UNL A   1      34.407  32.605  30.668  1.00  0.00    -0.460 OA
BRANCH   3   4
ATOM      4  C   UNL A   1      35.226  32.188  31.690  1.00  0.00     0.338 C 
ATOM      5  O   UNL A   1      34.934  32.432  32.857  1.00  0.00    -0.246 OA
BRANCH   4   6
ATOM      6  C   UNL A   1      36.530  31.536  31.389  1.00  0.00     0.060 A 
ATOM      7  C   UNL A   1      37.082  31.771  30.160  1.00  0.00     0.016 A 
ATOM      8  C   UNL A   1      37.309  30.792  32.269  1.00  0.00     0.016 A 
ATOM      9  C   UNL A   1      38.253  31.320  29.675  1.00  0.00     0.010 A 
ATOM     10  C   UNL A   1      38.584  30.348  31.847  1.00  0.00     0.010 A 
ATOM     11  C   UNL A   1      39.035  30.626  30.544  1.00  0.00    -0.014 A 
BRANCH  11  12
ATOM     12  C   UNL A   1      40.183  30.063  29.860  1.00  0.00     0.031 A 
ATOM     13  C   UNL A   1      41.454  30.816  30.020  1.00  0.00     0.074 A 
ATOM     14  C   UNL A   1      40.133  28.785  29.445  1.00  0.00     0.049 A 
ATOM     15  N   UNL A   1      42.626  30.558  29.527  1.00  0.00    -0.248 NA
ATOM     16  C   UNL A   1      41.405  32.012  30.890  1.00  0.00     0.031 C 
ATOM     17  C   UNL A   1      38.982  27.879  29.587  1.00  0.00     0.029 A 
ATOM     18  N   UNL A   1      41.085  28.017  28.847  1.00  0.00    -0.354 N 
ATOM     19  C   UNL A   1      43.426  31.610  29.939  1.00  0.00     0.074 A 
ATOM     20  C   UNL A   1      42.633  32.480  30.771  1.00  0.00     0.031 C 
ATOM     21  C   UNL A   1      39.281  26.699  29.018  1.00  0.00     0.029 A 
ATOM     22  C   UNL A   1      40.608  26.798  28.430  1.00  0.00     0.049 A 
ATOM     23  H   UNL A   1      42.019  28.306  28.725  1.00  0.00     0.167 HD
ATOM     24  C   UNL A   1      44.707  31.837  29.591  1.00  0.00     0.034 A 
ATOM     25  C   UNL A   1      41.184  25.912  27.602  1.00  0.00     0.034 A 
ATOM     26  C   UNL A   1      45.419  30.952  28.718  1.00  0.00     0.049 A 
ATOM     27  C   UNL A   1      42.556  26.264  27.092  1.00  0.00     0.074 A 
ATOM     28  C   UNL A   1      46.684  31.089  28.192  1.00  0.00     0.029 A 
ATOM     29  N   UNL A   1      44.890  29.767  28.216  1.00  0.00    -0.354 N 
ATOM     30  N   UNL A   1      43.308  27.298  27.398  1.00  0.00    -0.248 NA
ATOM     31  C   UNL A   1      43.167  25.335  26.139  1.00  0.00     0.031 C 
ATOM     32  C   UNL A   1      46.894  30.018  27.318  1.00  0.00     0.029 A 
ATOM     33  C   UNL A   1      45.793  29.171  27.364  1.00  0.00     0.049 A 
ATOM     34  H   UNL A   1      44.000  29.408  28.438  1.00  0.00     0.167 HD
ATOM     35  C   UNL A   1      44.501  27.124  26.714  1.00  0.00     0.074 A 
ATOM     36  C   UNL A   1      44.367  25.878  25.980  1.00  0.00     0.031 C 
ATOM     37  C   UNL A   1      45.607  27.910  26.687  1.00  0.00     0.034 A 
BRANCH  24  38
ATOM     38  C   UNL A   1      45.294  33.143  30.031  1.00  0.00     0.023 A 
ATOM     39  C   UNL A   1      45.936  33.269  31.280  1.00  0.00     0.012 A 
ATOM     40  C   UNL A   1      45.097  34.285  29.234  1.00  0.00     0.148 A 
ATOM     41  C   UNL A   1      46.321  34.524  31.752  1.00  0.00     0.002 A 
ATOM     42  C   UNL A   1      45.541  35.520  29.681  1.00  0.00     0.091 A 
ATOM     43  F   UNL A   1      44.433  34.150  28.077  1.00  0.00    -0.205 F 
ATOM     44  C   UNL A   1      46.132  35.646  30.948  1.00  0.00     0.022 A 
BRANCH  42  45
ATOM     45  S   UNL A   1      45.405  37.006  28.687  1.00  0.00     0.127 S 
ATOM     46  O   UNL A   1      45.802  38.039  29.642  1.00  0.00    -0.237 OA
ATOM     47  O   UNL A   1      46.379  36.746  27.627  1.00  0.00    -0.237 OA
ATOM     48  O   UNL A   1      44.020  37.072  28.243  1.00  0.00    -0.744 OA
ENDBRANCH  42  45
ENDBRANCH  24  38
BRANCH  25  49
ATOM     49  C   UNL A   1      40.466  24.677  27.181  1.00  0.00     0.023 A 
ATOM     50  C   UNL A   1      39.200  24.779  26.575  1.00  0.00     0.012 A 
ATOM     51  C   UNL A   1      41.031  23.399  27.374  1.00  0.00     0.148 A 
ATOM     52  C   UNL A   1      38.497  23.632  26.200  1.00  0.00     0.002 A 
ATOM     53  C   UNL A   1      40.348  22.264  26.954  1.00  0.00     0.091 A 
ATOM     54  F   UNL A   1      42.235  23.318  27.960  1.00  0.00    -0.205 F 
ATOM     55  C   UNL A   1      39.072  22.377  26.383  1.00  0.00     0.022 A 
BRANCH  53  56
ATOM     56  S   UNL A   1      41.049  20.612  27.057  1.00  0.00     0.127 S 
ATOM     57  O   UNL A   1      40.814  20.272  28.458  1.00  0.00    -0.237 OA
ATOM     58  O   UNL A   1      40.223  19.878  26.098  1.00  0.00    -0.237 OA
ATOM     59  O   UNL A   1      42.448  20.747  26.672  1.00  0.00    -0.744 OA
ENDBRANCH  53  56
ENDBRANCH  25  49
BRANCH  37  60
ATOM     60  C   UNL A   1      46.779  27.408  25.895  1.00  0.00     0.023 A 
ATOM     61  C   UNL A   1      46.887  27.689  24.521  1.00  0.00     0.012 A 
ATOM     62  C   UNL A   1      47.826  26.740  26.559  1.00  0.00     0.148 A 
ATOM     63  C   UNL A   1      48.010  27.278  23.808  1.00  0.00     0.002 A 
ATOM     64  C   UNL A   1      48.969  26.394  25.859  1.00  0.00     0.091 A 
ATOM     65  F   UNL A   1      47.688  26.476  27.867  1.00  0.00    -0.205 F 
ATOM     66  C   UNL A   1      49.057  26.646  24.480  1.00  0.00     0.022 A 
BRANCH  64  67
ATOM     67  S   UNL A   1      50.408  25.692  26.666  1.00  0.00     0.127 S 
ATOM     68  O   UNL A   1      51.324  25.521  25.540  1.00  0.00    -0.237 OA
ATOM     69  O   UNL A   1      50.780  26.751  27.604  1.00  0.00    -0.237 OA
ATOM     70  O   UNL A   1      49.959  24.457  27.295  1.00  0.00    -0.744 OA
ENDBRANCH  64  67
ENDBRANCH  37  60
ENDBRANCH  11  12
ENDBRANCH   4   6
ENDBRANCH   3   4
ENDBRANCH   2   3
ENDBRANCH   1   2
BRANCH   1  71
ATOM     71  O   UNL A   1      35.087  32.761  27.624  1.00  0.00    -0.374 OA
BRANCH  71  72
ATOM     72  C   UNL A   1      34.412  31.231  27.507  1.00  0.00     0.202 C 
BRANCH  72  73
ATOM     73  C   UNL A   1      32.333  30.713  27.064  1.00  0.00     0.261 C 
BRANCH  73  74
ATOM     74  O   UNL A   1      31.631  30.563  25.440  1.00  0.00    -0.463 OA
BRANCH  74  75
ATOM     75  C   UNL A   1      31.012  29.539  24.746  1.00  0.00     0.312 C 
ATOM     76  O   UNL A   1      30.095  29.668  23.932  1.00  0.00    -0.252 OA
BRANCH  75  77
ATOM     77  C   UNL A   1      31.506  28.103  25.052  1.00  0.00     0.124 C 
ATOM     78  C   UNL A   1      33.017  27.969  25.017  1.00  0.00    -0.014 C 
ATOM     79  C   UNL A   1      31.055  26.900  24.211  1.00  0.00     0.048 C 
ATOM     80  C   UNL A   1      33.443  26.992  24.205  1.00  0.00    -0.006 C 
ATOM     81  C   UNL A   1      32.312  26.250  23.585  1.00  0.00     0.106 C 
BRANCH  81  82
ATOM     82  N   UNL A   1      32.503  26.110  22.147  1.00  0.00    -0.347 N 
ATOM     83  C   UNL A   1      32.911  25.094  21.329  1.00  0.00     0.261 C 
ATOM     84  H   UNL A   1      32.292  26.936  21.654  1.00  0.00     0.164 HD
ATOM     85  O   UNL A   1      33.026  25.316  20.124  1.00  0.00    -0.271 OA
BRANCH  83  86
ATOM     86  C   UNL A   1      33.246  23.776  21.951  1.00  0.00     0.266 C 
ATOM     87  C   UNL A   1      32.118  23.090  22.760  1.00  0.00     0.095 C 
ATOM     88  O   UNL A   1      34.488  24.019  22.699  1.00  0.00    -0.480 OA
ATOM     89  C   UNL A   1      32.999  22.125  23.447  1.00  0.00    -0.002 A 
ATOM     90  C   UNL A   1      34.597  22.875  23.419  1.00  0.00     0.123 A 
ATOM     91  C   UNL A   1      32.762  20.544  24.164  1.00  0.00     0.008 A 
ATOM     92  C   UNL A   1      36.037  22.011  24.197  1.00  0.00     0.047 A 
ATOM     93  C   UNL A   1      34.127  19.701  24.904  1.00  0.00     0.001 A 
ATOM     94  C   UNL A   1      35.776  20.390  24.936  1.00  0.00     0.004 A 
ENDBRANCH  83  86
ENDBRANCH  81  82
ENDBRANCH  75  77
ENDBRANCH  74  75
ENDBRANCH  73  74
ENDBRANCH  72  73
ENDBRANCH  71  72
ENDBRANCH   1  71
TORSDOF 19
ENDMDL
