MODEL 1
REMARK VINA RESULT:     -10.6      0.000      0.000
REMARK SMILES COC(=O)[C@H]1CN(C(=O)[C@@H]2CC=CC[C@@H]2C(=O)OCCOCCOC(=O)c2ccc(-c3c4nc(c(-c5cccc(S(=O)(=O)[O-])c5F)c5ccc([nH]5)c(-c5cccc(S(=O)(=O)[O-])c5F)c5nc(c(-c6cccc(S(=O)(=O)[O-])c6F)c6ccc3[nH]6)C=C5)C=C4)cc2)C[C@H]1C
REMARK SMILES IDX 20 1 19 2 18 3 16 4 17 5 15 6 10 7 11 8 12 9 14 10 13 11
REMARK SMILES IDX 8 12 9 13 7 14 5 15 6 16 91 17 90 18 92 19 3 20 4 21 2 22
REMARK SMILES IDX 1 23 21 24 22 25 23 26 24 27 25 28 26 29 27 30 28 31 89 32
REMARK SMILES IDX 29 33 88 34 30 35 31 36 32 37 82 38 33 39 87 40 81 41 83 42
REMARK SMILES IDX 34 43 86 44 80 45 79 46 35 48 67 49 47 50 66 51 48 52 51 53
REMARK SMILES IDX 65 54 84 55 49 56 50 57 64 59 85 60 52 61 36 62 37 63 45 64
REMARK SMILES IDX 38 65 40 66 46 67 39 68 41 69 42 70 43 71 44 72 68 73 69 74
REMARK SMILES IDX 77 75 70 76 72 77 78 78 71 79 73 80 74 81 75 82 76 83 53 84
REMARK SMILES IDX 54 85 62 86 55 87 57 88 63 89 56 90 58 91 59 92 60 93 61 94
REMARK H PARENT 83 47 51 58
REMARK Flexibility Score: inf
ROOT
ATOM      1  C   UNL A   1      37.772  22.818  25.449  1.00  0.00     0.202 C 
ENDROOT
BRANCH   1   2
ATOM      2  C   UNL A   1      36.648  23.667  26.044  1.00  0.00     0.261 C 
BRANCH   2   3
ATOM      3  O   UNL A   1      35.565  22.803  26.407  1.00  0.00    -0.463 OA
BRANCH   3   4
ATOM      4  C   UNL A   1      34.437  22.934  25.662  1.00  0.00     0.310 C 
ATOM      5  O   UNL A   1      33.459  23.586  25.999  1.00  0.00    -0.252 OA
BRANCH   4   6
ATOM      6  C   UNL A   1      34.572  22.128  24.381  1.00  0.00     0.115 C 
ATOM      7  C   UNL A   1      33.431  22.280  23.354  1.00  0.00     0.097 C 
ATOM      8  C   UNL A   1      32.066  21.825  23.882  1.00  0.00     0.041 C 
ATOM      9  C   UNL A   1      32.158  20.618  24.772  1.00  0.00    -0.030 C 
ATOM     10  C   UNL A   1      34.665  20.659  24.840  1.00  0.00     0.043 C 
ATOM     11  C   UNL A   1      33.318  20.082  25.185  1.00  0.00    -0.030 C 
BRANCH   7  12
ATOM     12  C   UNL A   1      33.338  23.527  22.451  1.00  0.00     0.226 C 
ATOM     13  O   UNL A   1      33.409  23.394  21.224  1.00  0.00    -0.275 OA
BRANCH  12  14
ATOM     14  N   UNL A   1      33.045  24.753  22.997  1.00  0.00    -0.341 N 
ATOM     15  C   UNL A   1      31.794  26.300  24.220  1.00  0.00     0.123 C 
ATOM     16  C   UNL A   1      31.709  25.323  23.036  1.00  0.00     0.135 C 
ATOM     17  C   UNL A   1      33.296  26.695  24.307  1.00  0.00     0.021 C 
ATOM     18  C   UNL A   1      33.971  25.814  23.268  1.00  0.00     0.123 C 
ATOM     19  C   UNL A   1      33.697  28.148  24.061  1.00  0.00     0.010 C 
BRANCH  15  20
ATOM     20  C   UNL A   1      30.820  27.448  24.124  1.00  0.00     0.310 C 
ATOM     21  O   UNL A   1      30.908  28.506  24.728  1.00  0.00    -0.252 OA
BRANCH  20  22
ATOM     22  O   UNL A   1      29.846  27.141  23.221  1.00  0.00    -0.469 OA
ATOM     23  C   UNL A   1      28.560  26.834  23.760  1.00  0.00     0.282 C 
ENDBRANCH  20  22
ENDBRANCH  15  20
ENDBRANCH  12  14
ENDBRANCH   7  12
ENDBRANCH   4   6
ENDBRANCH   3   4
ENDBRANCH   2   3
ENDBRANCH   1   2
BRANCH   1  24
ATOM     24  O   UNL A   1      37.956  21.534  26.056  1.00  0.00    -0.374 OA
BRANCH  24  25
ATOM     25  C   UNL A   1      38.315  20.467  25.168  1.00  0.00     0.202 C 
BRANCH  25  26
ATOM     26  C   UNL A   1      39.476  19.583  25.611  1.00  0.00     0.261 C 
BRANCH  26  27
ATOM     27  O   UNL A   1      40.030  20.082  26.829  1.00  0.00    -0.460 OA
BRANCH  27  28
ATOM     28  C   UNL A   1      41.342  20.397  26.760  1.00  0.00     0.338 C 
ATOM     29  O   UNL A   1      42.246  19.714  26.305  1.00  0.00    -0.246 OA
BRANCH  28  30
ATOM     30  C   UNL A   1      41.484  21.820  27.111  1.00  0.00     0.060 A 
ATOM     31  C   UNL A   1      41.134  22.762  26.135  1.00  0.00     0.016 A 
ATOM     32  C   UNL A   1      41.896  22.221  28.385  1.00  0.00     0.016 A 
ATOM     33  C   UNL A   1      41.246  24.116  26.413  1.00  0.00     0.010 A 
ATOM     34  C   UNL A   1      42.012  23.579  28.662  1.00  0.00     0.010 A 
ATOM     35  C   UNL A   1      41.725  24.523  27.663  1.00  0.00    -0.014 A 
BRANCH  35  36
ATOM     36  C   UNL A   1      42.089  25.935  27.879  1.00  0.00     0.031 A 
ATOM     37  C   UNL A   1      43.464  26.381  27.478  1.00  0.00     0.074 A 
ATOM     38  C   UNL A   1      41.212  26.781  28.440  1.00  0.00     0.049 A 
ATOM     39  N   UNL A   1      44.027  27.549  27.623  1.00  0.00    -0.248 NA
ATOM     40  C   UNL A   1      44.322  25.370  26.835  1.00  0.00     0.031 C 
ATOM     41  C   UNL A   1      39.854  26.433  28.859  1.00  0.00     0.029 A 
ATOM     42  N   UNL A   1      41.347  28.099  28.782  1.00  0.00    -0.354 N 
ATOM     43  C   UNL A   1      45.315  27.407  27.124  1.00  0.00     0.074 A 
ATOM     44  C   UNL A   1      45.456  26.036  26.685  1.00  0.00     0.031 C 
ATOM     45  C   UNL A   1      39.288  27.509  29.430  1.00  0.00     0.029 A 
ATOM     46  C   UNL A   1      40.256  28.604  29.446  1.00  0.00     0.049 A 
ATOM     47  H   UNL A   1      42.147  28.633  28.574  1.00  0.00     0.167 HD
ATOM     48  C   UNL A   1      46.288  28.342  27.031  1.00  0.00     0.034 A 
ATOM     49  C   UNL A   1      40.078  29.805  30.026  1.00  0.00     0.034 A 
ATOM     50  C   UNL A   1      46.124  29.700  27.471  1.00  0.00     0.049 A 
ATOM     51  C   UNL A   1      41.189  30.818  29.943  1.00  0.00     0.074 A 
ATOM     52  C   UNL A   1      47.020  30.749  27.378  1.00  0.00     0.029 A 
ATOM     53  N   UNL A   1      44.995  30.190  28.111  1.00  0.00    -0.354 N 
ATOM     54  N   UNL A   1      42.360  30.714  29.360  1.00  0.00    -0.248 NA
ATOM     55  C   UNL A   1      40.946  32.121  30.575  1.00  0.00     0.031 C 
ATOM     56  C   UNL A   1      46.448  31.862  28.003  1.00  0.00     0.029 A 
ATOM     57  C   UNL A   1      45.179  31.520  28.445  1.00  0.00     0.049 A 
ATOM     58  H   UNL A   1      44.182  29.668  28.300  1.00  0.00     0.167 HD
ATOM     59  C   UNL A   1      42.982  31.945  29.528  1.00  0.00     0.074 A 
ATOM     60  C   UNL A   1      42.046  32.786  30.250  1.00  0.00     0.031 C 
ATOM     61  C   UNL A   1      44.217  32.344  29.134  1.00  0.00     0.034 A 
BRANCH  48  62
ATOM     62  C   UNL A   1      47.603  27.921  26.431  1.00  0.00     0.023 A 
ATOM     63  C   UNL A   1      48.677  27.559  27.270  1.00  0.00     0.012 A 
ATOM     64  C   UNL A   1      47.769  27.862  25.034  1.00  0.00     0.148 A 
ATOM     65  C   UNL A   1      49.907  27.184  26.729  1.00  0.00     0.002 A 
ATOM     66  C   UNL A   1      48.981  27.441  24.502  1.00  0.00     0.091 A 
ATOM     67  F   UNL A   1      46.747  28.237  24.252  1.00  0.00    -0.205 F 
ATOM     68  C   UNL A   1      50.055  27.115  25.347  1.00  0.00     0.022 A 
BRANCH  66  69
ATOM     69  S   UNL A   1      49.247  27.243  22.737  1.00  0.00     0.127 S 
ATOM     70  O   UNL A   1      50.693  27.039  22.679  1.00  0.00    -0.237 OA
ATOM     71  O   UNL A   1      48.451  26.052  22.439  1.00  0.00    -0.237 OA
ATOM     72  O   UNL A   1      48.763  28.468  22.117  1.00  0.00    -0.744 OA
ENDBRANCH  66  69
ENDBRANCH  48  62
BRANCH  49  73
ATOM     73  C   UNL A   1      38.791  30.117  30.706  1.00  0.00     0.023 A 
ATOM     74  C   UNL A   1      38.580  29.678  32.026  1.00  0.00     0.012 A 
ATOM     75  C   UNL A   1      37.795  30.882  30.067  1.00  0.00     0.148 A 
ATOM     76  C   UNL A   1      37.389  29.973  32.690  1.00  0.00     0.002 A 
ATOM     77  C   UNL A   1      36.635  31.220  30.753  1.00  0.00     0.091 A 
ATOM     78  F   UNL A   1      38.014  31.283  28.807  1.00  0.00    -0.205 F 
ATOM     79  C   UNL A   1      36.422  30.751  32.059  1.00  0.00     0.022 A 
BRANCH  77  80
ATOM     80  S   UNL A   1      35.395  32.324  30.070  1.00  0.00     0.127 S 
ATOM     81  O   UNL A   1      36.189  33.511  29.762  1.00  0.00    -0.237 OA
ATOM     82  O   UNL A   1      34.933  31.570  28.905  1.00  0.00    -0.237 OA
ATOM     83  O   UNL A   1      34.395  32.492  31.116  1.00  0.00    -0.744 OA
ENDBRANCH  77  80
ENDBRANCH  49  73
BRANCH  61  84
ATOM     84  C   UNL A   1      44.624  33.760  29.451  1.00  0.00     0.023 A 
ATOM     85  C   UNL A   1      45.253  34.052  30.678  1.00  0.00     0.012 A 
ATOM     86  C   UNL A   1      44.454  34.784  28.498  1.00  0.00     0.148 A 
ATOM     87  C   UNL A   1      45.675  35.349  30.965  1.00  0.00     0.002 A 
ATOM     88  C   UNL A   1      44.926  36.061  28.769  1.00  0.00     0.091 A 
ATOM     89  F   UNL A   1      43.842  34.486  27.343  1.00  0.00    -0.205 F 
ATOM     90  C   UNL A   1      45.524  36.349  30.008  1.00  0.00     0.022 A 
BRANCH  88  91
ATOM     91  S   UNL A   1      44.866  37.389  27.562  1.00  0.00     0.127 S 
ATOM     92  O   UNL A   1      43.438  37.441  27.247  1.00  0.00    -0.237 OA
ATOM     93  O   UNL A   1      45.363  38.529  28.333  1.00  0.00    -0.237 OA
ATOM     94  O   UNL A   1      45.729  36.976  26.463  1.00  0.00    -0.744 OA
ENDBRANCH  88  91
ENDBRANCH  61  84
ENDBRANCH  35  36
ENDBRANCH  28  30
ENDBRANCH  27  28
ENDBRANCH  26  27
ENDBRANCH  25  26
ENDBRANCH  24  25
ENDBRANCH   1  24
TORSDOF 21
ENDMDL
MODEL 2
REMARK VINA RESULT:     -10.5      5.616      9.068
REMARK SMILES COC(=O)[C@H]1CN(C(=O)[C@@H]2CC=CC[C@@H]2C(=O)OCCOCCOC(=O)c2ccc(-c3c4nc(c(-c5cccc(S(=O)(=O)[O-])c5F)c5ccc([nH]5)c(-c5cccc(S(=O)(=O)[O-])c5F)c5nc(c(-c6cccc(S(=O)(=O)[O-])c6F)c6ccc3[nH]6)C=C5)C=C4)cc2)C[C@H]1C
REMARK SMILES IDX 20 1 19 2 18 3 16 4 17 5 15 6 10 7 11 8 12 9 14 10 13 11
REMARK SMILES IDX 8 12 9 13 7 14 5 15 6 16 91 17 90 18 92 19 3 20 4 21 2 22
REMARK SMILES IDX 1 23 21 24 22 25 23 26 24 27 25 28 26 29 27 30 28 31 89 32
REMARK SMILES IDX 29 33 88 34 30 35 31 36 32 37 82 38 33 39 87 40 81 41 83 42
REMARK SMILES IDX 34 43 86 44 80 45 79 46 35 48 67 49 47 50 66 51 48 52 51 53
REMARK SMILES IDX 65 54 84 55 49 56 50 57 64 59 85 60 52 61 36 62 37 63 45 64
REMARK SMILES IDX 38 65 40 66 46 67 39 68 41 69 42 70 43 71 44 72 68 73 69 74
REMARK SMILES IDX 77 75 70 76 72 77 78 78 71 79 73 80 74 81 75 82 76 83 53 84
REMARK SMILES IDX 54 85 62 86 55 87 57 88 63 89 56 90 58 91 59 92 60 93 61 94
REMARK H PARENT 83 47 51 58
REMARK Flexibility Score: inf
ROOT
ATOM      1  C   UNL A   1      33.441  29.801  26.318  1.00  0.00     0.202 C 
ENDROOT
BRANCH   1   2
ATOM      2  C   UNL A   1      33.639  28.304  26.563  1.00  0.00     0.261 C 
BRANCH   2   3
ATOM      3  O   UNL A   1      32.584  27.590  25.911  1.00  0.00    -0.463 OA
BRANCH   3   4
ATOM      4  C   UNL A   1      32.931  26.949  24.765  1.00  0.00     0.310 C 
ATOM      5  O   UNL A   1      33.935  27.196  24.113  1.00  0.00    -0.252 OA
BRANCH   4   6
ATOM      6  C   UNL A   1      31.872  25.916  24.414  1.00  0.00     0.115 C 
ATOM      7  C   UNL A   1      31.808  25.478  22.937  1.00  0.00     0.097 C 
ATOM      8  C   UNL A   1      31.479  26.623  21.971  1.00  0.00     0.041 C 
ATOM      9  C   UNL A   1      30.486  27.597  22.540  1.00  0.00    -0.030 C 
ATOM     10  C   UNL A   1      30.533  26.561  24.824  1.00  0.00     0.043 C 
ATOM     11  C   UNL A   1      30.045  27.560  23.808  1.00  0.00    -0.030 C 
BRANCH   7  12
ATOM     12  C   UNL A   1      32.837  24.485  22.358  1.00  0.00     0.226 C 
ATOM     13  O   UNL A   1      33.226  24.626  21.194  1.00  0.00    -0.275 OA
BRANCH  12  14
ATOM     14  N   UNL A   1      33.414  23.539  23.169  1.00  0.00    -0.341 N 
ATOM     15  C   UNL A   1      33.628  21.451  24.192  1.00  0.00     0.123 C 
ATOM     16  C   UNL A   1      32.660  22.631  24.017  1.00  0.00     0.135 C 
ATOM     17  C   UNL A   1      35.046  22.064  24.014  1.00  0.00     0.021 C 
ATOM     18  C   UNL A   1      34.777  23.506  23.613  1.00  0.00     0.123 C 
ATOM     19  C   UNL A   1      36.015  22.051  25.196  1.00  0.00     0.010 C 
BRANCH  15  20
ATOM     20  C   UNL A   1      33.406  20.675  25.468  1.00  0.00     0.310 C 
ATOM     21  O   UNL A   1      33.147  21.162  26.558  1.00  0.00    -0.252 OA
BRANCH  20  22
ATOM     22  O   UNL A   1      33.495  19.340  25.207  1.00  0.00    -0.469 OA
ATOM     23  C   UNL A   1      32.770  18.870  24.070  1.00  0.00     0.282 C 
ENDBRANCH  20  22
ENDBRANCH  15  20
ENDBRANCH  12  14
ENDBRANCH   7  12
ENDBRANCH   4   6
ENDBRANCH   3   4
ENDBRANCH   2   3
ENDBRANCH   1   2
BRANCH   1  24
ATOM     24  O   UNL A   1      32.540  30.454  27.220  1.00  0.00    -0.374 OA
BRANCH  24  25
ATOM     25  C   UNL A   1      31.609  31.367  26.623  1.00  0.00     0.202 C 
BRANCH  25  26
ATOM     26  C   UNL A   1      31.802  32.842  26.957  1.00  0.00     0.261 C 
BRANCH  26  27
ATOM     27  O   UNL A   1      33.154  33.078  27.353  1.00  0.00    -0.460 OA
BRANCH  27  28
ATOM     28  C   UNL A   1      33.300  34.023  28.307  1.00  0.00     0.338 C 
ATOM     29  O   UNL A   1      32.542  34.946  28.561  1.00  0.00    -0.246 OA
BRANCH  28  30
ATOM     30  C   UNL A   1      34.425  33.623  29.169  1.00  0.00     0.060 A 
ATOM     31  C   UNL A   1      35.680  34.178  28.888  1.00  0.00     0.016 A 
ATOM     32  C   UNL A   1      34.242  32.771  30.262  1.00  0.00     0.016 A 
ATOM     33  C   UNL A   1      36.775  33.838  29.670  1.00  0.00     0.010 A 
ATOM     34  C   UNL A   1      35.340  32.427  31.043  1.00  0.00     0.010 A 
ATOM     35  C   UNL A   1      36.612  32.930  30.722  1.00  0.00    -0.014 A 
BRANCH  35  36
ATOM     36  C   UNL A   1      37.799  32.369  31.390  1.00  0.00     0.031 A 
ATOM     37  C   UNL A   1      38.513  31.229  30.727  1.00  0.00     0.074 A 
ATOM     38  C   UNL A   1      38.205  32.860  32.571  1.00  0.00     0.049 A 
ATOM     39  N   UNL A   1      39.537  30.540  31.149  1.00  0.00    -0.248 NA
ATOM     40  C   UNL A   1      37.997  30.804  29.414  1.00  0.00     0.031 C 
ATOM     41  C   UNL A   1      37.572  33.967  33.287  1.00  0.00     0.029 A 
ATOM     42  N   UNL A   1      39.230  32.467  33.389  1.00  0.00    -0.354 N 
ATOM     43  C   UNL A   1      39.767  29.578  30.174  1.00  0.00     0.074 A 
ATOM     44  C   UNL A   1      38.768  29.763  29.145  1.00  0.00     0.031 C 
ATOM     45  C   UNL A   1      38.208  34.146  34.457  1.00  0.00     0.029 A 
ATOM     46  C   UNL A   1      39.266  33.147  34.581  1.00  0.00     0.049 A 
ATOM     47  H   UNL A   1      39.877  31.766  33.147  1.00  0.00     0.167 HD
ATOM     48  C   UNL A   1      40.734  28.633  30.137  1.00  0.00     0.034 A 
ATOM     49  C   UNL A   1      40.048  32.956  35.660  1.00  0.00     0.034 A 
ATOM     50  C   UNL A   1      41.719  28.469  31.170  1.00  0.00     0.049 A 
ATOM     51  C   UNL A   1      41.093  31.873  35.612  1.00  0.00     0.074 A 
ATOM     52  C   UNL A   1      42.779  27.582  31.216  1.00  0.00     0.029 A 
ATOM     53  N   UNL A   1      41.749  29.194  32.352  1.00  0.00    -0.354 N 
ATOM     54  N   UNL A   1      41.383  31.048  34.634  1.00  0.00    -0.248 NA
ATOM     55  C   UNL A   1      41.935  31.711  36.805  1.00  0.00     0.031 C 
ATOM     56  C   UNL A   1      43.424  27.742  32.447  1.00  0.00     0.029 A 
ATOM     57  C   UNL A   1      42.793  28.759  33.149  1.00  0.00     0.049 A 
ATOM     58  H   UNL A   1      41.121  29.913  32.589  1.00  0.00     0.167 HD
ATOM     59  C   UNL A   1      42.457  30.289  35.079  1.00  0.00     0.074 A 
ATOM     60  C   UNL A   1      42.780  30.770  36.409  1.00  0.00     0.031 C 
ATOM     61  C   UNL A   1      43.113  29.278  34.456  1.00  0.00     0.034 A 
BRANCH  48  62
ATOM     62  C   UNL A   1      40.765  27.714  28.944  1.00  0.00     0.023 A 
ATOM     63  C   UNL A   1      39.829  26.665  28.837  1.00  0.00     0.012 A 
ATOM     64  C   UNL A   1      41.709  27.904  27.916  1.00  0.00     0.148 A 
ATOM     65  C   UNL A   1      39.857  25.795  27.747  1.00  0.00     0.002 A 
ATOM     66  C   UNL A   1      41.699  27.065  26.810  1.00  0.00     0.091 A 
ATOM     67  F   UNL A   1      42.609  28.889  28.049  1.00  0.00    -0.205 F 
ATOM     68  C   UNL A   1      40.784  26.001  26.730  1.00  0.00     0.022 A 
BRANCH  66  69
ATOM     69  S   UNL A   1      42.801  27.296  25.410  1.00  0.00     0.127 S 
ATOM     70  O   UNL A   1      44.086  27.492  26.077  1.00  0.00    -0.237 OA
ATOM     71  O   UNL A   1      42.668  26.022  24.703  1.00  0.00    -0.237 OA
ATOM     72  O   UNL A   1      42.291  28.450  24.684  1.00  0.00    -0.744 OA
ENDBRANCH  66  69
ENDBRANCH  48  62
BRANCH  49  73
ATOM     73  C   UNL A   1      39.887  33.828  36.856  1.00  0.00     0.023 A 
ATOM     74  C   UNL A   1      40.310  35.169  36.801  1.00  0.00     0.012 A 
ATOM     75  C   UNL A   1      39.278  33.346  38.032  1.00  0.00     0.148 A 
ATOM     76  C   UNL A   1      40.154  36.009  37.903  1.00  0.00     0.002 A 
ATOM     77  C   UNL A   1      39.074  34.202  39.107  1.00  0.00     0.091 A 
ATOM     78  F   UNL A   1      38.890  32.063  38.066  1.00  0.00    -0.205 F 
ATOM     79  C   UNL A   1      39.527  35.530  39.052  1.00  0.00     0.022 A 
BRANCH  77  80
ATOM     80  S   UNL A   1      38.161  33.713  40.574  1.00  0.00     0.127 S 
ATOM     81  O   UNL A   1      38.245  34.918  41.394  1.00  0.00    -0.237 OA
ATOM     82  O   UNL A   1      36.836  33.432  40.021  1.00  0.00    -0.237 OA
ATOM     83  O   UNL A   1      38.854  32.545  41.100  1.00  0.00    -0.744 OA
ENDBRANCH  77  80
ENDBRANCH  49  73
BRANCH  61  84
ATOM     84  C   UNL A   1      44.263  28.637  35.189  1.00  0.00     0.023 A 
ATOM     85  C   UNL A   1      45.582  29.055  34.929  1.00  0.00     0.012 A 
ATOM     86  C   UNL A   1      44.025  27.677  36.193  1.00  0.00     0.148 A 
ATOM     87  C   UNL A   1      46.651  28.503  35.633  1.00  0.00     0.002 A 
ATOM     88  C   UNL A   1      45.089  27.171  36.927  1.00  0.00     0.091 A 
ATOM     89  F   UNL A   1      42.762  27.284  36.415  1.00  0.00    -0.205 F 
ATOM     90  C   UNL A   1      46.404  27.572  36.639  1.00  0.00     0.022 A 
BRANCH  88  91
ATOM     91  S   UNL A   1      44.861  26.045  38.307  1.00  0.00     0.127 S 
ATOM     92  O   UNL A   1      46.187  26.060  38.925  1.00  0.00    -0.237 OA
ATOM     93  O   UNL A   1      43.818  26.716  39.083  1.00  0.00    -0.237 OA
ATOM     94  O   UNL A   1      44.461  24.770  37.726  1.00  0.00    -0.744 OA
ENDBRANCH  88  91
ENDBRANCH  61  84
ENDBRANCH  35  36
ENDBRANCH  28  30
ENDBRANCH  27  28
ENDBRANCH  26  27
ENDBRANCH  25  26
ENDBRANCH  24  25
ENDBRANCH   1  24
TORSDOF 21
ENDMDL
MODEL 3
REMARK VINA RESULT:     -10.2      1.754      3.596
REMARK SMILES COC(=O)[C@H]1CN(C(=O)[C@@H]2CC=CC[C@@H]2C(=O)OCCOCCOC(=O)c2ccc(-c3c4nc(c(-c5cccc(S(=O)(=O)[O-])c5F)c5ccc([nH]5)c(-c5cccc(S(=O)(=O)[O-])c5F)c5nc(c(-c6cccc(S(=O)(=O)[O-])c6F)c6ccc3[nH]6)C=C5)C=C4)cc2)C[C@H]1C
REMARK SMILES IDX 20 1 19 2 18 3 16 4 17 5 15 6 10 7 11 8 12 9 14 10 13 11
REMARK SMILES IDX 8 12 9 13 7 14 5 15 6 16 91 17 90 18 92 19 3 20 4 21 2 22
REMARK SMILES IDX 1 23 21 24 22 25 23 26 24 27 25 28 26 29 27 30 28 31 89 32
REMARK SMILES IDX 29 33 88 34 30 35 31 36 32 37 82 38 33 39 87 40 81 41 83 42
REMARK SMILES IDX 34 43 86 44 80 45 79 46 35 48 67 49 47 50 66 51 48 52 51 53
REMARK SMILES IDX 65 54 84 55 49 56 50 57 64 59 85 60 52 61 36 62 37 63 45 64
REMARK SMILES IDX 38 65 40 66 46 67 39 68 41 69 42 70 43 71 44 72 68 73 69 74
REMARK SMILES IDX 77 75 70 76 72 77 78 78 71 79 73 80 74 81 75 82 76 83 53 84
REMARK SMILES IDX 54 85 62 86 55 87 57 88 63 89 56 90 58 91 59 92 60 93 61 94
REMARK H PARENT 83 47 51 58
REMARK Flexibility Score: inf
ROOT
ATOM      1  C   UNL A   1      37.764  22.584  25.712  1.00  0.00     0.202 C 
ENDROOT
BRANCH   1   2
ATOM      2  C   UNL A   1      36.797  23.547  25.022  1.00  0.00     0.261 C 
BRANCH   2   3
ATOM      3  O   UNL A   1      35.540  23.503  25.706  1.00  0.00    -0.463 OA
BRANCH   3   4
ATOM      4  C   UNL A   1      34.472  23.149  24.945  1.00  0.00     0.310 C 
ATOM      5  O   UNL A   1      34.264  23.560  23.813  1.00  0.00    -0.252 OA
BRANCH   4   6
ATOM      6  C   UNL A   1      33.576  22.203  25.728  1.00  0.00     0.115 C 
ATOM      7  C   UNL A   1      32.330  21.673  24.990  1.00  0.00     0.097 C 
ATOM      8  C   UNL A   1      31.351  22.775  24.570  1.00  0.00     0.041 C 
ATOM      9  C   UNL A   1      31.245  23.878  25.585  1.00  0.00    -0.030 C 
ATOM     10  C   UNL A   1      33.142  23.001  26.973  1.00  0.00     0.043 C 
ATOM     11  C   UNL A   1      32.030  23.970  26.671  1.00  0.00    -0.030 C 
BRANCH   7  12
ATOM     12  C   UNL A   1      32.449  20.547  23.941  1.00  0.00     0.226 C 
ATOM     13  O   UNL A   1      32.025  20.739  22.796  1.00  0.00    -0.275 OA
BRANCH  12  14
ATOM     14  N   UNL A   1      33.137  19.396  24.239  1.00  0.00    -0.341 N 
ATOM     15  C   UNL A   1      33.535  17.096  24.267  1.00  0.00     0.123 C 
ATOM     16  C   UNL A   1      32.502  18.161  24.667  1.00  0.00     0.135 C 
ATOM     17  C   UNL A   1      34.902  17.837  24.281  1.00  0.00     0.021 C 
ATOM     18  C   UNL A   1      34.534  19.288  24.545  1.00  0.00     0.123 C 
ATOM     19  C   UNL A   1      35.970  17.406  25.284  1.00  0.00     0.010 C 
BRANCH  15  20
ATOM     20  C   UNL A   1      33.461  15.843  25.106  1.00  0.00     0.310 C 
ATOM     21  O   UNL A   1      34.271  14.928  25.087  1.00  0.00    -0.252 OA
BRANCH  20  22
ATOM     22  O   UNL A   1      32.373  15.909  25.924  1.00  0.00    -0.469 OA
ATOM     23  C   UNL A   1      31.881  14.664  26.421  1.00  0.00     0.282 C 
ENDBRANCH  20  22
ENDBRANCH  15  20
ENDBRANCH  12  14
ENDBRANCH   7  12
ENDBRANCH   4   6
ENDBRANCH   3   4
ENDBRANCH   2   3
ENDBRANCH   1   2
BRANCH   1  24
ATOM     24  O   UNL A   1      37.364  21.209  25.707  1.00  0.00    -0.374 OA
BRANCH  24  25
ATOM     25  C   UNL A   1      38.105  20.344  24.835  1.00  0.00     0.202 C 
BRANCH  25  26
ATOM     26  C   UNL A   1      39.175  19.480  25.493  1.00  0.00     0.261 C 
BRANCH  26  27
ATOM     27  O   UNL A   1      39.678  20.132  26.660  1.00  0.00    -0.460 OA
BRANCH  27  28
ATOM     28  C   UNL A   1      41.003  20.391  26.629  1.00  0.00     0.338 C 
ATOM     29  O   UNL A   1      41.890  19.674  26.190  1.00  0.00    -0.246 OA
BRANCH  28  30
ATOM     30  C   UNL A   1      41.197  21.802  27.002  1.00  0.00     0.060 A 
ATOM     31  C   UNL A   1      40.813  22.773  26.069  1.00  0.00     0.016 A 
ATOM     32  C   UNL A   1      41.691  22.165  28.259  1.00  0.00     0.016 A 
ATOM     33  C   UNL A   1      40.972  24.118  26.369  1.00  0.00     0.010 A 
ATOM     34  C   UNL A   1      41.853  23.513  28.558  1.00  0.00     0.010 A 
ATOM     35  C   UNL A   1      41.531  24.486  27.598  1.00  0.00    -0.014 A 
BRANCH  35  36
ATOM     36  C   UNL A   1      41.938  25.884  27.823  1.00  0.00     0.031 A 
ATOM     37  C   UNL A   1      43.325  26.291  27.422  1.00  0.00     0.074 A 
ATOM     38  C   UNL A   1      41.088  26.753  28.392  1.00  0.00     0.049 A 
ATOM     39  N   UNL A   1      43.923  27.441  27.574  1.00  0.00    -0.248 NA
ATOM     40  C   UNL A   1      44.151  25.260  26.770  1.00  0.00     0.031 C 
ATOM     41  C   UNL A   1      39.721  26.444  28.811  1.00  0.00     0.029 A 
ATOM     42  N   UNL A   1      41.264  28.064  28.743  1.00  0.00    -0.354 N 
ATOM     43  C   UNL A   1      45.206  27.263  27.070  1.00  0.00     0.074 A 
ATOM     44  C   UNL A   1      45.304  25.892  26.621  1.00  0.00     0.031 C 
ATOM     45  C   UNL A   1      39.190  27.532  29.392  1.00  0.00     0.029 A 
ATOM     46  C   UNL A   1      40.190  28.597  29.413  1.00  0.00     0.049 A 
ATOM     47  H   UNL A   1      42.080  28.575  28.536  1.00  0.00     0.167 HD
ATOM     48  C   UNL A   1      46.206  28.168  26.982  1.00  0.00     0.034 A 
ATOM     49  C   UNL A   1      40.051  29.799  30.001  1.00  0.00     0.034 A 
ATOM     50  C   UNL A   1      46.085  29.528  27.431  1.00  0.00     0.049 A 
ATOM     51  C   UNL A   1      41.192  30.778  29.923  1.00  0.00     0.074 A 
ATOM     52  C   UNL A   1      47.013  30.549  27.344  1.00  0.00     0.029 A 
ATOM     53  N   UNL A   1      44.973  30.047  28.078  1.00  0.00    -0.354 N 
ATOM     54  N   UNL A   1      42.358  30.643  29.337  1.00  0.00    -0.248 NA
ATOM     55  C   UNL A   1      40.991  32.084  30.566  1.00  0.00     0.031 C 
ATOM     56  C   UNL A   1      46.477  31.675  27.978  1.00  0.00     0.029 A 
ATOM     57  C   UNL A   1      45.199  31.368  28.421  1.00  0.00     0.049 A 
ATOM     58  H   UNL A   1      44.145  29.549  28.265  1.00  0.00     0.167 HD
ATOM     59  C   UNL A   1      43.018  31.852  29.512  1.00  0.00     0.074 A 
ATOM     60  C   UNL A   1      42.110  32.716  30.242  1.00  0.00     0.031 C 
ATOM     61  C   UNL A   1      44.264  32.217  29.118  1.00  0.00     0.034 A 
BRANCH  48  62
ATOM     62  C   UNL A   1      47.507  27.712  26.375  1.00  0.00     0.023 A 
ATOM     63  C   UNL A   1      48.544  27.238  27.206  1.00  0.00     0.012 A 
ATOM     64  C   UNL A   1      47.694  27.730  24.980  1.00  0.00     0.148 A 
ATOM     65  C   UNL A   1      49.761  26.829  26.660  1.00  0.00     0.002 A 
ATOM     66  C   UNL A   1      48.890  27.274  24.440  1.00  0.00     0.091 A 
ATOM     67  F   UNL A   1      46.708  28.209  24.209  1.00  0.00    -0.205 F 
ATOM     68  C   UNL A   1      49.930  26.837  25.279  1.00  0.00     0.022 A 
BRANCH  66  69
ATOM     69  S   UNL A   1      49.176  27.171  22.670  1.00  0.00     0.127 S 
ATOM     70  O   UNL A   1      48.671  28.464  22.215  1.00  0.00    -0.237 OA
ATOM     71  O   UNL A   1      50.630  27.026  22.603  1.00  0.00    -0.237 OA
ATOM     72  O   UNL A   1      48.428  26.010  22.209  1.00  0.00    -0.744 OA
ENDBRANCH  66  69
ENDBRANCH  48  62
BRANCH  49  73
ATOM     73  C   UNL A   1      38.776  30.145  30.687  1.00  0.00     0.023 A 
ATOM     74  C   UNL A   1      38.582  29.761  32.027  1.00  0.00     0.012 A 
ATOM     75  C   UNL A   1      37.775  30.890  30.033  1.00  0.00     0.148 A 
ATOM     76  C   UNL A   1      37.402  30.088  32.696  1.00  0.00     0.002 A 
ATOM     77  C   UNL A   1      36.627  31.261  30.721  1.00  0.00     0.091 A 
ATOM     78  F   UNL A   1      37.977  31.238  28.754  1.00  0.00    -0.205 F 
ATOM     79  C   UNL A   1      36.430  30.847  32.047  1.00  0.00     0.022 A 
BRANCH  77  80
ATOM     80  S   UNL A   1      35.382  32.345  30.012  1.00  0.00     0.127 S 
ATOM     81  O   UNL A   1      34.436  32.476  31.117  1.00  0.00    -0.237 OA
ATOM     82  O   UNL A   1      36.164  33.547  29.722  1.00  0.00    -0.237 OA
ATOM     83  O   UNL A   1      34.880  31.653  28.833  1.00  0.00    -0.744 OA
ENDBRANCH  77  80
ENDBRANCH  49  73
BRANCH  61  84
ATOM     84  C   UNL A   1      44.715  33.617  29.444  1.00  0.00     0.023 A 
ATOM     85  C   UNL A   1      45.258  33.903  30.712  1.00  0.00     0.012 A 
ATOM     86  C   UNL A   1      44.670  34.629  28.464  1.00  0.00     0.148 A 
ATOM     87  C   UNL A   1      45.721  35.183  31.011  1.00  0.00     0.002 A 
ATOM     88  C   UNL A   1      45.183  35.887  28.752  1.00  0.00     0.091 A 
ATOM     89  F   UNL A   1      44.137  34.339  27.269  1.00  0.00    -0.205 F 
ATOM     90  C   UNL A   1      45.695  36.170  30.029  1.00  0.00     0.022 A 
BRANCH  88  91
ATOM     91  S   UNL A   1      45.284  37.192  27.522  1.00  0.00     0.127 S 
ATOM     92  O   UNL A   1      43.880  37.579  27.383  1.00  0.00    -0.237 OA
ATOM     93  O   UNL A   1      46.127  38.183  28.194  1.00  0.00    -0.237 OA
ATOM     94  O   UNL A   1      45.883  36.588  26.339  1.00  0.00    -0.744 OA
ENDBRANCH  88  91
ENDBRANCH  61  84
ENDBRANCH  35  36
ENDBRANCH  28  30
ENDBRANCH  27  28
ENDBRANCH  26  27
ENDBRANCH  25  26
ENDBRANCH  24  25
ENDBRANCH   1  24
TORSDOF 21
ENDMDL
