MODEL 1
REMARK VINA RESULT:     -11.7      0.000      0.000
REMARK SMILES CCCc1nc(C)cc(N2CCC(C(=O)OCCOCCOC(=O)c3ccc(-c4c5nc(c(-c6cccc(S(=O)(=O)[O-])c6F)c6ccc([nH]6)c(-c6cccc(S(=O)(=O)[O-])c6F)c6nc(c(-c7cccc(S(=O)(=O)[O-])c7F)c7ccc4[nH]7)C=C6)C=C5)cc3)(n3ccc(C(C)C)n3)CC2)n1
REMARK SMILES IDX 19 1 18 2 17 3 16 4 14 5 15 6 13 7 10 8 11 9 97 10 12 11
REMARK SMILES IDX 96 12 9 13 4 14 5 15 98 16 6 17 7 18 8 19 3 20 2 21 1 22
REMARK SMILES IDX 88 23 89 24 95 25 90 26 91 27 92 28 93 29 94 30 20 31 21 32
REMARK SMILES IDX 22 33 23 34 24 35 25 36 26 37 87 38 27 39 86 40 28 41 29 42
REMARK SMILES IDX 30 43 80 44 31 45 85 46 79 47 81 48 32 49 84 50 78 51 77 52
REMARK SMILES IDX 33 54 65 55 45 56 64 57 46 58 49 59 63 60 82 61 47 62 48 63
REMARK SMILES IDX 62 65 83 66 50 67 34 68 35 69 43 70 36 71 38 72 44 73 37 74
REMARK SMILES IDX 39 75 40 76 41 77 42 78 66 79 67 80 75 81 68 82 70 83 76 84
REMARK SMILES IDX 69 85 71 86 72 87 73 88 74 89 51 90 52 91 60 92 53 93 55 94
REMARK SMILES IDX 61 95 54 96 56 97 57 98 58 99 59 100
REMARK H PARENT 81 53 49 64
REMARK Flexibility Score: inf
ROOT
ATOM      1  O   UNL A   1      36.769  19.783  24.999  1.00  0.00    -0.374 OA
ENDROOT
BRANCH   1   2
ATOM      2  C   UNL A   1      36.024  20.917  25.445  1.00  0.00     0.202 C 
BRANCH   2   3
ATOM      3  C   UNL A   1      36.161  22.192  24.610  1.00  0.00     0.261 C 
BRANCH   3   4
ATOM      4  O   UNL A   1      35.840  23.348  25.397  1.00  0.00    -0.461 OA
BRANCH   4   5
ATOM      5  C   UNL A   1      34.658  23.304  26.075  1.00  0.00     0.334 C 
ATOM      6  O   UNL A   1      34.540  22.820  27.199  1.00  0.00    -0.249 OA
BRANCH   5   7
ATOM      7  C   UNL A   1      33.465  23.829  25.238  1.00  0.00     0.163 C 
ATOM      8  N   UNL A   1      32.078  26.263  24.551  1.00  0.00    -0.356 N 
ATOM      9  C   UNL A   1      31.356  25.295  25.355  1.00  0.00     0.121 C 
ATOM     10  C   UNL A   1      33.185  25.888  23.699  1.00  0.00     0.121 C 
ATOM     11  C   UNL A   1      32.321  24.394  26.114  1.00  0.00     0.064 C 
ATOM     12  C   UNL A   1      34.133  24.965  24.431  1.00  0.00     0.064 C 
BRANCH   8  13
ATOM     13  C   UNL A   1      31.613  27.564  24.510  1.00  0.00     0.132 A 
ATOM     14  C   UNL A   1      30.128  29.093  23.647  1.00  0.00     0.130 A 
ATOM     15  N   UNL A   1      30.535  30.068  24.478  1.00  0.00    -0.238 NA
ATOM     16  N   UNL A   1      30.682  27.867  23.594  1.00  0.00    -0.216 NA
ATOM     17  C   UNL A   1      31.492  29.758  25.367  1.00  0.00     0.043 A 
ATOM     18  C   UNL A   1      31.887  30.827  26.336  1.00  0.00     0.067 C 
ATOM     19  C   UNL A   1      32.050  28.503  25.425  1.00  0.00     0.070 A 
BRANCH  14  20
ATOM     20  C   UNL A   1      28.987  29.375  22.704  1.00  0.00     0.077 C 
BRANCH  20  21
ATOM     21  C   UNL A   1      29.324  30.309  21.536  1.00  0.00     0.005 C 
ATOM     22  C   UNL A   1      28.158  31.183  21.089  1.00  0.00     0.004 C 
ENDBRANCH  20  21
ENDBRANCH  14  20
ENDBRANCH   8  13
BRANCH   7  23
ATOM     23  N   UNL A   1      32.962  22.733  24.381  1.00  0.00    -0.255 N 
ATOM     24  C   UNL A   1      32.699  22.749  23.034  1.00  0.00     0.110 A 
ATOM     25  N   UNL A   1      32.618  21.541  24.926  1.00  0.00    -0.177 NA
ATOM     26  C   UNL A   1      32.364  21.467  22.676  1.00  0.00     0.045 A 
ATOM     27  C   UNL A   1      32.368  20.742  23.883  1.00  0.00     0.065 A 
BRANCH  27  28
ATOM     28  C   UNL A   1      32.141  19.269  24.078  1.00  0.00     0.034 C 
ATOM     29  C   UNL A   1      32.461  18.468  22.814  1.00  0.00     0.014 C 
ATOM     30  C   UNL A   1      32.963  18.742  25.260  1.00  0.00     0.014 C 
ENDBRANCH  27  28
ENDBRANCH   7  23
ENDBRANCH   5   7
ENDBRANCH   4   5
ENDBRANCH   3   4
ENDBRANCH   2   3
ENDBRANCH   1   2
BRANCH   1  31
ATOM     31  C   UNL A   1      38.139  19.991  24.655  1.00  0.00     0.202 C 
BRANCH  31  32
ATOM     32  C   UNL A   1      39.179  19.632  25.727  1.00  0.00     0.261 C 
BRANCH  32  33
ATOM     33  O   UNL A   1      40.326  20.502  25.716  1.00  0.00    -0.460 OA
BRANCH  33  34
ATOM     34  C   UNL A   1      41.010  20.548  26.884  1.00  0.00     0.338 C 
ATOM     35  O   UNL A   1      41.604  19.620  27.428  1.00  0.00    -0.246 OA
BRANCH  34  36
ATOM     36  C   UNL A   1      41.111  21.931  27.380  1.00  0.00     0.060 A 
ATOM     37  C   UNL A   1      40.504  22.939  26.616  1.00  0.00     0.016 A 
ATOM     38  C   UNL A   1      41.863  22.258  28.511  1.00  0.00     0.016 A 
ATOM     39  C   UNL A   1      40.693  24.279  26.947  1.00  0.00     0.010 A 
ATOM     40  C   UNL A   1      42.059  23.606  28.836  1.00  0.00     0.010 A 
ATOM     41  C   UNL A   1      41.507  24.622  28.034  1.00  0.00    -0.014 A 
BRANCH  41  42
ATOM     42  C   UNL A   1      41.897  26.039  28.240  1.00  0.00     0.031 A 
ATOM     43  C   UNL A   1      43.282  26.481  27.849  1.00  0.00     0.074 A 
ATOM     44  C   UNL A   1      41.030  26.923  28.764  1.00  0.00     0.049 A 
ATOM     45  N   UNL A   1      43.840  27.657  27.966  1.00  0.00    -0.248 NA
ATOM     46  C   UNL A   1      44.154  25.460  27.245  1.00  0.00     0.031 C 
ATOM     47  C   UNL A   1      39.660  26.619  29.174  1.00  0.00     0.029 A 
ATOM     48  N   UNL A   1      41.185  28.254  29.063  1.00  0.00    -0.354 N 
ATOM     49  C   UNL A   1      45.134  27.514  27.481  1.00  0.00     0.074 A 
ATOM     50  C   UNL A   1      45.283  26.133  27.074  1.00  0.00     0.031 C 
ATOM     51  C   UNL A   1      39.108  27.726  29.701  1.00  0.00     0.029 A 
ATOM     52  C   UNL A   1      40.092  28.808  29.686  1.00  0.00     0.049 A 
ATOM     53  H   UNL A   1      42.001  28.763  28.852  1.00  0.00     0.167 HD
ATOM     54  C   UNL A   1      46.107  28.449  27.367  1.00  0.00     0.034 A 
ATOM     55  C   UNL A   1      39.913  30.040  30.204  1.00  0.00     0.034 A 
ATOM     56  C   UNL A   1      45.951  29.826  27.749  1.00  0.00     0.049 A 
ATOM     57  C   UNL A   1      41.020  31.057  30.086  1.00  0.00     0.074 A 
ATOM     58  C   UNL A   1      46.862  30.861  27.629  1.00  0.00     0.029 A 
ATOM     59  N   UNL A   1      44.814  30.361  28.334  1.00  0.00    -0.354 N 
ATOM     60  N   UNL A   1      42.194  30.938  29.517  1.00  0.00    -0.248 NA
ATOM     61  C   UNL A   1      40.764  32.390  30.655  1.00  0.00     0.031 C 
ATOM     62  C   UNL A   1      46.283  32.017  28.161  1.00  0.00     0.029 A 
ATOM     63  C   UNL A   1      45.003  31.708  28.591  1.00  0.00     0.049 A 
ATOM     64  H   UNL A   1      43.993  29.857  28.535  1.00  0.00     0.167 HD
ATOM     65  C   UNL A   1      42.800  32.185  29.622  1.00  0.00     0.074 A 
ATOM     66  C   UNL A   1      41.858  33.051  30.299  1.00  0.00     0.031 C 
ATOM     67  C   UNL A   1      44.032  32.574  29.209  1.00  0.00     0.034 A 
BRANCH  54  68
ATOM     68  C   UNL A   1      47.425  28.020  26.778  1.00  0.00     0.023 A 
ATOM     69  C   UNL A   1      48.499  27.705  27.633  1.00  0.00     0.012 A 
ATOM     70  C   UNL A   1      47.580  27.871  25.386  1.00  0.00     0.148 A 
ATOM     71  C   UNL A   1      49.719  27.275  27.111  1.00  0.00     0.002 A 
ATOM     72  C   UNL A   1      48.786  27.402  24.875  1.00  0.00     0.091 A 
ATOM     73  F   UNL A   1      46.554  28.198  24.589  1.00  0.00    -0.205 F 
ATOM     74  C   UNL A   1      49.858  27.114  25.735  1.00  0.00     0.022 A 
BRANCH  72  75
ATOM     75  S   UNL A   1      49.037  27.092  23.124  1.00  0.00     0.127 S 
ATOM     76  O   UNL A   1      48.250  25.877  22.923  1.00  0.00    -0.237 OA
ATOM     77  O   UNL A   1      48.470  28.294  22.512  1.00  0.00    -0.237 OA
ATOM     78  O   UNL A   1      50.475  26.943  22.946  1.00  0.00    -0.744 OA
ENDBRANCH  72  75
ENDBRANCH  54  68
BRANCH  55  79
ATOM     79  C   UNL A   1      38.620  30.393  30.853  1.00  0.00     0.023 A 
ATOM     80  C   UNL A   1      38.389  30.023  32.192  1.00  0.00     0.012 A 
ATOM     81  C   UNL A   1      37.625  31.110  30.159  1.00  0.00     0.148 A 
ATOM     82  C   UNL A   1      37.184  30.337  32.820  1.00  0.00     0.002 A 
ATOM     83  C   UNL A   1      36.449  31.468  30.806  1.00  0.00     0.091 A 
ATOM     84  F   UNL A   1      37.854  31.435  28.879  1.00  0.00    -0.205 F 
ATOM     85  C   UNL A   1      36.219  31.069  32.132  1.00  0.00     0.022 A 
BRANCH  83  86
ATOM     86  S   UNL A   1      35.209  32.516  30.038  1.00  0.00     0.127 S 
ATOM     87  O   UNL A   1      36.014  33.643  29.575  1.00  0.00    -0.237 OA
ATOM     88  O   UNL A   1      34.695  31.648  28.976  1.00  0.00    -0.237 OA
ATOM     89  O   UNL A   1      34.243  32.813  31.087  1.00  0.00    -0.744 OA
ENDBRANCH  83  86
ENDBRANCH  55  79
BRANCH  67  90
ATOM     90  C   UNL A   1      44.430  34.010  29.432  1.00  0.00     0.023 A 
ATOM     91  C   UNL A   1      45.003  34.394  30.660  1.00  0.00     0.012 A 
ATOM     92  C   UNL A   1      44.322  34.956  28.393  1.00  0.00     0.148 A 
ATOM     93  C   UNL A   1      45.440  35.704  30.859  1.00  0.00     0.002 A 
ATOM     94  C   UNL A   1      44.802  36.247  28.583  1.00  0.00     0.091 A 
ATOM     95  F   UNL A   1      43.758  34.574  27.238  1.00  0.00    -0.205 F 
ATOM     96  C   UNL A   1      45.351  36.625  29.818  1.00  0.00     0.022 A 
BRANCH  94  97
ATOM     97  S   UNL A   1      44.816  37.472  27.267  1.00  0.00     0.127 S 
ATOM     98  O   UNL A   1      43.422  37.453  26.828  1.00  0.00    -0.237 OA
ATOM     99  O   UNL A   1      45.216  38.687  27.978  1.00  0.00    -0.237 OA
ATOM    100  O   UNL A   1      45.786  36.998  26.290  1.00  0.00    -0.744 OA
ENDBRANCH  94  97
ENDBRANCH  67  90
ENDBRANCH  41  42
ENDBRANCH  34  36
ENDBRANCH  33  34
ENDBRANCH  32  33
ENDBRANCH  31  32
ENDBRANCH   1  31
TORSDOF 22
ENDMDL
MODEL 2
REMARK VINA RESULT:     -10.9      1.578      2.214
REMARK SMILES CCCc1nc(C)cc(N2CCC(C(=O)OCCOCCOC(=O)c3ccc(-c4c5nc(c(-c6cccc(S(=O)(=O)[O-])c6F)c6ccc([nH]6)c(-c6cccc(S(=O)(=O)[O-])c6F)c6nc(c(-c7cccc(S(=O)(=O)[O-])c7F)c7ccc4[nH]7)C=C6)C=C5)cc3)(n3ccc(C(C)C)n3)CC2)n1
REMARK SMILES IDX 19 1 18 2 17 3 16 4 14 5 15 6 13 7 10 8 11 9 97 10 12 11
REMARK SMILES IDX 96 12 9 13 4 14 5 15 98 16 6 17 7 18 8 19 3 20 2 21 1 22
REMARK SMILES IDX 88 23 89 24 95 25 90 26 91 27 92 28 93 29 94 30 20 31 21 32
REMARK SMILES IDX 22 33 23 34 24 35 25 36 26 37 87 38 27 39 86 40 28 41 29 42
REMARK SMILES IDX 30 43 80 44 31 45 85 46 79 47 81 48 32 49 84 50 78 51 77 52
REMARK SMILES IDX 33 54 65 55 45 56 64 57 46 58 49 59 63 60 82 61 47 62 48 63
REMARK SMILES IDX 62 65 83 66 50 67 34 68 35 69 43 70 36 71 38 72 44 73 37 74
REMARK SMILES IDX 39 75 40 76 41 77 42 78 66 79 67 80 75 81 68 82 70 83 76 84
REMARK SMILES IDX 69 85 71 86 72 87 73 88 74 89 51 90 52 91 60 92 53 93 55 94
REMARK SMILES IDX 61 95 54 96 56 97 57 98 58 99 59 100
REMARK H PARENT 81 53 49 64
REMARK Flexibility Score: inf
ROOT
ATOM      1  O   UNL A   1      36.204  22.310  25.156  1.00  0.00    -0.374 OA
ENDROOT
BRANCH   1   2
ATOM      2  C   UNL A   1      36.097  23.526  24.414  1.00  0.00     0.202 C 
BRANCH   2   3
ATOM      3  C   UNL A   1      35.448  23.424  23.032  1.00  0.00     0.261 C 
BRANCH   3   4
ATOM      4  O   UNL A   1      34.031  23.635  23.124  1.00  0.00    -0.461 OA
BRANCH   4   5
ATOM      5  C   UNL A   1      33.583  24.873  22.774  1.00  0.00     0.334 C 
ATOM      6  O   UNL A   1      33.958  25.468  21.765  1.00  0.00    -0.249 OA
BRANCH   5   7
ATOM      7  C   UNL A   1      32.639  25.493  23.834  1.00  0.00     0.163 C 
ATOM      8  N   UNL A   1      31.295  27.956  24.504  1.00  0.00    -0.356 N 
ATOM      9  C   UNL A   1      32.347  27.513  25.398  1.00  0.00     0.121 C 
ATOM     10  C   UNL A   1      30.578  27.043  23.641  1.00  0.00     0.121 C 
ATOM     11  C   UNL A   1      33.325  26.598  24.673  1.00  0.00     0.064 C 
ATOM     12  C   UNL A   1      31.537  26.106  22.941  1.00  0.00     0.064 C 
BRANCH   8  13
ATOM     13  C   UNL A   1      30.887  29.275  24.569  1.00  0.00     0.132 A 
ATOM     14  C   UNL A   1      29.434  30.918  23.878  1.00  0.00     0.130 A 
ATOM     15  N   UNL A   1      29.920  31.818  24.751  1.00  0.00    -0.238 NA
ATOM     16  N   UNL A   1      29.930  29.677  23.720  1.00  0.00    -0.216 NA
ATOM     17  C   UNL A   1      30.901  31.411  25.571  1.00  0.00     0.043 A 
ATOM     18  C   UNL A   1      31.385  32.395  26.587  1.00  0.00     0.067 C 
ATOM     19  C   UNL A   1      31.405  30.132  25.521  1.00  0.00     0.070 A 
BRANCH  14  20
ATOM     20  C   UNL A   1      28.265  31.308  23.011  1.00  0.00     0.077 C 
BRANCH  20  21
ATOM     21  C   UNL A   1      28.569  32.377  21.953  1.00  0.00     0.005 C 
ATOM     22  C   UNL A   1      28.039  32.039  20.564  1.00  0.00     0.004 C 
ENDBRANCH  20  21
ENDBRANCH  14  20
ENDBRANCH   8  13
BRANCH   7  23
ATOM     23  N   UNL A   1      32.135  24.417  24.715  1.00  0.00    -0.255 N 
ATOM     24  C   UNL A   1      30.885  23.851  24.748  1.00  0.00     0.110 A 
ATOM     25  N   UNL A   1      32.919  23.915  25.699  1.00  0.00    -0.177 NA
ATOM     26  C   UNL A   1      30.937  22.819  25.650  1.00  0.00     0.045 A 
ATOM     27  C   UNL A   1      32.237  22.872  26.187  1.00  0.00     0.065 A 
BRANCH  27  28
ATOM     28  C   UNL A   1      32.872  21.931  27.172  1.00  0.00     0.034 C 
ATOM     29  C   UNL A   1      33.445  20.688  26.488  1.00  0.00     0.014 C 
ATOM     30  C   UNL A   1      33.964  22.641  27.981  1.00  0.00     0.014 C 
ENDBRANCH  27  28
ENDBRANCH   7  23
ENDBRANCH   5   7
ENDBRANCH   4   5
ENDBRANCH   3   4
ENDBRANCH   2   3
ENDBRANCH   1   2
BRANCH   1  31
ATOM     31  C   UNL A   1      36.775  21.183  24.490  1.00  0.00     0.202 C 
BRANCH  31  32
ATOM     32  C   UNL A   1      37.935  20.475  25.206  1.00  0.00     0.261 C 
BRANCH  32  33
ATOM     33  O   UNL A   1      39.106  21.302  25.341  1.00  0.00    -0.460 OA
BRANCH  33  34
ATOM     34  C   UNL A   1      39.765  21.161  26.515  1.00  0.00     0.338 C 
ATOM     35  O   UNL A   1      40.173  20.113  27.010  1.00  0.00    -0.246 OA
BRANCH  34  36
ATOM     36  C   UNL A   1      40.101  22.475  27.091  1.00  0.00     0.060 A 
ATOM     37  C   UNL A   1      39.347  23.579  26.667  1.00  0.00     0.016 A 
ATOM     38  C   UNL A   1      41.189  22.648  27.948  1.00  0.00     0.016 A 
ATOM     39  C   UNL A   1      39.712  24.866  27.055  1.00  0.00     0.010 A 
ATOM     40  C   UNL A   1      41.560  23.944  28.329  1.00  0.00     0.010 A 
ATOM     41  C   UNL A   1      40.847  25.061  27.853  1.00  0.00    -0.014 A 
BRANCH  41  42
ATOM     42  C   UNL A   1      41.367  26.434  28.067  1.00  0.00     0.031 A 
ATOM     43  C   UNL A   1      42.698  26.812  27.472  1.00  0.00     0.074 A 
ATOM     44  C   UNL A   1      40.665  27.335  28.776  1.00  0.00     0.049 A 
ATOM     45  N   UNL A   1      43.352  27.940  27.556  1.00  0.00    -0.248 NA
ATOM     46  C   UNL A   1      43.382  25.779  26.676  1.00  0.00     0.031 C 
ATOM     47  C   UNL A   1      39.363  27.092  29.393  1.00  0.00     0.029 A 
ATOM     48  N   UNL A   1      40.963  28.631  29.115  1.00  0.00    -0.354 N 
ATOM     49  C   UNL A   1      44.535  27.748  26.854  1.00  0.00     0.074 A 
ATOM     50  C   UNL A   1      44.514  26.390  26.354  1.00  0.00     0.031 C 
ATOM     51  C   UNL A   1      38.987  28.195  30.064  1.00  0.00     0.029 A 
ATOM     52  C   UNL A   1      40.032  29.211  29.942  1.00  0.00     0.049 A 
ATOM     53  H   UNL A   1      41.769  29.100  28.798  1.00  0.00     0.167 HD
ATOM     54  C   UNL A   1      45.541  28.625  26.628  1.00  0.00     0.034 A 
ATOM     55  C   UNL A   1      40.031  30.416  30.549  1.00  0.00     0.034 A 
ATOM     56  C   UNL A   1      45.551  29.982  27.104  1.00  0.00     0.049 A 
ATOM     57  C   UNL A   1      41.174  31.366  30.301  1.00  0.00     0.074 A 
ATOM     58  C   UNL A   1      46.503  30.962  26.888  1.00  0.00     0.029 A 
ATOM     59  N   UNL A   1      44.567  30.548  27.900  1.00  0.00    -0.354 N 
ATOM     60  N   UNL A   1      42.227  31.211  29.536  1.00  0.00    -0.248 NA
ATOM     61  C   UNL A   1      41.113  32.672  30.975  1.00  0.00     0.031 C 
ATOM     62  C   UNL A   1      46.105  32.115  27.572  1.00  0.00     0.029 A 
ATOM     63  C   UNL A   1      44.894  31.861  28.193  1.00  0.00     0.049 A 
ATOM     64  H   UNL A   1      43.756  30.084  28.209  1.00  0.00     0.167 HD
ATOM     65  C   UNL A   1      42.932  32.408  29.604  1.00  0.00     0.074 A 
ATOM     66  C   UNL A   1      42.178  33.285  30.476  1.00  0.00     0.031 C 
ATOM     67  C   UNL A   1      44.104  32.745  29.011  1.00  0.00     0.034 A 
BRANCH  54  68
ATOM     68  C   UNL A   1      46.709  28.154  25.803  1.00  0.00     0.023 A 
ATOM     69  C   UNL A   1      46.612  28.149  24.398  1.00  0.00     0.012 A 
ATOM     70  C   UNL A   1      47.921  27.773  26.415  1.00  0.00     0.148 A 
ATOM     71  C   UNL A   1      47.691  27.748  23.612  1.00  0.00     0.002 A 
ATOM     72  C   UNL A   1      49.006  27.413  25.624  1.00  0.00     0.091 A 
ATOM     73  F   UNL A   1      47.985  27.762  27.753  1.00  0.00    -0.205 F 
ATOM     74  C   UNL A   1      48.890  27.390  24.224  1.00  0.00     0.022 A 
BRANCH  72  75
ATOM     75  S   UNL A   1      50.613  27.008  26.316  1.00  0.00     0.127 S 
ATOM     76  O   UNL A   1      51.405  26.779  25.110  1.00  0.00    -0.237 OA
ATOM     77  O   UNL A   1      50.953  28.230  27.046  1.00  0.00    -0.237 OA
ATOM     78  O   UNL A   1      50.402  25.840  27.160  1.00  0.00    -0.744 OA
ENDBRANCH  72  75
ENDBRANCH  54  68
BRANCH  55  79
ATOM     79  C   UNL A   1      38.890  30.806  31.424  1.00  0.00     0.023 A 
ATOM     80  C   UNL A   1      38.877  30.400  32.772  1.00  0.00     0.012 A 
ATOM     81  C   UNL A   1      37.830  31.595  30.935  1.00  0.00     0.148 A 
ATOM     82  C   UNL A   1      37.818  30.748  33.610  1.00  0.00     0.002 A 
ATOM     83  C   UNL A   1      36.805  31.985  31.788  1.00  0.00     0.091 A 
ATOM     84  F   UNL A   1      37.849  31.954  29.644  1.00  0.00    -0.205 F 
ATOM     85  C   UNL A   1      36.789  31.549  33.123  1.00  0.00     0.022 A 
BRANCH  83  86
ATOM     86  S   UNL A   1      35.508  33.118  31.278  1.00  0.00     0.127 S 
ATOM     87  O   UNL A   1      34.303  32.358  31.601  1.00  0.00    -0.237 OA
ATOM     88  O   UNL A   1      35.759  34.273  32.142  1.00  0.00    -0.237 OA
ATOM     89  O   UNL A   1      35.740  33.368  29.862  1.00  0.00    -0.744 OA
ENDBRANCH  83  86
ENDBRANCH  55  79
BRANCH  67  90
ATOM     90  C   UNL A   1      44.637  34.135  29.242  1.00  0.00     0.023 A 
ATOM     91  C   UNL A   1      45.776  34.322  30.049  1.00  0.00     0.012 A 
ATOM     92  C   UNL A   1      44.065  35.242  28.584  1.00  0.00     0.148 A 
ATOM     93  C   UNL A   1      46.323  35.595  30.217  1.00  0.00     0.002 A 
ATOM     94  C   UNL A   1      44.643  36.499  28.719  1.00  0.00     0.091 A 
ATOM     95  F   UNL A   1      42.970  35.044  27.834  1.00  0.00    -0.205 F 
ATOM     96  C   UNL A   1      45.765  36.679  29.543  1.00  0.00     0.022 A 
BRANCH  94  97
ATOM     97  S   UNL A   1      44.050  37.934  27.813  1.00  0.00     0.127 S 
ATOM     98  O   UNL A   1      45.297  38.642  27.529  1.00  0.00    -0.237 OA
ATOM     99  O   UNL A   1      43.415  37.322  26.644  1.00  0.00    -0.237 OA
ATOM    100  O   UNL A   1      43.130  38.621  28.708  1.00  0.00    -0.744 OA
ENDBRANCH  94  97
ENDBRANCH  67  90
ENDBRANCH  41  42
ENDBRANCH  34  36
ENDBRANCH  33  34
ENDBRANCH  32  33
ENDBRANCH  31  32
ENDBRANCH   1  31
TORSDOF 22
ENDMDL
MODEL 3
REMARK VINA RESULT:     -10.8      5.628      9.663
REMARK SMILES CCCc1nc(C)cc(N2CCC(C(=O)OCCOCCOC(=O)c3ccc(-c4c5nc(c(-c6cccc(S(=O)(=O)[O-])c6F)c6ccc([nH]6)c(-c6cccc(S(=O)(=O)[O-])c6F)c6nc(c(-c7cccc(S(=O)(=O)[O-])c7F)c7ccc4[nH]7)C=C6)C=C5)cc3)(n3ccc(C(C)C)n3)CC2)n1
REMARK SMILES IDX 19 1 18 2 17 3 16 4 14 5 15 6 13 7 10 8 11 9 97 10 12 11
REMARK SMILES IDX 96 12 9 13 4 14 5 15 98 16 6 17 7 18 8 19 3 20 2 21 1 22
REMARK SMILES IDX 88 23 89 24 95 25 90 26 91 27 92 28 93 29 94 30 20 31 21 32
REMARK SMILES IDX 22 33 23 34 24 35 25 36 26 37 87 38 27 39 86 40 28 41 29 42
REMARK SMILES IDX 30 43 80 44 31 45 85 46 79 47 81 48 32 49 84 50 78 51 77 52
REMARK SMILES IDX 33 54 65 55 45 56 64 57 46 58 49 59 63 60 82 61 47 62 48 63
REMARK SMILES IDX 62 65 83 66 50 67 34 68 35 69 43 70 36 71 38 72 44 73 37 74
REMARK SMILES IDX 39 75 40 76 41 77 42 78 66 79 67 80 75 81 68 82 70 83 76 84
REMARK SMILES IDX 69 85 71 86 72 87 73 88 74 89 51 90 52 91 60 92 53 93 55 94
REMARK SMILES IDX 61 95 54 96 56 97 57 98 58 99 59 100
REMARK H PARENT 81 53 49 64
REMARK Flexibility Score: inf
ROOT
ATOM      1  O   UNL A   1      34.369  30.425  27.771  1.00  0.00    -0.374 OA
ENDROOT
BRANCH   1   2
ATOM      2  C   UNL A   1      33.179  29.880  27.199  1.00  0.00     0.202 C 
BRANCH   2   3
ATOM      3  C   UNL A   1      33.050  28.355  27.222  1.00  0.00     0.261 C 
BRANCH   3   4
ATOM      4  O   UNL A   1      32.230  27.902  26.136  1.00  0.00    -0.461 OA
BRANCH   4   5
ATOM      5  C   UNL A   1      32.887  27.372  25.066  1.00  0.00     0.334 C 
ATOM      6  O   UNL A   1      33.857  27.908  24.535  1.00  0.00    -0.249 OA
BRANCH   5   7
ATOM      7  C   UNL A   1      32.216  26.085  24.525  1.00  0.00     0.163 C 
ATOM      8  N   UNL A   1      32.624  23.237  24.312  1.00  0.00    -0.356 N 
ATOM      9  C   UNL A   1      32.631  24.000  23.079  1.00  0.00     0.121 C 
ATOM     10  C   UNL A   1      31.959  23.706  25.508  1.00  0.00     0.121 C 
ATOM     11  C   UNL A   1      32.992  25.455  23.344  1.00  0.00     0.064 C 
ATOM     12  C   UNL A   1      32.283  25.162  25.763  1.00  0.00     0.064 C 
BRANCH   8  13
ATOM     13  C   UNL A   1      33.170  21.967  24.305  1.00  0.00     0.132 A 
ATOM     14  C   UNL A   1      34.966  20.599  24.736  1.00  0.00     0.130 A 
ATOM     15  N   UNL A   1      34.272  19.479  24.470  1.00  0.00    -0.238 NA
ATOM     16  N   UNL A   1      34.471  21.843  24.604  1.00  0.00    -0.216 NA
ATOM     17  C   UNL A   1      32.979  19.622  24.139  1.00  0.00     0.043 A 
ATOM     18  C   UNL A   1      32.195  18.368  23.916  1.00  0.00     0.067 C 
ATOM     19  C   UNL A   1      32.382  20.858  24.061  1.00  0.00     0.070 A 
BRANCH  14  20
ATOM     20  C   UNL A   1      36.392  20.471  25.207  1.00  0.00     0.077 C 
BRANCH  20  21
ATOM     21  C   UNL A   1      36.955  21.708  25.918  1.00  0.00     0.005 C 
ATOM     22  C   UNL A   1      38.347  22.111  25.445  1.00  0.00     0.004 C 
ENDBRANCH  20  21
ENDBRANCH  14  20
ENDBRANCH   8  13
BRANCH   7  23
ATOM     23  N   UNL A   1      30.829  26.402  24.118  1.00  0.00    -0.255 N 
ATOM     24  C   UNL A   1      29.683  25.682  24.345  1.00  0.00     0.110 A 
ATOM     25  N   UNL A   1      30.572  27.490  23.353  1.00  0.00    -0.177 NA
ATOM     26  C   UNL A   1      28.637  26.437  23.880  1.00  0.00     0.045 A 
ATOM     27  C   UNL A   1      29.238  27.574  23.307  1.00  0.00     0.065 A 
BRANCH  27  28
ATOM     28  C   UNL A   1      28.563  28.776  22.708  1.00  0.00     0.034 C 
ATOM     29  C   UNL A   1      27.093  28.872  23.121  1.00  0.00     0.014 C 
ATOM     30  C   UNL A   1      29.304  30.064  23.085  1.00  0.00     0.014 C 
ENDBRANCH  27  28
ENDBRANCH   7  23
ENDBRANCH   5   7
ENDBRANCH   4   5
ENDBRANCH   3   4
ENDBRANCH   2   3
ENDBRANCH   1   2
BRANCH   1  31
ATOM     31  C   UNL A   1      34.581  31.830  27.631  1.00  0.00     0.202 C 
BRANCH  31  32
ATOM     32  C   UNL A   1      33.328  32.718  27.628  1.00  0.00     0.261 C 
BRANCH  32  33
ATOM     33  O   UNL A   1      33.631  34.125  27.607  1.00  0.00    -0.460 OA
BRANCH  33  34
ATOM     34  C   UNL A   1      33.503  34.748  28.802  1.00  0.00     0.338 C 
ATOM     35  O   UNL A   1      32.543  35.410  29.190  1.00  0.00    -0.246 OA
BRANCH  34  36
ATOM     36  C   UNL A   1      34.620  34.402  29.698  1.00  0.00     0.060 A 
ATOM     37  C   UNL A   1      35.923  34.593  29.213  1.00  0.00     0.016 A 
ATOM     38  C   UNL A   1      34.410  33.810  30.945  1.00  0.00     0.016 A 
ATOM     39  C   UNL A   1      37.017  34.143  29.948  1.00  0.00     0.010 A 
ATOM     40  C   UNL A   1      35.512  33.350  31.678  1.00  0.00     0.010 A 
ATOM     41  C   UNL A   1      36.816  33.480  31.165  1.00  0.00    -0.014 A 
BRANCH  41  42
ATOM     42  C   UNL A   1      37.956  32.797  31.826  1.00  0.00     0.031 A 
ATOM     43  C   UNL A   1      38.603  31.623  31.139  1.00  0.00     0.074 A 
ATOM     44  C   UNL A   1      38.414  33.218  33.018  1.00  0.00     0.049 A 
ATOM     45  N   UNL A   1      39.587  30.866  31.545  1.00  0.00    -0.248 NA
ATOM     46  C   UNL A   1      38.066  31.254  29.819  1.00  0.00     0.031 C 
ATOM     47  C   UNL A   1      37.879  34.346  33.777  1.00  0.00     0.029 A 
ATOM     48  N   UNL A   1      39.422  32.726  33.810  1.00  0.00    -0.354 N 
ATOM     49  C   UNL A   1      39.771  29.915  30.550  1.00  0.00     0.074 A 
ATOM     50  C   UNL A   1      38.790  30.184  29.522  1.00  0.00     0.031 C 
ATOM     51  C   UNL A   1      38.544  34.442  34.941  1.00  0.00     0.029 A 
ATOM     52  C   UNL A   1      39.535  33.369  35.019  1.00  0.00     0.049 A 
ATOM     53  H   UNL A   1      40.008  31.982  33.538  1.00  0.00     0.167 HD
ATOM     54  C   UNL A   1      40.684  28.916  30.487  1.00  0.00     0.034 A 
ATOM     55  C   UNL A   1      40.330  33.109  36.076  1.00  0.00     0.034 A 
ATOM     56  C   UNL A   1      41.675  28.664  31.498  1.00  0.00     0.049 A 
ATOM     57  C   UNL A   1      41.323  31.977  35.991  1.00  0.00     0.074 A 
ATOM     58  C   UNL A   1      42.674  27.707  31.503  1.00  0.00     0.029 A 
ATOM     59  N   UNL A   1      41.788  29.366  32.688  1.00  0.00    -0.354 N 
ATOM     60  N   UNL A   1      41.564  31.163  34.993  1.00  0.00    -0.248 NA
ATOM     61  C   UNL A   1      42.176  31.750  37.168  1.00  0.00     0.031 C 
ATOM     62  C   UNL A   1      43.377  27.816  32.707  1.00  0.00     0.029 A 
ATOM     63  C   UNL A   1      42.832  28.857  33.440  1.00  0.00     0.049 A 
ATOM     64  H   UNL A   1      41.210  30.117  32.957  1.00  0.00     0.167 HD
ATOM     65  C   UNL A   1      42.619  30.354  35.403  1.00  0.00     0.074 A 
ATOM     66  C   UNL A   1      42.980  30.786  36.737  1.00  0.00     0.031 C 
ATOM     67  C   UNL A   1      43.223  29.337  34.741  1.00  0.00     0.034 A 
BRANCH  54  68
ATOM     68  C   UNL A   1      40.675  28.035  29.266  1.00  0.00     0.023 A 
ATOM     69  C   UNL A   1      39.713  27.011  29.156  1.00  0.00     0.012 A 
ATOM     70  C   UNL A   1      41.574  28.258  28.205  1.00  0.00     0.148 A 
ATOM     71  C   UNL A   1      39.664  26.203  28.020  1.00  0.00     0.002 A 
ATOM     72  C   UNL A   1      41.493  27.475  27.059  1.00  0.00     0.091 A 
ATOM     73  F   UNL A   1      42.496  29.221  28.340  1.00  0.00    -0.205 F 
ATOM     74  C   UNL A   1      40.546  26.442  26.969  1.00  0.00     0.022 A 
BRANCH  72  75
ATOM     75  S   UNL A   1      42.536  27.754  25.624  1.00  0.00     0.127 S 
ATOM     76  O   UNL A   1      41.865  28.885  24.986  1.00  0.00    -0.237 OA
ATOM     77  O   UNL A   1      43.825  28.076  26.236  1.00  0.00    -0.237 OA
ATOM     78  O   UNL A   1      42.519  26.509  24.869  1.00  0.00    -0.744 OA
ENDBRANCH  72  75
ENDBRANCH  54  68
BRANCH  55  79
ATOM     79  C   UNL A   1      40.246  33.959  37.297  1.00  0.00     0.023 A 
ATOM     80  C   UNL A   1      39.225  33.725  38.238  1.00  0.00     0.012 A 
ATOM     81  C   UNL A   1      41.183  34.982  37.541  1.00  0.00     0.148 A 
ATOM     82  C   UNL A   1      39.121  34.511  39.385  1.00  0.00     0.002 A 
ATOM     83  C   UNL A   1      41.108  35.726  38.712  1.00  0.00     0.091 A 
ATOM     84  F   UNL A   1      42.135  35.203  36.624  1.00  0.00    -0.205 F 
ATOM     85  C   UNL A   1      40.068  35.503  39.629  1.00  0.00     0.022 A 
BRANCH  83  86
ATOM     86  S   UNL A   1      42.356  36.935  39.166  1.00  0.00     0.127 S 
ATOM     87  O   UNL A   1      42.911  37.295  37.864  1.00  0.00    -0.237 OA
ATOM     88  O   UNL A   1      41.550  37.978  39.803  1.00  0.00    -0.237 OA
ATOM     89  O   UNL A   1      43.262  36.242  40.073  1.00  0.00    -0.744 OA
ENDBRANCH  83  86
ENDBRANCH  55  79
BRANCH  67  90
ATOM     90  C   UNL A   1      44.371  28.636  35.420  1.00  0.00     0.023 A 
ATOM     91  C   UNL A   1      45.694  29.039  35.152  1.00  0.00     0.012 A 
ATOM     92  C   UNL A   1      44.133  27.643  36.392  1.00  0.00     0.148 A 
ATOM     93  C   UNL A   1      46.764  28.447  35.824  1.00  0.00     0.002 A 
ATOM     94  C   UNL A   1      45.201  27.091  37.089  1.00  0.00     0.091 A 
ATOM     95  F   UNL A   1      42.867  27.262  36.619  1.00  0.00    -0.205 F 
ATOM     96  C   UNL A   1      46.517  27.484  36.799  1.00  0.00     0.022 A 
BRANCH  94  97
ATOM     97  S   UNL A   1      44.971  25.915  38.429  1.00  0.00     0.127 S 
ATOM     98  O   UNL A   1      46.352  25.580  38.771  1.00  0.00    -0.237 OA
ATOM     99  O   UNL A   1      44.271  26.720  39.432  1.00  0.00    -0.237 OA
ATOM    100  O   UNL A   1      44.181  24.825  37.874  1.00  0.00    -0.744 OA
ENDBRANCH  94  97
ENDBRANCH  67  90
ENDBRANCH  41  42
ENDBRANCH  34  36
ENDBRANCH  33  34
ENDBRANCH  32  33
ENDBRANCH  31  32
ENDBRANCH   1  31
TORSDOF 22
ENDMDL
