MODEL 1
REMARK VINA RESULT:     -10.8      0.000      0.000
REMARK SMILES Cc1cc(F)c(C(=O)OCCOCCOC(=O)c2ccc(-c3c4nc(c(-c5cccc(S(=O)(=O)[O-])c5F)c5ccc([nH]5)c(-c5cccc(S(=O)(=O)[O-])c5F)c5nc(c(-c6cccc(S(=O)(=O)[O-])c6F)c6ccc3[nH]6)C=C5)C=C4)cc2)cc1F
REMARK SMILES IDX 13 1 12 2 11 3 10 4 9 5 7 6 8 7 6 8 1 9 2 10 3 11 82 12 4 13
REMARK SMILES IDX 81 14 83 15 5 16 14 17 15 18 16 19 17 20 18 21 19 22 80 23
REMARK SMILES IDX 20 24 79 25 21 26 22 27 23 28 73 29 24 30 78 31 72 32 74 33
REMARK SMILES IDX 25 34 77 35 71 36 70 37 26 39 58 40 38 41 57 42 39 43 42 44
REMARK SMILES IDX 56 45 75 46 40 47 41 48 55 50 76 51 43 52 27 53 28 54 36 55
REMARK SMILES IDX 29 56 31 57 37 58 30 59 32 60 33 61 34 62 35 63 59 64 60 65
REMARK SMILES IDX 68 66 61 67 63 68 69 69 62 70 64 71 65 72 66 73 67 74 44 75
REMARK SMILES IDX 45 76 53 77 46 78 48 79 54 80 47 81 49 82 50 83 51 84 52 85
REMARK H PARENT 74 38 42 49
REMARK Flexibility Score: inf
ROOT
ATOM      1  C   UNL A   1      31.341  29.178  24.277  1.00  0.00     0.202 C 
ENDROOT
BRANCH   1   2
ATOM      2  O   UNL A   1      30.461  28.059  24.365  1.00  0.00    -0.374 OA
BRANCH   2   3
ATOM      3  C   UNL A   1      31.036  26.774  24.598  1.00  0.00     0.202 C 
BRANCH   3   4
ATOM      4  C   UNL A   1      30.339  25.871  25.621  1.00  0.00     0.261 C 
BRANCH   4   5
ATOM      5  O   UNL A   1      31.227  25.504  26.689  1.00  0.00    -0.460 OA
BRANCH   5   6
ATOM      6  C   UNL A   1      31.518  24.181  26.766  1.00  0.00     0.341 C 
ATOM      7  O   UNL A   1      30.895  23.325  27.368  1.00  0.00    -0.246 OA
BRANCH   6   8
ATOM      8  C   UNL A   1      32.661  23.884  25.883  1.00  0.00     0.098 A 
ATOM      9  C   UNL A   1      35.897  22.798  23.260  1.00  0.00     0.047 C 
ATOM     10  C   UNL A   1      34.770  23.219  24.153  1.00  0.00    -0.012 A 
ATOM     11  C   UNL A   1      33.467  22.792  23.874  1.00  0.00     0.046 A 
ATOM     12  C   UNL A   1      34.991  24.004  25.291  1.00  0.00     0.127 A 
ATOM     13  C   UNL A   1      32.425  23.127  24.735  1.00  0.00     0.138 A 
ATOM     14  C   UNL A   1      33.951  24.349  26.154  1.00  0.00     0.058 A 
ATOM     15  F   UNL A   1      36.228  24.434  25.571  1.00  0.00    -0.207 F 
ATOM     16  F   UNL A   1      31.187  22.732  24.406  1.00  0.00    -0.206 F 
ENDBRANCH   6   8
ENDBRANCH   5   6
ENDBRANCH   4   5
ENDBRANCH   3   4
ENDBRANCH   2   3
ENDBRANCH   1   2
BRANCH   1  17
ATOM     17  C   UNL A   1      31.539  30.033  25.536  1.00  0.00     0.261 C 
BRANCH  17  18
ATOM     18  O   UNL A   1      32.923  30.300  25.817  1.00  0.00    -0.460 OA
BRANCH  18  19
ATOM     19  C   UNL A   1      33.146  31.212  26.798  1.00  0.00     0.338 C 
ATOM     20  O   UNL A   1      32.358  32.040  27.224  1.00  0.00    -0.246 OA
BRANCH  19  21
ATOM     21  C   UNL A   1      34.446  30.924  27.434  1.00  0.00     0.060 A 
ATOM     22  C   UNL A   1      35.290  31.952  27.857  1.00  0.00     0.016 A 
ATOM     23  C   UNL A   1      34.812  29.584  27.619  1.00  0.00     0.016 A 
ATOM     24  C   UNL A   1      36.498  31.633  28.481  1.00  0.00     0.010 A 
ATOM     25  C   UNL A   1      36.021  29.268  28.241  1.00  0.00     0.010 A 
ATOM     26  C   UNL A   1      36.869  30.290  28.689  1.00  0.00    -0.014 A 
BRANCH  26  27
ATOM     27  C   UNL A   1      38.085  29.969  29.476  1.00  0.00     0.031 A 
ATOM     28  C   UNL A   1      38.305  30.533  30.851  1.00  0.00     0.074 A 
ATOM     29  C   UNL A   1      39.013  29.165  28.923  1.00  0.00     0.049 A 
ATOM     30  N   UNL A   1      39.274  30.276  31.692  1.00  0.00    -0.248 NA
ATOM     31  C   UNL A   1      37.322  31.508  31.348  1.00  0.00     0.031 C 
ATOM     32  C   UNL A   1      38.943  28.610  27.570  1.00  0.00     0.029 A 
ATOM     33  N   UNL A   1      40.192  28.676  29.424  1.00  0.00    -0.354 N 
ATOM     34  C   UNL A   1      39.024  31.055  32.813  1.00  0.00     0.074 A 
ATOM     35  C   UNL A   1      37.821  31.813  32.540  1.00  0.00     0.031 C 
ATOM     36  C   UNL A   1      40.021  27.839  27.356  1.00  0.00     0.029 A 
ATOM     37  C   UNL A   1      40.865  27.860  28.547  1.00  0.00     0.049 A 
ATOM     38  H   UNL A   1      40.526  28.890  30.326  1.00  0.00     0.167 HD
ATOM     39  C   UNL A   1      39.722  31.112  33.971  1.00  0.00     0.034 A 
ATOM     40  C   UNL A   1      42.029  27.193  28.684  1.00  0.00     0.034 A 
ATOM     41  C   UNL A   1      40.907  30.344  34.247  1.00  0.00     0.049 A 
ATOM     42  C   UNL A   1      42.777  27.269  29.982  1.00  0.00     0.074 A 
ATOM     43  C   UNL A   1      41.636  30.291  35.424  1.00  0.00     0.029 A 
ATOM     44  N   UNL A   1      41.545  29.513  33.343  1.00  0.00    -0.354 N 
ATOM     45  N   UNL A   1      42.446  27.899  31.083  1.00  0.00    -0.248 NA
ATOM     46  C   UNL A   1      44.043  26.526  30.072  1.00  0.00     0.031 C 
ATOM     47  C   UNL A   1      42.727  29.441  35.224  1.00  0.00     0.029 A 
ATOM     48  C   UNL A   1      42.666  28.951  33.930  1.00  0.00     0.049 A 
ATOM     49  H   UNL A   1      41.246  29.344  32.420  1.00  0.00     0.167 HD
ATOM     50  C   UNL A   1      43.450  27.614  32.000  1.00  0.00     0.074 A 
ATOM     51  C   UNL A   1      44.395  26.742  31.334  1.00  0.00     0.031 C 
ATOM     52  C   UNL A   1      43.579  28.050  33.276  1.00  0.00     0.034 A 
BRANCH  39  53
ATOM     53  C   UNL A   1      39.198  31.984  35.079  1.00  0.00     0.023 A 
ATOM     54  C   UNL A   1      38.288  31.436  36.004  1.00  0.00     0.012 A 
ATOM     55  C   UNL A   1      39.712  33.278  35.290  1.00  0.00     0.148 A 
ATOM     56  C   UNL A   1      37.892  32.165  37.125  1.00  0.00     0.002 A 
ATOM     57  C   UNL A   1      39.333  33.988  36.423  1.00  0.00     0.091 A 
ATOM     58  F   UNL A   1      40.574  33.777  34.392  1.00  0.00    -0.205 F 
ATOM     59  C   UNL A   1      38.423  33.435  37.340  1.00  0.00     0.022 A 
BRANCH  57  60
ATOM     60  S   UNL A   1      39.994  35.609  36.826  1.00  0.00     0.127 S 
ATOM     61  O   UNL A   1      39.573  36.395  35.666  1.00  0.00    -0.237 OA
ATOM     62  O   UNL A   1      39.290  35.928  38.066  1.00  0.00    -0.237 OA
ATOM     63  O   UNL A   1      41.434  35.437  36.962  1.00  0.00    -0.744 OA
ENDBRANCH  57  60
ENDBRANCH  39  53
BRANCH  40  64
ATOM     64  C   UNL A   1      42.513  26.340  27.567  1.00  0.00     0.023 A 
ATOM     65  C   UNL A   1      43.437  26.869  26.646  1.00  0.00     0.012 A 
ATOM     66  C   UNL A   1      42.116  24.993  27.455  1.00  0.00     0.148 A 
ATOM     67  C   UNL A   1      43.951  26.072  25.622  1.00  0.00     0.002 A 
ATOM     68  C   UNL A   1      42.661  24.196  26.456  1.00  0.00     0.091 A 
ATOM     69  F   UNL A   1      41.236  24.518  28.346  1.00  0.00    -0.205 F 
ATOM     70  C   UNL A   1      43.571  24.736  25.534  1.00  0.00     0.022 A 
BRANCH  68  71
ATOM     71  S   UNL A   1      42.304  22.442  26.314  1.00  0.00     0.127 S 
ATOM     72  O   UNL A   1      40.854  22.446  26.136  1.00  0.00    -0.237 OA
ATOM     73  O   UNL A   1      43.070  22.078  25.122  1.00  0.00    -0.237 OA
ATOM     74  O   UNL A   1      42.780  21.838  27.550  1.00  0.00    -0.744 OA
ENDBRANCH  68  71
ENDBRANCH  40  64
BRANCH  52  75
ATOM     75  C   UNL A   1      44.778  27.601  34.066  1.00  0.00     0.023 A 
ATOM     76  C   UNL A   1      45.920  28.422  34.113  1.00  0.00     0.012 A 
ATOM     77  C   UNL A   1      44.717  26.446  34.870  1.00  0.00     0.148 A 
ATOM     78  C   UNL A   1      46.988  28.099  34.948  1.00  0.00     0.002 A 
ATOM     79  C   UNL A   1      45.770  26.147  35.725  1.00  0.00     0.091 A 
ATOM     80  F   UNL A   1      43.618  25.680  34.802  1.00  0.00    -0.205 F 
ATOM     81  C   UNL A   1      46.908  26.971  35.763  1.00  0.00     0.022 A 
BRANCH  79  82
ATOM     82  S   UNL A   1      45.733  24.759  36.863  1.00  0.00     0.127 S 
ATOM     83  O   UNL A   1      44.401  24.892  37.453  1.00  0.00    -0.237 OA
ATOM     84  O   UNL A   1      45.889  23.617  35.962  1.00  0.00    -0.237 OA
ATOM     85  O   UNL A   1      46.840  24.962  37.788  1.00  0.00    -0.744 OA
ENDBRANCH  79  82
ENDBRANCH  52  75
ENDBRANCH  26  27
ENDBRANCH  19  21
ENDBRANCH  18  19
ENDBRANCH  17  18
ENDBRANCH   1  17
TORSDOF 17
ENDMDL
MODEL 2
REMARK VINA RESULT:     -10.7      4.802     10.029
REMARK SMILES Cc1cc(F)c(C(=O)OCCOCCOC(=O)c2ccc(-c3c4nc(c(-c5cccc(S(=O)(=O)[O-])c5F)c5ccc([nH]5)c(-c5cccc(S(=O)(=O)[O-])c5F)c5nc(c(-c6cccc(S(=O)(=O)[O-])c6F)c6ccc3[nH]6)C=C5)C=C4)cc2)cc1F
REMARK SMILES IDX 13 1 12 2 11 3 10 4 9 5 7 6 8 7 6 8 1 9 2 10 3 11 82 12 4 13
REMARK SMILES IDX 81 14 83 15 5 16 14 17 15 18 16 19 17 20 18 21 19 22 80 23
REMARK SMILES IDX 20 24 79 25 21 26 22 27 23 28 73 29 24 30 78 31 72 32 74 33
REMARK SMILES IDX 25 34 77 35 71 36 70 37 26 39 58 40 38 41 57 42 39 43 42 44
REMARK SMILES IDX 56 45 75 46 40 47 41 48 55 50 76 51 43 52 27 53 28 54 36 55
REMARK SMILES IDX 29 56 31 57 37 58 30 59 32 60 33 61 34 62 35 63 59 64 60 65
REMARK SMILES IDX 68 66 61 67 63 68 69 69 62 70 64 71 65 72 66 73 67 74 44 75
REMARK SMILES IDX 45 76 53 77 46 78 48 79 54 80 47 81 49 82 50 83 51 84 52 85
REMARK H PARENT 74 38 42 49
REMARK Flexibility Score: inf
ROOT
ATOM      1  C   UNL A   1      35.367  20.572  25.129  1.00  0.00     0.202 C 
ENDROOT
BRANCH   1   2
ATOM      2  O   UNL A   1      35.178  21.968  25.353  1.00  0.00    -0.374 OA
BRANCH   2   3
ATOM      3  C   UNL A   1      34.190  22.641  24.574  1.00  0.00     0.202 C 
BRANCH   3   4
ATOM      4  C   UNL A   1      32.812  22.841  25.215  1.00  0.00     0.261 C 
BRANCH   4   5
ATOM      5  O   UNL A   1      32.792  23.995  26.070  1.00  0.00    -0.460 OA
BRANCH   5   6
ATOM      6  C   UNL A   1      31.556  24.414  26.441  1.00  0.00     0.341 C 
ATOM      7  O   UNL A   1      30.814  23.887  27.251  1.00  0.00    -0.246 OA
BRANCH   6   8
ATOM      8  C   UNL A   1      31.272  25.712  25.803  1.00  0.00     0.098 A 
ATOM      9  C   UNL A   1      30.481  29.397  23.721  1.00  0.00     0.047 C 
ATOM     10  C   UNL A   1      30.719  28.123  24.473  1.00  0.00    -0.012 A 
ATOM     11  C   UNL A   1      30.340  26.901  23.906  1.00  0.00     0.046 A 
ATOM     12  C   UNL A   1      31.349  28.116  25.723  1.00  0.00     0.127 A 
ATOM     13  C   UNL A   1      30.615  25.709  24.571  1.00  0.00     0.138 A 
ATOM     14  C   UNL A   1      31.622  26.927  26.398  1.00  0.00     0.058 A 
ATOM     15  F   UNL A   1      31.710  29.275  26.291  1.00  0.00    -0.207 F 
ATOM     16  F   UNL A   1      30.197  24.566  24.010  1.00  0.00    -0.206 F 
ENDBRANCH   6   8
ENDBRANCH   5   6
ENDBRANCH   4   5
ENDBRANCH   3   4
ENDBRANCH   2   3
ENDBRANCH   1   2
BRANCH   1  17
ATOM     17  C   UNL A   1      36.805  20.061  24.968  1.00  0.00     0.261 C 
BRANCH  17  18
ATOM     18  O   UNL A   1      37.784  21.106  25.090  1.00  0.00    -0.460 OA
BRANCH  18  19
ATOM     19  C   UNL A   1      38.877  20.787  25.831  1.00  0.00     0.338 C 
ATOM     20  O   UNL A   1      39.404  19.691  25.929  1.00  0.00    -0.246 OA
BRANCH  19  21
ATOM     21  C   UNL A   1      39.476  22.027  26.361  1.00  0.00     0.060 A 
ATOM     22  C   UNL A   1      40.605  21.994  27.180  1.00  0.00     0.016 A 
ATOM     23  C   UNL A   1      38.889  23.250  26.009  1.00  0.00     0.016 A 
ATOM     24  C   UNL A   1      41.156  23.195  27.635  1.00  0.00     0.010 A 
ATOM     25  C   UNL A   1      39.440  24.448  26.467  1.00  0.00     0.010 A 
ATOM     26  C   UNL A   1      40.586  24.431  27.274  1.00  0.00    -0.014 A 
BRANCH  26  27
ATOM     27  C   UNL A   1      41.263  25.698  27.648  1.00  0.00     0.031 A 
ATOM     28  C   UNL A   1      42.685  25.977  27.255  1.00  0.00     0.074 A 
ATOM     29  C   UNL A   1      40.575  26.602  28.372  1.00  0.00     0.049 A 
ATOM     30  N   UNL A   1      43.381  27.070  27.436  1.00  0.00    -0.248 NA
ATOM     31  C   UNL A   1      43.425  24.899  26.581  1.00  0.00     0.031 C 
ATOM     32  C   UNL A   1      39.211  26.417  28.869  1.00  0.00     0.029 A 
ATOM     33  N   UNL A   1      40.926  27.851  28.817  1.00  0.00    -0.354 N 
ATOM     34  C   UNL A   1      44.638  26.817  26.904  1.00  0.00     0.074 A 
ATOM     35  C   UNL A   1      44.619  25.456  26.410  1.00  0.00     0.031 C 
ATOM     36  C   UNL A   1      38.831  27.521  29.531  1.00  0.00     0.029 A 
ATOM     37  C   UNL A   1      39.929  28.483  29.522  1.00  0.00     0.049 A 
ATOM     38  H   UNL A   1      41.807  28.257  28.648  1.00  0.00     0.167 HD
ATOM     39  C   UNL A   1      45.698  27.652  26.814  1.00  0.00     0.034 A 
ATOM     40  C   UNL A   1      39.895  29.703  30.094  1.00  0.00     0.034 A 
ATOM     41  C   UNL A   1      45.709  29.010  27.289  1.00  0.00     0.049 A 
ATOM     42  C   UNL A   1      41.085  30.610  29.972  1.00  0.00     0.074 A 
ATOM     43  C   UNL A   1      46.722  29.948  27.175  1.00  0.00     0.029 A 
ATOM     44  N   UNL A   1      44.675  29.620  27.978  1.00  0.00    -0.354 N 
ATOM     45  N   UNL A   1      42.212  30.403  29.337  1.00  0.00    -0.248 NA
ATOM     46  C   UNL A   1      40.992  31.928  30.619  1.00  0.00     0.031 C 
ATOM     47  C   UNL A   1      46.306  31.120  27.812  1.00  0.00     0.029 A 
ATOM     48  C   UNL A   1      45.028  30.918  28.306  1.00  0.00     0.049 A 
ATOM     49  H   UNL A   1      43.814  29.195  28.201  1.00  0.00     0.167 HD
ATOM     50  C   UNL A   1      42.955  31.567  29.492  1.00  0.00     0.074 A 
ATOM     51  C   UNL A   1      42.146  32.484  30.267  1.00  0.00     0.031 C 
ATOM     52  C   UNL A   1      44.202  31.840  29.040  1.00  0.00     0.034 A 
BRANCH  39  53
ATOM     53  C   UNL A   1      46.936  27.162  26.114  1.00  0.00     0.023 A 
ATOM     54  C   UNL A   1      47.122  27.483  24.755  1.00  0.00     0.012 A 
ATOM     55  C   UNL A   1      47.970  26.524  26.827  1.00  0.00     0.148 A 
ATOM     56  C   UNL A   1      48.319  27.173  24.112  1.00  0.00     0.002 A 
ATOM     57  C   UNL A   1      49.170  26.242  26.186  1.00  0.00     0.091 A 
ATOM     58  F   UNL A   1      47.766  26.228  28.119  1.00  0.00    -0.205 F 
ATOM     59  C   UNL A   1      49.346  26.563  24.829  1.00  0.00     0.022 A 
BRANCH  57  60
ATOM     60  S   UNL A   1      50.577  25.507  27.027  1.00  0.00     0.127 S 
ATOM     61  O   UNL A   1      50.927  26.555  27.985  1.00  0.00    -0.237 OA
ATOM     62  O   UNL A   1      49.987  24.309  27.622  1.00  0.00    -0.237 OA
ATOM     63  O   UNL A   1      51.577  25.255  25.999  1.00  0.00    -0.744 OA
ENDBRANCH  57  60
ENDBRANCH  39  53
BRANCH  40  64
ATOM     64  C   UNL A   1      38.652  30.152  30.775  1.00  0.00     0.023 A 
ATOM     65  C   UNL A   1      38.490  29.897  32.150  1.00  0.00     0.012 A 
ATOM     66  C   UNL A   1      37.669  30.886  30.085  1.00  0.00     0.148 A 
ATOM     67  C   UNL A   1      37.360  30.357  32.826  1.00  0.00     0.002 A 
ATOM     68  C   UNL A   1      36.565  31.374  30.773  1.00  0.00     0.091 A 
ATOM     69  F   UNL A   1      37.852  31.114  28.777  1.00  0.00    -0.205 F 
ATOM     70  C   UNL A   1      36.404  31.103  32.141  1.00  0.00     0.022 A 
BRANCH  68  71
ATOM     71  S   UNL A   1      35.326  32.419  30.000  1.00  0.00     0.127 S 
ATOM     72  O   UNL A   1      34.869  31.575  28.899  1.00  0.00    -0.237 OA
ATOM     73  O   UNL A   1      34.362  32.590  31.087  1.00  0.00    -0.237 OA
ATOM     74  O   UNL A   1      36.022  33.636  29.607  1.00  0.00    -0.744 OA
ENDBRANCH  68  71
ENDBRANCH  40  64
BRANCH  52  75
ATOM     75  C   UNL A   1      44.796  33.186  29.354  1.00  0.00     0.023 A 
ATOM     76  C   UNL A   1      45.590  33.337  30.507  1.00  0.00     0.012 A 
ATOM     77  C   UNL A   1      44.685  34.252  28.440  1.00  0.00     0.148 A 
ATOM     78  C   UNL A   1      46.266  34.533  30.746  1.00  0.00     0.002 A 
ATOM     79  C   UNL A   1      45.387  35.428  28.667  1.00  0.00     0.091 A 
ATOM     80  F   UNL A   1      43.919  34.081  27.353  1.00  0.00    -0.205 F 
ATOM     81  C   UNL A   1      46.175  35.572  29.822  1.00  0.00     0.022 A 
BRANCH  79  82
ATOM     82  S   UNL A   1      45.393  36.797  27.504  1.00  0.00     0.127 S 
ATOM     83  O   UNL A   1      46.177  37.798  28.227  1.00  0.00    -0.237 OA
ATOM     84  O   UNL A   1      46.069  36.213  26.345  1.00  0.00    -0.237 OA
ATOM     85  O   UNL A   1      43.997  37.149  27.284  1.00  0.00    -0.744 OA
ENDBRANCH  79  82
ENDBRANCH  52  75
ENDBRANCH  26  27
ENDBRANCH  19  21
ENDBRANCH  18  19
ENDBRANCH  17  18
ENDBRANCH   1  17
TORSDOF 17
ENDMDL
MODEL 3
REMARK VINA RESULT:     -10.6      5.158      8.084
REMARK SMILES Cc1cc(F)c(C(=O)OCCOCCOC(=O)c2ccc(-c3c4nc(c(-c5cccc(S(=O)(=O)[O-])c5F)c5ccc([nH]5)c(-c5cccc(S(=O)(=O)[O-])c5F)c5nc(c(-c6cccc(S(=O)(=O)[O-])c6F)c6ccc3[nH]6)C=C5)C=C4)cc2)cc1F
REMARK SMILES IDX 13 1 12 2 11 3 10 4 9 5 7 6 8 7 6 8 1 9 2 10 3 11 82 12 4 13
REMARK SMILES IDX 81 14 83 15 5 16 14 17 15 18 16 19 17 20 18 21 19 22 80 23
REMARK SMILES IDX 20 24 79 25 21 26 22 27 23 28 73 29 24 30 78 31 72 32 74 33
REMARK SMILES IDX 25 34 77 35 71 36 70 37 26 39 58 40 38 41 57 42 39 43 42 44
REMARK SMILES IDX 56 45 75 46 40 47 41 48 55 50 76 51 43 52 27 53 28 54 36 55
REMARK SMILES IDX 29 56 31 57 37 58 30 59 32 60 33 61 34 62 35 63 59 64 60 65
REMARK SMILES IDX 68 66 61 67 63 68 69 69 62 70 64 71 65 72 66 73 67 74 44 75
REMARK SMILES IDX 45 76 53 77 46 78 48 79 54 80 47 81 49 82 50 83 51 84 52 85
REMARK H PARENT 74 38 42 49
REMARK Flexibility Score: inf
ROOT
ATOM      1  C   UNL A   1      37.811  19.892  24.924  1.00  0.00     0.202 C 
ENDROOT
BRANCH   1   2
ATOM      2  O   UNL A   1      37.753  21.317  24.921  1.00  0.00    -0.374 OA
BRANCH   2   3
ATOM      3  C   UNL A   1      36.602  21.938  25.492  1.00  0.00     0.202 C 
BRANCH   3   4
ATOM      4  C   UNL A   1      35.286  21.156  25.438  1.00  0.00     0.261 C 
BRANCH   4   5
ATOM      5  O   UNL A   1      34.471  21.574  24.330  1.00  0.00    -0.460 OA
BRANCH   5   6
ATOM      6  C   UNL A   1      33.328  22.220  24.670  1.00  0.00     0.341 C 
ATOM      7  O   UNL A   1      32.334  21.736  25.182  1.00  0.00    -0.246 OA
BRANCH   6   8
ATOM      8  C   UNL A   1      33.504  23.667  24.445  1.00  0.00     0.098 A 
ATOM      9  C   UNL A   1      33.904  27.931  24.006  1.00  0.00     0.047 C 
ATOM     10  C   UNL A   1      33.809  26.442  24.144  1.00  0.00    -0.012 A 
ATOM     11  C   UNL A   1      33.904  25.855  25.411  1.00  0.00     0.046 A 
ATOM     12  C   UNL A   1      33.588  25.616  23.036  1.00  0.00     0.127 A 
ATOM     13  C   UNL A   1      33.753  24.478  25.553  1.00  0.00     0.138 A 
ATOM     14  C   UNL A   1      33.443  24.236  23.170  1.00  0.00     0.058 A 
ATOM     15  F   UNL A   1      33.506  26.155  21.812  1.00  0.00    -0.207 F 
ATOM     16  F   UNL A   1      33.894  23.954  26.779  1.00  0.00    -0.206 F 
ENDBRANCH   6   8
ENDBRANCH   5   6
ENDBRANCH   4   5
ENDBRANCH   3   4
ENDBRANCH   2   3
ENDBRANCH   1   2
BRANCH   1  17
ATOM     17  C   UNL A   1      39.043  19.228  25.555  1.00  0.00     0.261 C 
BRANCH  17  18
ATOM     18  O   UNL A   1      40.129  20.147  25.757  1.00  0.00    -0.460 OA
BRANCH  18  19
ATOM     19  C   UNL A   1      40.571  20.244  27.037  1.00  0.00     0.338 C 
ATOM     20  O   UNL A   1      40.830  19.325  27.796  1.00  0.00    -0.246 OA
BRANCH  19  21
ATOM     21  C   UNL A   1      40.893  21.654  27.328  1.00  0.00     0.060 A 
ATOM     22  C   UNL A   1      41.759  22.001  28.365  1.00  0.00     0.016 A 
ATOM     23  C   UNL A   1      40.317  22.646  26.523  1.00  0.00     0.016 A 
ATOM     24  C   UNL A   1      42.059  23.347  28.586  1.00  0.00     0.010 A 
ATOM     25  C   UNL A   1      40.617  23.991  26.746  1.00  0.00     0.010 A 
ATOM     26  C   UNL A   1      41.501  24.352  27.772  1.00  0.00    -0.014 A 
BRANCH  26  27
ATOM     27  C   UNL A   1      41.937  25.762  27.928  1.00  0.00     0.031 A 
ATOM     28  C   UNL A   1      41.069  26.785  28.602  1.00  0.00     0.074 A 
ATOM     29  C   UNL A   1      43.137  26.120  27.432  1.00  0.00     0.049 A 
ATOM     30  N   UNL A   1      41.349  28.031  28.887  1.00  0.00    -0.248 NA
ATOM     31  C   UNL A   1      39.718  26.366  29.005  1.00  0.00     0.031 C 
ATOM     32  C   UNL A   1      44.041  25.232  26.698  1.00  0.00     0.029 A 
ATOM     33  N   UNL A   1      43.802  27.319  27.465  1.00  0.00    -0.354 N 
ATOM     34  C   UNL A   1      40.215  28.548  29.498  1.00  0.00     0.074 A 
ATOM     35  C   UNL A   1      39.230  27.487  29.525  1.00  0.00     0.031 C 
ATOM     36  C   UNL A   1      45.152  25.910  26.371  1.00  0.00     0.029 A 
ATOM     37  C   UNL A   1      45.032  27.283  26.853  1.00  0.00     0.049 A 
ATOM     38  H   UNL A   1      43.433  28.129  27.888  1.00  0.00     0.167 HD
ATOM     39  C   UNL A   1      40.024  29.786  30.010  1.00  0.00     0.034 A 
ATOM     40  C   UNL A   1      45.966  28.243  26.701  1.00  0.00     0.034 A 
ATOM     41  C   UNL A   1      41.011  30.834  29.998  1.00  0.00     0.049 A 
ATOM     42  C   UNL A   1      45.730  29.604  27.285  1.00  0.00     0.074 A 
ATOM     43  C   UNL A   1      40.922  32.098  30.558  1.00  0.00     0.029 A 
ATOM     44  N   UNL A   1      42.251  30.753  29.389  1.00  0.00    -0.354 N 
ATOM     45  N   UNL A   1      44.708  30.029  27.987  1.00  0.00    -0.248 NA
ATOM     46  C   UNL A   1      46.782  30.612  27.084  1.00  0.00     0.031 C 
ATOM     47  C   UNL A   1      42.103  32.786  30.271  1.00  0.00     0.029 A 
ATOM     48  C   UNL A   1      42.934  31.946  29.548  1.00  0.00     0.049 A 
ATOM     49  H   UNL A   1      42.597  29.962  28.913  1.00  0.00     0.167 HD
ATOM     50  C   UNL A   1      45.000  31.345  28.326  1.00  0.00     0.074 A 
ATOM     51  C   UNL A   1      46.302  31.645  27.767  1.00  0.00     0.031 C 
ATOM     52  C   UNL A   1      44.246  32.225  29.026  1.00  0.00     0.034 A 
BRANCH  39  53
ATOM     53  C   UNL A   1      38.721  30.082  30.699  1.00  0.00     0.023 A 
ATOM     54  C   UNL A   1      38.564  29.707  32.048  1.00  0.00     0.012 A 
ATOM     55  C   UNL A   1      37.723  30.851  30.069  1.00  0.00     0.148 A 
ATOM     56  C   UNL A   1      37.430  30.091  32.762  1.00  0.00     0.002 A 
ATOM     57  C   UNL A   1      36.608  31.252  30.795  1.00  0.00     0.091 A 
ATOM     58  F   UNL A   1      37.896  31.191  28.784  1.00  0.00    -0.205 F 
ATOM     59  C   UNL A   1      36.459  30.872  32.140  1.00  0.00     0.022 A 
BRANCH  57  60
ATOM     60  S   UNL A   1      35.322  32.302  30.109  1.00  0.00     0.127 S 
ATOM     61  O   UNL A   1      36.075  33.513  29.784  1.00  0.00    -0.237 OA
ATOM     62  O   UNL A   1      34.882  31.529  28.949  1.00  0.00    -0.237 OA
ATOM     63  O   UNL A   1      34.325  32.460  31.158  1.00  0.00    -0.744 OA
ENDBRANCH  57  60
ENDBRANCH  39  53
BRANCH  40  64
ATOM     64  C   UNL A   1      47.243  27.911  26.015  1.00  0.00     0.023 A 
ATOM     65  C   UNL A   1      48.341  27.473  26.779  1.00  0.00     0.012 A 
ATOM     66  C   UNL A   1      47.350  27.962  24.612  1.00  0.00     0.148 A 
ATOM     67  C   UNL A   1      49.533  27.100  26.155  1.00  0.00     0.002 A 
ATOM     68  C   UNL A   1      48.526  27.554  23.996  1.00  0.00     0.091 A 
ATOM     69  F   UNL A   1      46.287  28.382  23.912  1.00  0.00    -0.205 F 
ATOM     70  C   UNL A   1      49.621  27.131  24.766  1.00  0.00     0.022 A 
BRANCH  68  71
ATOM     71  S   UNL A   1      48.708  27.471  22.212  1.00  0.00     0.127 S 
ATOM     72  O   UNL A   1      50.004  28.116  22.014  1.00  0.00    -0.237 OA
ATOM     73  O   UNL A   1      48.697  26.027  21.978  1.00  0.00    -0.237 OA
ATOM     74  O   UNL A   1      47.564  28.185  21.662  1.00  0.00    -0.744 OA
ENDBRANCH  68  71
ENDBRANCH  40  64
BRANCH  52  75
ATOM     75  C   UNL A   1      44.789  33.610  29.251  1.00  0.00     0.023 A 
ATOM     76  C   UNL A   1      45.542  33.875  30.410  1.00  0.00     0.012 A 
ATOM     77  C   UNL A   1      44.675  34.598  28.254  1.00  0.00     0.148 A 
ATOM     78  C   UNL A   1      46.174  35.106  30.576  1.00  0.00     0.002 A 
ATOM     79  C   UNL A   1      45.334  35.810  28.409  1.00  0.00     0.091 A 
ATOM     80  F   UNL A   1      43.948  34.319  27.162  1.00  0.00    -0.205 F 
ATOM     81  C   UNL A   1      46.081  36.068  29.571  1.00  0.00     0.022 A 
BRANCH  79  82
ATOM     82  S   UNL A   1      45.334  37.085  27.143  1.00  0.00     0.127 S 
ATOM     83  O   UNL A   1      43.902  37.281  26.918  1.00  0.00    -0.237 OA
ATOM     84  O   UNL A   1      46.002  38.194  27.824  1.00  0.00    -0.237 OA
ATOM     85  O   UNL A   1      46.066  36.533  26.012  1.00  0.00    -0.744 OA
ENDBRANCH  79  82
ENDBRANCH  52  75
ENDBRANCH  26  27
ENDBRANCH  19  21
ENDBRANCH  18  19
ENDBRANCH  17  18
ENDBRANCH   1  17
TORSDOF 17
ENDMDL
