MODEL 1
REMARK VINA RESULT:     -10.5      0.000      0.000
REMARK SMILES O=C(Cn1cccc1C(=O)OCCOCCOC(=O)c1ccc(-c2c3nc(c(-c4cccc(S(=O)(=O)[O-])c4F)c4ccc([nH]4)c(-c4cccc(S(=O)(=O)[O-])c4F)c4nc(c(-c5cccc(S(=O)(=O)[O-])c5F)c5ccc2[nH]5)C=C4)C=C3)cc1)NCC1CCCC1
REMARK SMILES IDX 13 1 12 2 11 3 9 4 10 5 8 6 4 7 5 8 6 9 7 10 3 11 2 12 1 13
REMARK SMILES IDX 83 14 84 16 85 17 86 18 89 19 87 20 88 21 14 22 15 23 16 24
REMARK SMILES IDX 17 25 18 26 19 27 20 28 21 29 82 30 22 31 81 32 23 33 24 34
REMARK SMILES IDX 25 35 75 36 26 37 80 38 74 39 76 40 27 41 79 42 73 43 72 44
REMARK SMILES IDX 28 46 60 47 40 48 59 49 41 50 44 51 58 52 77 53 42 54 43 55
REMARK SMILES IDX 57 57 78 58 45 59 29 60 30 61 38 62 31 63 33 64 39 65 32 66
REMARK SMILES IDX 34 67 35 68 36 69 37 70 61 71 62 72 70 73 63 74 65 75 71 76
REMARK SMILES IDX 64 77 66 78 67 79 68 80 69 81 46 82 47 83 55 84 48 85 50 86
REMARK SMILES IDX 56 87 49 88 51 89 52 90 53 91 54 92
REMARK H PARENT 83 15 76 45 44 56
REMARK Flexibility Score: inf
ROOT
ATOM      1  C   UNL A   1      40.116  20.253  26.462  1.00  0.00     0.202 C 
ENDROOT
BRANCH   1   2
ATOM      2  C   UNL A   1      40.908  19.127  25.767  1.00  0.00     0.261 C 
BRANCH   2   3
ATOM      3  O   UNL A   1      42.234  19.585  25.415  1.00  0.00    -0.459 OA
BRANCH   3   4
ATOM      4  C   UNL A   1      43.269  18.842  25.870  1.00  0.00     0.355 C 
ATOM      5  O   UNL A   1      43.137  17.739  26.397  1.00  0.00    -0.244 OA
BRANCH   4   6
ATOM      6  C   UNL A   1      44.559  19.360  25.417  1.00  0.00     0.128 A 
ATOM      7  N   UNL A   1      44.983  20.576  24.895  1.00  0.00    -0.333 N 
ATOM      8  C   UNL A   1      46.362  20.519  24.709  1.00  0.00     0.087 A 
ATOM      9  C   UNL A   1      46.808  19.256  24.986  1.00  0.00     0.020 A 
ATOM     10  C   UNL A   1      45.688  18.535  25.421  1.00  0.00     0.035 A 
BRANCH   7  11
ATOM     11  C   UNL A   1      44.323  21.845  24.562  1.00  0.00     0.222 C 
BRANCH  11  12
ATOM     12  C   UNL A   1      44.819  23.105  25.201  1.00  0.00     0.239 C 
ATOM     13  O   UNL A   1      44.824  24.174  24.592  1.00  0.00    -0.273 OA
ATOM     14  N   UNL A   1      45.265  22.967  26.507  1.00  0.00    -0.354 N 
ATOM     15  H   UNL A   1      45.058  22.155  27.024  1.00  0.00     0.163 HD
BRANCH  14  16
ATOM     16  C   UNL A   1      46.039  24.033  27.090  1.00  0.00     0.119 C 
BRANCH  16  17
ATOM     17  C   UNL A   1      45.357  24.835  28.182  1.00  0.00     0.008 C 
ATOM     18  C   UNL A   1      45.024  26.246  27.675  1.00  0.00     0.005 C 
ATOM     19  C   UNL A   1      43.997  24.277  28.573  1.00  0.00     0.005 C 
ATOM     20  C   UNL A   1      43.797  26.696  28.455  1.00  0.00     0.000 C 
ATOM     21  C   UNL A   1      43.294  25.468  29.207  1.00  0.00     0.000 C 
ENDBRANCH  16  17
ENDBRANCH  14  16
ENDBRANCH  11  12
ENDBRANCH   7  11
ENDBRANCH   4   6
ENDBRANCH   3   4
ENDBRANCH   2   3
ENDBRANCH   1   2
BRANCH   1  22
ATOM     22  O   UNL A   1      40.701  20.695  27.690  1.00  0.00    -0.374 OA
BRANCH  22  23
ATOM     23  C   UNL A   1      40.780  22.111  27.848  1.00  0.00     0.202 C 
BRANCH  23  24
ATOM     24  C   UNL A   1      40.325  22.917  26.648  1.00  0.00     0.261 C 
BRANCH  24  25
ATOM     25  O   UNL A   1      39.834  24.200  27.054  1.00  0.00    -0.460 OA
BRANCH  25  26
ATOM     26  C   UNL A   1      40.539  25.244  26.580  1.00  0.00     0.338 C 
ATOM     27  O   UNL A   1      41.383  25.215  25.695  1.00  0.00    -0.246 OA
BRANCH  26  28
ATOM     28  C   UNL A   1      40.246  26.436  27.391  1.00  0.00     0.060 A 
ATOM     29  C   UNL A   1      40.628  27.672  26.863  1.00  0.00     0.016 A 
ATOM     30  C   UNL A   1      39.737  26.325  28.696  1.00  0.00     0.016 A 
ATOM     31  C   UNL A   1      40.575  28.791  27.667  1.00  0.00     0.010 A 
ATOM     32  C   UNL A   1      39.722  27.440  29.514  1.00  0.00     0.010 A 
ATOM     33  C   UNL A   1      40.162  28.658  29.000  1.00  0.00    -0.014 A 
BRANCH  33  34
ATOM     34  C   UNL A   1      40.137  29.877  29.821  1.00  0.00     0.031 A 
ATOM     35  C   UNL A   1      38.853  30.700  29.472  1.00  0.00     0.074 A 
ATOM     36  C   UNL A   1      41.281  30.056  30.574  1.00  0.00     0.049 A 
ATOM     37  N   UNL A   1      38.701  31.981  29.328  1.00  0.00    -0.248 NA
ATOM     38  C   UNL A   1      37.583  30.004  29.089  1.00  0.00     0.031 C 
ATOM     39  C   UNL A   1      42.355  29.037  30.768  1.00  0.00     0.029 A 
ATOM     40  N   UNL A   1      41.809  31.088  31.323  1.00  0.00    -0.354 N 
ATOM     41  C   UNL A   1      37.312  32.245  29.156  1.00  0.00     0.074 A 
ATOM     42  C   UNL A   1      36.707  30.990  28.854  1.00  0.00     0.031 C 
ATOM     43  C   UNL A   1      43.419  29.547  31.437  1.00  0.00     0.029 A 
ATOM     44  C   UNL A   1      43.154  30.929  31.783  1.00  0.00     0.049 A 
ATOM     45  H   UNL A   1      41.285  31.895  31.531  1.00  0.00     0.167 HD
ATOM     46  C   UNL A   1      36.756  33.462  29.456  1.00  0.00     0.034 A 
ATOM     47  C   UNL A   1      43.988  31.870  32.350  1.00  0.00     0.034 A 
ATOM     48  C   UNL A   1      37.794  34.305  29.953  1.00  0.00     0.049 A 
ATOM     49  C   UNL A   1      43.120  33.038  32.546  1.00  0.00     0.074 A 
ATOM     50  C   UNL A   1      38.843  34.923  29.326  1.00  0.00     0.029 A 
ATOM     51  N   UNL A   1      38.047  34.179  31.300  1.00  0.00    -0.354 N 
ATOM     52  N   UNL A   1      42.148  33.091  33.408  1.00  0.00    -0.248 NA
ATOM     53  C   UNL A   1      43.205  34.141  31.583  1.00  0.00     0.031 C 
ATOM     54  C   UNL A   1      39.904  34.641  30.205  1.00  0.00     0.029 A 
ATOM     55  C   UNL A   1      39.406  34.223  31.448  1.00  0.00     0.049 A 
ATOM     56  H   UNL A   1      37.380  34.076  32.016  1.00  0.00     0.167 HD
ATOM     57  C   UNL A   1      41.307  34.005  32.828  1.00  0.00     0.074 A 
ATOM     58  C   UNL A   1      42.129  34.825  31.957  1.00  0.00     0.031 C 
ATOM     59  C   UNL A   1      39.988  33.706  32.658  1.00  0.00     0.034 A 
BRANCH  46  60
ATOM     60  C   UNL A   1      35.364  34.026  29.648  1.00  0.00     0.023 A 
ATOM     61  C   UNL A   1      34.767  34.554  28.461  1.00  0.00     0.012 A 
ATOM     62  C   UNL A   1      34.795  34.404  30.873  1.00  0.00     0.148 A 
ATOM     63  C   UNL A   1      33.788  35.544  28.484  1.00  0.00     0.002 A 
ATOM     64  C   UNL A   1      33.766  35.358  30.889  1.00  0.00     0.091 A 
ATOM     65  F   UNL A   1      35.298  33.904  32.006  1.00  0.00    -0.205 F 
ATOM     66  C   UNL A   1      33.303  35.963  29.706  1.00  0.00     0.022 A 
BRANCH  64  67
ATOM     67  S   UNL A   1      32.964  35.932  32.392  1.00  0.00     0.127 S 
ATOM     68  O   UNL A   1      32.435  37.230  31.978  1.00  0.00    -0.237 OA
ATOM     69  O   UNL A   1      31.945  34.900  32.596  1.00  0.00    -0.237 OA
ATOM     70  O   UNL A   1      34.004  35.956  33.410  1.00  0.00    -0.744 OA
ENDBRANCH  64  67
ENDBRANCH  46  60
BRANCH  47  71
ATOM     71  C   UNL A   1      45.472  32.069  32.658  1.00  0.00     0.023 A 
ATOM     72  C   UNL A   1      46.010  32.198  33.945  1.00  0.00     0.012 A 
ATOM     73  C   UNL A   1      46.441  32.034  31.596  1.00  0.00     0.148 A 
ATOM     74  C   UNL A   1      47.411  32.176  34.163  1.00  0.00     0.002 A 
ATOM     75  C   UNL A   1      47.807  31.876  31.820  1.00  0.00     0.091 A 
ATOM     76  F   UNL A   1      46.043  32.200  30.329  1.00  0.00    -0.205 F 
ATOM     77  C   UNL A   1      48.305  31.959  33.113  1.00  0.00     0.022 A 
BRANCH  75  78
ATOM     78  S   UNL A   1      48.953  31.410  30.498  1.00  0.00     0.127 S 
ATOM     79  O   UNL A   1      50.212  31.231  31.219  1.00  0.00    -0.237 OA
ATOM     80  O   UNL A   1      48.345  30.172  30.010  1.00  0.00    -0.237 OA
ATOM     81  O   UNL A   1      48.942  32.508  29.540  1.00  0.00    -0.744 OA
ENDBRANCH  75  78
ENDBRANCH  47  71
BRANCH  59  82
ATOM     82  C   UNL A   1      39.403  32.642  33.604  1.00  0.00     0.023 A 
ATOM     83  C   UNL A   1      39.053  31.405  33.026  1.00  0.00     0.012 A 
ATOM     84  C   UNL A   1      39.097  32.800  34.982  1.00  0.00     0.148 A 
ATOM     85  C   UNL A   1      38.418  30.393  33.754  1.00  0.00     0.002 A 
ATOM     86  C   UNL A   1      38.429  31.800  35.708  1.00  0.00     0.091 A 
ATOM     87  F   UNL A   1      39.465  33.920  35.597  1.00  0.00    -0.205 F 
ATOM     88  C   UNL A   1      38.100  30.591  35.092  1.00  0.00     0.022 A 
BRANCH  86  89
ATOM     89  S   UNL A   1      37.868  31.988  37.420  1.00  0.00     0.127 S 
ATOM     90  O   UNL A   1      36.858  33.044  37.310  1.00  0.00    -0.237 OA
ATOM     91  O   UNL A   1      37.318  30.669  37.718  1.00  0.00    -0.237 OA
ATOM     92  O   UNL A   1      39.038  32.373  38.203  1.00  0.00    -0.744 OA
ENDBRANCH  86  89
ENDBRANCH  59  82
ENDBRANCH  33  34
ENDBRANCH  26  28
ENDBRANCH  25  26
ENDBRANCH  24  25
ENDBRANCH  23  24
ENDBRANCH  22  23
ENDBRANCH   1  22
TORSDOF 21
ENDMDL
MODEL 2
REMARK VINA RESULT:      -9.9      5.090      9.058
REMARK SMILES O=C(Cn1cccc1C(=O)OCCOCCOC(=O)c1ccc(-c2c3nc(c(-c4cccc(S(=O)(=O)[O-])c4F)c4ccc([nH]4)c(-c4cccc(S(=O)(=O)[O-])c4F)c4nc(c(-c5cccc(S(=O)(=O)[O-])c5F)c5ccc2[nH]5)C=C4)C=C3)cc1)NCC1CCCC1
REMARK SMILES IDX 13 1 12 2 11 3 9 4 10 5 8 6 4 7 5 8 6 9 7 10 3 11 2 12 1 13
REMARK SMILES IDX 83 14 84 16 85 17 86 18 89 19 87 20 88 21 14 22 15 23 16 24
REMARK SMILES IDX 17 25 18 26 19 27 20 28 21 29 82 30 22 31 81 32 23 33 24 34
REMARK SMILES IDX 25 35 75 36 26 37 80 38 74 39 76 40 27 41 79 42 73 43 72 44
REMARK SMILES IDX 28 46 60 47 40 48 59 49 41 50 44 51 58 52 77 53 42 54 43 55
REMARK SMILES IDX 57 57 78 58 45 59 29 60 30 61 38 62 31 63 33 64 39 65 32 66
REMARK SMILES IDX 34 67 35 68 36 69 37 70 61 71 62 72 70 73 63 74 65 75 71 76
REMARK SMILES IDX 64 77 66 78 67 79 68 80 69 81 46 82 47 83 55 84 48 85 50 86
REMARK SMILES IDX 56 87 49 88 51 89 52 90 53 91 54 92
REMARK H PARENT 83 15 76 45 44 56
REMARK Flexibility Score: inf
ROOT
ATOM      1  C   UNL A   1      37.399  21.499  24.870  1.00  0.00     0.202 C 
ENDROOT
BRANCH   1   2
ATOM      2  C   UNL A   1      36.212  22.270  25.480  1.00  0.00     0.261 C 
BRANCH   2   3
ATOM      3  O   UNL A   1      35.436  22.909  24.440  1.00  0.00    -0.459 OA
BRANCH   3   4
ATOM      4  C   UNL A   1      34.844  24.082  24.763  1.00  0.00     0.355 C 
ATOM      5  O   UNL A   1      35.425  25.004  25.332  1.00  0.00    -0.244 OA
BRANCH   4   6
ATOM      6  C   UNL A   1      33.541  24.236  24.119  1.00  0.00     0.128 A 
ATOM      7  N   UNL A   1      32.246  23.859  24.454  1.00  0.00    -0.333 N 
ATOM      8  C   UNL A   1      31.379  24.345  23.478  1.00  0.00     0.087 A 
ATOM      9  C   UNL A   1      32.103  24.916  22.469  1.00  0.00     0.020 A 
ATOM     10  C   UNL A   1      33.445  24.845  22.864  1.00  0.00     0.035 A 
BRANCH   7  11
ATOM     11  C   UNL A   1      31.637  23.138  25.580  1.00  0.00     0.222 C 
BRANCH  11  12
ATOM     12  C   UNL A   1      32.348  21.945  26.141  1.00  0.00     0.239 C 
ATOM     13  O   UNL A   1      32.930  21.996  27.223  1.00  0.00    -0.273 OA
ATOM     14  N   UNL A   1      32.297  20.806  25.353  1.00  0.00    -0.354 N 
ATOM     15  H   UNL A   1      31.660  20.740  24.605  1.00  0.00     0.163 HD
BRANCH  14  16
ATOM     16  C   UNL A   1      33.198  19.720  25.648  1.00  0.00     0.119 C 
BRANCH  16  17
ATOM     17  C   UNL A   1      33.026  18.463  24.817  1.00  0.00     0.008 C 
ATOM     18  C   UNL A   1      32.361  18.800  23.475  1.00  0.00     0.005 C 
ATOM     19  C   UNL A   1      34.348  17.836  24.401  1.00  0.00     0.005 C 
ATOM     20  C   UNL A   1      32.857  17.758  22.483  1.00  0.00     0.000 C 
ATOM     21  C   UNL A   1      33.976  16.997  23.187  1.00  0.00     0.000 C 
ENDBRANCH  16  17
ENDBRANCH  14  16
ENDBRANCH  11  12
ENDBRANCH   7  11
ENDBRANCH   4   6
ENDBRANCH   3   4
ENDBRANCH   2   3
ENDBRANCH   1   2
BRANCH   1  22
ATOM     22  O   UNL A   1      37.224  20.079  24.869  1.00  0.00    -0.374 OA
BRANCH  22  23
ATOM     23  C   UNL A   1      38.412  19.322  25.099  1.00  0.00     0.202 C 
BRANCH  23  24
ATOM     24  C   UNL A   1      39.550  20.094  25.738  1.00  0.00     0.261 C 
BRANCH  24  25
ATOM     25  O   UNL A   1      40.408  19.215  26.477  1.00  0.00    -0.460 OA
BRANCH  25  26
ATOM     26  C   UNL A   1      41.695  19.230  26.085  1.00  0.00     0.338 C 
ATOM     27  O   UNL A   1      42.344  18.281  25.669  1.00  0.00    -0.246 OA
BRANCH  26  28
ATOM     28  C   UNL A   1      42.271  20.554  26.367  1.00  0.00     0.060 A 
ATOM     29  C   UNL A   1      42.284  20.968  27.702  1.00  0.00     0.016 A 
ATOM     30  C   UNL A   1      42.658  21.420  25.330  1.00  0.00     0.016 A 
ATOM     31  C   UNL A   1      42.610  22.276  27.996  1.00  0.00     0.010 A 
ATOM     32  C   UNL A   1      42.946  22.740  25.622  1.00  0.00     0.010 A 
ATOM     33  C   UNL A   1      42.897  23.163  26.949  1.00  0.00    -0.014 A 
BRANCH  33  34
ATOM     34  C   UNL A   1      43.224  24.549  27.312  1.00  0.00     0.031 A 
ATOM     35  C   UNL A   1      41.899  25.320  27.624  1.00  0.00     0.074 A 
ATOM     36  C   UNL A   1      44.564  24.854  27.164  1.00  0.00     0.049 A 
ATOM     37  N   UNL A   1      41.549  26.530  27.310  1.00  0.00    -0.248 NA
ATOM     38  C   UNL A   1      40.737  24.614  28.252  1.00  0.00     0.031 C 
ATOM     39  C   UNL A   1      45.651  23.864  26.904  1.00  0.00     0.029 A 
ATOM     40  N   UNL A   1      45.312  26.014  27.184  1.00  0.00    -0.354 N 
ATOM     41  C   UNL A   1      40.307  26.810  27.949  1.00  0.00     0.074 A 
ATOM     42  C   UNL A   1      39.786  25.552  28.369  1.00  0.00     0.031 C 
ATOM     43  C   UNL A   1      46.839  24.473  26.663  1.00  0.00     0.029 A 
ATOM     44  C   UNL A   1      46.676  25.909  26.768  1.00  0.00     0.049 A 
ATOM     45  H   UNL A   1      44.924  26.872  27.471  1.00  0.00     0.167 HD
ATOM     46  C   UNL A   1      39.904  28.090  28.231  1.00  0.00     0.034 A 
ATOM     47  C   UNL A   1      47.571  26.920  26.486  1.00  0.00     0.034 A 
ATOM     48  C   UNL A   1      40.931  28.978  27.796  1.00  0.00     0.049 A 
ATOM     49  C   UNL A   1      46.861  28.141  26.887  1.00  0.00     0.074 A 
ATOM     50  C   UNL A   1      41.330  29.366  26.544  1.00  0.00     0.029 A 
ATOM     51  N   UNL A   1      41.943  29.183  28.706  1.00  0.00    -0.354 N 
ATOM     52  N   UNL A   1      46.588  28.458  28.119  1.00  0.00    -0.248 NA
ATOM     53  C   UNL A   1      46.237  28.961  25.843  1.00  0.00     0.031 C 
ATOM     54  C   UNL A   1      42.729  29.261  26.648  1.00  0.00     0.029 A 
ATOM     55  C   UNL A   1      43.112  29.195  27.996  1.00  0.00     0.049 A 
ATOM     56  H   UNL A   1      41.844  29.297  29.679  1.00  0.00     0.167 HD
ATOM     57  C   UNL A   1      45.469  29.237  27.966  1.00  0.00     0.074 A 
ATOM     58  C   UNL A   1      45.521  29.770  26.617  1.00  0.00     0.031 C 
ATOM     59  C   UNL A   1      44.349  28.971  28.694  1.00  0.00     0.034 A 
BRANCH  46  60
ATOM     60  C   UNL A   1      38.840  28.753  29.082  1.00  0.00     0.023 A 
ATOM     61  C   UNL A   1      38.135  29.814  28.433  1.00  0.00     0.012 A 
ATOM     62  C   UNL A   1      38.750  28.686  30.479  1.00  0.00     0.148 A 
ATOM     63  C   UNL A   1      37.532  30.858  29.130  1.00  0.00     0.002 A 
ATOM     64  C   UNL A   1      38.089  29.709  31.177  1.00  0.00     0.091 A 
ATOM     65  F   UNL A   1      39.363  27.688  31.124  1.00  0.00    -0.205 F 
ATOM     66  C   UNL A   1      37.531  30.814  30.509  1.00  0.00     0.022 A 
BRANCH  64  67
ATOM     67  S   UNL A   1      37.916  29.743  32.965  1.00  0.00     0.127 S 
ATOM     68  O   UNL A   1      37.171  28.513  33.223  1.00  0.00    -0.237 OA
ATOM     69  O   UNL A   1      39.315  29.706  33.399  1.00  0.00    -0.237 OA
ATOM     70  O   UNL A   1      37.227  30.988  33.272  1.00  0.00    -0.744 OA
ENDBRANCH  64  67
ENDBRANCH  46  60
BRANCH  47  71
ATOM     71  C   UNL A   1      48.917  27.116  25.788  1.00  0.00     0.023 A 
ATOM     72  C   UNL A   1      50.166  26.916  26.390  1.00  0.00     0.012 A 
ATOM     73  C   UNL A   1      48.963  27.435  24.387  1.00  0.00     0.148 A 
ATOM     74  C   UNL A   1      51.360  26.920  25.627  1.00  0.00     0.002 A 
ATOM     75  C   UNL A   1      50.117  27.306  23.616  1.00  0.00     0.091 A 
ATOM     76  F   UNL A   1      47.874  27.921  23.781  1.00  0.00    -0.205 F 
ATOM     77  C   UNL A   1      51.333  27.057  24.238  1.00  0.00     0.022 A 
BRANCH  75  78
ATOM     78  S   UNL A   1      50.071  27.295  21.807  1.00  0.00     0.127 S 
ATOM     79  O   UNL A   1      49.723  28.679  21.491  1.00  0.00    -0.237 OA
ATOM     80  O   UNL A   1      51.449  26.922  21.483  1.00  0.00    -0.237 OA
ATOM     81  O   UNL A   1      49.072  26.306  21.428  1.00  0.00    -0.744 OA
ENDBRANCH  75  78
ENDBRANCH  47  71
BRANCH  59  82
ATOM     82  C   UNL A   1      44.559  28.210  30.016  1.00  0.00     0.023 A 
ATOM     83  C   UNL A   1      44.094  26.880  30.061  1.00  0.00     0.012 A 
ATOM     84  C   UNL A   1      45.096  28.729  31.224  1.00  0.00     0.148 A 
ATOM     85  C   UNL A   1      44.131  26.115  31.233  1.00  0.00     0.002 A 
ATOM     86  C   UNL A   1      45.104  27.976  32.410  1.00  0.00     0.091 A 
ATOM     87  F   UNL A   1      45.612  29.954  31.224  1.00  0.00    -0.205 F 
ATOM     88  C   UNL A   1      44.629  26.663  32.408  1.00  0.00     0.022 A 
BRANCH  86  89
ATOM     89  S   UNL A   1      45.626  28.621  34.021  1.00  0.00     0.127 S 
ATOM     90  O   UNL A   1      44.777  29.804  34.180  1.00  0.00    -0.237 OA
ATOM     91  O   UNL A   1      45.291  27.522  34.923  1.00  0.00    -0.237 OA
ATOM     92  O   UNL A   1      47.048  28.928  33.907  1.00  0.00    -0.744 OA
ENDBRANCH  86  89
ENDBRANCH  59  82
ENDBRANCH  33  34
ENDBRANCH  26  28
ENDBRANCH  25  26
ENDBRANCH  24  25
ENDBRANCH  23  24
ENDBRANCH  22  23
ENDBRANCH   1  22
TORSDOF 21
ENDMDL
MODEL 3
REMARK VINA RESULT:      -9.8      4.672     11.168
REMARK SMILES O=C(Cn1cccc1C(=O)OCCOCCOC(=O)c1ccc(-c2c3nc(c(-c4cccc(S(=O)(=O)[O-])c4F)c4ccc([nH]4)c(-c4cccc(S(=O)(=O)[O-])c4F)c4nc(c(-c5cccc(S(=O)(=O)[O-])c5F)c5ccc2[nH]5)C=C4)C=C3)cc1)NCC1CCCC1
REMARK SMILES IDX 13 1 12 2 11 3 9 4 10 5 8 6 4 7 5 8 6 9 7 10 3 11 2 12 1 13
REMARK SMILES IDX 83 14 84 16 85 17 86 18 89 19 87 20 88 21 14 22 15 23 16 24
REMARK SMILES IDX 17 25 18 26 19 27 20 28 21 29 82 30 22 31 81 32 23 33 24 34
REMARK SMILES IDX 25 35 75 36 26 37 80 38 74 39 76 40 27 41 79 42 73 43 72 44
REMARK SMILES IDX 28 46 60 47 40 48 59 49 41 50 44 51 58 52 77 53 42 54 43 55
REMARK SMILES IDX 57 57 78 58 45 59 29 60 30 61 38 62 31 63 33 64 39 65 32 66
REMARK SMILES IDX 34 67 35 68 36 69 37 70 61 71 62 72 70 73 63 74 65 75 71 76
REMARK SMILES IDX 64 77 66 78 67 79 68 80 69 81 46 82 47 83 55 84 48 85 50 86
REMARK SMILES IDX 56 87 49 88 51 89 52 90 53 91 54 92
REMARK H PARENT 83 15 76 45 44 56
REMARK Flexibility Score: inf
ROOT
ATOM      1  C   UNL A   1      33.098  30.392  27.185  1.00  0.00     0.202 C 
ENDROOT
BRANCH   1   2
ATOM      2  C   UNL A   1      33.579  29.232  26.291  1.00  0.00     0.261 C 
BRANCH   2   3
ATOM      3  O   UNL A   1      33.534  27.982  27.017  1.00  0.00    -0.459 OA
BRANCH   3   4
ATOM      4  C   UNL A   1      32.489  27.166  26.748  1.00  0.00     0.355 C 
ATOM      5  O   UNL A   1      31.360  27.331  27.205  1.00  0.00    -0.244 OA
BRANCH   4   6
ATOM      6  C   UNL A   1      32.778  26.246  25.650  1.00  0.00     0.128 A 
ATOM      7  N   UNL A   1      32.097  25.873  24.497  1.00  0.00    -0.333 N 
ATOM      8  C   UNL A   1      32.904  24.998  23.773  1.00  0.00     0.087 A 
ATOM      9  C   UNL A   1      34.028  24.710  24.496  1.00  0.00     0.020 A 
ATOM     10  C   UNL A   1      33.948  25.482  25.663  1.00  0.00     0.035 A 
BRANCH   7  11
ATOM     11  C   UNL A   1      30.802  26.225  23.900  1.00  0.00     0.222 C 
BRANCH  11  12
ATOM     12  C   UNL A   1      30.678  27.520  23.159  1.00  0.00     0.239 C 
ATOM     13  O   UNL A   1      31.075  27.636  22.001  1.00  0.00    -0.273 OA
ATOM     14  N   UNL A   1      30.092  28.553  23.874  1.00  0.00    -0.354 N 
ATOM     15  H   UNL A   1      29.605  28.372  24.711  1.00  0.00     0.163 HD
BRANCH  14  16
ATOM     16  C   UNL A   1      30.211  29.898  23.369  1.00  0.00     0.119 C 
BRANCH  16  17
ATOM     17  C   UNL A   1      28.950  30.510  22.791  1.00  0.00     0.008 C 
ATOM     18  C   UNL A   1      28.805  31.967  23.254  1.00  0.00     0.005 C 
ATOM     19  C   UNL A   1      28.984  30.631  21.275  1.00  0.00     0.005 C 
ATOM     20  C   UNL A   1      28.032  32.685  22.158  1.00  0.00     0.000 C 
ATOM     21  C   UNL A   1      27.959  31.717  20.982  1.00  0.00     0.000 C 
ENDBRANCH  16  17
ENDBRANCH  14  16
ENDBRANCH  11  12
ENDBRANCH   7  11
ENDBRANCH   4   6
ENDBRANCH   3   4
ENDBRANCH   2   3
ENDBRANCH   1   2
BRANCH   1  22
ATOM     22  O   UNL A   1      32.270  31.339  26.505  1.00  0.00    -0.374 OA
BRANCH  22  23
ATOM     23  C   UNL A   1      31.777  32.406  27.315  1.00  0.00     0.202 C 
BRANCH  23  24
ATOM     24  C   UNL A   1      32.665  33.634  27.367  1.00  0.00     0.261 C 
BRANCH  24  25
ATOM     25  O   UNL A   1      32.174  34.575  28.330  1.00  0.00    -0.460 OA
BRANCH  25  26
ATOM     26  C   UNL A   1      33.133  35.272  28.968  1.00  0.00     0.338 C 
ATOM     27  O   UNL A   1      33.140  36.477  29.182  1.00  0.00    -0.246 OA
BRANCH  26  28
ATOM     28  C   UNL A   1      34.268  34.383  29.258  1.00  0.00     0.060 A 
ATOM     29  C   UNL A   1      34.102  33.463  30.297  1.00  0.00     0.016 A 
ATOM     30  C   UNL A   1      35.508  34.546  28.618  1.00  0.00     0.016 A 
ATOM     31  C   UNL A   1      35.198  32.759  30.751  1.00  0.00     0.010 A 
ATOM     32  C   UNL A   1      36.613  33.870  29.099  1.00  0.00     0.010 A 
ATOM     33  C   UNL A   1      36.454  32.999  30.176  1.00  0.00    -0.014 A 
BRANCH  33  34
ATOM     34  C   UNL A   1      37.592  32.235  30.704  1.00  0.00     0.031 A 
ATOM     35  C   UNL A   1      37.816  30.971  29.811  1.00  0.00     0.074 A 
ATOM     36  C   UNL A   1      38.082  32.733  31.897  1.00  0.00     0.049 A 
ATOM     37  N   UNL A   1      38.112  29.754  30.152  1.00  0.00    -0.248 NA
ATOM     38  C   UNL A   1      37.539  31.019  28.339  1.00  0.00     0.031 C 
ATOM     39  C   UNL A   1      37.702  34.041  32.507  1.00  0.00     0.029 A 
ATOM     40  N   UNL A   1      38.971  32.285  32.853  1.00  0.00    -0.354 N 
ATOM     41  C   UNL A   1      38.352  29.007  28.963  1.00  0.00     0.074 A 
ATOM     42  C   UNL A   1      37.825  29.789  27.894  1.00  0.00     0.031 C 
ATOM     43  C   UNL A   1      38.234  34.193  33.745  1.00  0.00     0.029 A 
ATOM     44  C   UNL A   1      39.040  33.033  34.070  1.00  0.00     0.049 A 
ATOM     45  H   UNL A   1      39.530  31.489  32.704  1.00  0.00     0.167 HD
ATOM     46  C   UNL A   1      39.130  27.879  28.953  1.00  0.00     0.034 A 
ATOM     47  C   UNL A   1      39.662  32.697  35.254  1.00  0.00     0.034 A 
ATOM     48  C   UNL A   1      39.611  27.668  30.280  1.00  0.00     0.049 A 
ATOM     49  C   UNL A   1      40.401  31.470  34.929  1.00  0.00     0.074 A 
ATOM     50  C   UNL A   1      38.983  27.241  31.419  1.00  0.00     0.029 A 
ATOM     51  N   UNL A   1      40.759  28.359  30.595  1.00  0.00    -0.354 N 
ATOM     52  N   UNL A   1      41.436  31.426  34.142  1.00  0.00    -0.248 NA
ATOM     53  C   UNL A   1      39.831  30.182  35.338  1.00  0.00     0.031 C 
ATOM     54  C   UNL A   1      39.466  28.159  32.369  1.00  0.00     0.029 A 
ATOM     55  C   UNL A   1      40.599  28.820  31.873  1.00  0.00     0.049 A 
ATOM     56  H   UNL A   1      41.542  28.496  30.013  1.00  0.00     0.167 HD
ATOM     57  C   UNL A   1      41.373  30.141  33.667  1.00  0.00     0.074 A 
ATOM     58  C   UNL A   1      40.633  29.375  34.653  1.00  0.00     0.031 C 
ATOM     59  C   UNL A   1      41.425  29.908  32.326  1.00  0.00     0.034 A 
BRANCH  46  60
ATOM     60  C   UNL A   1      39.799  27.004  27.913  1.00  0.00     0.023 A 
ATOM     61  C   UNL A   1      39.617  25.599  28.111  1.00  0.00     0.012 A 
ATOM     62  C   UNL A   1      40.831  27.400  27.051  1.00  0.00     0.148 A 
ATOM     63  C   UNL A   1      40.516  24.647  27.638  1.00  0.00     0.002 A 
ATOM     64  C   UNL A   1      41.700  26.431  26.526  1.00  0.00     0.091 A 
ATOM     65  F   UNL A   1      41.013  28.702  26.808  1.00  0.00    -0.205 F 
ATOM     66  C   UNL A   1      41.575  25.070  26.861  1.00  0.00     0.022 A 
BRANCH  64  67
ATOM     67  S   UNL A   1      43.065  26.812  25.421  1.00  0.00     0.127 S 
ATOM     68  O   UNL A   1      44.079  27.307  26.349  1.00  0.00    -0.237 OA
ATOM     69  O   UNL A   1      43.360  25.496  24.849  1.00  0.00    -0.237 OA
ATOM     70  O   UNL A   1      42.542  27.777  24.465  1.00  0.00    -0.744 OA
ENDBRANCH  64  67
ENDBRANCH  46  60
BRANCH  47  71
ATOM     71  C   UNL A   1      39.669  33.123  36.722  1.00  0.00     0.023 A 
ATOM     72  C   UNL A   1      40.475  34.138  37.256  1.00  0.00     0.012 A 
ATOM     73  C   UNL A   1      38.736  32.540  37.647  1.00  0.00     0.148 A 
ATOM     74  C   UNL A   1      40.282  34.613  38.577  1.00  0.00     0.002 A 
ATOM     75  C   UNL A   1      38.456  33.096  38.895  1.00  0.00     0.091 A 
ATOM     76  F   UNL A   1      38.126  31.390  37.339  1.00  0.00    -0.205 F 
ATOM     77  C   UNL A   1      39.241  34.135  39.374  1.00  0.00     0.022 A 
BRANCH  75  78
ATOM     78  S   UNL A   1      37.000  32.617  39.858  1.00  0.00     0.127 S 
ATOM     79  O   UNL A   1      37.343  31.265  40.298  1.00  0.00    -0.237 OA
ATOM     80  O   UNL A   1      37.008  33.625  40.918  1.00  0.00    -0.237 OA
ATOM     81  O   UNL A   1      35.863  32.700  38.952  1.00  0.00    -0.744 OA
ENDBRANCH  75  78
ENDBRANCH  47  71
BRANCH  59  82
ATOM     82  C   UNL A   1      42.105  30.992  31.470  1.00  0.00     0.023 A 
ATOM     83  C   UNL A   1      41.259  31.807  30.691  1.00  0.00     0.012 A 
ATOM     84  C   UNL A   1      43.500  31.206  31.314  1.00  0.00     0.148 A 
ATOM     85  C   UNL A   1      41.757  32.759  29.794  1.00  0.00     0.002 A 
ATOM     86  C   UNL A   1      44.005  32.137  30.391  1.00  0.00     0.091 A 
ATOM     87  F   UNL A   1      44.345  30.514  32.073  1.00  0.00    -0.205 F 
ATOM     88  C   UNL A   1      43.127  32.920  29.638  1.00  0.00     0.022 A 
BRANCH  86  89
ATOM     89  S   UNL A   1      45.766  32.356  30.025  1.00  0.00     0.127 S 
ATOM     90  O   UNL A   1      46.307  32.789  31.316  1.00  0.00    -0.237 OA
ATOM     91  O   UNL A   1      46.174  31.010  29.630  1.00  0.00    -0.237 OA
ATOM     92  O   UNL A   1      45.852  33.371  28.980  1.00  0.00    -0.744 OA
ENDBRANCH  86  89
ENDBRANCH  59  82
ENDBRANCH  33  34
ENDBRANCH  26  28
ENDBRANCH  25  26
ENDBRANCH  24  25
ENDBRANCH  23  24
ENDBRANCH  22  23
ENDBRANCH   1  22
TORSDOF 21
ENDMDL
