MODEL 1
REMARK VINA RESULT:     -10.4      0.000      0.000
REMARK SMILES C[C@H]1CN(CCC(=O)OCCOCCOC(=O)c2ccc(-c3c4nc(c(-c5cccc(S(=O)(=O)[O-])c5F)c5ccc([nH]5)c(-c5cccc(S(=O)(=O)[O-])c5F)c5nc(c(-c6cccc(S(=O)(=O)[O-])c6F)c6ccc3[nH]6)C=C5)C=C4)cc2)S(=O)(=O)C1
REMARK SMILES IDX 13 1 12 2 11 3 10 4 9 5 7 6 8 7 6 8 5 9 4 10 1 11 2 12 3 13
REMARK SMILES IDX 84 14 81 15 82 16 83 17 14 18 15 19 16 20 17 21 18 22 19 23
REMARK SMILES IDX 80 24 20 25 79 26 21 27 22 28 23 29 73 30 24 31 78 32 72 33
REMARK SMILES IDX 74 34 25 35 77 36 71 37 70 38 26 40 58 41 38 42 57 43 39 44
REMARK SMILES IDX 42 45 56 46 75 47 40 48 41 49 55 51 76 52 43 53 27 54 28 55
REMARK SMILES IDX 36 56 29 57 31 58 37 59 30 60 32 61 33 62 34 63 35 64 59 65
REMARK SMILES IDX 60 66 68 67 61 68 63 69 69 70 62 71 64 72 65 73 66 74 67 75
REMARK SMILES IDX 44 76 45 77 53 78 46 79 48 80 54 81 47 82 49 83 50 84 51 85
REMARK SMILES IDX 52 86
REMARK H PARENT 74 39 42 50
REMARK Flexibility Score: inf
ROOT
ATOM      1  C   UNL A   1      35.848  20.336  24.986  1.00  0.00     0.202 C 
ENDROOT
BRANCH   1   2
ATOM      2  O   UNL A   1      35.441  21.277  25.980  1.00  0.00    -0.374 OA
BRANCH   2   3
ATOM      3  C   UNL A   1      34.053  21.252  26.317  1.00  0.00     0.202 C 
BRANCH   3   4
ATOM      4  C   UNL A   1      33.197  22.287  25.577  1.00  0.00     0.261 C 
BRANCH   4   5
ATOM      5  O   UNL A   1      33.569  23.641  25.907  1.00  0.00    -0.463 OA
BRANCH   5   6
ATOM      6  C   UNL A   1      32.575  24.519  26.171  1.00  0.00     0.307 C 
ATOM      7  O   UNL A   1      31.395  24.221  26.315  1.00  0.00    -0.252 OA
BRANCH   6   8
ATOM      8  C   UNL A   1      33.046  25.957  26.166  1.00  0.00     0.139 C 
BRANCH   8   9
ATOM      9  C   UNL A   1      33.838  26.427  24.949  1.00  0.00     0.114 C 
BRANCH   9  10
ATOM     10  N   UNL A   1      33.001  26.737  23.800  1.00  0.00    -0.201 NA
ATOM     11  C   UNL A   1      29.884  26.630  24.101  1.00  0.00     0.010 C 
ATOM     12  C   UNL A   1      30.822  27.237  23.052  1.00  0.00     0.017 C 
ATOM     13  C   UNL A   1      32.068  27.855  23.724  1.00  0.00     0.106 C 
ATOM     14  C   UNL A   1      31.301  26.193  22.017  1.00  0.00     0.158 C 
ATOM     15  S   UNL A   1      33.021  25.878  22.364  1.00  0.00     0.214 S 
ATOM     16  O   UNL A   1      33.857  26.597  21.432  1.00  0.00    -0.212 OA
ATOM     17  O   UNL A   1      33.228  24.490  22.673  1.00  0.00    -0.212 OA
ENDBRANCH   9  10
ENDBRANCH   8   9
ENDBRANCH   6   8
ENDBRANCH   5   6
ENDBRANCH   4   5
ENDBRANCH   3   4
ENDBRANCH   2   3
ENDBRANCH   1   2
BRANCH   1  18
ATOM     18  C   UNL A   1      37.347  19.997  24.968  1.00  0.00     0.261 C 
BRANCH  18  19
ATOM     19  O   UNL A   1      38.181  21.146  25.205  1.00  0.00    -0.460 OA
BRANCH  19  20
ATOM     20  C   UNL A   1      39.279  20.931  25.962  1.00  0.00     0.338 C 
ATOM     21  O   UNL A   1      39.930  19.898  26.009  1.00  0.00    -0.246 OA
BRANCH  20  22
ATOM     22  C   UNL A   1      39.723  22.182  26.635  1.00  0.00     0.060 A 
ATOM     23  C   UNL A   1      39.099  23.371  26.236  1.00  0.00     0.016 A 
ATOM     24  C   UNL A   1      40.726  22.224  27.609  1.00  0.00     0.016 A 
ATOM     25  C   UNL A   1      39.523  24.602  26.742  1.00  0.00     0.010 A 
ATOM     26  C   UNL A   1      41.143  23.462  28.127  1.00  0.00     0.010 A 
ATOM     27  C   UNL A   1      40.582  24.664  27.657  1.00  0.00    -0.014 A 
BRANCH  27  28
ATOM     28  C   UNL A   1      41.186  25.988  27.981  1.00  0.00     0.031 A 
ATOM     29  C   UNL A   1      42.582  26.300  27.500  1.00  0.00     0.074 A 
ATOM     30  C   UNL A   1      40.499  26.935  28.650  1.00  0.00     0.049 A 
ATOM     31  N   UNL A   1      43.278  27.402  27.628  1.00  0.00    -0.248 NA
ATOM     32  C   UNL A   1      43.288  25.228  26.780  1.00  0.00     0.031 C 
ATOM     33  C   UNL A   1      39.145  26.781  29.179  1.00  0.00     0.029 A 
ATOM     34  N   UNL A   1      40.859  28.212  29.010  1.00  0.00    -0.354 N 
ATOM     35  C   UNL A   1      44.510  27.146  27.037  1.00  0.00     0.074 A 
ATOM     36  C   UNL A   1      44.474  25.778  26.568  1.00  0.00     0.031 C 
ATOM     37  C   UNL A   1      38.797  27.914  29.815  1.00  0.00     0.029 A 
ATOM     38  C   UNL A   1      39.907  28.865  29.757  1.00  0.00     0.049 A 
ATOM     39  H   UNL A   1      41.718  28.621  28.756  1.00  0.00     0.167 HD
ATOM     40  C   UNL A   1      45.571  27.973  26.877  1.00  0.00     0.034 A 
ATOM     41  C   UNL A   1      39.929  30.081  30.343  1.00  0.00     0.034 A 
ATOM     42  C   UNL A   1      45.611  29.343  27.312  1.00  0.00     0.049 A 
ATOM     43  C   UNL A   1      41.125  30.982  30.163  1.00  0.00     0.074 A 
ATOM     44  C   UNL A   1      46.620  30.273  27.126  1.00  0.00     0.029 A 
ATOM     45  N   UNL A   1      44.613  29.977  28.033  1.00  0.00    -0.354 N 
ATOM     46  N   UNL A   1      42.223  30.771  29.480  1.00  0.00    -0.248 NA
ATOM     47  C   UNL A   1      41.069  32.306  30.805  1.00  0.00     0.031 C 
ATOM     48  C   UNL A   1      46.249  31.457  27.772  1.00  0.00     0.029 A 
ATOM     49  C   UNL A   1      44.990  31.279  28.322  1.00  0.00     0.049 A 
ATOM     50  H   UNL A   1      43.762  29.564  28.302  1.00  0.00     0.167 HD
ATOM     51  C   UNL A   1      42.970  31.941  29.580  1.00  0.00     0.074 A 
ATOM     52  C   UNL A   1      42.190  32.868  30.373  1.00  0.00     0.031 C 
ATOM     53  C   UNL A   1      44.195  32.219  29.069  1.00  0.00     0.034 A 
BRANCH  40  54
ATOM     54  C   UNL A   1      46.787  27.418  26.179  1.00  0.00     0.023 A 
ATOM     55  C   UNL A   1      46.956  27.619  24.794  1.00  0.00     0.012 A 
ATOM     56  C   UNL A   1      47.788  26.744  26.907  1.00  0.00     0.148 A 
ATOM     57  C   UNL A   1      48.080  27.121  24.137  1.00  0.00     0.002 A 
ATOM     58  C   UNL A   1      48.929  26.294  26.254  1.00  0.00     0.091 A 
ATOM     59  F   UNL A   1      47.601  26.547  28.220  1.00  0.00    -0.205 F 
ATOM     60  C   UNL A   1      49.070  26.469  24.868  1.00  0.00     0.022 A 
BRANCH  58  61
ATOM     61  S   UNL A   1      50.298  25.522  27.122  1.00  0.00     0.127 S 
ATOM     62  O   UNL A   1      51.260  25.326  26.039  1.00  0.00    -0.237 OA
ATOM     63  O   UNL A   1      50.671  26.555  28.089  1.00  0.00    -0.237 OA
ATOM     64  O   UNL A   1      49.763  24.303  27.713  1.00  0.00    -0.744 OA
ENDBRANCH  58  61
ENDBRANCH  40  54
BRANCH  41  65
ATOM     65  C   UNL A   1      38.761  30.533  31.153  1.00  0.00     0.023 A 
ATOM     66  C   UNL A   1      38.737  30.311  32.543  1.00  0.00     0.012 A 
ATOM     67  C   UNL A   1      37.676  31.194  30.544  1.00  0.00     0.148 A 
ATOM     68  C   UNL A   1      37.640  30.711  33.308  1.00  0.00     0.002 A 
ATOM     69  C   UNL A   1      36.615  31.645  31.320  1.00  0.00     0.091 A 
ATOM     70  F   UNL A   1      37.708  31.379  29.217  1.00  0.00    -0.205 F 
ATOM     71  C   UNL A   1      36.585  31.386  32.699  1.00  0.00     0.022 A 
BRANCH  69  72
ATOM     72  S   UNL A   1      35.288  32.649  30.644  1.00  0.00     0.127 S 
ATOM     73  O   UNL A   1      34.881  31.864  29.481  1.00  0.00    -0.237 OA
ATOM     74  O   UNL A   1      34.330  32.661  31.749  1.00  0.00    -0.237 OA
ATOM     75  O   UNL A   1      35.883  33.947  30.354  1.00  0.00    -0.744 OA
ENDBRANCH  69  72
ENDBRANCH  41  65
BRANCH  53  76
ATOM     76  C   UNL A   1      44.773  33.593  29.308  1.00  0.00     0.023 A 
ATOM     77  C   UNL A   1      45.533  33.850  30.466  1.00  0.00     0.012 A 
ATOM     78  C   UNL A   1      44.626  34.611  28.342  1.00  0.00     0.148 A 
ATOM     79  C   UNL A   1      46.108  35.104  30.676  1.00  0.00     0.002 A 
ATOM     80  C   UNL A   1      45.244  35.841  28.534  1.00  0.00     0.091 A 
ATOM     81  F   UNL A   1      43.886  34.357  27.252  1.00  0.00    -0.205 F 
ATOM     82  C   UNL A   1      45.974  36.094  29.705  1.00  0.00     0.022 A 
BRANCH  80  83
ATOM     83  S   UNL A   1      45.207  37.144  27.296  1.00  0.00     0.127 S 
ATOM     84  O   UNL A   1      45.802  38.264  28.026  1.00  0.00    -0.237 OA
ATOM     85  O   UNL A   1      46.052  36.590  26.237  1.00  0.00    -0.237 OA
ATOM     86  O   UNL A   1      43.809  37.313  26.929  1.00  0.00    -0.744 OA
ENDBRANCH  80  83
ENDBRANCH  53  76
ENDBRANCH  27  28
ENDBRANCH  20  22
ENDBRANCH  19  20
ENDBRANCH  18  19
ENDBRANCH   1  18
TORSDOF 19
ENDMDL
MODEL 2
REMARK VINA RESULT:     -10.3      1.597      2.058
REMARK SMILES C[C@H]1CN(CCC(=O)OCCOCCOC(=O)c2ccc(-c3c4nc(c(-c5cccc(S(=O)(=O)[O-])c5F)c5ccc([nH]5)c(-c5cccc(S(=O)(=O)[O-])c5F)c5nc(c(-c6cccc(S(=O)(=O)[O-])c6F)c6ccc3[nH]6)C=C5)C=C4)cc2)S(=O)(=O)C1
REMARK SMILES IDX 13 1 12 2 11 3 10 4 9 5 7 6 8 7 6 8 5 9 4 10 1 11 2 12 3 13
REMARK SMILES IDX 84 14 81 15 82 16 83 17 14 18 15 19 16 20 17 21 18 22 19 23
REMARK SMILES IDX 80 24 20 25 79 26 21 27 22 28 23 29 73 30 24 31 78 32 72 33
REMARK SMILES IDX 74 34 25 35 77 36 71 37 70 38 26 40 58 41 38 42 57 43 39 44
REMARK SMILES IDX 42 45 56 46 75 47 40 48 41 49 55 51 76 52 43 53 27 54 28 55
REMARK SMILES IDX 36 56 29 57 31 58 37 59 30 60 32 61 33 62 34 63 35 64 59 65
REMARK SMILES IDX 60 66 68 67 61 68 63 69 69 70 62 71 64 72 65 73 66 74 67 75
REMARK SMILES IDX 44 76 45 77 53 78 46 79 48 80 54 81 47 82 49 83 50 84 51 85
REMARK SMILES IDX 52 86
REMARK H PARENT 74 39 42 50
REMARK Flexibility Score: inf
ROOT
ATOM      1  C   UNL A   1      35.927  21.021  24.715  1.00  0.00     0.202 C 
ENDROOT
BRANCH   1   2
ATOM      2  O   UNL A   1      35.136  21.437  25.830  1.00  0.00    -0.374 OA
BRANCH   2   3
ATOM      3  C   UNL A   1      33.923  20.708  26.028  1.00  0.00     0.202 C 
BRANCH   3   4
ATOM      4  C   UNL A   1      33.310  20.127  24.749  1.00  0.00     0.261 C 
BRANCH   4   5
ATOM      5  O   UNL A   1      32.186  20.900  24.282  1.00  0.00    -0.463 OA
BRANCH   5   6
ATOM      6  C   UNL A   1      32.271  21.453  23.051  1.00  0.00     0.307 C 
ATOM      7  O   UNL A   1      31.911  20.913  22.012  1.00  0.00    -0.252 OA
BRANCH   6   8
ATOM      8  C   UNL A   1      32.970  22.796  23.058  1.00  0.00     0.139 C 
BRANCH   8   9
ATOM      9  C   UNL A   1      32.204  23.976  23.650  1.00  0.00     0.114 C 
BRANCH   9  10
ATOM     10  N   UNL A   1      32.957  25.220  23.636  1.00  0.00    -0.201 NA
ATOM     11  C   UNL A   1      32.685  27.204  26.045  1.00  0.00     0.010 C 
ATOM     12  C   UNL A   1      33.693  27.070  24.898  1.00  0.00     0.017 C 
ATOM     13  C   UNL A   1      33.988  25.583  24.601  1.00  0.00     0.106 C 
ATOM     14  C   UNL A   1      33.192  27.732  23.594  1.00  0.00     0.158 C 
ATOM     15  S   UNL A   1      32.787  26.409  22.470  1.00  0.00     0.214 S 
ATOM     16  O   UNL A   1      33.844  26.234  21.504  1.00  0.00    -0.212 OA
ATOM     17  O   UNL A   1      31.400  26.473  22.093  1.00  0.00    -0.212 OA
ENDBRANCH   9  10
ENDBRANCH   8   9
ENDBRANCH   6   8
ENDBRANCH   5   6
ENDBRANCH   4   5
ENDBRANCH   3   4
ENDBRANCH   2   3
ENDBRANCH   1   2
BRANCH   1  18
ATOM     18  C   UNL A   1      37.284  20.389  25.065  1.00  0.00     0.261 C 
BRANCH  18  19
ATOM     19  O   UNL A   1      38.351  21.353  25.120  1.00  0.00    -0.460 OA
BRANCH  19  20
ATOM     20  C   UNL A   1      39.322  21.106  26.025  1.00  0.00     0.338 C 
ATOM     21  O   UNL A   1      39.891  20.039  26.197  1.00  0.00    -0.246 OA
BRANCH  20  22
ATOM     22  C   UNL A   1      39.757  22.356  26.704  1.00  0.00     0.060 A 
ATOM     23  C   UNL A   1      39.104  23.539  26.332  1.00  0.00     0.016 A 
ATOM     24  C   UNL A   1      40.777  22.406  27.659  1.00  0.00     0.016 A 
ATOM     25  C   UNL A   1      39.515  24.771  26.844  1.00  0.00     0.010 A 
ATOM     26  C   UNL A   1      41.181  23.645  28.185  1.00  0.00     0.010 A 
ATOM     27  C   UNL A   1      40.590  24.842  27.740  1.00  0.00    -0.014 A 
BRANCH  27  28
ATOM     28  C   UNL A   1      41.176  26.173  28.068  1.00  0.00     0.031 A 
ATOM     29  C   UNL A   1      42.581  26.492  27.619  1.00  0.00     0.074 A 
ATOM     30  C   UNL A   1      40.466  27.119  28.715  1.00  0.00     0.049 A 
ATOM     31  N   UNL A   1      43.265  27.600  27.755  1.00  0.00    -0.248 NA
ATOM     32  C   UNL A   1      43.312  25.421  26.923  1.00  0.00     0.031 C 
ATOM     33  C   UNL A   1      39.102  26.959  29.212  1.00  0.00     0.029 A 
ATOM     34  N   UNL A   1      40.808  28.401  29.074  1.00  0.00    -0.354 N 
ATOM     35  C   UNL A   1      44.513  27.350  27.196  1.00  0.00     0.074 A 
ATOM     36  C   UNL A   1      44.499  25.978  26.736  1.00  0.00     0.031 C 
ATOM     37  C   UNL A   1      38.730  28.093  29.832  1.00  0.00     0.029 A 
ATOM     38  C   UNL A   1      39.833  29.052  29.793  1.00  0.00     0.049 A 
ATOM     39  H   UNL A   1      41.670  28.815  28.837  1.00  0.00     0.167 HD
ATOM     40  C   UNL A   1      45.571  28.184  27.055  1.00  0.00     0.034 A 
ATOM     41  C   UNL A   1      39.833  30.272  30.371  1.00  0.00     0.034 A 
ATOM     42  C   UNL A   1      45.590  29.557  27.480  1.00  0.00     0.049 A 
ATOM     43  C   UNL A   1      41.026  31.181  30.213  1.00  0.00     0.074 A 
ATOM     44  C   UNL A   1      46.596  30.494  27.312  1.00  0.00     0.029 A 
ATOM     45  N   UNL A   1      44.571  30.189  28.174  1.00  0.00    -0.354 N 
ATOM     46  N   UNL A   1      42.142  30.974  29.557  1.00  0.00    -0.248 NA
ATOM     47  C   UNL A   1      40.944  32.509  30.843  1.00  0.00     0.031 C 
ATOM     48  C   UNL A   1      46.201  31.679  27.941  1.00  0.00     0.029 A 
ATOM     49  C   UNL A   1      44.931  31.495  28.461  1.00  0.00     0.049 A 
ATOM     50  H   UNL A   1      43.716  29.771  28.425  1.00  0.00     0.167 HD
ATOM     51  C   UNL A   1      42.876  32.151  29.667  1.00  0.00     0.074 A 
ATOM     52  C   UNL A   1      42.071  33.077  30.434  1.00  0.00     0.031 C 
ATOM     53  C   UNL A   1      44.112  32.435  29.183  1.00  0.00     0.034 A 
BRANCH  40  54
ATOM     54  C   UNL A   1      46.808  27.633  26.390  1.00  0.00     0.023 A 
ATOM     55  C   UNL A   1      47.697  26.821  27.123  1.00  0.00     0.012 A 
ATOM     56  C   UNL A   1      47.059  27.878  25.025  1.00  0.00     0.148 A 
ATOM     57  C   UNL A   1      48.838  26.295  26.520  1.00  0.00     0.002 A 
ATOM     58  C   UNL A   1      48.173  27.310  24.419  1.00  0.00     0.091 A 
ATOM     59  F   UNL A   1      46.212  28.667  24.351  1.00  0.00    -0.205 F 
ATOM     60  C   UNL A   1      49.070  26.531  25.167  1.00  0.00     0.022 A 
BRANCH  58  61
ATOM     61  S   UNL A   1      48.510  27.482  22.663  1.00  0.00     0.127 S 
ATOM     62  O   UNL A   1      48.529  26.087  22.229  1.00  0.00    -0.237 OA
ATOM     63  O   UNL A   1      47.352  28.248  22.201  1.00  0.00    -0.237 OA
ATOM     64  O   UNL A   1      49.781  28.187  22.565  1.00  0.00    -0.744 OA
ENDBRANCH  58  61
ENDBRANCH  40  54
BRANCH  41  65
ATOM     65  C   UNL A   1      38.642  30.721  31.149  1.00  0.00     0.023 A 
ATOM     66  C   UNL A   1      38.590  30.515  32.541  1.00  0.00     0.012 A 
ATOM     67  C   UNL A   1      37.564  31.364  30.509  1.00  0.00     0.148 A 
ATOM     68  C   UNL A   1      37.472  30.911  33.277  1.00  0.00     0.002 A 
ATOM     69  C   UNL A   1      36.481  31.812  31.256  1.00  0.00     0.091 A 
ATOM     70  F   UNL A   1      37.623  31.533  29.181  1.00  0.00    -0.205 F 
ATOM     71  C   UNL A   1      36.424  31.569  32.637  1.00  0.00     0.022 A 
BRANCH  69  72
ATOM     72  S   UNL A   1      35.159  32.793  30.539  1.00  0.00     0.127 S 
ATOM     73  O   UNL A   1      35.864  34.015  30.161  1.00  0.00    -0.237 OA
ATOM     74  O   UNL A   1      34.736  31.952  29.419  1.00  0.00    -0.237 OA
ATOM     75  O   UNL A   1      34.160  32.938  31.589  1.00  0.00    -0.744 OA
ENDBRANCH  69  72
ENDBRANCH  41  65
BRANCH  53  76
ATOM     76  C   UNL A   1      44.673  33.814  29.425  1.00  0.00     0.023 A 
ATOM     77  C   UNL A   1      45.442  34.073  30.577  1.00  0.00     0.012 A 
ATOM     78  C   UNL A   1      44.501  34.837  28.468  1.00  0.00     0.148 A 
ATOM     79  C   UNL A   1      46.003  35.334  30.789  1.00  0.00     0.002 A 
ATOM     80  C   UNL A   1      45.105  36.074  28.663  1.00  0.00     0.091 A 
ATOM     81  F   UNL A   1      43.753  34.581  27.386  1.00  0.00    -0.205 F 
ATOM     82  C   UNL A   1      45.845  36.329  29.828  1.00  0.00     0.022 A 
BRANCH  80  83
ATOM     83  S   UNL A   1      45.036  37.385  27.435  1.00  0.00     0.127 S 
ATOM     84  O   UNL A   1      45.483  38.542  28.211  1.00  0.00    -0.237 OA
ATOM     85  O   UNL A   1      45.993  36.920  26.430  1.00  0.00    -0.237 OA
ATOM     86  O   UNL A   1      43.656  37.438  26.978  1.00  0.00    -0.744 OA
ENDBRANCH  80  83
ENDBRANCH  53  76
ENDBRANCH  27  28
ENDBRANCH  20  22
ENDBRANCH  19  20
ENDBRANCH  18  19
ENDBRANCH   1  18
TORSDOF 19
ENDMDL
MODEL 3
REMARK VINA RESULT:     -10.1      5.091     10.277
REMARK SMILES C[C@H]1CN(CCC(=O)OCCOCCOC(=O)c2ccc(-c3c4nc(c(-c5cccc(S(=O)(=O)[O-])c5F)c5ccc([nH]5)c(-c5cccc(S(=O)(=O)[O-])c5F)c5nc(c(-c6cccc(S(=O)(=O)[O-])c6F)c6ccc3[nH]6)C=C5)C=C4)cc2)S(=O)(=O)C1
REMARK SMILES IDX 13 1 12 2 11 3 10 4 9 5 7 6 8 7 6 8 5 9 4 10 1 11 2 12 3 13
REMARK SMILES IDX 84 14 81 15 82 16 83 17 14 18 15 19 16 20 17 21 18 22 19 23
REMARK SMILES IDX 80 24 20 25 79 26 21 27 22 28 23 29 73 30 24 31 78 32 72 33
REMARK SMILES IDX 74 34 25 35 77 36 71 37 70 38 26 40 58 41 38 42 57 43 39 44
REMARK SMILES IDX 42 45 56 46 75 47 40 48 41 49 55 51 76 52 43 53 27 54 28 55
REMARK SMILES IDX 36 56 29 57 31 58 37 59 30 60 32 61 33 62 34 63 35 64 59 65
REMARK SMILES IDX 60 66 68 67 61 68 63 69 69 70 62 71 64 72 65 73 66 74 67 75
REMARK SMILES IDX 44 76 45 77 53 78 46 79 48 80 54 81 47 82 49 83 50 84 51 85
REMARK SMILES IDX 52 86
REMARK H PARENT 74 39 42 50
REMARK Flexibility Score: inf
ROOT
ATOM      1  C   UNL A   1      32.249  29.930  25.561  1.00  0.00     0.202 C 
ENDROOT
BRANCH   1   2
ATOM      2  O   UNL A   1      31.059  29.487  24.906  1.00  0.00    -0.374 OA
BRANCH   2   3
ATOM      3  C   UNL A   1      31.256  28.845  23.645  1.00  0.00     0.202 C 
BRANCH   3   4
ATOM      4  C   UNL A   1      31.968  27.490  23.722  1.00  0.00     0.261 C 
BRANCH   4   5
ATOM      5  O   UNL A   1      31.311  26.578  24.626  1.00  0.00    -0.463 OA
BRANCH   5   6
ATOM      6  C   UNL A   1      31.993  26.184  25.725  1.00  0.00     0.307 C 
ATOM      7  O   UNL A   1      31.548  26.189  26.867  1.00  0.00    -0.252 OA
BRANCH   6   8
ATOM      8  C   UNL A   1      33.433  25.825  25.426  1.00  0.00     0.139 C 
BRANCH   8   9
ATOM      9  C   UNL A   1      33.829  24.358  25.569  1.00  0.00     0.114 C 
BRANCH   9  10
ATOM     10  N   UNL A   1      32.990  23.456  24.796  1.00  0.00    -0.201 NA
ATOM     11  C   UNL A   1      33.194  20.370  25.295  1.00  0.00     0.010 C 
ATOM     12  C   UNL A   1      32.164  21.258  24.588  1.00  0.00     0.017 C 
ATOM     13  C   UNL A   1      31.965  22.583  25.356  1.00  0.00     0.106 C 
ATOM     14  C   UNL A   1      32.579  21.599  23.138  1.00  0.00     0.158 C 
ATOM     15  S   UNL A   1      33.042  23.320  23.129  1.00  0.00     0.214 S 
ATOM     16  O   UNL A   1      31.972  24.122  22.587  1.00  0.00    -0.212 OA
ATOM     17  O   UNL A   1      34.409  23.474  22.708  1.00  0.00    -0.212 OA
ENDBRANCH   9  10
ENDBRANCH   8   9
ENDBRANCH   6   8
ENDBRANCH   5   6
ENDBRANCH   4   5
ENDBRANCH   3   4
ENDBRANCH   2   3
ENDBRANCH   1   2
BRANCH   1  18
ATOM     18  C   UNL A   1      32.065  31.082  26.562  1.00  0.00     0.261 C 
BRANCH  18  19
ATOM     19  O   UNL A   1      32.965  30.998  27.682  1.00  0.00    -0.460 OA
BRANCH  19  20
ATOM     20  C   UNL A   1      33.846  32.014  27.808  1.00  0.00     0.338 C 
ATOM     21  O   UNL A   1      33.577  33.205  27.798  1.00  0.00    -0.246 OA
BRANCH  20  22
ATOM     22  C   UNL A   1      35.207  31.509  28.134  1.00  0.00     0.060 A 
ATOM     23  C   UNL A   1      35.357  30.121  28.250  1.00  0.00     0.016 A 
ATOM     24  C   UNL A   1      36.313  32.340  28.343  1.00  0.00     0.016 A 
ATOM     25  C   UNL A   1      36.575  29.567  28.652  1.00  0.00     0.010 A 
ATOM     26  C   UNL A   1      37.542  31.781  28.733  1.00  0.00     0.010 A 
ATOM     27  C   UNL A   1      37.666  30.395  28.943  1.00  0.00    -0.014 A 
BRANCH  27  28
ATOM     28  C   UNL A   1      38.863  29.810  29.614  1.00  0.00     0.031 A 
ATOM     29  C   UNL A   1      39.243  30.289  30.994  1.00  0.00     0.074 A 
ATOM     30  C   UNL A   1      39.587  28.829  29.041  1.00  0.00     0.049 A 
ATOM     31  N   UNL A   1      40.213  29.884  31.775  1.00  0.00    -0.248 NA
ATOM     32  C   UNL A   1      38.422  31.366  31.570  1.00  0.00     0.031 C 
ATOM     33  C   UNL A   1      39.345  28.265  27.714  1.00  0.00     0.029 A 
ATOM     34  N   UNL A   1      40.685  28.144  29.503  1.00  0.00    -0.354 N 
ATOM     35  C   UNL A   1      40.140  30.677  32.915  1.00  0.00     0.074 A 
ATOM     36  C   UNL A   1      39.043  31.600  32.716  1.00  0.00     0.031 C 
ATOM     37  C   UNL A   1      40.282  27.334  27.461  1.00  0.00     0.029 A 
ATOM     38  C   UNL A   1      41.201  27.249  28.595  1.00  0.00     0.049 A 
ATOM     39  H   UNL A   1      41.067  28.281  30.401  1.00  0.00     0.167 HD
ATOM     40  C   UNL A   1      40.897  30.634  34.038  1.00  0.00     0.034 A 
ATOM     41  C   UNL A   1      42.297  26.463  28.660  1.00  0.00     0.034 A 
ATOM     42  C   UNL A   1      41.971  29.704  34.263  1.00  0.00     0.049 A 
ATOM     43  C   UNL A   1      43.135  26.439  29.913  1.00  0.00     0.074 A 
ATOM     44  C   UNL A   1      42.744  29.545  35.401  1.00  0.00     0.029 A 
ATOM     45  N   UNL A   1      42.440  28.791  33.333  1.00  0.00    -0.354 N 
ATOM     46  N   UNL A   1      42.963  27.095  31.034  1.00  0.00    -0.248 NA
ATOM     47  C   UNL A   1      44.297  25.536  29.925  1.00  0.00     0.031 C 
ATOM     48  C   UNL A   1      43.707  28.564  35.143  1.00  0.00     0.029 A 
ATOM     49  C   UNL A   1      43.505  28.081  33.861  1.00  0.00     0.049 A 
ATOM     50  H   UNL A   1      42.070  28.665  32.430  1.00  0.00     0.167 HD
ATOM     51  C   UNL A   1      43.970  26.662  31.892  1.00  0.00     0.074 A 
ATOM     52  C   UNL A   1      44.736  25.669  31.169  1.00  0.00     0.031 C 
ATOM     53  C   UNL A   1      44.240  27.058  33.161  1.00  0.00     0.034 A 
BRANCH  40  54
ATOM     54  C   UNL A   1      40.578  31.622  35.131  1.00  0.00     0.023 A 
ATOM     55  C   UNL A   1      41.396  32.756  35.314  1.00  0.00     0.012 A 
ATOM     56  C   UNL A   1      39.437  31.454  35.942  1.00  0.00     0.148 A 
ATOM     57  C   UNL A   1      41.107  33.684  36.313  1.00  0.00     0.002 A 
ATOM     58  C   UNL A   1      39.130  32.409  36.902  1.00  0.00     0.091 A 
ATOM     59  F   UNL A   1      38.683  30.360  35.764  1.00  0.00    -0.205 F 
ATOM     60  C   UNL A   1      39.969  33.516  37.099  1.00  0.00     0.022 A 
BRANCH  58  61
ATOM     61  S   UNL A   1      37.640  32.327  37.903  1.00  0.00     0.127 S 
ATOM     62  O   UNL A   1      38.034  33.097  39.081  1.00  0.00    -0.237 OA
ATOM     63  O   UNL A   1      36.656  32.987  37.045  1.00  0.00    -0.237 OA
ATOM     64  O   UNL A   1      37.390  30.911  38.135  1.00  0.00    -0.744 OA
ENDBRANCH  58  61
ENDBRANCH  40  54
BRANCH  41  65
ATOM     65  C   UNL A   1      42.663  25.608  27.493  1.00  0.00     0.023 A 
ATOM     66  C   UNL A   1      43.497  26.117  26.479  1.00  0.00     0.012 A 
ATOM     67  C   UNL A   1      42.192  24.284  27.394  1.00  0.00     0.148 A 
ATOM     68  C   UNL A   1      43.829  25.334  25.372  1.00  0.00     0.002 A 
ATOM     69  C   UNL A   1      42.576  23.489  26.322  1.00  0.00     0.091 A 
ATOM     70  F   UNL A   1      41.384  23.824  28.360  1.00  0.00    -0.205 F 
ATOM     71  C   UNL A   1      43.378  24.018  25.299  1.00  0.00     0.022 A 
BRANCH  69  72
ATOM     72  S   UNL A   1      42.163  21.744  26.222  1.00  0.00     0.127 S 
ATOM     73  O   UNL A   1      40.731  21.791  25.936  1.00  0.00    -0.237 OA
ATOM     74  O   UNL A   1      43.002  21.302  25.108  1.00  0.00    -0.237 OA
ATOM     75  O   UNL A   1      42.532  21.176  27.511  1.00  0.00    -0.744 OA
ENDBRANCH  69  72
ENDBRANCH  41  65
BRANCH  53  76
ATOM     76  C   UNL A   1      45.389  26.399  33.884  1.00  0.00     0.023 A 
ATOM     77  C   UNL A   1      46.683  26.951  33.806  1.00  0.00     0.012 A 
ATOM     78  C   UNL A   1      45.169  25.274  34.707  1.00  0.00     0.148 A 
ATOM     79  C   UNL A   1      47.745  26.375  34.506  1.00  0.00     0.002 A 
ATOM     80  C   UNL A   1      46.221  24.738  35.441  1.00  0.00     0.091 A 
ATOM     81  F   UNL A   1      43.935  24.752  34.759  1.00  0.00    -0.205 F 
ATOM     82  C   UNL A   1      47.512  25.278  35.332  1.00  0.00     0.022 A 
BRANCH  80  83
ATOM     83  S   UNL A   1      45.997  23.386  36.604  1.00  0.00     0.127 S 
ATOM     84  O   UNL A   1      47.360  23.188  37.096  1.00  0.00    -0.237 OA
ATOM     85  O   UNL A   1      45.074  23.966  37.581  1.00  0.00    -0.237 OA
ATOM     86  O   UNL A   1      45.447  22.279  35.834  1.00  0.00    -0.744 OA
ENDBRANCH  80  83
ENDBRANCH  53  76
ENDBRANCH  27  28
ENDBRANCH  20  22
ENDBRANCH  19  20
ENDBRANCH  18  19
ENDBRANCH   1  18
TORSDOF 19
ENDMDL
