MODEL 1
REMARK VINA RESULT:     -11.7      0.000      0.000
REMARK SMILES Cc1cc(Cl)cc2c1O[C@H](C(F)(F)F)C(C(=O)OCCOCCOC(=O)c1ccc(-c3c4nc(c(-c5cccc(S(=O)(=O)[O-])c5F)c5ccc([nH]5)c(-c5cccc(S(=O)(=O)[O-])c5F)c5nc(c(-c6cccc(S(=O)(=O)[O-])c6F)c6ccc3[nH]6)C=C5)C=C4)cc1)=C2
REMARK SMILES IDX 22 1 21 2 20 3 19 4 18 5 16 6 17 7 15 8 1 9 2 10 3 11 8 12
REMARK SMILES IDX 4 13 7 14 9 15 5 16 6 17 90 18 10 19 11 20 12 21 13 22 14 23
REMARK SMILES IDX 23 24 24 25 25 26 26 27 27 28 28 29 89 30 29 31 88 32 30 33
REMARK SMILES IDX 31 34 32 35 82 36 33 37 87 38 81 39 83 40 34 41 86 42 80 43
REMARK SMILES IDX 79 44 35 46 67 47 47 48 66 49 48 50 51 51 65 52 84 53 49 54
REMARK SMILES IDX 50 55 64 57 85 58 52 59 36 60 37 61 45 62 38 63 40 64 46 65
REMARK SMILES IDX 39 66 41 67 42 68 43 69 44 70 68 71 69 72 77 73 70 74 72 75
REMARK SMILES IDX 78 76 71 77 73 78 74 79 75 80 76 81 53 82 54 83 62 84 55 85
REMARK SMILES IDX 57 86 63 87 56 88 58 89 59 90 60 91 61 92
REMARK H PARENT 83 45 51 56
REMARK Flexibility Score: inf
ROOT
ATOM      1  C   UNL A   1      31.770  29.322  25.480  1.00  0.00     0.202 C 
ENDROOT
BRANCH   1   2
ATOM      2  O   UNL A   1      31.496  29.081  24.098  1.00  0.00    -0.374 OA
BRANCH   2   3
ATOM      3  C   UNL A   1      30.682  27.955  23.770  1.00  0.00     0.202 C 
BRANCH   3   4
ATOM      4  C   UNL A   1      30.876  27.342  22.380  1.00  0.00     0.261 C 
BRANCH   4   5
ATOM      5  O   UNL A   1      31.337  25.984  22.457  1.00  0.00    -0.460 OA
BRANCH   5   6
ATOM      6  C   UNL A   1      32.609  25.798  22.037  1.00  0.00     0.338 C 
ATOM      7  O   UNL A   1      33.241  26.508  21.270  1.00  0.00    -0.246 OA
BRANCH   6   8
ATOM      8  C   UNL A   1      33.213  24.657  22.754  1.00  0.00     0.087 C 
ATOM      9  C   UNL A   1      35.536  21.570  26.122  1.00  0.00     0.048 C 
ATOM     10  C   UNL A   1      34.496  21.415  25.048  1.00  0.00    -0.007 A 
ATOM     11  C   UNL A   1      33.877  20.168  24.864  1.00  0.00     0.027 A 
ATOM     12  C   UNL A   1      34.142  22.485  24.210  1.00  0.00     0.131 A 
ATOM     13  C   UNL A   1      32.909  20.002  23.876  1.00  0.00     0.042 A 
ATOM     14  C   UNL A   1      33.140  22.320  23.248  1.00  0.00     0.019 A 
ATOM     15  O   UNL A   1      34.826  23.658  24.370  1.00  0.00    -0.475 OA
ATOM     16  Cl  UNL A   1      32.152  18.471  23.665  1.00  0.00    -0.084 Cl
ATOM     17  C   UNL A   1      32.534  21.072  23.071  1.00  0.00     0.032 A 
ATOM     18  C   UNL A   1      32.681  23.460  22.479  1.00  0.00     0.027 C 
ATOM     19  C   UNL A   1      34.328  24.872  23.740  1.00  0.00     0.316 C 
BRANCH  19  20
ATOM     20  C   UNL A   1      33.955  25.870  24.846  1.00  0.00     0.430 C 
ATOM     21  F   UNL A   1      32.677  25.689  25.255  1.00  0.00    -0.167 F 
ATOM     22  F   UNL A   1      34.745  25.730  25.934  1.00  0.00    -0.167 F 
ATOM     23  F   UNL A   1      34.070  27.150  24.422  1.00  0.00    -0.167 F 
ENDBRANCH  19  20
ENDBRANCH   6   8
ENDBRANCH   5   6
ENDBRANCH   4   5
ENDBRANCH   3   4
ENDBRANCH   2   3
ENDBRANCH   1   2
BRANCH   1  24
ATOM     24  C   UNL A   1      31.769  30.778  25.958  1.00  0.00     0.261 C 
BRANCH  24  25
ATOM     25  O   UNL A   1      32.373  30.930  27.255  1.00  0.00    -0.460 OA
BRANCH  25  26
ATOM     26  C   UNL A   1      33.202  31.996  27.374  1.00  0.00     0.338 C 
ATOM     27  O   UNL A   1      32.891  33.179  27.331  1.00  0.00    -0.246 OA
BRANCH  26  28
ATOM     28  C   UNL A   1      34.548  31.546  27.765  1.00  0.00     0.060 A 
ATOM     29  C   UNL A   1      34.745  30.173  27.956  1.00  0.00     0.016 A 
ATOM     30  C   UNL A   1      35.575  32.457  28.027  1.00  0.00     0.016 A 
ATOM     31  C   UNL A   1      35.959  29.706  28.453  1.00  0.00     0.010 A 
ATOM     32  C   UNL A   1      36.789  31.985  28.539  1.00  0.00     0.010 A 
ATOM     33  C   UNL A   1      36.972  30.613  28.788  1.00  0.00    -0.014 A 
BRANCH  33  34
ATOM     34  C   UNL A   1      38.158  30.132  29.536  1.00  0.00     0.031 A 
ATOM     35  C   UNL A   1      38.389  30.636  30.935  1.00  0.00     0.074 A 
ATOM     36  C   UNL A   1      38.997  29.233  28.991  1.00  0.00     0.049 A 
ATOM     37  N   UNL A   1      39.350  30.340  31.770  1.00  0.00    -0.248 NA
ATOM     38  C   UNL A   1      37.405  31.594  31.466  1.00  0.00     0.031 C 
ATOM     39  C   UNL A   1      38.861  28.657  27.654  1.00  0.00     0.029 A 
ATOM     40  N   UNL A   1      40.134  28.653  29.494  1.00  0.00    -0.354 N 
ATOM     41  C   UNL A   1      39.094  31.079  32.920  1.00  0.00     0.074 A 
ATOM     42  C   UNL A   1      37.901  31.856  32.668  1.00  0.00     0.031 C 
ATOM     43  C   UNL A   1      39.885  27.813  27.437  1.00  0.00     0.029 A 
ATOM     44  C   UNL A   1      40.758  27.805  28.609  1.00  0.00     0.049 A 
ATOM     45  H   UNL A   1      40.472  28.829  30.402  1.00  0.00     0.167 HD
ATOM     46  C   UNL A   1      39.777  31.089  34.088  1.00  0.00     0.034 A 
ATOM     47  C   UNL A   1      41.908  27.110  28.731  1.00  0.00     0.034 A 
ATOM     48  C   UNL A   1      40.951  30.300  34.342  1.00  0.00     0.049 A 
ATOM     49  C   UNL A   1      42.679  27.185  30.025  1.00  0.00     0.074 A 
ATOM     50  C   UNL A   1      41.699  30.228  35.504  1.00  0.00     0.029 A 
ATOM     51  N   UNL A   1      41.551  29.452  33.426  1.00  0.00    -0.354 N 
ATOM     52  N   UNL A   1      42.369  27.809  31.136  1.00  0.00    -0.248 NA
ATOM     53  C   UNL A   1      43.945  26.439  30.093  1.00  0.00     0.031 C 
ATOM     54  C   UNL A   1      42.765  29.352  35.282  1.00  0.00     0.029 A 
ATOM     55  C   UNL A   1      42.667  28.860  33.990  1.00  0.00     0.049 A 
ATOM     56  H   UNL A   1      41.231  29.295  32.507  1.00  0.00     0.167 HD
ATOM     57  C   UNL A   1      43.382  27.507  32.041  1.00  0.00     0.074 A 
ATOM     58  C   UNL A   1      44.303  26.624  31.357  1.00  0.00     0.031 C 
ATOM     59  C   UNL A   1      43.545  27.937  33.317  1.00  0.00     0.034 A 
BRANCH  46  60
ATOM     60  C   UNL A   1      39.246  31.940  35.210  1.00  0.00     0.023 A 
ATOM     61  C   UNL A   1      38.298  31.393  36.098  1.00  0.00     0.012 A 
ATOM     62  C   UNL A   1      39.758  33.231  35.450  1.00  0.00     0.148 A 
ATOM     63  C   UNL A   1      37.856  32.123  37.201  1.00  0.00     0.002 A 
ATOM     64  C   UNL A   1      39.343  33.936  36.573  1.00  0.00     0.091 A 
ATOM     65  F   UNL A   1      40.644  33.736  34.582  1.00  0.00    -0.205 F 
ATOM     66  C   UNL A   1      38.387  33.387  37.445  1.00  0.00     0.022 A 
BRANCH  64  67
ATOM     67  S   UNL A   1      40.021  35.537  37.024  1.00  0.00     0.127 S 
ATOM     68  O   UNL A   1      39.642  36.353  35.871  1.00  0.00    -0.237 OA
ATOM     69  O   UNL A   1      39.291  35.843  38.255  1.00  0.00    -0.237 OA
ATOM     70  O   UNL A   1      41.453  35.335  37.195  1.00  0.00    -0.744 OA
ENDBRANCH  64  67
ENDBRANCH  46  60
BRANCH  47  71
ATOM     71  C   UNL A   1      42.376  26.238  27.615  1.00  0.00     0.023 A 
ATOM     72  C   UNL A   1      43.297  26.749  26.680  1.00  0.00     0.012 A 
ATOM     73  C   UNL A   1      41.934  24.907  27.485  1.00  0.00     0.148 A 
ATOM     74  C   UNL A   1      43.751  25.959  25.622  1.00  0.00     0.002 A 
ATOM     75  C   UNL A   1      42.432  24.107  26.462  1.00  0.00     0.091 A 
ATOM     76  F   UNL A   1      41.039  24.444  28.370  1.00  0.00    -0.205 F 
ATOM     77  C   UNL A   1      43.327  24.636  25.520  1.00  0.00     0.022 A 
BRANCH  75  78
ATOM     78  S   UNL A   1      42.043  22.359  26.330  1.00  0.00     0.127 S 
ATOM     79  O   UNL A   1      42.812  21.969  25.151  1.00  0.00    -0.237 OA
ATOM     80  O   UNL A   1      42.555  21.840  27.599  1.00  0.00    -0.237 OA
ATOM     81  O   UNL A   1      40.595  22.289  26.195  1.00  0.00    -0.744 OA
ENDBRANCH  75  78
ENDBRANCH  47  71
BRANCH  59  82
ATOM     82  C   UNL A   1      44.753  27.460  34.081  1.00  0.00     0.023 A 
ATOM     83  C   UNL A   1      45.918  28.251  34.099  1.00  0.00     0.012 A 
ATOM     84  C   UNL A   1      44.691  26.301  34.880  1.00  0.00     0.148 A 
ATOM     85  C   UNL A   1      47.010  27.887  34.885  1.00  0.00     0.002 A 
ATOM     86  C   UNL A   1      45.765  25.970  35.700  1.00  0.00     0.091 A 
ATOM     87  F   UNL A   1      43.577  25.554  34.839  1.00  0.00    -0.205 F 
ATOM     88  C   UNL A   1      46.928  26.757  35.695  1.00  0.00     0.022 A 
BRANCH  86  89
ATOM     89  S   UNL A   1      45.712  24.597  36.857  1.00  0.00     0.127 S 
ATOM     90  O   UNL A   1      44.557  24.946  37.681  1.00  0.00    -0.237 OA
ATOM     91  O   UNL A   1      45.506  23.452  35.970  1.00  0.00    -0.237 OA
ATOM     92  O   UNL A   1      46.994  24.603  37.550  1.00  0.00    -0.744 OA
ENDBRANCH  86  89
ENDBRANCH  59  82
ENDBRANCH  33  34
ENDBRANCH  26  28
ENDBRANCH  25  26
ENDBRANCH  24  25
ENDBRANCH   1  24
TORSDOF 18
ENDMDL
MODEL 2
REMARK VINA RESULT:     -11.5      2.856      8.446
REMARK SMILES Cc1cc(Cl)cc2c1O[C@H](C(F)(F)F)C(C(=O)OCCOCCOC(=O)c1ccc(-c3c4nc(c(-c5cccc(S(=O)(=O)[O-])c5F)c5ccc([nH]5)c(-c5cccc(S(=O)(=O)[O-])c5F)c5nc(c(-c6cccc(S(=O)(=O)[O-])c6F)c6ccc3[nH]6)C=C5)C=C4)cc1)=C2
REMARK SMILES IDX 22 1 21 2 20 3 19 4 18 5 16 6 17 7 15 8 1 9 2 10 3 11 8 12
REMARK SMILES IDX 4 13 7 14 9 15 5 16 6 17 90 18 10 19 11 20 12 21 13 22 14 23
REMARK SMILES IDX 23 24 24 25 25 26 26 27 27 28 28 29 89 30 29 31 88 32 30 33
REMARK SMILES IDX 31 34 32 35 82 36 33 37 87 38 81 39 83 40 34 41 86 42 80 43
REMARK SMILES IDX 79 44 35 46 67 47 47 48 66 49 48 50 51 51 65 52 84 53 49 54
REMARK SMILES IDX 50 55 64 57 85 58 52 59 36 60 37 61 45 62 38 63 40 64 46 65
REMARK SMILES IDX 39 66 41 67 42 68 43 69 44 70 68 71 69 72 77 73 70 74 72 75
REMARK SMILES IDX 78 76 71 77 73 78 74 79 75 80 76 81 53 82 54 83 62 84 55 85
REMARK SMILES IDX 57 86 63 87 56 88 58 89 59 90 60 91 61 92
REMARK H PARENT 83 45 51 56
REMARK Flexibility Score: inf
ROOT
ATOM      1  C   UNL A   1      31.633  31.181  26.118  1.00  0.00     0.202 C 
ENDROOT
BRANCH   1   2
ATOM      2  O   UNL A   1      32.113  29.922  26.595  1.00  0.00    -0.374 OA
BRANCH   2   3
ATOM      3  C   UNL A   1      33.513  29.665  26.494  1.00  0.00     0.202 C 
BRANCH   3   4
ATOM      4  C   UNL A   1      33.928  28.316  25.899  1.00  0.00     0.261 C 
BRANCH   4   5
ATOM      5  O   UNL A   1      33.747  28.285  24.474  1.00  0.00    -0.460 OA
BRANCH   5   6
ATOM      6  C   UNL A   1      33.136  27.173  24.009  1.00  0.00     0.338 C 
ATOM      7  O   UNL A   1      33.605  26.046  23.950  1.00  0.00    -0.246 OA
BRANCH   6   8
ATOM      8  C   UNL A   1      31.725  27.471  23.692  1.00  0.00     0.087 C 
ATOM      9  C   UNL A   1      26.616  27.878  23.661  1.00  0.00     0.048 C 
ATOM     10  C   UNL A   1      27.770  28.682  23.132  1.00  0.00    -0.007 A 
ATOM     11  C   UNL A   1      27.522  29.915  22.507  1.00  0.00     0.027 A 
ATOM     12  C   UNL A   1      29.093  28.220  23.231  1.00  0.00     0.131 A 
ATOM     13  C   UNL A   1      28.577  30.678  22.011  1.00  0.00     0.042 A 
ATOM     14  C   UNL A   1      30.149  29.011  22.767  1.00  0.00     0.019 A 
ATOM     15  O   UNL A   1      29.284  26.980  23.775  1.00  0.00    -0.475 OA
ATOM     16  Cl  UNL A   1      28.260  32.190  21.253  1.00  0.00    -0.084 Cl
ATOM     17  C   UNL A   1      29.888  30.235  22.142  1.00  0.00     0.032 A 
ATOM     18  C   UNL A   1      31.519  28.595  22.995  1.00  0.00     0.027 C 
ATOM     19  C   UNL A   1      30.623  26.562  24.162  1.00  0.00     0.316 C 
BRANCH  19  20
ATOM     20  C   UNL A   1      30.640  26.350  25.683  1.00  0.00     0.430 C 
ATOM     21  F   UNL A   1      29.452  25.873  26.122  1.00  0.00    -0.167 F 
ATOM     22  F   UNL A   1      31.588  25.461  26.054  1.00  0.00    -0.167 F 
ATOM     23  F   UNL A   1      30.885  27.505  26.343  1.00  0.00    -0.167 F 
ENDBRANCH  19  20
ENDBRANCH   6   8
ENDBRANCH   5   6
ENDBRANCH   4   5
ENDBRANCH   3   4
ENDBRANCH   2   3
ENDBRANCH   1   2
BRANCH   1  24
ATOM     24  C   UNL A   1      31.660  32.364  27.092  1.00  0.00     0.261 C 
BRANCH  24  25
ATOM     25  O   UNL A   1      32.788  33.231  26.869  1.00  0.00    -0.460 OA
BRANCH  25  26
ATOM     26  C   UNL A   1      33.311  33.781  27.992  1.00  0.00     0.338 C 
ATOM     27  O   UNL A   1      32.803  34.643  28.696  1.00  0.00    -0.246 OA
BRANCH  26  28
ATOM     28  C   UNL A   1      34.531  33.057  28.386  1.00  0.00     0.060 A 
ATOM     29  C   UNL A   1      34.374  31.829  29.041  1.00  0.00     0.016 A 
ATOM     30  C   UNL A   1      35.800  33.609  28.202  1.00  0.00     0.016 A 
ATOM     31  C   UNL A   1      35.486  31.165  29.553  1.00  0.00     0.010 A 
ATOM     32  C   UNL A   1      36.915  32.946  28.729  1.00  0.00     0.010 A 
ATOM     33  C   UNL A   1      36.757  31.742  29.438  1.00  0.00    -0.014 A 
BRANCH  33  34
ATOM     34  C   UNL A   1      37.891  31.155  30.191  1.00  0.00     0.031 A 
ATOM     35  C   UNL A   1      38.747  30.111  29.524  1.00  0.00     0.074 A 
ATOM     36  C   UNL A   1      38.176  31.571  31.438  1.00  0.00     0.049 A 
ATOM     37  N   UNL A   1      39.790  29.478  29.991  1.00  0.00    -0.248 NA
ATOM     38  C   UNL A   1      38.383  29.737  28.147  1.00  0.00     0.031 C 
ATOM     39  C   UNL A   1      37.434  32.591  32.177  1.00  0.00     0.029 A 
ATOM     40  N   UNL A   1      39.165  31.180  32.306  1.00  0.00    -0.354 N 
ATOM     41  C   UNL A   1      40.202  28.625  28.974  1.00  0.00     0.074 A 
ATOM     42  C   UNL A   1      39.284  28.804  27.872  1.00  0.00     0.031 C 
ATOM     43  C   UNL A   1      37.986  32.737  33.394  1.00  0.00     0.029 A 
ATOM     44  C   UNL A   1      39.106  31.808  33.528  1.00  0.00     0.049 A 
ATOM     45  H   UNL A   1      39.850  30.511  32.076  1.00  0.00     0.167 HD
ATOM     46  C   UNL A   1      41.266  27.789  28.952  1.00  0.00     0.034 A 
ATOM     47  C   UNL A   1      39.866  31.643  34.631  1.00  0.00     0.034 A 
ATOM     48  C   UNL A   1      42.188  27.628  30.041  1.00  0.00     0.049 A 
ATOM     49  C   UNL A   1      41.010  30.661  34.595  1.00  0.00     0.074 A 
ATOM     50  C   UNL A   1      43.309  26.819  30.101  1.00  0.00     0.029 A 
ATOM     51  N   UNL A   1      42.100  28.282  31.259  1.00  0.00    -0.354 N 
ATOM     52  N   UNL A   1      41.447  29.938  33.592  1.00  0.00    -0.248 NA
ATOM     53  C   UNL A   1      41.783  30.491  35.835  1.00  0.00     0.031 C 
ATOM     54  C   UNL A   1      43.886  26.968  31.366  1.00  0.00     0.029 A 
ATOM     55  C   UNL A   1      43.138  27.888  32.083  1.00  0.00     0.049 A 
ATOM     56  H   UNL A   1      41.400  28.932  31.502  1.00  0.00     0.167 HD
ATOM     57  C   UNL A   1      42.560  29.253  34.069  1.00  0.00     0.074 A 
ATOM     58  C   UNL A   1      42.746  29.666  35.444  1.00  0.00     0.031 C 
ATOM     59  C   UNL A   1      43.346  28.349  33.432  1.00  0.00     0.034 A 
BRANCH  46  60
ATOM     60  C   UNL A   1      41.530  27.015  27.688  1.00  0.00     0.023 A 
ATOM     61  C   UNL A   1      42.078  27.683  26.574  1.00  0.00     0.012 A 
ATOM     62  C   UNL A   1      41.338  25.620  27.635  1.00  0.00     0.148 A 
ATOM     63  C   UNL A   1      42.419  26.977  25.421  1.00  0.00     0.002 A 
ATOM     64  C   UNL A   1      41.719  24.918  26.498  1.00  0.00     0.091 A 
ATOM     65  F   UNL A   1      40.799  25.010  28.699  1.00  0.00    -0.205 F 
ATOM     66  C   UNL A   1      42.252  25.596  25.388  1.00  0.00     0.022 A 
BRANCH  64  67
ATOM     67  S   UNL A   1      41.620  23.128  26.380  1.00  0.00     0.127 S 
ATOM     68  O   UNL A   1      42.287  22.714  27.614  1.00  0.00    -0.237 OA
ATOM     69  O   UNL A   1      40.174  22.902  26.362  1.00  0.00    -0.237 OA
ATOM     70  O   UNL A   1      42.311  22.765  25.150  1.00  0.00    -0.744 OA
ENDBRANCH  64  67
ENDBRANCH  46  60
BRANCH  47  71
ATOM     71  C   UNL A   1      39.604  32.465  35.848  1.00  0.00     0.023 A 
ATOM     72  C   UNL A   1      40.257  33.703  35.998  1.00  0.00     0.012 A 
ATOM     73  C   UNL A   1      38.703  32.039  36.843  1.00  0.00     0.148 A 
ATOM     74  C   UNL A   1      40.036  34.493  37.128  1.00  0.00     0.002 A 
ATOM     75  C   UNL A   1      38.445  32.855  37.940  1.00  0.00     0.091 A 
ATOM     76  F   UNL A   1      38.108  30.847  36.696  1.00  0.00    -0.205 F 
ATOM     77  C   UNL A   1      39.122  34.074  38.092  1.00  0.00     0.022 A 
BRANCH  75  78
ATOM     78  S   UNL A   1      37.189  32.458  39.161  1.00  0.00     0.127 S 
ATOM     79  O   UNL A   1      37.481  33.424  40.217  1.00  0.00    -0.237 OA
ATOM     80  O   UNL A   1      35.954  32.712  38.417  1.00  0.00    -0.237 OA
ATOM     81  O   UNL A   1      37.405  31.059  39.504  1.00  0.00    -0.744 OA
ENDBRANCH  75  78
ENDBRANCH  47  71
BRANCH  59  82
ATOM     82  C   UNL A   1      44.495  27.742  34.195  1.00  0.00     0.023 A 
ATOM     83  C   UNL A   1      45.735  28.411  34.227  1.00  0.00     0.012 A 
ATOM     84  C   UNL A   1      44.311  26.586  34.981  1.00  0.00     0.148 A 
ATOM     85  C   UNL A   1      46.780  27.928  35.013  1.00  0.00     0.002 A 
ATOM     86  C   UNL A   1      45.342  26.139  35.800  1.00  0.00     0.091 A 
ATOM     87  F   UNL A   1      43.127  25.958  34.926  1.00  0.00    -0.205 F 
ATOM     88  C   UNL A   1      46.579  26.803  35.809  1.00  0.00     0.022 A 
BRANCH  86  89
ATOM     89  S   UNL A   1      45.144  24.765  36.941  1.00  0.00     0.127 S 
ATOM     90  O   UNL A   1      44.877  23.656  36.027  1.00  0.00    -0.237 OA
ATOM     91  O   UNL A   1      46.451  24.715  37.595  1.00  0.00    -0.237 OA
ATOM     92  O   UNL A   1      44.039  25.126  37.820  1.00  0.00    -0.744 OA
ENDBRANCH  86  89
ENDBRANCH  59  82
ENDBRANCH  33  34
ENDBRANCH  26  28
ENDBRANCH  25  26
ENDBRANCH  24  25
ENDBRANCH   1  24
TORSDOF 18
ENDMDL
MODEL 3
REMARK VINA RESULT:     -11.5      0.617      7.743
REMARK SMILES Cc1cc(Cl)cc2c1O[C@H](C(F)(F)F)C(C(=O)OCCOCCOC(=O)c1ccc(-c3c4nc(c(-c5cccc(S(=O)(=O)[O-])c5F)c5ccc([nH]5)c(-c5cccc(S(=O)(=O)[O-])c5F)c5nc(c(-c6cccc(S(=O)(=O)[O-])c6F)c6ccc3[nH]6)C=C5)C=C4)cc1)=C2
REMARK SMILES IDX 22 1 21 2 20 3 19 4 18 5 16 6 17 7 15 8 1 9 2 10 3 11 8 12
REMARK SMILES IDX 4 13 7 14 9 15 5 16 6 17 90 18 10 19 11 20 12 21 13 22 14 23
REMARK SMILES IDX 23 24 24 25 25 26 26 27 27 28 28 29 89 30 29 31 88 32 30 33
REMARK SMILES IDX 31 34 32 35 82 36 33 37 87 38 81 39 83 40 34 41 86 42 80 43
REMARK SMILES IDX 79 44 35 46 67 47 47 48 66 49 48 50 51 51 65 52 84 53 49 54
REMARK SMILES IDX 50 55 64 57 85 58 52 59 36 60 37 61 45 62 38 63 40 64 46 65
REMARK SMILES IDX 39 66 41 67 42 68 43 69 44 70 68 71 69 72 77 73 70 74 72 75
REMARK SMILES IDX 78 76 71 77 73 78 74 79 75 80 76 81 53 82 54 83 62 84 55 85
REMARK SMILES IDX 57 86 63 87 56 88 58 89 59 90 60 91 61 92
REMARK H PARENT 83 45 51 56
REMARK Flexibility Score: inf
ROOT
ATOM      1  C   UNL A   1      32.159  28.890  25.163  1.00  0.00     0.202 C 
ENDROOT
BRANCH   1   2
ATOM      2  O   UNL A   1      31.351  28.356  24.112  1.00  0.00    -0.374 OA
BRANCH   2   3
ATOM      3  C   UNL A   1      30.298  27.463  24.473  1.00  0.00     0.202 C 
BRANCH   3   4
ATOM      4  C   UNL A   1      29.936  26.374  23.459  1.00  0.00     0.261 C 
BRANCH   4   5
ATOM      5  O   UNL A   1      30.739  25.196  23.633  1.00  0.00    -0.460 OA
BRANCH   5   6
ATOM      6  C   UNL A   1      31.742  25.062  22.737  1.00  0.00     0.338 C 
ATOM      7  O   UNL A   1      31.976  25.787  21.781  1.00  0.00    -0.246 OA
BRANCH   6   8
ATOM      8  C   UNL A   1      32.640  23.965  23.149  1.00  0.00     0.087 C 
ATOM      9  C   UNL A   1      36.297  21.063  25.265  1.00  0.00     0.048 C 
ATOM     10  C   UNL A   1      34.909  20.840  24.734  1.00  0.00    -0.007 A 
ATOM     11  C   UNL A   1      34.323  19.569  24.848  1.00  0.00     0.027 A 
ATOM     12  C   UNL A   1      34.189  21.871  24.107  1.00  0.00     0.131 A 
ATOM     13  C   UNL A   1      33.036  19.341  24.365  1.00  0.00     0.042 A 
ATOM     14  C   UNL A   1      32.882  21.644  23.662  1.00  0.00     0.019 A 
ATOM     15  O   UNL A   1      34.825  23.070  23.945  1.00  0.00    -0.475 OA
ATOM     16  Cl  UNL A   1      32.327  17.780  24.517  1.00  0.00    -0.084 Cl
ATOM     17  C   UNL A   1      32.311  20.372  23.777  1.00  0.00     0.032 A 
ATOM     18  C   UNL A   1      32.093  22.744  23.143  1.00  0.00     0.027 C 
ATOM     19  C   UNL A   1      34.057  24.247  23.567  1.00  0.00     0.316 C 
BRANCH  19  20
ATOM     20  C   UNL A   1      34.144  25.267  24.712  1.00  0.00     0.430 C 
ATOM     21  F   UNL A   1      33.092  25.144  25.554  1.00  0.00    -0.167 F 
ATOM     22  F   UNL A   1      35.265  25.100  25.447  1.00  0.00    -0.167 F 
ATOM     23  F   UNL A   1      34.147  26.538  24.247  1.00  0.00    -0.167 F 
ENDBRANCH  19  20
ENDBRANCH   6   8
ENDBRANCH   5   6
ENDBRANCH   4   5
ENDBRANCH   3   4
ENDBRANCH   2   3
ENDBRANCH   1   2
BRANCH   1  24
ATOM     24  C   UNL A   1      31.817  30.294  25.674  1.00  0.00     0.261 C 
BRANCH  24  25
ATOM     25  O   UNL A   1      32.246  30.502  27.032  1.00  0.00    -0.460 OA
BRANCH  25  26
ATOM     26  C   UNL A   1      32.964  31.633  27.234  1.00  0.00     0.338 C 
ATOM     27  O   UNL A   1      32.550  32.784  27.206  1.00  0.00    -0.246 OA
BRANCH  26  28
ATOM     28  C   UNL A   1      34.321  31.293  27.695  1.00  0.00     0.060 A 
ATOM     29  C   UNL A   1      34.597  29.947  27.965  1.00  0.00     0.016 A 
ATOM     30  C   UNL A   1      35.276  32.281  27.946  1.00  0.00     0.016 A 
ATOM     31  C   UNL A   1      35.818  29.586  28.528  1.00  0.00     0.010 A 
ATOM     32  C   UNL A   1      36.497  31.916  28.524  1.00  0.00     0.010 A 
ATOM     33  C   UNL A   1      36.758  30.573  28.850  1.00  0.00    -0.014 A 
BRANCH  33  34
ATOM     34  C   UNL A   1      37.942  30.210  29.664  1.00  0.00     0.031 A 
ATOM     35  C   UNL A   1      38.966  29.272  29.083  1.00  0.00     0.074 A 
ATOM     36  C   UNL A   1      38.121  30.736  30.889  1.00  0.00     0.049 A 
ATOM     37  N   UNL A   1      40.076  28.832  29.613  1.00  0.00    -0.248 NA
ATOM     38  C   UNL A   1      38.706  28.768  27.724  1.00  0.00     0.031 C 
ATOM     39  C   UNL A   1      37.211  31.672  31.546  1.00  0.00     0.029 A 
ATOM     40  N   UNL A   1      39.129  30.550  31.803  1.00  0.00    -0.354 N 
ATOM     41  C   UNL A   1      40.645  27.994  28.660  1.00  0.00     0.074 A 
ATOM     42  C   UNL A   1      39.746  27.967  27.528  1.00  0.00     0.031 C 
ATOM     43  C   UNL A   1      37.696  31.970  32.764  1.00  0.00     0.029 A 
ATOM     44  C   UNL A   1      38.938  31.231  32.982  1.00  0.00     0.049 A 
ATOM     45  H   UNL A   1      39.914  29.981  31.630  1.00  0.00     0.167 HD
ATOM     46  C   UNL A   1      41.822  27.329  28.714  1.00  0.00     0.034 A 
ATOM     47  C   UNL A   1      39.677  31.248  34.109  1.00  0.00     0.034 A 
ATOM     48  C   UNL A   1      42.723  27.374  29.832  1.00  0.00     0.049 A 
ATOM     49  C   UNL A   1      40.957  30.450  34.161  1.00  0.00     0.074 A 
ATOM     50  C   UNL A   1      43.950  26.749  29.968  1.00  0.00     0.029 A 
ATOM     51  N   UNL A   1      42.498  28.076  31.005  1.00  0.00    -0.354 N 
ATOM     52  N   UNL A   1      41.529  29.745  33.215  1.00  0.00    -0.248 NA
ATOM     53  C   UNL A   1      41.706  30.471  35.426  1.00  0.00     0.031 C 
ATOM     54  C   UNL A   1      44.457  27.056  31.234  1.00  0.00     0.029 A 
ATOM     55  C   UNL A   1      43.557  27.892  31.876  1.00  0.00     0.049 A 
ATOM     56  H   UNL A   1      41.701  28.624  31.191  1.00  0.00     0.167 HD
ATOM     57  C   UNL A   1      42.716  29.266  33.759  1.00  0.00     0.074 A 
ATOM     58  C   UNL A   1      42.794  29.781  35.110  1.00  0.00     0.031 C 
ATOM     59  C   UNL A   1      43.649  28.457  33.198  1.00  0.00     0.034 A 
BRANCH  46  60
ATOM     60  C   UNL A   1      42.240  26.532  27.507  1.00  0.00     0.023 A 
ATOM     61  C   UNL A   1      43.030  27.149  26.516  1.00  0.00     0.012 A 
ATOM     62  C   UNL A   1      41.944  25.159  27.403  1.00  0.00     0.148 A 
ATOM     63  C   UNL A   1      43.510  26.414  25.433  1.00  0.00     0.002 A 
ATOM     64  C   UNL A   1      42.460  24.424  26.342  1.00  0.00     0.091 A 
ATOM     65  F   UNL A   1      41.175  24.599  28.347  1.00  0.00    -0.205 F 
ATOM     66  C   UNL A   1      43.236  25.051  25.353  1.00  0.00     0.022 A 
BRANCH  64  67
ATOM     67  S   UNL A   1      42.233  22.649  26.186  1.00  0.00     0.127 S 
ATOM     68  O   UNL A   1      40.776  22.533  26.220  1.00  0.00    -0.237 OA
ATOM     69  O   UNL A   1      42.837  22.377  24.880  1.00  0.00    -0.237 OA
ATOM     70  O   UNL A   1      42.929  22.052  27.318  1.00  0.00    -0.744 OA
ENDBRANCH  64  67
ENDBRANCH  46  60
BRANCH  47  71
ATOM     71  C   UNL A   1      39.257  32.089  35.267  1.00  0.00     0.023 A 
ATOM     72  C   UNL A   1      38.386  31.548  36.233  1.00  0.00     0.012 A 
ATOM     73  C   UNL A   1      39.726  33.407  35.428  1.00  0.00     0.148 A 
ATOM     74  C   UNL A   1      37.971  32.311  37.326  1.00  0.00     0.002 A 
ATOM     75  C   UNL A   1      39.353  34.144  36.548  1.00  0.00     0.091 A 
ATOM     76  F   UNL A   1      40.535  33.914  34.487  1.00  0.00    -0.205 F 
ATOM     77  C   UNL A   1      38.463  33.604  37.489  1.00  0.00     0.022 A 
BRANCH  75  78
ATOM     78  S   UNL A   1      40.039  35.765  36.906  1.00  0.00     0.127 S 
ATOM     79  O   UNL A   1      39.367  36.105  38.157  1.00  0.00    -0.237 OA
ATOM     80  O   UNL A   1      41.466  35.466  37.034  1.00  0.00    -0.237 OA
ATOM     81  O   UNL A   1      39.701  36.595  35.759  1.00  0.00    -0.744 OA
ENDBRANCH  75  78
ENDBRANCH  47  71
BRANCH  59  82
ATOM     82  C   UNL A   1      44.851  28.076  34.023  1.00  0.00     0.023 A 
ATOM     83  C   UNL A   1      45.978  28.922  34.037  1.00  0.00     0.012 A 
ATOM     84  C   UNL A   1      44.816  26.957  34.879  1.00  0.00     0.148 A 
ATOM     85  C   UNL A   1      47.058  28.650  34.875  1.00  0.00     0.002 A 
ATOM     86  C   UNL A   1      45.875  26.720  35.748  1.00  0.00     0.091 A 
ATOM     87  F   UNL A   1      43.740  26.158  34.841  1.00  0.00    -0.205 F 
ATOM     88  C   UNL A   1      47.001  27.560  35.739  1.00  0.00     0.022 A 
BRANCH  86  89
ATOM     89  S   UNL A   1      45.847  25.406  36.973  1.00  0.00     0.127 S 
ATOM     90  O   UNL A   1      44.648  25.740  37.740  1.00  0.00    -0.237 OA
ATOM     91  O   UNL A   1      45.726  24.210  36.141  1.00  0.00    -0.237 OA
ATOM     92  O   UNL A   1      47.103  25.510  37.705  1.00  0.00    -0.744 OA
ENDBRANCH  86  89
ENDBRANCH  59  82
ENDBRANCH  33  34
ENDBRANCH  26  28
ENDBRANCH  25  26
ENDBRANCH  24  25
ENDBRANCH   1  24
TORSDOF 18
ENDMDL
