MODEL 1
REMARK VINA RESULT:     -10.2      0.000      0.000
REMARK SMILES COc1cc(N[C@H]2C=C[C@@H](C(=O)OCCOCCOC(=O)c3ccc(-c4c5nc(c(-c6cccc(S(=O)(=O)[O-])c6F)c6ccc([nH]6)c(-c6cccc(S(=O)(=O)[O-])c6F)c6nc(c(-c7cccc(S(=O)(=O)[O-])c7F)c7ccc4[nH]7)C=C6)C=C5)cc3)C2)c([N+](=O)[O-])cc1F
REMARK SMILES IDX 16 1 15 2 14 3 13 4 11 5 12 6 10 7 7 8 8 9 85 10 9 11 6 12
REMARK SMILES IDX 5 14 3 15 4 16 91 17 90 18 92 19 86 20 2 21 1 22 87 23 88 24
REMARK SMILES IDX 89 25 17 26 18 27 19 28 20 29 21 30 22 31 23 32 84 33 24 34
REMARK SMILES IDX 83 35 25 36 26 37 27 38 77 39 28 40 82 41 76 42 78 43 29 44
REMARK SMILES IDX 81 45 75 46 74 47 30 49 62 50 42 51 61 52 43 53 46 54 60 55
REMARK SMILES IDX 79 56 44 57 45 58 59 60 80 61 47 62 31 63 32 64 40 65 33 66
REMARK SMILES IDX 35 67 41 68 34 69 36 70 37 71 38 72 39 73 63 74 64 75 72 76
REMARK SMILES IDX 65 77 67 78 73 79 66 80 68 81 69 82 70 83 71 84 48 85 49 86
REMARK SMILES IDX 57 87 50 88 52 89 58 90 51 91 53 92 54 93 55 94 56 95
REMARK H PARENT 6 13 78 48 46 59
REMARK Flexibility Score: inf
ROOT
ATOM      1  O   UNL A   1      31.731  30.867  26.504  1.00  0.00    -0.374 OA
ENDROOT
BRANCH   1   2
ATOM      2  C   UNL A   1      32.196  29.928  25.530  1.00  0.00     0.202 C 
BRANCH   2   3
ATOM      3  C   UNL A   1      33.541  29.268  25.842  1.00  0.00     0.261 C 
BRANCH   3   4
ATOM      4  O   UNL A   1      33.919  28.396  24.763  1.00  0.00    -0.463 OA
BRANCH   4   5
ATOM      5  C   UNL A   1      33.442  27.128  24.814  1.00  0.00     0.312 C 
ATOM      6  O   UNL A   1      32.998  26.592  25.824  1.00  0.00    -0.252 OA
BRANCH   5   7
ATOM      7  C   UNL A   1      33.450  26.428  23.453  1.00  0.00     0.124 C 
ATOM      8  C   UNL A   1      32.490  24.404  22.439  1.00  0.00     0.103 C 
ATOM      9  C   UNL A   1      31.640  25.602  22.191  1.00  0.00    -0.006 C 
ATOM     10  C   UNL A   1      33.570  24.890  23.415  1.00  0.00     0.048 C 
ATOM     11  C   UNL A   1      32.166  26.707  22.727  1.00  0.00    -0.014 C 
BRANCH   8  12
ATOM     12  N   UNL A   1      31.709  23.275  22.908  1.00  0.00    -0.373 N 
ATOM     13  H   UNL A   1      30.777  23.260  22.590  1.00  0.00     0.161 HD
BRANCH  12  14
ATOM     14  C   UNL A   1      32.057  22.215  23.729  1.00  0.00     0.117 A 
ATOM     15  C   UNL A   1      32.782  19.869  23.940  1.00  0.00     0.157 A 
ATOM     16  C   UNL A   1      32.530  21.013  23.184  1.00  0.00     0.082 A 
ATOM     17  C   UNL A   1      32.616  19.929  25.316  1.00  0.00     0.172 A 
ATOM     18  C   UNL A   1      32.195  21.104  25.926  1.00  0.00     0.131 A 
ATOM     19  F   UNL A   1      32.862  18.866  26.088  1.00  0.00    -0.203 F 
ATOM     20  C   UNL A   1      31.912  22.239  25.141  1.00  0.00     0.295 A 
BRANCH  15  21
ATOM     21  O   UNL A   1      33.200  18.803  23.193  1.00  0.00    -0.494 OA
ATOM     22  C   UNL A   1      32.203  18.216  22.373  1.00  0.00     0.278 C 
ENDBRANCH  15  21
BRANCH  20  23
ATOM     23  N   UNL A   1      31.461  23.453  25.848  1.00  0.00     0.065 N 
ATOM     24  O   UNL A   1      30.536  24.120  25.352  1.00  0.00    -0.258 OA
ATOM     25  O   UNL A   1      32.019  23.746  26.915  1.00  0.00    -0.258 OA
ENDBRANCH  20  23
ENDBRANCH  12  14
ENDBRANCH   8  12
ENDBRANCH   5   7
ENDBRANCH   4   5
ENDBRANCH   3   4
ENDBRANCH   2   3
ENDBRANCH   1   2
BRANCH   1  26
ATOM     26  C   UNL A   1      32.705  31.713  27.115  1.00  0.00     0.202 C 
BRANCH  26  27
ATOM     27  C   UNL A   1      32.298  33.171  27.365  1.00  0.00     0.261 C 
BRANCH  27  28
ATOM     28  O   UNL A   1      33.410  34.044  27.627  1.00  0.00    -0.460 OA
BRANCH  28  29
ATOM     29  C   UNL A   1      33.368  34.658  28.834  1.00  0.00     0.338 C 
ATOM     30  O   UNL A   1      32.482  35.400  29.245  1.00  0.00    -0.246 OA
BRANCH  29  31
ATOM     31  C   UNL A   1      34.481  34.219  29.697  1.00  0.00     0.060 A 
ATOM     32  C   UNL A   1      35.783  34.399  29.210  1.00  0.00     0.016 A 
ATOM     33  C   UNL A   1      34.267  33.552  30.906  1.00  0.00     0.016 A 
ATOM     34  C   UNL A   1      36.870  33.862  29.898  1.00  0.00     0.010 A 
ATOM     35  C   UNL A   1      35.361  33.011  31.593  1.00  0.00     0.010 A 
ATOM     36  C   UNL A   1      36.664  33.128  31.073  1.00  0.00    -0.014 A 
BRANCH  36  37
ATOM     37  C   UNL A   1      37.797  32.396  31.699  1.00  0.00     0.031 A 
ATOM     38  C   UNL A   1      38.356  32.874  33.006  1.00  0.00     0.074 A 
ATOM     39  C   UNL A   1      38.330  31.310  31.110  1.00  0.00     0.049 A 
ATOM     40  N   UNL A   1      39.345  32.381  33.703  1.00  0.00    -0.248 NA
ATOM     41  C   UNL A   1      37.710  34.049  33.617  1.00  0.00     0.031 C 
ATOM     42  C   UNL A   1      37.851  30.733  29.864  1.00  0.00     0.029 A 
ATOM     43  N   UNL A   1      39.398  30.520  31.449  1.00  0.00    -0.354 N 
ATOM     44  C   UNL A   1      39.447  33.182  34.831  1.00  0.00     0.074 A 
ATOM     45  C   UNL A   1      38.436  34.210  34.715  1.00  0.00     0.031 C 
ATOM     46  C   UNL A   1      38.656  29.726  29.495  1.00  0.00     0.029 A 
ATOM     47  C   UNL A   1      39.709  29.580  30.493  1.00  0.00     0.049 A 
ATOM     48  H   UNL A   1      39.894  30.616  32.294  1.00  0.00     0.167 HD
ATOM     49  C   UNL A   1      40.290  33.051  35.881  1.00  0.00     0.034 A 
ATOM     50  C   UNL A   1      40.731  28.705  30.419  1.00  0.00     0.034 A 
ATOM     51  C   UNL A   1      41.284  32.018  35.996  1.00  0.00     0.049 A 
ATOM     52  C   UNL A   1      41.693  28.616  31.570  1.00  0.00     0.074 A 
ATOM     53  C   UNL A   1      42.150  31.778  37.047  1.00  0.00     0.029 A 
ATOM     54  N   UNL A   1      41.557  31.065  35.026  1.00  0.00    -0.354 N 
ATOM     55  N   UNL A   1      41.696  29.300  32.688  1.00  0.00    -0.248 NA
ATOM     56  C   UNL A   1      42.758  27.608  31.480  1.00  0.00     0.031 C 
ATOM     57  C   UNL A   1      42.967  30.697  36.701  1.00  0.00     0.029 A 
ATOM     58  C   UNL A   1      42.590  30.245  35.447  1.00  0.00     0.049 A 
ATOM     59  H   UNL A   1      41.085  30.984  34.166  1.00  0.00     0.167 HD
ATOM     60  C   UNL A   1      42.732  28.780  33.452  1.00  0.00     0.074 A 
ATOM     61  C   UNL A   1      43.331  27.716  32.672  1.00  0.00     0.031 C 
ATOM     62  C   UNL A   1      43.149  29.157  34.685  1.00  0.00     0.034 A 
BRANCH  49  63
ATOM     63  C   UNL A   1      40.148  34.024  37.019  1.00  0.00     0.023 A 
ATOM     64  C   UNL A   1      40.601  35.349  36.856  1.00  0.00     0.012 A 
ATOM     65  C   UNL A   1      39.493  33.655  38.208  1.00  0.00     0.148 A 
ATOM     66  C   UNL A   1      40.420  36.288  37.868  1.00  0.00     0.002 A 
ATOM     67  C   UNL A   1      39.279  34.609  39.197  1.00  0.00     0.091 A 
ATOM     68  F   UNL A   1      39.092  32.383  38.350  1.00  0.00    -0.205 F 
ATOM     69  C   UNL A   1      39.749  35.922  39.032  1.00  0.00     0.022 A 
BRANCH  67  70
ATOM     70  S   UNL A   1      38.359  34.258  40.698  1.00  0.00     0.127 S 
ATOM     71  O   UNL A   1      39.329  33.472  41.461  1.00  0.00    -0.237 OA
ATOM     72  O   UNL A   1      38.111  35.599  41.227  1.00  0.00    -0.237 OA
ATOM     73  O   UNL A   1      37.165  33.537  40.281  1.00  0.00    -0.744 OA
ENDBRANCH  67  70
ENDBRANCH  49  63
BRANCH  50  74
ATOM     74  C   UNL A   1      40.844  27.801  29.239  1.00  0.00     0.023 A 
ATOM     75  C   UNL A   1      40.017  26.666  29.156  1.00  0.00     0.012 A 
ATOM     76  C   UNL A   1      41.720  28.093  28.174  1.00  0.00     0.148 A 
ATOM     77  C   UNL A   1      40.072  25.825  28.043  1.00  0.00     0.002 A 
ATOM     78  C   UNL A   1      41.736  27.280  27.047  1.00  0.00     0.091 A 
ATOM     79  F   UNL A   1      42.506  29.174  28.278  1.00  0.00    -0.205 F 
ATOM     80  C   UNL A   1      40.922  26.138  26.985  1.00  0.00     0.022 A 
BRANCH  78  81
ATOM     81  S   UNL A   1      42.705  27.665  25.584  1.00  0.00     0.127 S 
ATOM     82  O   UNL A   1      44.027  27.910  26.157  1.00  0.00    -0.237 OA
ATOM     83  O   UNL A   1      42.588  26.428  24.812  1.00  0.00    -0.237 OA
ATOM     84  O   UNL A   1      42.061  28.820  24.973  1.00  0.00    -0.744 OA
ENDBRANCH  78  81
ENDBRANCH  50  74
BRANCH  62  85
ATOM     85  C   UNL A   1      44.302  28.408  35.301  1.00  0.00     0.023 A 
ATOM     86  C   UNL A   1      45.620  28.736  34.934  1.00  0.00     0.012 A 
ATOM     87  C   UNL A   1      44.080  27.470  36.329  1.00  0.00     0.148 A 
ATOM     88  C   UNL A   1      46.703  28.128  35.570  1.00  0.00     0.002 A 
ATOM     89  C   UNL A   1      45.163  26.906  36.991  1.00  0.00     0.091 A 
ATOM     90  F   UNL A   1      42.815  27.160  36.649  1.00  0.00    -0.205 F 
ATOM     91  C   UNL A   1      46.475  27.227  36.607  1.00  0.00     0.022 A 
BRANCH  89  92
ATOM     92  S   UNL A   1      44.967  25.817  38.407  1.00  0.00     0.127 S 
ATOM     93  O   UNL A   1      44.320  24.654  37.801  1.00  0.00    -0.237 OA
ATOM     94  O   UNL A   1      46.353  25.597  38.822  1.00  0.00    -0.237 OA
ATOM     95  O   UNL A   1      44.156  26.549  39.370  1.00  0.00    -0.744 OA
ENDBRANCH  89  92
ENDBRANCH  62  85
ENDBRANCH  36  37
ENDBRANCH  29  31
ENDBRANCH  28  29
ENDBRANCH  27  28
ENDBRANCH  26  27
ENDBRANCH   1  26
TORSDOF 21
ENDMDL
MODEL 2
REMARK VINA RESULT:     -10.2      6.334     10.085
REMARK SMILES COc1cc(N[C@H]2C=C[C@@H](C(=O)OCCOCCOC(=O)c3ccc(-c4c5nc(c(-c6cccc(S(=O)(=O)[O-])c6F)c6ccc([nH]6)c(-c6cccc(S(=O)(=O)[O-])c6F)c6nc(c(-c7cccc(S(=O)(=O)[O-])c7F)c7ccc4[nH]7)C=C6)C=C5)cc3)C2)c([N+](=O)[O-])cc1F
REMARK SMILES IDX 16 1 15 2 14 3 13 4 11 5 12 6 10 7 7 8 8 9 85 10 9 11 6 12
REMARK SMILES IDX 5 14 3 15 4 16 91 17 90 18 92 19 86 20 2 21 1 22 87 23 88 24
REMARK SMILES IDX 89 25 17 26 18 27 19 28 20 29 21 30 22 31 23 32 84 33 24 34
REMARK SMILES IDX 83 35 25 36 26 37 27 38 77 39 28 40 82 41 76 42 78 43 29 44
REMARK SMILES IDX 81 45 75 46 74 47 30 49 62 50 42 51 61 52 43 53 46 54 60 55
REMARK SMILES IDX 79 56 44 57 45 58 59 60 80 61 47 62 31 63 32 64 40 65 33 66
REMARK SMILES IDX 35 67 41 68 34 69 36 70 37 71 38 72 39 73 63 74 64 75 72 76
REMARK SMILES IDX 65 77 67 78 73 79 66 80 68 81 69 82 70 83 71 84 48 85 49 86
REMARK SMILES IDX 57 87 50 88 52 89 58 90 51 91 53 92 54 93 55 94 56 95
REMARK H PARENT 6 13 78 48 46 59
REMARK Flexibility Score: inf
ROOT
ATOM      1  O   UNL A   1      37.766  22.491  25.568  1.00  0.00    -0.374 OA
ENDROOT
BRANCH   1   2
ATOM      2  C   UNL A   1      37.059  21.700  24.607  1.00  0.00     0.202 C 
BRANCH   2   3
ATOM      3  C   UNL A   1      35.721  22.275  24.140  1.00  0.00     0.261 C 
BRANCH   3   4
ATOM      4  O   UNL A   1      34.638  21.534  24.730  1.00  0.00    -0.463 OA
BRANCH   4   5
ATOM      5  C   UNL A   1      33.390  22.027  24.535  1.00  0.00     0.312 C 
ATOM      6  O   UNL A   1      32.762  21.937  23.485  1.00  0.00    -0.252 OA
BRANCH   5   7
ATOM      7  C   UNL A   1      32.796  22.670  25.790  1.00  0.00     0.124 C 
ATOM      8  C   UNL A   1      31.734  24.797  26.421  1.00  0.00     0.103 C 
ATOM      9  C   UNL A   1      30.725  23.758  26.071  1.00  0.00    -0.006 C 
ATOM     10  C   UNL A   1      33.085  24.161  26.063  1.00  0.00     0.048 C 
ATOM     11  C   UNL A   1      31.298  22.596  25.742  1.00  0.00    -0.014 C 
BRANCH   8  12
ATOM     12  N   UNL A   1      31.462  26.059  25.762  1.00  0.00    -0.373 N 
ATOM     13  H   UNL A   1      30.650  26.520  26.077  1.00  0.00     0.161 HD
BRANCH  12  14
ATOM     14  C   UNL A   1      32.153  26.725  24.763  1.00  0.00     0.117 A 
ATOM     15  C   UNL A   1      33.356  26.625  22.615  1.00  0.00     0.157 A 
ATOM     16  C   UNL A   1      32.555  26.051  23.602  1.00  0.00     0.082 A 
ATOM     17  C   UNL A   1      33.733  27.952  22.750  1.00  0.00     0.172 A 
ATOM     18  C   UNL A   1      33.328  28.693  23.854  1.00  0.00     0.131 A 
ATOM     19  F   UNL A   1      34.484  28.555  21.823  1.00  0.00    -0.203 F 
ATOM     20  C   UNL A   1      32.549  28.085  24.858  1.00  0.00     0.295 A 
BRANCH  15  21
ATOM     21  O   UNL A   1      33.656  25.770  21.591  1.00  0.00    -0.494 OA
ATOM     22  C   UNL A   1      32.637  25.619  20.616  1.00  0.00     0.278 C 
ENDBRANCH  15  21
BRANCH  20  23
ATOM     23  N   UNL A   1      32.159  28.921  26.009  1.00  0.00     0.065 N 
ATOM     24  O   UNL A   1      31.841  30.106  25.803  1.00  0.00    -0.258 OA
ATOM     25  O   UNL A   1      32.153  28.398  27.132  1.00  0.00    -0.258 OA
ENDBRANCH  20  23
ENDBRANCH  12  14
ENDBRANCH   8  12
ENDBRANCH   5   7
ENDBRANCH   4   5
ENDBRANCH   3   4
ENDBRANCH   2   3
ENDBRANCH   1   2
BRANCH   1  26
ATOM     26  C   UNL A   1      38.970  21.946  26.106  1.00  0.00     0.202 C 
BRANCH  26  27
ATOM     27  C   UNL A   1      39.338  20.519  25.679  1.00  0.00     0.261 C 
BRANCH  27  28
ATOM     28  O   UNL A   1      40.197  19.840  26.611  1.00  0.00    -0.460 OA
BRANCH  28  29
ATOM     29  C   UNL A   1      41.498  19.785  26.236  1.00  0.00     0.338 C 
ATOM     30  O   UNL A   1      42.048  18.866  25.640  1.00  0.00    -0.246 OA
BRANCH  29  31
ATOM     31  C   UNL A   1      42.189  21.060  26.512  1.00  0.00     0.060 A 
ATOM     32  C   UNL A   1      42.288  21.462  27.850  1.00  0.00     0.016 A 
ATOM     33  C   UNL A   1      42.638  21.898  25.489  1.00  0.00     0.016 A 
ATOM     34  C   UNL A   1      42.781  22.727  28.168  1.00  0.00     0.010 A 
ATOM     35  C   UNL A   1      43.130  23.170  25.811  1.00  0.00     0.010 A 
ATOM     36  C   UNL A   1      43.167  23.607  27.149  1.00  0.00    -0.014 A 
BRANCH  36  37
ATOM     37  C   UNL A   1      43.509  25.017  27.476  1.00  0.00     0.031 A 
ATOM     38  C   UNL A   1      42.438  25.942  27.969  1.00  0.00     0.074 A 
ATOM     39  C   UNL A   1      44.766  25.475  27.335  1.00  0.00     0.049 A 
ATOM     40  N   UNL A   1      42.533  27.204  28.295  1.00  0.00    -0.248 NA
ATOM     41  C   UNL A   1      41.089  25.375  28.132  1.00  0.00     0.031 C 
ATOM     42  C   UNL A   1      45.893  24.664  26.901  1.00  0.00     0.029 A 
ATOM     43  N   UNL A   1      45.306  26.724  27.505  1.00  0.00    -0.354 N 
ATOM     44  C   UNL A   1      41.261  27.586  28.698  1.00  0.00     0.074 A 
ATOM     45  C   UNL A   1      40.404  26.430  28.552  1.00  0.00     0.031 C 
ATOM     46  C   UNL A   1      46.979  25.438  26.766  1.00  0.00     0.029 A 
ATOM     47  C   UNL A   1      46.624  26.809  27.116  1.00  0.00     0.049 A 
ATOM     48  H   UNL A   1      44.800  27.486  27.869  1.00  0.00     0.167 HD
ATOM     49  C   UNL A   1      40.855  28.786  29.173  1.00  0.00     0.034 A 
ATOM     50  C   UNL A   1      47.453  27.868  27.039  1.00  0.00     0.034 A 
ATOM     51  C   UNL A   1      41.717  29.927  29.328  1.00  0.00     0.049 A 
ATOM     52  C   UNL A   1      46.963  29.206  27.518  1.00  0.00     0.074 A 
ATOM     53  C   UNL A   1      41.403  31.170  29.849  1.00  0.00     0.029 A 
ATOM     54  N   UNL A   1      43.050  29.975  28.953  1.00  0.00    -0.354 N 
ATOM     55  N   UNL A   1      45.791  29.518  28.015  1.00  0.00    -0.248 NA
ATOM     56  C   UNL A   1      47.915  30.325  27.476  1.00  0.00     0.031 C 
ATOM     57  C   UNL A   1      42.541  31.979  29.761  1.00  0.00     0.029 A 
ATOM     58  C   UNL A   1      43.570  31.231  29.214  1.00  0.00     0.049 A 
ATOM     59  H   UNL A   1      43.552  29.226  28.559  1.00  0.00     0.167 HD
ATOM     60  C   UNL A   1      45.875  30.855  28.383  1.00  0.00     0.074 A 
ATOM     61  C   UNL A   1      47.218  31.291  28.059  1.00  0.00     0.031 C 
ATOM     62  C   UNL A   1      44.922  31.645  28.934  1.00  0.00     0.034 A 
BRANCH  49  63
ATOM     63  C   UNL A   1      39.421  28.919  29.607  1.00  0.00     0.023 A 
ATOM     64  C   UNL A   1      39.042  28.470  30.888  1.00  0.00     0.012 A 
ATOM     65  C   UNL A   1      38.475  29.563  28.788  1.00  0.00     0.148 A 
ATOM     66  C   UNL A   1      37.737  28.643  31.341  1.00  0.00     0.002 A 
ATOM     67  C   UNL A   1      37.185  29.769  29.264  1.00  0.00     0.091 A 
ATOM     68  F   UNL A   1      38.852  29.961  27.565  1.00  0.00    -0.205 F 
ATOM     69  C   UNL A   1      36.813  29.303  30.536  1.00  0.00     0.022 A 
BRANCH  67  70
ATOM     70  S   UNL A   1      35.944  30.676  28.336  1.00  0.00     0.127 S 
ATOM     71  O   UNL A   1      34.944  30.946  29.368  1.00  0.00    -0.237 OA
ATOM     72  O   UNL A   1      36.693  31.851  27.890  1.00  0.00    -0.237 OA
ATOM     73  O   UNL A   1      35.511  29.787  27.266  1.00  0.00    -0.744 OA
ENDBRANCH  67  70
ENDBRANCH  49  63
BRANCH  50  74
ATOM     74  C   UNL A   1      48.849  27.678  26.554  1.00  0.00     0.023 A 
ATOM     75  C   UNL A   1      49.102  27.647  25.171  1.00  0.00     0.012 A 
ATOM     76  C   UNL A   1      49.931  27.591  27.455  1.00  0.00     0.148 A 
ATOM     77  C   UNL A   1      50.406  27.512  24.689  1.00  0.00     0.002 A 
ATOM     78  C   UNL A   1      51.230  27.506  26.969  1.00  0.00     0.091 A 
ATOM     79  F   UNL A   1      49.666  27.613  28.768  1.00  0.00    -0.205 F 
ATOM     80  C   UNL A   1      51.469  27.453  25.587  1.00  0.00     0.022 A 
BRANCH  78  81
ATOM     81  S   UNL A   1      52.672  27.547  28.040  1.00  0.00     0.127 S 
ATOM     82  O   UNL A   1      52.627  26.222  28.653  1.00  0.00    -0.237 OA
ATOM     83  O   UNL A   1      53.756  27.743  27.076  1.00  0.00    -0.237 OA
ATOM     84  O   UNL A   1      52.462  28.667  28.947  1.00  0.00    -0.744 OA
ENDBRANCH  78  81
ENDBRANCH  50  74
BRANCH  62  85
ATOM     85  C   UNL A   1      45.284  33.071  29.252  1.00  0.00     0.023 A 
ATOM     86  C   UNL A   1      45.903  33.376  30.479  1.00  0.00     0.012 A 
ATOM     87  C   UNL A   1      45.122  34.085  28.286  1.00  0.00     0.148 A 
ATOM     88  C   UNL A   1      46.341  34.673  30.748  1.00  0.00     0.002 A 
ATOM     89  C   UNL A   1      45.606  35.362  28.541  1.00  0.00     0.091 A 
ATOM     90  F   UNL A   1      44.514  33.776  27.131  1.00  0.00    -0.205 F 
ATOM     91  C   UNL A   1      46.207  35.659  29.774  1.00  0.00     0.022 A 
BRANCH  89  92
ATOM     92  S   UNL A   1      45.573  36.670  27.309  1.00  0.00     0.127 S 
ATOM     93  O   UNL A   1      44.136  36.868  27.124  1.00  0.00    -0.237 OA
ATOM     94  O   UNL A   1      46.256  37.764  28.001  1.00  0.00    -0.237 OA
ATOM     95  O   UNL A   1      46.284  36.149  26.150  1.00  0.00    -0.744 OA
ENDBRANCH  89  92
ENDBRANCH  62  85
ENDBRANCH  36  37
ENDBRANCH  29  31
ENDBRANCH  28  29
ENDBRANCH  27  28
ENDBRANCH  26  27
ENDBRANCH   1  26
TORSDOF 21
ENDMDL
MODEL 3
REMARK VINA RESULT:     -10.1      2.462      3.290
REMARK SMILES COc1cc(N[C@H]2C=C[C@@H](C(=O)OCCOCCOC(=O)c3ccc(-c4c5nc(c(-c6cccc(S(=O)(=O)[O-])c6F)c6ccc([nH]6)c(-c6cccc(S(=O)(=O)[O-])c6F)c6nc(c(-c7cccc(S(=O)(=O)[O-])c7F)c7ccc4[nH]7)C=C6)C=C5)cc3)C2)c([N+](=O)[O-])cc1F
REMARK SMILES IDX 16 1 15 2 14 3 13 4 11 5 12 6 10 7 7 8 8 9 85 10 9 11 6 12
REMARK SMILES IDX 5 14 3 15 4 16 91 17 90 18 92 19 86 20 2 21 1 22 87 23 88 24
REMARK SMILES IDX 89 25 17 26 18 27 19 28 20 29 21 30 22 31 23 32 84 33 24 34
REMARK SMILES IDX 83 35 25 36 26 37 27 38 77 39 28 40 82 41 76 42 78 43 29 44
REMARK SMILES IDX 81 45 75 46 74 47 30 49 62 50 42 51 61 52 43 53 46 54 60 55
REMARK SMILES IDX 79 56 44 57 45 58 59 60 80 61 47 62 31 63 32 64 40 65 33 66
REMARK SMILES IDX 35 67 41 68 34 69 36 70 37 71 38 72 39 73 63 74 64 75 72 76
REMARK SMILES IDX 65 77 67 78 73 79 66 80 68 81 69 82 70 83 71 84 48 85 49 86
REMARK SMILES IDX 57 87 50 88 52 89 58 90 51 91 53 92 54 93 55 94 56 95
REMARK H PARENT 6 13 78 48 46 59
REMARK Flexibility Score: inf
ROOT
ATOM      1  O   UNL A   1      31.369  28.412  26.119  1.00  0.00    -0.374 OA
ENDROOT
BRANCH   1   2
ATOM      2  C   UNL A   1      30.892  27.586  25.052  1.00  0.00     0.202 C 
BRANCH   2   3
ATOM      3  C   UNL A   1      30.700  28.294  23.709  1.00  0.00     0.261 C 
BRANCH   3   4
ATOM      4  O   UNL A   1      30.723  27.331  22.641  1.00  0.00    -0.463 OA
BRANCH   4   5
ATOM      5  C   UNL A   1      31.886  26.660  22.457  1.00  0.00     0.312 C 
ATOM      6  O   UNL A   1      33.001  27.167  22.525  1.00  0.00    -0.252 OA
BRANCH   5   7
ATOM      7  C   UNL A   1      31.683  25.163  22.210  1.00  0.00     0.124 C 
ATOM      8  C   UNL A   1      32.335  23.038  23.262  1.00  0.00     0.103 C 
ATOM      9  C   UNL A   1      30.987  23.486  23.712  1.00  0.00    -0.006 C 
ATOM     10  C   UNL A   1      32.877  24.211  22.432  1.00  0.00     0.048 C 
ATOM     11  C   UNL A   1      30.623  24.633  23.131  1.00  0.00    -0.014 C 
BRANCH   8  12
ATOM     12  N   UNL A   1      33.174  22.643  24.377  1.00  0.00    -0.373 N 
ATOM     13  H   UNL A   1      33.082  23.206  25.179  1.00  0.00     0.161 HD
BRANCH  12  14
ATOM     14  C   UNL A   1      34.083  21.605  24.501  1.00  0.00     0.117 A 
ATOM     15  C   UNL A   1      34.500  19.180  24.623  1.00  0.00     0.157 A 
ATOM     16  C   UNL A   1      33.665  20.272  24.390  1.00  0.00     0.082 A 
ATOM     17  C   UNL A   1      35.834  19.411  24.924  1.00  0.00     0.172 A 
ATOM     18  C   UNL A   1      36.325  20.709  25.001  1.00  0.00     0.131 A 
ATOM     19  F   UNL A   1      36.681  18.399  25.137  1.00  0.00    -0.203 F 
ATOM     20  C   UNL A   1      35.458  21.800  24.797  1.00  0.00     0.295 A 
BRANCH  15  21
ATOM     21  O   UNL A   1      33.869  17.973  24.495  1.00  0.00    -0.494 OA
ATOM     22  C   UNL A   1      32.756  17.783  25.353  1.00  0.00     0.278 C 
ENDBRANCH  15  21
BRANCH  20  23
ATOM     23  N   UNL A   1      36.038  23.153  24.902  1.00  0.00     0.065 N 
ATOM     24  O   UNL A   1      35.865  23.793  25.954  1.00  0.00    -0.258 OA
ATOM     25  O   UNL A   1      36.685  23.584  23.938  1.00  0.00    -0.258 OA
ENDBRANCH  20  23
ENDBRANCH  12  14
ENDBRANCH   8  12
ENDBRANCH   5   7
ENDBRANCH   4   5
ENDBRANCH   3   4
ENDBRANCH   2   3
ENDBRANCH   1   2
BRANCH   1  26
ATOM     26  C   UNL A   1      32.022  29.630  25.764  1.00  0.00     0.202 C 
BRANCH  26  27
ATOM     27  C   UNL A   1      32.197  30.673  26.875  1.00  0.00     0.261 C 
BRANCH  27  28
ATOM     28  O   UNL A   1      33.046  31.773  26.506  1.00  0.00    -0.460 OA
BRANCH  28  29
ATOM     29  C   UNL A   1      33.580  32.445  27.554  1.00  0.00     0.338 C 
ATOM     30  O   UNL A   1      33.055  33.358  28.181  1.00  0.00    -0.246 OA
BRANCH  29  31
ATOM     31  C   UNL A   1      34.865  31.850  27.971  1.00  0.00     0.060 A 
ATOM     32  C   UNL A   1      34.879  30.477  28.249  1.00  0.00     0.016 A 
ATOM     33  C   UNL A   1      36.007  32.625  28.190  1.00  0.00     0.016 A 
ATOM     34  C   UNL A   1      36.013  29.884  28.802  1.00  0.00     0.010 A 
ATOM     35  C   UNL A   1      37.144  32.027  28.749  1.00  0.00     0.010 A 
ATOM     36  C   UNL A   1      37.140  30.663  29.095  1.00  0.00    -0.014 A 
BRANCH  36  37
ATOM     37  C   UNL A   1      38.273  30.072  29.858  1.00  0.00     0.031 A 
ATOM     38  C   UNL A   1      38.490  30.471  31.286  1.00  0.00     0.074 A 
ATOM     39  C   UNL A   1      39.105  29.185  29.284  1.00  0.00     0.049 A 
ATOM     40  N   UNL A   1      39.422  30.079  32.113  1.00  0.00    -0.248 NA
ATOM     41  C   UNL A   1      37.527  31.422  31.867  1.00  0.00     0.031 C 
ATOM     42  C   UNL A   1      38.974  28.695  27.921  1.00  0.00     0.029 A 
ATOM     43  N   UNL A   1      40.235  28.563  29.750  1.00  0.00    -0.354 N 
ATOM     44  C   UNL A   1      39.166  30.733  33.309  1.00  0.00     0.074 A 
ATOM     45  C   UNL A   1      38.004  31.569  33.095  1.00  0.00     0.031 C 
ATOM     46  C   UNL A   1      40.016  27.905  27.624  1.00  0.00     0.029 A 
ATOM     47  C   UNL A   1      40.889  27.825  28.789  1.00  0.00     0.049 A 
ATOM     48  H   UNL A   1      40.549  28.637  30.679  1.00  0.00     0.167 HD
ATOM     49  C   UNL A   1      39.825  30.623  34.485  1.00  0.00     0.034 A 
ATOM     50  C   UNL A   1      42.063  27.165  28.833  1.00  0.00     0.034 A 
ATOM     51  C   UNL A   1      40.971  29.779  34.694  1.00  0.00     0.049 A 
ATOM     52  C   UNL A   1      42.810  27.103  30.136  1.00  0.00     0.074 A 
ATOM     53  C   UNL A   1      41.673  29.566  35.867  1.00  0.00     0.029 A 
ATOM     54  N   UNL A   1      41.592  29.024  33.712  1.00  0.00    -0.354 N 
ATOM     55  N   UNL A   1      42.482  27.627  31.292  1.00  0.00    -0.248 NA
ATOM     56  C   UNL A   1      44.055  26.324  30.161  1.00  0.00     0.031 C 
ATOM     57  C   UNL A   1      42.737  28.703  35.587  1.00  0.00     0.029 A 
ATOM     58  C   UNL A   1      42.680  28.356  34.247  1.00  0.00     0.049 A 
ATOM     59  H   UNL A   1      41.302  28.970  32.773  1.00  0.00     0.167 HD
ATOM     60  C   UNL A   1      43.455  27.209  32.190  1.00  0.00     0.074 A 
ATOM     61  C   UNL A   1      44.381  26.379  31.445  1.00  0.00     0.031 C 
ATOM     62  C   UNL A   1      43.569  27.493  33.510  1.00  0.00     0.034 A 
BRANCH  49  63
ATOM     63  C   UNL A   1      39.296  31.400  35.660  1.00  0.00     0.023 A 
ATOM     64  C   UNL A   1      38.229  30.872  36.414  1.00  0.00     0.012 A 
ATOM     65  C   UNL A   1      39.908  32.600  36.067  1.00  0.00     0.148 A 
ATOM     66  C   UNL A   1      37.766  31.536  37.547  1.00  0.00     0.002 A 
ATOM     67  C   UNL A   1      39.467  33.236  37.222  1.00  0.00     0.091 A 
ATOM     68  F   UNL A   1      40.906  33.095  35.321  1.00  0.00    -0.205 F 
ATOM     69  C   UNL A   1      38.392  32.710  37.957  1.00  0.00     0.022 A 
BRANCH  67  70
ATOM     70  S   UNL A   1      40.256  34.710  37.877  1.00  0.00     0.127 S 
ATOM     71  O   UNL A   1      39.132  35.378  38.533  1.00  0.00    -0.237 OA
ATOM     72  O   UNL A   1      41.248  34.146  38.792  1.00  0.00    -0.237 OA
ATOM     73  O   UNL A   1      40.814  35.412  36.730  1.00  0.00    -0.744 OA
ENDBRANCH  67  70
ENDBRANCH  49  63
BRANCH  50  74
ATOM     74  C   UNL A   1      42.556  26.455  27.619  1.00  0.00     0.023 A 
ATOM     75  C   UNL A   1      43.415  27.123  26.728  1.00  0.00     0.012 A 
ATOM     76  C   UNL A   1      42.227  25.105  27.377  1.00  0.00     0.148 A 
ATOM     77  C   UNL A   1      43.924  26.468  25.605  1.00  0.00     0.002 A 
ATOM     78  C   UNL A   1      42.776  24.444  26.285  1.00  0.00     0.091 A 
ATOM     79  F   UNL A   1      41.400  24.490  28.233  1.00  0.00    -0.205 F 
ATOM     80  C   UNL A   1      43.615  25.127  25.390  1.00  0.00     0.022 A 
BRANCH  78  81
ATOM     81  S   UNL A   1      42.536  22.688  25.990  1.00  0.00     0.127 S 
ATOM     82  O   UNL A   1      43.058  22.538  24.633  1.00  0.00    -0.237 OA
ATOM     83  O   UNL A   1      43.366  22.092  27.037  1.00  0.00    -0.237 OA
ATOM     84  O   UNL A   1      41.107  22.451  26.144  1.00  0.00    -0.744 OA
ENDBRANCH  78  81
ENDBRANCH  50  74
BRANCH  62  85
ATOM     85  C   UNL A   1      44.725  26.891  34.265  1.00  0.00     0.023 A 
ATOM     86  C   UNL A   1      45.971  27.544  34.267  1.00  0.00     0.012 A 
ATOM     87  C   UNL A   1      44.538  25.748  35.069  1.00  0.00     0.148 A 
ATOM     88  C   UNL A   1      47.023  27.060  35.045  1.00  0.00     0.002 A 
ATOM     89  C   UNL A   1      45.574  25.301  35.880  1.00  0.00     0.091 A 
ATOM     90  F   UNL A   1      43.348  25.132  35.038  1.00  0.00    -0.205 F 
ATOM     91  C   UNL A   1      46.820  25.950  35.862  1.00  0.00     0.022 A 
BRANCH  89  92
ATOM     92  S   UNL A   1      45.374  23.945  37.042  1.00  0.00     0.127 S 
ATOM     93  O   UNL A   1      44.352  24.474  37.943  1.00  0.00    -0.237 OA
ATOM     94  O   UNL A   1      44.918  22.859  36.174  1.00  0.00    -0.237 OA
ATOM     95  O   UNL A   1      46.684  23.732  37.641  1.00  0.00    -0.744 OA
ENDBRANCH  89  92
ENDBRANCH  62  85
ENDBRANCH  36  37
ENDBRANCH  29  31
ENDBRANCH  28  29
ENDBRANCH  27  28
ENDBRANCH  26  27
ENDBRANCH   1  26
TORSDOF 21
ENDMDL
