MODEL 1
REMARK VINA RESULT:     -10.7      0.000      0.000
REMARK SMILES O=C(OCCOCCOC(=O)c1cc(Cl)cc(Cl)c1O)c1ccc(-c2c3nc(c(-c4cccc(S(=O)(=O)[O-])c4F)c4ccc([nH]4)c(-c4cccc(S(=O)(=O)[O-])c4F)c4nc(c(-c5cccc(S(=O)(=O)[O-])c5F)c5ccc2[nH]5)C=C4)C=C3)cc1
REMARK SMILES IDX 5 1 4 2 3 3 2 4 1 5 21 6 22 7 83 8 23 9 82 10 24 11 25 12
REMARK SMILES IDX 26 13 76 14 27 15 81 16 75 17 77 18 28 19 80 20 74 21 73 22
REMARK SMILES IDX 29 24 61 25 41 26 60 27 42 28 45 29 59 30 78 31 43 32 44 33
REMARK SMILES IDX 58 35 79 36 46 37 30 38 31 39 39 40 32 41 34 42 40 43 33 44
REMARK SMILES IDX 35 45 36 46 37 47 38 48 62 49 63 50 71 51 64 52 66 53 72 54
REMARK SMILES IDX 65 55 67 56 68 57 69 58 70 59 47 60 48 61 56 62 49 63 51 64
REMARK SMILES IDX 57 65 50 66 52 67 53 68 54 69 55 70 6 71 7 72 8 73 9 74
REMARK SMILES IDX 10 75 11 76 12 77 13 78 19 79 14 80 17 81 15 82 16 83 18 84
REMARK SMILES IDX 20 85
REMARK H PARENT 77 23 45 34 20 86
REMARK Flexibility Score: inf
ROOT
ATOM      1  C   UNL A   1      31.960  30.730  26.851  1.00  0.00     0.202 C 
ENDROOT
BRANCH   1   2
ATOM      2  C   UNL A   1      31.462  32.178  26.791  1.00  0.00     0.261 C 
BRANCH   2   3
ATOM      3  O   UNL A   1      32.569  33.101  26.808  1.00  0.00    -0.460 OA
BRANCH   3   4
ATOM      4  C   UNL A   1      33.144  33.666  27.900  1.00  0.00     0.338 C 
ATOM      5  O   UNL A   1      32.651  34.684  28.379  1.00  0.00    -0.246 OA
BRANCH   4   6
ATOM      6  C   UNL A   1      34.373  33.098  28.527  1.00  0.00     0.060 A 
ATOM      7  C   UNL A   1      34.410  31.834  29.107  1.00  0.00     0.016 A 
ATOM      8  C   UNL A   1      35.567  33.831  28.462  1.00  0.00     0.016 A 
ATOM      9  C   UNL A   1      35.548  31.351  29.723  1.00  0.00     0.010 A 
ATOM     10  C   UNL A   1      36.753  33.307  28.997  1.00  0.00     0.010 A 
ATOM     11  C   UNL A   1      36.738  32.069  29.651  1.00  0.00    -0.014 A 
BRANCH  11  12
ATOM     12  C   UNL A   1      37.917  31.472  30.306  1.00  0.00     0.031 A 
ATOM     13  C   UNL A   1      38.196  31.788  31.742  1.00  0.00     0.074 A 
ATOM     14  C   UNL A   1      38.616  30.529  29.642  1.00  0.00     0.049 A 
ATOM     15  N   UNL A   1      39.143  31.333  32.514  1.00  0.00    -0.248 NA
ATOM     16  C   UNL A   1      37.276  32.729  32.406  1.00  0.00     0.031 C 
ATOM     17  C   UNL A   1      38.357  30.107  28.261  1.00  0.00     0.029 A 
ATOM     18  N   UNL A   1      39.653  29.728  30.041  1.00  0.00    -0.354 N 
ATOM     19  C   UNL A   1      38.963  31.959  33.739  1.00  0.00     0.074 A 
ATOM     20  C   UNL A   1      37.812  32.824  33.614  1.00  0.00     0.031 C 
ATOM     21  C   UNL A   1      39.186  29.103  27.942  1.00  0.00     0.029 A 
ATOM     22  C   UNL A   1      40.085  28.863  29.063  1.00  0.00     0.049 A 
ATOM     23  H   UNL A   1      40.051  29.768  30.941  1.00  0.00     0.167 HD
ATOM     24  C   UNL A   1      39.696  31.815  34.868  1.00  0.00     0.034 A 
ATOM     25  C   UNL A   1      41.115  27.995  29.065  1.00  0.00     0.034 A 
ATOM     26  C   UNL A   1      40.827  30.938  34.967  1.00  0.00     0.049 A 
ATOM     27  C   UNL A   1      41.932  27.887  30.322  1.00  0.00     0.074 A 
ATOM     28  C   UNL A   1      41.692  30.758  36.030  1.00  0.00     0.029 A 
ATOM     29  N   UNL A   1      41.249  30.085  33.955  1.00  0.00    -0.354 N 
ATOM     30  N   UNL A   1      41.752  28.490  31.475  1.00  0.00    -0.248 NA
ATOM     31  C   UNL A   1      43.083  26.977  30.290  1.00  0.00     0.031 C 
ATOM     32  C   UNL A   1      42.645  29.803  35.655  1.00  0.00     0.029 A 
ATOM     33  C   UNL A   1      42.360  29.372  34.368  1.00  0.00     0.049 A 
ATOM     34  H   UNL A   1      40.820  30.000  33.073  1.00  0.00     0.167 HD
ATOM     35  C   UNL A   1      42.761  28.026  32.309  1.00  0.00     0.074 A 
ATOM     36  C   UNL A   1      43.519  27.058  31.539  1.00  0.00     0.031 C 
ATOM     37  C   UNL A   1      43.058  28.386  33.582  1.00  0.00     0.034 A 
BRANCH  24  38
ATOM     38  C   UNL A   1      39.291  32.642  36.057  1.00  0.00     0.023 A 
ATOM     39  C   UNL A   1      39.811  33.943  36.218  1.00  0.00     0.012 A 
ATOM     40  C   UNL A   1      38.407  32.125  37.024  1.00  0.00     0.148 A 
ATOM     41  C   UNL A   1      39.485  34.702  37.341  1.00  0.00     0.002 A 
ATOM     42  C   UNL A   1      38.059  32.902  38.123  1.00  0.00     0.091 A 
ATOM     43  F   UNL A   1      37.946  30.877  36.865  1.00  0.00    -0.205 F 
ATOM     44  C   UNL A   1      38.605  34.186  38.289  1.00  0.00     0.022 A 
BRANCH  42  45
ATOM     45  S   UNL A   1      36.900  32.347  39.378  1.00  0.00     0.127 S 
ATOM     46  O   UNL A   1      37.366  30.984  39.626  1.00  0.00    -0.237 OA
ATOM     47  O   UNL A   1      37.156  33.289  40.468  1.00  0.00    -0.237 OA
ATOM     48  O   UNL A   1      35.576  32.451  38.779  1.00  0.00    -0.744 OA
ENDBRANCH  42  45
ENDBRANCH  24  38
BRANCH  25  49
ATOM     49  C   UNL A   1      41.436  27.195  27.847  1.00  0.00     0.023 A 
ATOM     50  C   UNL A   1      42.035  27.810  26.732  1.00  0.00     0.012 A 
ATOM     51  C   UNL A   1      41.161  25.813  27.795  1.00  0.00     0.148 A 
ATOM     52  C   UNL A   1      42.322  27.073  25.579  1.00  0.00     0.002 A 
ATOM     53  C   UNL A   1      41.508  25.072  26.671  1.00  0.00     0.091 A 
ATOM     54  F   UNL A   1      40.564  25.240  28.851  1.00  0.00    -0.205 F 
ATOM     55  C   UNL A   1      42.071  25.703  25.553  1.00  0.00     0.022 A 
BRANCH  53  56
ATOM     56  S   UNL A   1      41.346  23.283  26.629  1.00  0.00     0.127 S 
ATOM     57  O   UNL A   1      39.902  23.115  26.495  1.00  0.00    -0.237 OA
ATOM     58  O   UNL A   1      42.121  22.931  25.438  1.00  0.00    -0.237 OA
ATOM     59  O   UNL A   1      41.933  22.816  27.878  1.00  0.00    -0.744 OA
ENDBRANCH  53  56
ENDBRANCH  25  49
BRANCH  37  60
ATOM     60  C   UNL A   1      44.243  27.714  34.216  1.00  0.00     0.023 A 
ATOM     61  C   UNL A   1      45.511  28.321  34.138  1.00  0.00     0.012 A 
ATOM     62  C   UNL A   1      44.086  26.519  34.942  1.00  0.00     0.148 A 
ATOM     63  C   UNL A   1      46.616  27.729  34.746  1.00  0.00     0.002 A 
ATOM     64  C   UNL A   1      45.181  25.961  35.587  1.00  0.00     0.091 A 
ATOM     65  F   UNL A   1      42.874  25.946  34.981  1.00  0.00    -0.205 F 
ATOM     66  C   UNL A   1      46.449  26.557  35.480  1.00  0.00     0.022 A 
BRANCH  64  67
ATOM     67  S   UNL A   1      45.031  24.511  36.636  1.00  0.00     0.127 S 
ATOM     68  O   UNL A   1      44.462  23.533  35.712  1.00  0.00    -0.237 OA
ATOM     69  O   UNL A   1      46.419  24.257  37.019  1.00  0.00    -0.237 OA
ATOM     70  O   UNL A   1      44.167  24.911  37.740  1.00  0.00    -0.744 OA
ENDBRANCH  64  67
ENDBRANCH  37  60
ENDBRANCH  11  12
ENDBRANCH   4   6
ENDBRANCH   3   4
ENDBRANCH   2   3
ENDBRANCH   1   2
BRANCH   1  71
ATOM     71  O   UNL A   1      31.662  29.924  25.711  1.00  0.00    -0.374 OA
BRANCH  71  72
ATOM     72  C   UNL A   1      32.785  29.530  24.912  1.00  0.00     0.202 C 
BRANCH  72  73
ATOM     73  C   UNL A   1      32.790  28.004  24.768  1.00  0.00     0.261 C 
BRANCH  73  74
ATOM     74  O   UNL A   1      31.486  27.586  24.323  1.00  0.00    -0.460 OA
BRANCH  74  75
ATOM     75  C   UNL A   1      31.281  27.687  22.987  1.00  0.00     0.342 C 
ATOM     76  O   UNL A   1      31.894  27.141  22.083  1.00  0.00    -0.246 OA
BRANCH  75  77
ATOM     77  C   UNL A   1      29.987  28.356  22.764  1.00  0.00     0.104 A 
ATOM     78  C   UNL A   1      29.938  29.607  22.140  1.00  0.00     0.040 A 
ATOM     79  C   UNL A   1      28.817  27.767  23.271  1.00  0.00     0.148 A 
ATOM     80  C   UNL A   1      28.722  30.278  22.046  1.00  0.00     0.043 A 
ATOM     81  C   UNL A   1      27.610  28.469  23.193  1.00  0.00     0.085 A 
ATOM     82  Cl  UNL A   1      28.659  31.818  21.283  1.00  0.00    -0.084 Cl
ATOM     83  C   UNL A   1      27.561  29.724  22.581  1.00  0.00     0.045 A 
ATOM     84  Cl  UNL A   1      26.154  27.838  23.875  1.00  0.00    -0.080 Cl
BRANCH  79  85
ATOM     85  O   UNL A   1      28.824  26.536  23.876  1.00  0.00    -0.505 OA
ATOM     86  H   UNL A   1      28.019  26.144  24.151  1.00  0.00     0.293 HD
ENDBRANCH  79  85
ENDBRANCH  75  77
ENDBRANCH  74  75
ENDBRANCH  73  74
ENDBRANCH  72  73
ENDBRANCH  71  72
ENDBRANCH   1  71
TORSDOF 18
ENDMDL
MODEL 2
REMARK VINA RESULT:     -10.4      2.314      3.090
REMARK SMILES O=C(OCCOCCOC(=O)c1cc(Cl)cc(Cl)c1O)c1ccc(-c2c3nc(c(-c4cccc(S(=O)(=O)[O-])c4F)c4ccc([nH]4)c(-c4cccc(S(=O)(=O)[O-])c4F)c4nc(c(-c5cccc(S(=O)(=O)[O-])c5F)c5ccc2[nH]5)C=C4)C=C3)cc1
REMARK SMILES IDX 5 1 4 2 3 3 2 4 1 5 21 6 22 7 83 8 23 9 82 10 24 11 25 12
REMARK SMILES IDX 26 13 76 14 27 15 81 16 75 17 77 18 28 19 80 20 74 21 73 22
REMARK SMILES IDX 29 24 61 25 41 26 60 27 42 28 45 29 59 30 78 31 43 32 44 33
REMARK SMILES IDX 58 35 79 36 46 37 30 38 31 39 39 40 32 41 34 42 40 43 33 44
REMARK SMILES IDX 35 45 36 46 37 47 38 48 62 49 63 50 71 51 64 52 66 53 72 54
REMARK SMILES IDX 65 55 67 56 68 57 69 58 70 59 47 60 48 61 56 62 49 63 51 64
REMARK SMILES IDX 57 65 50 66 52 67 53 68 54 69 55 70 6 71 7 72 8 73 9 74
REMARK SMILES IDX 10 75 11 76 12 77 13 78 19 79 14 80 17 81 15 82 16 83 18 84
REMARK SMILES IDX 20 85
REMARK H PARENT 77 23 45 34 20 86
REMARK Flexibility Score: inf
ROOT
ATOM      1  C   UNL A   1      32.288  30.859  26.420  1.00  0.00     0.202 C 
ENDROOT
BRANCH   1   2
ATOM      2  C   UNL A   1      31.641  32.107  27.031  1.00  0.00     0.261 C 
BRANCH   2   3
ATOM      3  O   UNL A   1      32.536  33.234  26.961  1.00  0.00    -0.460 OA
BRANCH   3   4
ATOM      4  C   UNL A   1      33.181  33.828  27.997  1.00  0.00     0.338 C 
ATOM      5  O   UNL A   1      32.764  34.900  28.428  1.00  0.00    -0.246 OA
BRANCH   4   6
ATOM      6  C   UNL A   1      34.399  33.228  28.617  1.00  0.00     0.060 A 
ATOM      7  C   UNL A   1      34.380  32.014  29.296  1.00  0.00     0.016 A 
ATOM      8  C   UNL A   1      35.634  33.869  28.442  1.00  0.00     0.016 A 
ATOM      9  C   UNL A   1      35.511  31.503  29.902  1.00  0.00     0.010 A 
ATOM     10  C   UNL A   1      36.807  33.309  28.968  1.00  0.00     0.010 A 
ATOM     11  C   UNL A   1      36.741  32.130  29.721  1.00  0.00    -0.014 A 
BRANCH  11  12
ATOM     12  C   UNL A   1      37.908  31.506  30.373  1.00  0.00     0.031 A 
ATOM     13  C   UNL A   1      38.171  31.778  31.822  1.00  0.00     0.074 A 
ATOM     14  C   UNL A   1      38.610  30.579  29.691  1.00  0.00     0.049 A 
ATOM     15  N   UNL A   1      39.105  31.294  32.591  1.00  0.00    -0.248 NA
ATOM     16  C   UNL A   1      37.249  32.706  32.501  1.00  0.00     0.031 C 
ATOM     17  C   UNL A   1      38.366  30.199  28.295  1.00  0.00     0.029 A 
ATOM     18  N   UNL A   1      39.637  29.760  30.079  1.00  0.00    -0.354 N 
ATOM     19  C   UNL A   1      38.913  31.885  33.832  1.00  0.00     0.074 A 
ATOM     20  C   UNL A   1      37.769  32.761  33.718  1.00  0.00     0.031 C 
ATOM     21  C   UNL A   1      39.193  29.199  27.957  1.00  0.00     0.029 A 
ATOM     22  C   UNL A   1      40.076  28.920  29.081  1.00  0.00     0.049 A 
ATOM     23  H   UNL A   1      40.023  29.771  30.984  1.00  0.00     0.167 HD
ATOM     24  C   UNL A   1      39.631  31.704  34.965  1.00  0.00     0.034 A 
ATOM     25  C   UNL A   1      41.100  28.047  29.071  1.00  0.00     0.034 A 
ATOM     26  C   UNL A   1      40.756  30.817  35.053  1.00  0.00     0.049 A 
ATOM     27  C   UNL A   1      41.900  27.896  30.334  1.00  0.00     0.074 A 
ATOM     28  C   UNL A   1      41.605  30.600  36.121  1.00  0.00     0.029 A 
ATOM     29  N   UNL A   1      41.185  29.991  34.021  1.00  0.00    -0.354 N 
ATOM     30  N   UNL A   1      41.710  28.466  31.502  1.00  0.00    -0.248 NA
ATOM     31  C   UNL A   1      43.046  26.980  30.290  1.00  0.00     0.031 C 
ATOM     32  C   UNL A   1      42.558  29.651  35.730  1.00  0.00     0.029 A 
ATOM     33  C   UNL A   1      42.286  29.259  34.427  1.00  0.00     0.049 A 
ATOM     34  H   UNL A   1      40.767  29.935  33.132  1.00  0.00     0.167 HD
ATOM     35  C   UNL A   1      42.705  27.971  32.334  1.00  0.00     0.074 A 
ATOM     36  C   UNL A   1      43.467  27.021  31.546  1.00  0.00     0.031 C 
ATOM     37  C   UNL A   1      42.988  28.292  33.621  1.00  0.00     0.034 A 
BRANCH  24  38
ATOM     38  C   UNL A   1      39.216  32.499  36.173  1.00  0.00     0.023 A 
ATOM     39  C   UNL A   1      39.729  33.797  36.370  1.00  0.00     0.012 A 
ATOM     40  C   UNL A   1      38.329  31.953  37.121  1.00  0.00     0.148 A 
ATOM     41  C   UNL A   1      39.394  34.526  37.510  1.00  0.00     0.002 A 
ATOM     42  C   UNL A   1      37.972  32.700  38.238  1.00  0.00     0.091 A 
ATOM     43  F   UNL A   1      37.874  30.707  36.928  1.00  0.00    -0.205 F 
ATOM     44  C   UNL A   1      38.512  33.981  38.440  1.00  0.00     0.022 A 
BRANCH  42  45
ATOM     45  S   UNL A   1      36.808  32.108  39.471  1.00  0.00     0.127 S 
ATOM     46  O   UNL A   1      37.210  32.878  40.648  1.00  0.00    -0.237 OA
ATOM     47  O   UNL A   1      35.524  32.503  38.893  1.00  0.00    -0.237 OA
ATOM     48  O   UNL A   1      37.018  30.670  39.568  1.00  0.00    -0.744 OA
ENDBRANCH  42  45
ENDBRANCH  24  38
BRANCH  25  49
ATOM     49  C   UNL A   1      41.432  27.280  27.834  1.00  0.00     0.023 A 
ATOM     50  C   UNL A   1      41.986  27.937  26.720  1.00  0.00     0.012 A 
ATOM     51  C   UNL A   1      41.212  25.889  27.763  1.00  0.00     0.148 A 
ATOM     52  C   UNL A   1      42.282  27.232  25.549  1.00  0.00     0.002 A 
ATOM     53  C   UNL A   1      41.568  25.182  26.620  1.00  0.00     0.091 A 
ATOM     54  F   UNL A   1      40.657  25.275  28.819  1.00  0.00    -0.205 F 
ATOM     55  C   UNL A   1      42.085  25.853  25.504  1.00  0.00     0.022 A 
BRANCH  53  56
ATOM     56  S   UNL A   1      41.478  23.388  26.550  1.00  0.00     0.127 S 
ATOM     57  O   UNL A   1      42.277  23.093  25.365  1.00  0.00    -0.237 OA
ATOM     58  O   UNL A   1      42.090  22.998  27.821  1.00  0.00    -0.237 OA
ATOM     59  O   UNL A   1      40.056  23.080  26.459  1.00  0.00    -0.744 OA
ENDBRANCH  53  56
ENDBRANCH  25  49
BRANCH  37  60
ATOM     60  C   UNL A   1      44.160  27.594  34.250  1.00  0.00     0.023 A 
ATOM     61  C   UNL A   1      45.438  28.185  34.187  1.00  0.00     0.012 A 
ATOM     62  C   UNL A   1      43.984  26.390  34.956  1.00  0.00     0.148 A 
ATOM     63  C   UNL A   1      46.531  27.568  34.791  1.00  0.00     0.002 A 
ATOM     64  C   UNL A   1      45.068  25.807  35.598  1.00  0.00     0.091 A 
ATOM     65  F   UNL A   1      42.764  25.833  34.980  1.00  0.00    -0.205 F 
ATOM     66  C   UNL A   1      46.344  26.387  35.506  1.00  0.00     0.022 A 
BRANCH  64  67
ATOM     67  S   UNL A   1      44.893  24.343  36.623  1.00  0.00     0.127 S 
ATOM     68  O   UNL A   1      46.280  24.072  36.994  1.00  0.00    -0.237 OA
ATOM     69  O   UNL A   1      44.050  24.827  37.717  1.00  0.00    -0.237 OA
ATOM     70  O   UNL A   1      44.259  23.341  35.776  1.00  0.00    -0.744 OA
ENDBRANCH  64  67
ENDBRANCH  37  60
ENDBRANCH  11  12
ENDBRANCH   4   6
ENDBRANCH   3   4
ENDBRANCH   2   3
ENDBRANCH   1   2
BRANCH   1  71
ATOM     71  O   UNL A   1      31.770  29.608  26.873  1.00  0.00    -0.374 OA
BRANCH  71  72
ATOM     72  C   UNL A   1      32.498  28.443  26.462  1.00  0.00     0.202 C 
BRANCH  72  73
ATOM     73  C   UNL A   1      31.586  27.216  26.566  1.00  0.00     0.261 C 
BRANCH  73  74
ATOM     74  O   UNL A   1      32.314  26.068  26.092  1.00  0.00    -0.460 OA
BRANCH  74  75
ATOM     75  C   UNL A   1      31.739  24.873  26.373  1.00  0.00     0.342 C 
ATOM     76  O   UNL A   1      30.647  24.658  26.875  1.00  0.00    -0.246 OA
BRANCH  75  77
ATOM     77  C   UNL A   1      32.520  23.814  25.710  1.00  0.00     0.104 A 
ATOM     78  C   UNL A   1      33.844  23.571  26.091  1.00  0.00     0.040 A 
ATOM     79  C   UNL A   1      31.952  23.119  24.631  1.00  0.00     0.148 A 
ATOM     80  C   UNL A   1      34.605  22.652  25.375  1.00  0.00     0.043 A 
ATOM     81  C   UNL A   1      32.740  22.220  23.905  1.00  0.00     0.085 A 
ATOM     82  Cl  UNL A   1      36.234  22.354  25.838  1.00  0.00    -0.084 Cl
ATOM     83  C   UNL A   1      34.066  21.985  24.276  1.00  0.00     0.045 A 
ATOM     84  Cl  UNL A   1      32.127  21.400  22.515  1.00  0.00    -0.080 Cl
BRANCH  79  85
ATOM     85  O   UNL A   1      30.652  23.320  24.238  1.00  0.00    -0.505 OA
ATOM     86  H   UNL A   1      30.089  22.586  24.089  1.00  0.00     0.293 HD
ENDBRANCH  79  85
ENDBRANCH  75  77
ENDBRANCH  74  75
ENDBRANCH  73  74
ENDBRANCH  72  73
ENDBRANCH  71  72
ENDBRANCH   1  71
TORSDOF 18
ENDMDL
MODEL 3
REMARK VINA RESULT:     -10.3      5.668     10.879
REMARK SMILES O=C(OCCOCCOC(=O)c1cc(Cl)cc(Cl)c1O)c1ccc(-c2c3nc(c(-c4cccc(S(=O)(=O)[O-])c4F)c4ccc([nH]4)c(-c4cccc(S(=O)(=O)[O-])c4F)c4nc(c(-c5cccc(S(=O)(=O)[O-])c5F)c5ccc2[nH]5)C=C4)C=C3)cc1
REMARK SMILES IDX 5 1 4 2 3 3 2 4 1 5 21 6 22 7 83 8 23 9 82 10 24 11 25 12
REMARK SMILES IDX 26 13 76 14 27 15 81 16 75 17 77 18 28 19 80 20 74 21 73 22
REMARK SMILES IDX 29 24 61 25 41 26 60 27 42 28 45 29 59 30 78 31 43 32 44 33
REMARK SMILES IDX 58 35 79 36 46 37 30 38 31 39 39 40 32 41 34 42 40 43 33 44
REMARK SMILES IDX 35 45 36 46 37 47 38 48 62 49 63 50 71 51 64 52 66 53 72 54
REMARK SMILES IDX 65 55 67 56 68 57 69 58 70 59 47 60 48 61 56 62 49 63 51 64
REMARK SMILES IDX 57 65 50 66 52 67 53 68 54 69 55 70 6 71 7 72 8 73 9 74
REMARK SMILES IDX 10 75 11 76 12 77 13 78 19 79 14 80 17 81 15 82 16 83 18 84
REMARK SMILES IDX 20 85
REMARK H PARENT 77 23 45 34 20 86
REMARK Flexibility Score: inf
ROOT
ATOM      1  C   UNL A   1      35.349  22.197  25.424  1.00  0.00     0.202 C 
ENDROOT
BRANCH   1   2
ATOM      2  C   UNL A   1      36.443  21.207  25.007  1.00  0.00     0.261 C 
BRANCH   2   3
ATOM      3  O   UNL A   1      37.357  20.965  26.095  1.00  0.00    -0.460 OA
BRANCH   3   4
ATOM      4  C   UNL A   1      38.709  21.087  26.066  1.00  0.00     0.338 C 
ATOM      5  O   UNL A   1      39.388  20.136  25.690  1.00  0.00    -0.246 OA
BRANCH   4   6
ATOM      6  C   UNL A   1      39.398  22.337  26.501  1.00  0.00     0.060 A 
ATOM      7  C   UNL A   1      38.969  23.606  26.125  1.00  0.00     0.016 A 
ATOM      8  C   UNL A   1      40.476  22.241  27.392  1.00  0.00     0.016 A 
ATOM      9  C   UNL A   1      39.652  24.745  26.501  1.00  0.00     0.010 A 
ATOM     10  C   UNL A   1      41.117  23.397  27.860  1.00  0.00     0.010 A 
ATOM     11  C   UNL A   1      40.716  24.655  27.395  1.00  0.00    -0.014 A 
BRANCH  11  12
ATOM     12  C   UNL A   1      41.375  25.920  27.774  1.00  0.00     0.031 A 
ATOM     13  C   UNL A   1      42.750  26.213  27.260  1.00  0.00     0.074 A 
ATOM     14  C   UNL A   1      40.657  26.849  28.436  1.00  0.00     0.049 A 
ATOM     15  N   UNL A   1      43.480  27.278  27.432  1.00  0.00    -0.248 NA
ATOM     16  C   UNL A   1      43.382  25.174  26.426  1.00  0.00     0.031 C 
ATOM     17  C   UNL A   1      39.278  26.669  28.905  1.00  0.00     0.029 A 
ATOM     18  N   UNL A   1      40.960  28.135  28.796  1.00  0.00    -0.354 N 
ATOM     19  C   UNL A   1      44.673  27.028  26.766  1.00  0.00     0.074 A 
ATOM     20  C   UNL A   1      44.569  25.711  26.181  1.00  0.00     0.031 C 
ATOM     21  C   UNL A   1      38.845  27.812  29.455  1.00  0.00     0.029 A 
ATOM     22  C   UNL A   1      39.935  28.778  29.450  1.00  0.00     0.049 A 
ATOM     23  H   UNL A   1      41.828  28.559  28.603  1.00  0.00     0.167 HD
ATOM     24  C   UNL A   1      45.753  27.834  26.654  1.00  0.00     0.034 A 
ATOM     25  C   UNL A   1      39.896  30.001  30.011  1.00  0.00     0.034 A 
ATOM     26  C   UNL A   1      45.824  29.145  27.236  1.00  0.00     0.049 A 
ATOM     27  C   UNL A   1      41.126  30.858  29.901  1.00  0.00     0.074 A 
ATOM     28  C   UNL A   1      46.887  30.028  27.253  1.00  0.00     0.029 A 
ATOM     29  N   UNL A   1      44.775  29.762  27.906  1.00  0.00    -0.354 N 
ATOM     30  N   UNL A   1      42.250  30.606  29.270  1.00  0.00    -0.248 NA
ATOM     31  C   UNL A   1      41.086  32.166  30.563  1.00  0.00     0.031 C 
ATOM     32  C   UNL A   1      46.483  31.176  27.946  1.00  0.00     0.029 A 
ATOM     33  C   UNL A   1      45.162  31.018  28.338  1.00  0.00     0.049 A 
ATOM     34  H   UNL A   1      43.886  29.365  28.051  1.00  0.00     0.167 HD
ATOM     35  C   UNL A   1      43.049  31.727  29.452  1.00  0.00     0.074 A 
ATOM     36  C   UNL A   1      42.259  32.677  30.214  1.00  0.00     0.031 C 
ATOM     37  C   UNL A   1      44.327  31.946  29.057  1.00  0.00     0.034 A 
BRANCH  24  38
ATOM     38  C   UNL A   1      46.932  27.297  25.890  1.00  0.00     0.023 A 
ATOM     39  C   UNL A   1      47.868  26.464  26.537  1.00  0.00     0.012 A 
ATOM     40  C   UNL A   1      47.122  27.631  24.535  1.00  0.00     0.148 A 
ATOM     41  C   UNL A   1      48.993  26.000  25.855  1.00  0.00     0.002 A 
ATOM     42  C   UNL A   1      48.227  27.135  23.852  1.00  0.00     0.091 A 
ATOM     43  F   UNL A   1      46.234  28.445  23.947  1.00  0.00    -0.205 F 
ATOM     44  C   UNL A   1      49.169  26.329  24.514  1.00  0.00     0.022 A 
BRANCH  42  45
ATOM     45  S   UNL A   1      48.522  27.462  22.111  1.00  0.00     0.127 S 
ATOM     46  O   UNL A   1      49.769  28.224  22.162  1.00  0.00    -0.237 OA
ATOM     47  O   UNL A   1      48.653  26.112  21.565  1.00  0.00    -0.237 OA
ATOM     48  O   UNL A   1      47.361  28.203  21.637  1.00  0.00    -0.744 OA
ENDBRANCH  42  45
ENDBRANCH  24  38
BRANCH  25  49
ATOM     49  C   UNL A   1      38.676  30.467  30.734  1.00  0.00     0.023 A 
ATOM     50  C   UNL A   1      38.542  30.240  32.116  1.00  0.00     0.012 A 
ATOM     51  C   UNL A   1      37.648  31.151  30.054  1.00  0.00     0.148 A 
ATOM     52  C   UNL A   1      37.394  30.655  32.799  1.00  0.00     0.002 A 
ATOM     53  C   UNL A   1      36.539  31.619  30.750  1.00  0.00     0.091 A 
ATOM     54  F   UNL A   1      37.771  31.338  28.732  1.00  0.00    -0.205 F 
ATOM     55  C   UNL A   1      36.400  31.355  32.120  1.00  0.00     0.022 A 
BRANCH  53  56
ATOM     56  S   UNL A   1      35.294  32.651  29.966  1.00  0.00     0.127 S 
ATOM     57  O   UNL A   1      34.766  31.758  28.940  1.00  0.00    -0.237 OA
ATOM     58  O   UNL A   1      34.380  32.927  31.075  1.00  0.00    -0.237 OA
ATOM     59  O   UNL A   1      36.016  33.823  29.487  1.00  0.00    -0.744 OA
ENDBRANCH  53  56
ENDBRANCH  25  49
BRANCH  37  60
ATOM     60  C   UNL A   1      44.935  33.269  29.432  1.00  0.00     0.023 A 
ATOM     61  C   UNL A   1      45.667  33.383  30.630  1.00  0.00     0.012 A 
ATOM     62  C   UNL A   1      44.834  34.375  28.569  1.00  0.00     0.148 A 
ATOM     63  C   UNL A   1      46.263  34.593  30.979  1.00  0.00     0.002 A 
ATOM     64  C   UNL A   1      45.472  35.562  28.899  1.00  0.00     0.091 A 
ATOM     65  F   UNL A   1      44.110  34.249  27.447  1.00  0.00    -0.205 F 
ATOM     66  C   UNL A   1      46.177  35.677  30.110  1.00  0.00     0.022 A 
BRANCH  64  67
ATOM     67  S   UNL A   1      45.496  36.972  27.787  1.00  0.00     0.127 S 
ATOM     68  O   UNL A   1      44.090  37.367  27.778  1.00  0.00    -0.237 OA
ATOM     69  O   UNL A   1      46.389  37.901  28.480  1.00  0.00    -0.237 OA
ATOM     70  O   UNL A   1      46.018  36.469  26.523  1.00  0.00    -0.744 OA
ENDBRANCH  64  67
ENDBRANCH  37  60
ENDBRANCH  11  12
ENDBRANCH   4   6
ENDBRANCH   3   4
ENDBRANCH   2   3
ENDBRANCH   1   2
BRANCH   1  71
ATOM     71  O   UNL A   1      34.583  21.827  26.571  1.00  0.00    -0.374 OA
BRANCH  71  72
ATOM     72  C   UNL A   1      33.870  22.890  27.217  1.00  0.00     0.202 C 
BRANCH  72  73
ATOM     73  C   UNL A   1      32.460  22.985  26.621  1.00  0.00     0.261 C 
BRANCH  73  74
ATOM     74  O   UNL A   1      31.772  24.078  27.256  1.00  0.00    -0.460 OA
BRANCH  74  75
ATOM     75  C   UNL A   1      31.095  24.893  26.411  1.00  0.00     0.342 C 
ATOM     76  O   UNL A   1      29.889  25.069  26.332  1.00  0.00    -0.246 OA
BRANCH  75  77
ATOM     77  C   UNL A   1      32.063  25.790  25.755  1.00  0.00     0.104 A 
ATOM     78  C   UNL A   1      32.747  26.756  26.501  1.00  0.00     0.040 A 
ATOM     79  C   UNL A   1      32.218  25.726  24.361  1.00  0.00     0.148 A 
ATOM     80  C   UNL A   1      33.564  27.673  25.847  1.00  0.00     0.043 A 
ATOM     81  C   UNL A   1      33.021  26.674  23.718  1.00  0.00     0.085 A 
ATOM     82  Cl  UNL A   1      34.403  28.865  26.760  1.00  0.00    -0.084 Cl
ATOM     83  C   UNL A   1      33.695  27.647  24.460  1.00  0.00     0.045 A 
ATOM     84  Cl  UNL A   1      33.182  26.703  22.000  1.00  0.00    -0.080 Cl
BRANCH  79  85
ATOM     85  O   UNL A   1      31.575  24.783  23.599  1.00  0.00    -0.505 OA
ATOM     86  H   UNL A   1      31.685  23.872  23.790  1.00  0.00     0.293 HD
ENDBRANCH  79  85
ENDBRANCH  75  77
ENDBRANCH  74  75
ENDBRANCH  73  74
ENDBRANCH  72  73
ENDBRANCH  71  72
ENDBRANCH   1  71
TORSDOF 18
ENDMDL
