MODEL 1
REMARK VINA RESULT:     -10.0      0.000      0.000
REMARK SMILES CCc1ccc(O[C@H](CC)C(=O)OCCOCCOC(=O)c2ccc(-c3c4nc(c(-c5cccc(S(=O)(=O)[O-])c5F)c5ccc([nH]5)c(-c5cccc(S(=O)(=O)[O-])c5F)c5nc(c(-c6cccc(S(=O)(=O)[O-])c6F)c6ccc3[nH]6)C=C5)C=C4)cc2)c(Cl)c1
REMARK SMILES IDX 16 1 15 2 14 3 13 4 11 5 12 6 8 7 7 8 6 9 3 10 4 11 87 12
REMARK SMILES IDX 5 13 85 14 86 15 2 16 1 17 9 18 10 19 17 20 18 21 19 22
REMARK SMILES IDX 20 23 21 24 22 25 23 26 84 27 24 28 83 29 25 30 26 31 27 32
REMARK SMILES IDX 77 33 28 34 82 35 76 36 78 37 29 38 81 39 75 40 74 41 30 43
REMARK SMILES IDX 62 44 42 45 61 46 43 47 46 48 60 49 79 50 44 51 45 52 59 54
REMARK SMILES IDX 80 55 47 56 31 57 32 58 40 59 33 60 35 61 41 62 34 63 36 64
REMARK SMILES IDX 37 65 38 66 39 67 63 68 64 69 72 70 65 71 67 72 73 73 66 74
REMARK SMILES IDX 68 75 69 76 70 77 71 78 48 79 49 80 57 81 50 82 52 83 58 84
REMARK SMILES IDX 51 85 53 86 54 87 55 88 56 89
REMARK H PARENT 78 42 46 53
REMARK Flexibility Score: inf
ROOT
ATOM      1  O   UNL A   1      37.582  21.013  25.452  1.00  0.00    -0.374 OA
ENDROOT
BRANCH   1   2
ATOM      2  C   UNL A   1      37.238  21.975  24.464  1.00  0.00     0.202 C 
BRANCH   2   3
ATOM      3  C   UNL A   1      35.989  22.828  24.694  1.00  0.00     0.261 C 
BRANCH   3   4
ATOM      4  O   UNL A   1      35.181  22.457  25.818  1.00  0.00    -0.461 OA
BRANCH   4   5
ATOM      5  C   UNL A   1      33.838  22.615  25.630  1.00  0.00     0.347 C 
ATOM      6  O   UNL A   1      33.011  22.674  26.537  1.00  0.00    -0.248 OA
BRANCH   5   7
ATOM      7  C   UNL A   1      33.441  22.591  24.145  1.00  0.00     0.282 C 
BRANCH   7   8
ATOM      8  O   UNL A   1      33.239  23.813  23.430  1.00  0.00    -0.477 OA
BRANCH   8   9
ATOM      9  C   UNL A   1      32.871  24.936  24.123  1.00  0.00     0.139 A 
ATOM     10  C   UNL A   1      32.054  27.330  25.411  1.00  0.00    -0.047 A 
ATOM     11  C   UNL A   1      33.404  26.967  25.349  1.00  0.00     0.007 A 
ATOM     12  C   UNL A   1      31.120  26.510  24.764  1.00  0.00     0.028 A 
ATOM     13  C   UNL A   1      33.807  25.807  24.681  1.00  0.00     0.048 A 
ATOM     14  C   UNL A   1      31.526  25.326  24.126  1.00  0.00     0.083 A 
ATOM     15  Cl  UNL A   1      30.327  24.391  23.302  1.00  0.00    -0.080 Cl
BRANCH  10  16
ATOM     16  C   UNL A   1      31.696  28.636  26.086  1.00  0.00     0.032 C 
ATOM     17  C   UNL A   1      32.519  29.020  27.307  1.00  0.00     0.009 C 
ENDBRANCH  10  16
ENDBRANCH   8   9
ENDBRANCH   7   8
BRANCH   7  18
ATOM     18  C   UNL A   1      32.331  21.564  23.848  1.00  0.00     0.054 C 
ATOM     19  C   UNL A   1      32.080  21.399  22.353  1.00  0.00     0.008 C 
ENDBRANCH   7  18
ENDBRANCH   5   7
ENDBRANCH   4   5
ENDBRANCH   3   4
ENDBRANCH   2   3
ENDBRANCH   1   2
BRANCH   1  20
ATOM     20  C   UNL A   1      38.120  19.765  25.013  1.00  0.00     0.202 C 
BRANCH  20  21
ATOM     21  C   UNL A   1      39.508  19.371  25.527  1.00  0.00     0.261 C 
BRANCH  21  22
ATOM     22  O   UNL A   1      39.815  19.954  26.806  1.00  0.00    -0.460 OA
BRANCH  22  23
ATOM     23  C   UNL A   1      41.089  20.396  26.940  1.00  0.00     0.338 C 
ATOM     24  O   UNL A   1      42.114  19.792  26.648  1.00  0.00    -0.246 OA
BRANCH  23  25
ATOM     25  C   UNL A   1      41.105  21.810  27.346  1.00  0.00     0.060 A 
ATOM     26  C   UNL A   1      40.447  22.740  26.527  1.00  0.00     0.016 A 
ATOM     27  C   UNL A   1      41.868  22.231  28.434  1.00  0.00     0.016 A 
ATOM     28  C   UNL A   1      40.601  24.106  26.762  1.00  0.00     0.010 A 
ATOM     29  C   UNL A   1      42.028  23.599  28.661  1.00  0.00     0.010 A 
ATOM     30  C   UNL A   1      41.432  24.540  27.801  1.00  0.00    -0.014 A 
BRANCH  30  31
ATOM     31  C   UNL A   1      41.812  25.968  27.914  1.00  0.00     0.031 A 
ATOM     32  C   UNL A   1      43.192  26.384  27.490  1.00  0.00     0.074 A 
ATOM     33  C   UNL A   1      40.965  26.863  28.450  1.00  0.00     0.049 A 
ATOM     34  N   UNL A   1      43.786  27.541  27.625  1.00  0.00    -0.248 NA
ATOM     35  C   UNL A   1      44.018  25.355  26.836  1.00  0.00     0.031 C 
ATOM     36  C   UNL A   1      39.606  26.570  28.898  1.00  0.00     0.029 A 
ATOM     37  N   UNL A   1      41.147  28.188  28.754  1.00  0.00    -0.354 N 
ATOM     38  C   UNL A   1      45.069  27.368  27.120  1.00  0.00     0.074 A 
ATOM     39  C   UNL A   1      45.166  25.996  26.669  1.00  0.00     0.031 C 
ATOM     40  C   UNL A   1      39.094  27.670  29.474  1.00  0.00     0.029 A 
ATOM     41  C   UNL A   1      40.101  28.730  29.462  1.00  0.00     0.049 A 
ATOM     42  H   UNL A   1      41.947  28.699  28.492  1.00  0.00     0.167 HD
ATOM     43  C   UNL A   1      46.074  28.271  27.036  1.00  0.00     0.034 A 
ATOM     44  C   UNL A   1      39.986  29.929  30.067  1.00  0.00     0.034 A 
ATOM     45  C   UNL A   1      45.962  29.639  27.461  1.00  0.00     0.049 A 
ATOM     46  C   UNL A   1      41.117  30.919  29.963  1.00  0.00     0.074 A 
ATOM     47  C   UNL A   1      46.894  30.654  27.347  1.00  0.00     0.029 A 
ATOM     48  N   UNL A   1      44.855  30.180  28.097  1.00  0.00    -0.354 N 
ATOM     49  N   UNL A   1      42.274  30.788  29.360  1.00  0.00    -0.248 NA
ATOM     50  C   UNL A   1      40.916  32.233  30.592  1.00  0.00     0.031 C 
ATOM     51  C   UNL A   1      46.360  31.805  27.937  1.00  0.00     0.029 A 
ATOM     52  C   UNL A   1      45.085  31.510  28.397  1.00  0.00     0.049 A 
ATOM     53  H   UNL A   1      44.027  29.689  28.304  1.00  0.00     0.167 HD
ATOM     54  C   UNL A   1      42.925  32.008  29.508  1.00  0.00     0.074 A 
ATOM     55  C   UNL A   1      42.026  32.872  30.246  1.00  0.00     0.031 C 
ATOM     56  C   UNL A   1      44.158  32.376  29.080  1.00  0.00     0.034 A 
BRANCH  43  57
ATOM     57  C   UNL A   1      47.380  27.810  26.447  1.00  0.00     0.023 A 
ATOM     58  C   UNL A   1      48.396  27.325  27.294  1.00  0.00     0.012 A 
ATOM     59  C   UNL A   1      47.583  27.814  25.054  1.00  0.00     0.148 A 
ATOM     60  C   UNL A   1      49.609  26.882  26.765  1.00  0.00     0.002 A 
ATOM     61  C   UNL A   1      48.779  27.333  24.531  1.00  0.00     0.091 A 
ATOM     62  F   UNL A   1      46.616  28.306  24.266  1.00  0.00    -0.205 F 
ATOM     63  C   UNL A   1      49.795  26.877  25.386  1.00  0.00     0.022 A 
BRANCH  61  64
ATOM     64  S   UNL A   1      49.076  27.220  22.763  1.00  0.00     0.127 S 
ATOM     65  O   UNL A   1      50.533  27.112  22.715  1.00  0.00    -0.237 OA
ATOM     66  O   UNL A   1      48.361  25.996  22.404  1.00  0.00    -0.237 OA
ATOM     67  O   UNL A   1      48.514  28.436  22.190  1.00  0.00    -0.744 OA
ENDBRANCH  61  64
ENDBRANCH  43  57
BRANCH  44  68
ATOM     68  C   UNL A   1      38.737  30.256  30.809  1.00  0.00     0.023 A 
ATOM     69  C   UNL A   1      38.614  29.884  32.161  1.00  0.00     0.012 A 
ATOM     70  C   UNL A   1      37.699  30.988  30.199  1.00  0.00     0.148 A 
ATOM     71  C   UNL A   1      37.472  30.220  32.888  1.00  0.00     0.002 A 
ATOM     72  C   UNL A   1      36.591  31.370  30.945  1.00  0.00     0.091 A 
ATOM     73  F   UNL A   1      37.832  31.319  28.906  1.00  0.00    -0.205 F 
ATOM     74  C   UNL A   1      36.467  30.973  32.284  1.00  0.00     0.022 A 
BRANCH  72  75
ATOM     75  S   UNL A   1      35.320  32.463  30.297  1.00  0.00     0.127 S 
ATOM     76  O   UNL A   1      36.082  33.678  30.024  1.00  0.00    -0.237 OA
ATOM     77  O   UNL A   1      34.875  31.731  29.110  1.00  0.00    -0.237 OA
ATOM     78  O   UNL A   1      34.317  32.569  31.349  1.00  0.00    -0.744 OA
ENDBRANCH  72  75
ENDBRANCH  44  68
BRANCH  56  79
ATOM     79  C   UNL A   1      44.611  33.786  29.358  1.00  0.00     0.023 A 
ATOM     80  C   UNL A   1      45.225  34.095  30.588  1.00  0.00     0.012 A 
ATOM     81  C   UNL A   1      44.528  34.775  28.358  1.00  0.00     0.148 A 
ATOM     82  C   UNL A   1      45.732  35.372  30.824  1.00  0.00     0.002 A 
ATOM     83  C   UNL A   1      45.076  36.033  28.583  1.00  0.00     0.091 A 
ATOM     84  F   UNL A   1      43.924  34.465  27.201  1.00  0.00    -0.205 F 
ATOM     85  C   UNL A   1      45.670  36.335  29.819  1.00  0.00     0.022 A 
BRANCH  83  86
ATOM     86  S   UNL A   1      45.127  37.301  27.313  1.00  0.00     0.127 S 
ATOM     87  O   UNL A   1      45.930  36.653  26.277  1.00  0.00    -0.237 OA
ATOM     88  O   UNL A   1      43.712  37.463  26.976  1.00  0.00    -0.237 OA
ATOM     89  O   UNL A   1      45.736  38.469  27.936  1.00  0.00    -0.744 OA
ENDBRANCH  83  86
ENDBRANCH  56  79
ENDBRANCH  30  31
ENDBRANCH  23  25
ENDBRANCH  22  23
ENDBRANCH  21  22
ENDBRANCH  20  21
ENDBRANCH   1  20
TORSDOF 21
ENDMDL
MODEL 2
REMARK VINA RESULT:      -9.9      2.386      3.021
REMARK SMILES CCc1ccc(O[C@H](CC)C(=O)OCCOCCOC(=O)c2ccc(-c3c4nc(c(-c5cccc(S(=O)(=O)[O-])c5F)c5ccc([nH]5)c(-c5cccc(S(=O)(=O)[O-])c5F)c5nc(c(-c6cccc(S(=O)(=O)[O-])c6F)c6ccc3[nH]6)C=C5)C=C4)cc2)c(Cl)c1
REMARK SMILES IDX 16 1 15 2 14 3 13 4 11 5 12 6 8 7 7 8 6 9 3 10 4 11 87 12
REMARK SMILES IDX 5 13 85 14 86 15 2 16 1 17 9 18 10 19 17 20 18 21 19 22
REMARK SMILES IDX 20 23 21 24 22 25 23 26 84 27 24 28 83 29 25 30 26 31 27 32
REMARK SMILES IDX 77 33 28 34 82 35 76 36 78 37 29 38 81 39 75 40 74 41 30 43
REMARK SMILES IDX 62 44 42 45 61 46 43 47 46 48 60 49 79 50 44 51 45 52 59 54
REMARK SMILES IDX 80 55 47 56 31 57 32 58 40 59 33 60 35 61 41 62 34 63 36 64
REMARK SMILES IDX 37 65 38 66 39 67 63 68 64 69 72 70 65 71 67 72 73 73 66 74
REMARK SMILES IDX 68 75 69 76 70 77 71 78 48 79 49 80 57 81 50 82 52 83 58 84
REMARK SMILES IDX 51 85 53 86 54 87 55 88 56 89
REMARK H PARENT 78 42 46 53
REMARK Flexibility Score: inf
ROOT
ATOM      1  O   UNL A   1      35.695  21.984  26.163  1.00  0.00    -0.374 OA
ENDROOT
BRANCH   1   2
ATOM      2  C   UNL A   1      34.504  22.186  26.911  1.00  0.00     0.202 C 
BRANCH   2   3
ATOM      3  C   UNL A   1      33.166  22.098  26.173  1.00  0.00     0.261 C 
BRANCH   3   4
ATOM      4  O   UNL A   1      32.309  23.240  26.302  1.00  0.00    -0.461 OA
BRANCH   4   5
ATOM      5  C   UNL A   1      31.753  23.669  25.132  1.00  0.00     0.347 C 
ATOM      6  O   UNL A   1      31.323  22.926  24.253  1.00  0.00    -0.248 OA
BRANCH   5   7
ATOM      7  C   UNL A   1      31.828  25.195  24.967  1.00  0.00     0.282 C 
BRANCH   7   8
ATOM      8  O   UNL A   1      31.668  25.792  23.676  1.00  0.00    -0.477 OA
BRANCH   8   9
ATOM      9  C   UNL A   1      30.667  26.708  23.486  1.00  0.00     0.139 A 
ATOM     10  C   UNL A   1      28.652  28.690  23.228  1.00  0.00    -0.047 A 
ATOM     11  C   UNL A   1      28.328  27.365  23.540  1.00  0.00     0.007 A 
ATOM     12  C   UNL A   1      30.007  29.026  23.108  1.00  0.00     0.028 A 
ATOM     13  C   UNL A   1      29.324  26.399  23.704  1.00  0.00     0.048 A 
ATOM     14  C   UNL A   1      31.004  28.044  23.236  1.00  0.00     0.083 A 
ATOM     15  Cl  UNL A   1      32.657  28.540  23.129  1.00  0.00    -0.080 Cl
BRANCH  10  16
ATOM     16  C   UNL A   1      27.529  29.699  23.138  1.00  0.00     0.032 C 
ATOM     17  C   UNL A   1      27.915  31.164  23.283  1.00  0.00     0.009 C 
ENDBRANCH  10  16
ENDBRANCH   8   9
ENDBRANCH   7   8
BRANCH   7  18
ATOM     18  C   UNL A   1      33.007  25.816  25.741  1.00  0.00     0.054 C 
ATOM     19  C   UNL A   1      34.351  25.518  25.085  1.00  0.00     0.008 C 
ENDBRANCH   7  18
ENDBRANCH   5   7
ENDBRANCH   4   5
ENDBRANCH   3   4
ENDBRANCH   2   3
ENDBRANCH   1   2
BRANCH   1  20
ATOM     20  C   UNL A   1      35.789  20.810  25.358  1.00  0.00     0.202 C 
BRANCH  20  21
ATOM     21  C   UNL A   1      37.191  20.310  24.994  1.00  0.00     0.261 C 
BRANCH  21  22
ATOM     22  O   UNL A   1      38.182  21.352  25.035  1.00  0.00    -0.460 OA
BRANCH  22  23
ATOM     23  C   UNL A   1      39.138  21.193  25.983  1.00  0.00     0.338 C 
ATOM     24  O   UNL A   1      39.767  20.172  26.232  1.00  0.00    -0.246 OA
BRANCH  23  25
ATOM     25  C   UNL A   1      39.464  22.485  26.608  1.00  0.00     0.060 A 
ATOM     26  C   UNL A   1      38.722  23.612  26.223  1.00  0.00     0.016 A 
ATOM     27  C   UNL A   1      40.569  22.610  27.450  1.00  0.00     0.016 A 
ATOM     28  C   UNL A   1      39.123  24.882  26.634  1.00  0.00     0.010 A 
ATOM     29  C   UNL A   1      40.972  23.885  27.852  1.00  0.00     0.010 A 
ATOM     30  C   UNL A   1      40.277  25.026  27.412  1.00  0.00    -0.014 A 
BRANCH  30  31
ATOM     31  C   UNL A   1      40.862  26.367  27.648  1.00  0.00     0.031 A 
ATOM     32  C   UNL A   1      42.268  26.634  27.190  1.00  0.00     0.074 A 
ATOM     33  C   UNL A   1      40.176  27.305  28.321  1.00  0.00     0.049 A 
ATOM     34  N   UNL A   1      43.027  27.676  27.409  1.00  0.00    -0.248 NA
ATOM     35  C   UNL A   1      42.910  25.579  26.388  1.00  0.00     0.031 C 
ATOM     36  C   UNL A   1      38.809  27.155  28.815  1.00  0.00     0.029 A 
ATOM     37  N   UNL A   1      40.558  28.551  28.749  1.00  0.00    -0.354 N 
ATOM     38  C   UNL A   1      44.249  27.384  26.816  1.00  0.00     0.074 A 
ATOM     39  C   UNL A   1      44.130  26.070  26.221  1.00  0.00     0.031 C 
ATOM     40  C   UNL A   1      38.484  28.245  29.529  1.00  0.00     0.029 A 
ATOM     41  C   UNL A   1      39.631  29.152  29.568  1.00  0.00     0.049 A 
ATOM     42  H   UNL A   1      41.411  28.973  28.495  1.00  0.00     0.167 HD
ATOM     43  C   UNL A   1      45.368  28.144  26.768  1.00  0.00     0.034 A 
ATOM     44  C   UNL A   1      39.715  30.281  30.299  1.00  0.00     0.034 A 
ATOM     45  C   UNL A   1      45.471  29.460  27.336  1.00  0.00     0.049 A 
ATOM     46  C   UNL A   1      40.970  31.112  30.232  1.00  0.00     0.074 A 
ATOM     47  C   UNL A   1      46.534  30.343  27.273  1.00  0.00     0.029 A 
ATOM     48  N   UNL A   1      44.481  30.075  28.087  1.00  0.00    -0.354 N 
ATOM     49  N   UNL A   1      42.070  30.890  29.553  1.00  0.00    -0.248 NA
ATOM     50  C   UNL A   1      40.986  32.363  31.003  1.00  0.00     0.031 C 
ATOM     51  C   UNL A   1      46.194  31.484  28.008  1.00  0.00     0.029 A 
ATOM     52  C   UNL A   1      44.912  31.319  28.509  1.00  0.00     0.049 A 
ATOM     53  H   UNL A   1      43.601  29.682  28.290  1.00  0.00     0.167 HD
ATOM     54  C   UNL A   1      42.894  31.985  29.788  1.00  0.00     0.074 A 
ATOM     55  C   UNL A   1      42.160  32.877  30.662  1.00  0.00     0.031 C 
ATOM     56  C   UNL A   1      44.148  32.224  29.330  1.00  0.00     0.034 A 
BRANCH  43  57
ATOM     57  C   UNL A   1      46.568  27.575  26.060  1.00  0.00     0.023 A 
ATOM     58  C   UNL A   1      46.732  27.789  24.677  1.00  0.00     0.012 A 
ATOM     59  C   UNL A   1      47.556  26.868  26.773  1.00  0.00     0.148 A 
ATOM     60  C   UNL A   1      47.844  27.280  24.006  1.00  0.00     0.002 A 
ATOM     61  C   UNL A   1      48.682  26.398  26.105  1.00  0.00     0.091 A 
ATOM     62  F   UNL A   1      47.370  26.649  28.082  1.00  0.00    -0.205 F 
ATOM     63  C   UNL A   1      48.822  26.594  24.722  1.00  0.00     0.022 A 
BRANCH  61  64
ATOM     64  S   UNL A   1      50.027  25.569  26.959  1.00  0.00     0.127 S 
ATOM     65  O   UNL A   1      50.371  26.548  27.989  1.00  0.00    -0.237 OA
ATOM     66  O   UNL A   1      49.378  24.358  27.462  1.00  0.00    -0.237 OA
ATOM     67  O   UNL A   1      51.049  25.329  25.950  1.00  0.00    -0.744 OA
ENDBRANCH  61  64
ENDBRANCH  43  57
BRANCH  44  68
ATOM     68  C   UNL A   1      38.558  30.693  31.142  1.00  0.00     0.023 A 
ATOM     69  C   UNL A   1      38.596  30.472  32.531  1.00  0.00     0.012 A 
ATOM     70  C   UNL A   1      37.450  31.358  30.579  1.00  0.00     0.148 A 
ATOM     71  C   UNL A   1      37.544  30.892  33.345  1.00  0.00     0.002 A 
ATOM     72  C   UNL A   1      36.433  31.825  31.403  1.00  0.00     0.091 A 
ATOM     73  F   UNL A   1      37.429  31.544  29.252  1.00  0.00    -0.205 F 
ATOM     74  C   UNL A   1      36.470  31.578  32.784  1.00  0.00     0.022 A 
BRANCH  72  75
ATOM     75  S   UNL A   1      35.087  32.846  30.793  1.00  0.00     0.127 S 
ATOM     76  O   UNL A   1      34.236  32.957  31.975  1.00  0.00    -0.237 OA
ATOM     77  O   UNL A   1      35.790  34.074  30.419  1.00  0.00    -0.237 OA
ATOM     78  O   UNL A   1      34.515  32.115  29.670  1.00  0.00    -0.744 OA
ENDBRANCH  72  75
ENDBRANCH  44  68
BRANCH  56  79
ATOM     79  C   UNL A   1      44.810  33.519  29.724  1.00  0.00     0.023 A 
ATOM     80  C   UNL A   1      44.636  34.666  28.924  1.00  0.00     0.012 A 
ATOM     81  C   UNL A   1      45.509  33.624  30.942  1.00  0.00     0.148 A 
ATOM     82  C   UNL A   1      45.165  35.892  29.322  1.00  0.00     0.002 A 
ATOM     83  C   UNL A   1      45.995  34.859  31.355  1.00  0.00     0.091 A 
ATOM     84  F   UNL A   1      45.679  32.516  31.680  1.00  0.00    -0.205 F 
ATOM     85  C   UNL A   1      45.831  35.992  30.542  1.00  0.00     0.022 A 
BRANCH  83  86
ATOM     86  S   UNL A   1      46.779  35.100  32.953  1.00  0.00     0.127 S 
ATOM     87  O   UNL A   1      47.067  36.533  32.931  1.00  0.00    -0.237 OA
ATOM     88  O   UNL A   1      45.720  34.706  33.883  1.00  0.00    -0.237 OA
ATOM     89  O   UNL A   1      47.946  34.227  32.963  1.00  0.00    -0.744 OA
ENDBRANCH  83  86
ENDBRANCH  56  79
ENDBRANCH  30  31
ENDBRANCH  23  25
ENDBRANCH  22  23
ENDBRANCH  21  22
ENDBRANCH  20  21
ENDBRANCH   1  20
TORSDOF 21
ENDMDL
MODEL 3
REMARK VINA RESULT:      -9.8      1.564      2.278
REMARK SMILES CCc1ccc(O[C@H](CC)C(=O)OCCOCCOC(=O)c2ccc(-c3c4nc(c(-c5cccc(S(=O)(=O)[O-])c5F)c5ccc([nH]5)c(-c5cccc(S(=O)(=O)[O-])c5F)c5nc(c(-c6cccc(S(=O)(=O)[O-])c6F)c6ccc3[nH]6)C=C5)C=C4)cc2)c(Cl)c1
REMARK SMILES IDX 16 1 15 2 14 3 13 4 11 5 12 6 8 7 7 8 6 9 3 10 4 11 87 12
REMARK SMILES IDX 5 13 85 14 86 15 2 16 1 17 9 18 10 19 17 20 18 21 19 22
REMARK SMILES IDX 20 23 21 24 22 25 23 26 84 27 24 28 83 29 25 30 26 31 27 32
REMARK SMILES IDX 77 33 28 34 82 35 76 36 78 37 29 38 81 39 75 40 74 41 30 43
REMARK SMILES IDX 62 44 42 45 61 46 43 47 46 48 60 49 79 50 44 51 45 52 59 54
REMARK SMILES IDX 80 55 47 56 31 57 32 58 40 59 33 60 35 61 41 62 34 63 36 64
REMARK SMILES IDX 37 65 38 66 39 67 63 68 64 69 72 70 65 71 67 72 73 73 66 74
REMARK SMILES IDX 68 75 69 76 70 77 71 78 48 79 49 80 57 81 50 82 52 83 58 84
REMARK SMILES IDX 51 85 53 86 54 87 55 88 56 89
REMARK H PARENT 78 42 46 53
REMARK Flexibility Score: inf
ROOT
ATOM      1  O   UNL A   1      36.283  22.322  25.908  1.00  0.00    -0.374 OA
ENDROOT
BRANCH   1   2
ATOM      2  C   UNL A   1      35.064  23.048  25.993  1.00  0.00     0.202 C 
BRANCH   2   3
ATOM      3  C   UNL A   1      34.184  23.126  24.744  1.00  0.00     0.261 C 
BRANCH   3   4
ATOM      4  O   UNL A   1      33.468  24.355  24.565  1.00  0.00    -0.461 OA
BRANCH   4   5
ATOM      5  C   UNL A   1      32.122  24.208  24.392  1.00  0.00     0.347 C 
ATOM      6  O   UNL A   1      31.575  23.164  24.046  1.00  0.00    -0.248 OA
BRANCH   5   7
ATOM      7  C   UNL A   1      31.357  25.532  24.555  1.00  0.00     0.282 C 
BRANCH   7   8
ATOM      8  O   UNL A   1      31.826  26.723  23.916  1.00  0.00    -0.477 OA
BRANCH   8   9
ATOM      9  C   UNL A   1      30.940  27.738  23.668  1.00  0.00     0.139 A 
ATOM     10  C   UNL A   1      29.089  29.863  23.322  1.00  0.00    -0.047 A 
ATOM     11  C   UNL A   1      28.769  28.554  22.941  1.00  0.00     0.007 A 
ATOM     12  C   UNL A   1      30.328  30.084  23.938  1.00  0.00     0.028 A 
ATOM     13  C   UNL A   1      29.666  27.503  23.148  1.00  0.00     0.048 A 
ATOM     14  C   UNL A   1      31.243  29.032  24.109  1.00  0.00     0.083 A 
ATOM     15  Cl  UNL A   1      32.730  29.367  24.925  1.00  0.00    -0.080 Cl
BRANCH  10  16
ATOM     16  C   UNL A   1      28.042  30.938  23.137  1.00  0.00     0.032 C 
ATOM     17  C   UNL A   1      28.509  32.378  23.295  1.00  0.00     0.009 C 
ENDBRANCH  10  16
ENDBRANCH   8   9
ENDBRANCH   7   8
BRANCH   7  18
ATOM     18  C   UNL A   1      30.937  25.794  26.015  1.00  0.00     0.054 C 
ATOM     19  C   UNL A   1      29.579  25.183  26.346  1.00  0.00     0.008 C 
ENDBRANCH   7  18
ENDBRANCH   5   7
ENDBRANCH   4   5
ENDBRANCH   3   4
ENDBRANCH   2   3
ENDBRANCH   1   2
BRANCH   1  20
ATOM     20  C   UNL A   1      36.260  21.046  25.269  1.00  0.00     0.202 C 
BRANCH  20  21
ATOM     21  C   UNL A   1      37.586  20.287  25.152  1.00  0.00     0.261 C 
BRANCH  21  22
ATOM     22  O   UNL A   1      38.726  21.164  25.102  1.00  0.00    -0.460 OA
BRANCH  22  23
ATOM     23  C   UNL A   1      39.571  21.060  26.157  1.00  0.00     0.338 C 
ATOM     24  O   UNL A   1      40.168  20.056  26.528  1.00  0.00    -0.246 OA
BRANCH  23  25
ATOM     25  C   UNL A   1      39.830  22.384  26.743  1.00  0.00     0.060 A 
ATOM     26  C   UNL A   1      39.129  23.484  26.226  1.00  0.00     0.016 A 
ATOM     27  C   UNL A   1      40.842  22.561  27.686  1.00  0.00     0.016 A 
ATOM     28  C   UNL A   1      39.482  24.777  26.610  1.00  0.00     0.010 A 
ATOM     29  C   UNL A   1      41.200  23.858  28.061  1.00  0.00     0.010 A 
ATOM     30  C   UNL A   1      40.551  24.970  27.492  1.00  0.00    -0.014 A 
BRANCH  30  31
ATOM     31  C   UNL A   1      41.106  26.325  27.717  1.00  0.00     0.031 A 
ATOM     32  C   UNL A   1      42.520  26.607  27.294  1.00  0.00     0.074 A 
ATOM     33  C   UNL A   1      40.385  27.265  28.351  1.00  0.00     0.049 A 
ATOM     34  N   UNL A   1      43.254  27.667  27.511  1.00  0.00    -0.248 NA
ATOM     35  C   UNL A   1      43.202  25.548  26.532  1.00  0.00     0.031 C 
ATOM     36  C   UNL A   1      39.007  27.100  28.809  1.00  0.00     0.029 A 
ATOM     37  N   UNL A   1      40.733  28.526  28.763  1.00  0.00    -0.354 N 
ATOM     38  C   UNL A   1      44.497  27.385  26.960  1.00  0.00     0.074 A 
ATOM     39  C   UNL A   1      44.417  26.057  26.389  1.00  0.00     0.031 C 
ATOM     40  C   UNL A   1      38.644  28.199  29.491  1.00  0.00     0.029 A 
ATOM     41  C   UNL A   1      39.773  29.126  29.543  1.00  0.00     0.049 A 
ATOM     42  H   UNL A   1      41.586  28.957  28.524  1.00  0.00     0.167 HD
ATOM     43  C   UNL A   1      45.604  28.163  26.927  1.00  0.00     0.034 A 
ATOM     44  C   UNL A   1      39.817  30.272  30.252  1.00  0.00     0.034 A 
ATOM     45  C   UNL A   1      45.669  29.492  27.470  1.00  0.00     0.049 A 
ATOM     46  C   UNL A   1      41.059  31.123  30.203  1.00  0.00     0.074 A 
ATOM     47  C   UNL A   1      46.717  30.393  27.419  1.00  0.00     0.029 A 
ATOM     48  N   UNL A   1      44.647  30.105  28.180  1.00  0.00    -0.354 N 
ATOM     49  N   UNL A   1      42.182  30.906  29.560  1.00  0.00    -0.248 NA
ATOM     50  C   UNL A   1      41.031  32.390  30.948  1.00  0.00     0.031 C 
ATOM     51  C   UNL A   1      46.337  31.542  28.120  1.00  0.00     0.029 A 
ATOM     52  C   UNL A   1      45.044  31.365  28.588  1.00  0.00     0.049 A 
ATOM     53  H   UNL A   1      43.768  29.701  28.366  1.00  0.00     0.167 HD
ATOM     54  C   UNL A   1      42.980  32.021  29.795  1.00  0.00     0.074 A 
ATOM     55  C   UNL A   1      42.206  32.918  30.629  1.00  0.00     0.031 C 
ATOM     56  C   UNL A   1      44.242  32.273  29.367  1.00  0.00     0.034 A 
BRANCH  43  57
ATOM     57  C   UNL A   1      46.834  27.601  26.265  1.00  0.00     0.023 A 
ATOM     58  C   UNL A   1      47.685  26.741  26.987  1.00  0.00     0.012 A 
ATOM     59  C   UNL A   1      47.121  27.888  24.917  1.00  0.00     0.148 A 
ATOM     60  C   UNL A   1      48.822  26.200  26.387  1.00  0.00     0.002 A 
ATOM     61  C   UNL A   1      48.235  27.314  24.313  1.00  0.00     0.091 A 
ATOM     62  F   UNL A   1      46.317  28.732  24.255  1.00  0.00    -0.205 F 
ATOM     63  C   UNL A   1      49.091  26.479  25.049  1.00  0.00     0.022 A 
BRANCH  61  64
ATOM     64  S   UNL A   1      48.617  27.558  22.575  1.00  0.00     0.127 S 
ATOM     65  O   UNL A   1      47.548  28.466  22.163  1.00  0.00    -0.237 OA
ATOM     66  O   UNL A   1      49.946  28.166  22.630  1.00  0.00    -0.237 OA
ATOM     67  O   UNL A   1      48.585  26.232  21.973  1.00  0.00    -0.744 OA
ENDBRANCH  61  64
ENDBRANCH  43  57
BRANCH  44  68
ATOM     68  C   UNL A   1      38.629  30.680  31.053  1.00  0.00     0.023 A 
ATOM     69  C   UNL A   1      38.623  30.468  32.443  1.00  0.00     0.012 A 
ATOM     70  C   UNL A   1      37.537  31.334  30.450  1.00  0.00     0.148 A 
ATOM     71  C   UNL A   1      37.540  30.885  33.219  1.00  0.00     0.002 A 
ATOM     72  C   UNL A   1      36.489  31.799  31.236  1.00  0.00     0.091 A 
ATOM     73  F   UNL A   1      37.558  31.513  29.121  1.00  0.00    -0.205 F 
ATOM     74  C   UNL A   1      36.481  31.560  32.619  1.00  0.00     0.022 A 
BRANCH  72  75
ATOM     75  S   UNL A   1      35.157  32.806  30.575  1.00  0.00     0.127 S 
ATOM     76  O   UNL A   1      34.238  32.868  31.709  1.00  0.00    -0.237 OA
ATOM     77  O   UNL A   1      35.852  34.058  30.273  1.00  0.00    -0.237 OA
ATOM     78  O   UNL A   1      34.667  32.093  29.403  1.00  0.00    -0.744 OA
ENDBRANCH  72  75
ENDBRANCH  44  68
BRANCH  56  79
ATOM     79  C   UNL A   1      44.870  33.587  29.753  1.00  0.00     0.023 A 
ATOM     80  C   UNL A   1      45.624  33.681  30.939  1.00  0.00     0.012 A 
ATOM     81  C   UNL A   1      44.803  34.694  28.884  1.00  0.00     0.148 A 
ATOM     82  C   UNL A   1      46.286  34.864  31.263  1.00  0.00     0.002 A 
ATOM     83  C   UNL A   1      45.503  35.856  29.191  1.00  0.00     0.091 A 
ATOM     84  F   UNL A   1      44.065  34.589  27.769  1.00  0.00    -0.205 F 
ATOM     85  C   UNL A   1      46.238  35.945  30.385  1.00  0.00     0.022 A 
BRANCH  83  86
ATOM     86  S   UNL A   1      45.576  37.260  28.073  1.00  0.00     0.127 S 
ATOM     87  O   UNL A   1      46.424  38.189  28.817  1.00  0.00    -0.237 OA
ATOM     88  O   UNL A   1      46.203  36.680  26.885  1.00  0.00    -0.237 OA
ATOM     89  O   UNL A   1      44.197  37.689  27.878  1.00  0.00    -0.744 OA
ENDBRANCH  83  86
ENDBRANCH  56  79
ENDBRANCH  30  31
ENDBRANCH  23  25
ENDBRANCH  22  23
ENDBRANCH  21  22
ENDBRANCH  20  21
ENDBRANCH   1  20
TORSDOF 21
ENDMDL
