MODEL 1
REMARK VINA RESULT:     -11.3      0.000      0.000
REMARK SMILES C[C@H](NC(=O)c1c(C(=O)OCCOCCOC(=O)c2ccc(-c3c4nc(c(-c5cccc(S(=O)(=O)[O-])c5F)c5ccc([nH]5)c(-c5cccc(S(=O)(=O)[O-])c5F)c5nc(c(-c6cccc(S(=O)(=O)[O-])c6F)c6ccc3[nH]6)C=C5)C=C4)cc2)cnn1C)[C@]12C[C@H]3C[C@H](C[C@H](C3)C1)C2
REMARK SMILES IDX 13 1 12 2 11 3 10 4 8 5 9 6 7 7 6 8 84 9 82 10 83 11 85 12
REMARK SMILES IDX 4 13 3 14 5 16 2 17 1 18 86 19 87 20 94 21 95 22 88 23 92 24
REMARK SMILES IDX 90 25 89 26 93 27 91 28 14 29 15 30 16 31 17 32 18 33 19 34
REMARK SMILES IDX 20 35 81 36 21 37 80 38 22 39 23 40 24 41 74 42 25 43 79 44
REMARK SMILES IDX 73 45 75 46 26 47 78 48 72 49 71 50 27 52 59 53 39 54 58 55
REMARK SMILES IDX 40 56 43 57 57 58 76 59 41 60 42 61 56 63 77 64 44 65 28 66
REMARK SMILES IDX 29 67 37 68 30 69 32 70 38 71 31 72 33 73 34 74 35 75 36 76
REMARK SMILES IDX 60 77 61 78 69 79 62 80 64 81 70 82 63 83 65 84 66 85 67 86
REMARK SMILES IDX 68 87 45 88 46 89 54 90 47 91 49 92 55 93 48 94 50 95 51 96
REMARK SMILES IDX 52 97 53 98
REMARK H PARENT 3 15 75 51 43 62
REMARK Flexibility Score: inf
ROOT
ATOM      1  O   UNL A   1      37.391  20.581  24.701  1.00  0.00    -0.374 OA
ENDROOT
BRANCH   1   2
ATOM      2  C   UNL A   1      36.169  21.065  25.265  1.00  0.00     0.202 C 
BRANCH   2   3
ATOM      3  C   UNL A   1      34.916  20.326  24.793  1.00  0.00     0.261 C 
BRANCH   3   4
ATOM      4  O   UNL A   1      33.743  20.896  25.395  1.00  0.00    -0.460 OA
BRANCH   4   5
ATOM      5  C   UNL A   1      33.124  21.868  24.678  1.00  0.00     0.342 C 
ATOM      6  O   UNL A   1      33.147  21.948  23.453  1.00  0.00    -0.246 OA
BRANCH   5   7
ATOM      7  C   UNL A   1      32.313  22.774  25.473  1.00  0.00     0.111 A 
ATOM      8  C   UNL A   1      31.439  23.805  25.113  1.00  0.00     0.140 A 
ATOM      9  N   UNL A   1      30.841  24.161  26.300  1.00  0.00    -0.262 N 
ATOM     10  C   UNL A   1      32.310  22.780  26.885  1.00  0.00     0.151 A 
ATOM     11  N   UNL A   1      31.463  23.671  27.393  1.00  0.00    -0.180 NA
ATOM     12  C   UNL A   1      29.594  24.857  26.513  1.00  0.00     0.174 C 
BRANCH   8  13
ATOM     13  C   UNL A   1      31.091  24.268  23.791  1.00  0.00     0.270 C 
ATOM     14  N   UNL A   1      31.880  25.173  23.115  1.00  0.00    -0.348 N 
ATOM     15  H   UNL A   1      31.584  25.338  22.191  1.00  0.00     0.164 HD
ATOM     16  O   UNL A   1      30.101  23.842  23.200  1.00  0.00    -0.267 OA
BRANCH  14  17
ATOM     17  C   UNL A   1      33.075  25.941  23.495  1.00  0.00     0.085 C 
ATOM     18  C   UNL A   1      33.828  26.448  22.258  1.00  0.00     0.031 C 
BRANCH  17  19
ATOM     19  C   UNL A   1      32.837  27.073  24.600  1.00  0.00    -0.009 C 
ATOM     20  C   UNL A   1      31.370  27.603  24.633  1.00  0.00     0.012 C 
ATOM     21  C   UNL A   1      33.762  28.286  24.256  1.00  0.00     0.012 C 
ATOM     22  C   UNL A   1      33.196  26.635  26.052  1.00  0.00     0.012 C 
ATOM     23  C   UNL A   1      31.199  28.761  25.632  1.00  0.00    -0.010 C 
ATOM     24  C   UNL A   1      33.590  29.444  25.256  1.00  0.00    -0.010 C 
ATOM     25  C   UNL A   1      33.020  27.791  27.059  1.00  0.00    -0.010 C 
ATOM     26  C   UNL A   1      31.562  28.273  27.039  1.00  0.00     0.007 C 
ATOM     27  C   UNL A   1      32.130  29.918  25.232  1.00  0.00     0.007 C 
ATOM     28  C   UNL A   1      33.941  28.955  26.668  1.00  0.00     0.007 C 
ENDBRANCH  17  19
ENDBRANCH  14  17
ENDBRANCH   8  13
ENDBRANCH   5   7
ENDBRANCH   4   5
ENDBRANCH   3   4
ENDBRANCH   2   3
ENDBRANCH   1   2
BRANCH   1  29
ATOM     29  C   UNL A   1      38.583  20.888  25.430  1.00  0.00     0.202 C 
BRANCH  29  30
ATOM     30  C   UNL A   1      39.382  19.669  25.899  1.00  0.00     0.261 C 
BRANCH  30  31
ATOM     31  O   UNL A   1      40.731  19.718  25.400  1.00  0.00    -0.460 OA
BRANCH  31  32
ATOM     32  C   UNL A   1      41.686  19.898  26.345  1.00  0.00     0.338 C 
ATOM     33  O   UNL A   1      42.500  19.077  26.732  1.00  0.00    -0.246 OA
BRANCH  32  34
ATOM     34  C   UNL A   1      41.735  21.320  26.747  1.00  0.00     0.060 A 
ATOM     35  C   UNL A   1      41.738  22.275  25.722  1.00  0.00     0.016 A 
ATOM     36  C   UNL A   1      41.819  21.718  28.084  1.00  0.00     0.016 A 
ATOM     37  C   UNL A   1      41.883  23.627  26.025  1.00  0.00     0.010 A 
ATOM     38  C   UNL A   1      41.971  23.076  28.386  1.00  0.00     0.010 A 
ATOM     39  C   UNL A   1      42.041  24.032  27.357  1.00  0.00    -0.014 A 
BRANCH  39  40
ATOM     40  C   UNL A   1      42.415  25.436  27.653  1.00  0.00     0.031 A 
ATOM     41  C   UNL A   1      43.791  25.919  27.286  1.00  0.00     0.074 A 
ATOM     42  C   UNL A   1      41.540  26.274  28.236  1.00  0.00     0.049 A 
ATOM     43  N   UNL A   1      44.324  27.101  27.451  1.00  0.00    -0.248 NA
ATOM     44  C   UNL A   1      44.686  24.938  26.650  1.00  0.00     0.031 C 
ATOM     45  C   UNL A   1      40.183  25.921  28.651  1.00  0.00     0.029 A 
ATOM     46  N   UNL A   1      41.676  27.589  28.603  1.00  0.00    -0.354 N 
ATOM     47  C   UNL A   1      45.620  27.004  26.957  1.00  0.00     0.074 A 
ATOM     48  C   UNL A   1      45.799  25.641  26.505  1.00  0.00     0.031 C 
ATOM     49  C   UNL A   1      39.624  26.986  29.252  1.00  0.00     0.029 A 
ATOM     50  C   UNL A   1      40.584  28.088  29.271  1.00  0.00     0.049 A 
ATOM     51  H   UNL A   1      42.479  28.124  28.407  1.00  0.00     0.167 HD
ATOM     52  C   UNL A   1      46.567  27.968  26.866  1.00  0.00     0.034 A 
ATOM     53  C   UNL A   1      40.388  29.291  29.847  1.00  0.00     0.034 A 
ATOM     54  C   UNL A   1      46.386  29.326  27.299  1.00  0.00     0.049 A 
ATOM     55  C   UNL A   1      41.459  30.345  29.741  1.00  0.00     0.074 A 
ATOM     56  C   UNL A   1      47.271  30.385  27.208  1.00  0.00     0.029 A 
ATOM     57  N   UNL A   1      45.243  29.812  27.915  1.00  0.00    -0.354 N 
ATOM     58  N   UNL A   1      42.628  30.278  29.150  1.00  0.00    -0.248 NA
ATOM     59  C   UNL A   1      41.170  31.653  30.348  1.00  0.00     0.031 C 
ATOM     60  C   UNL A   1      46.670  31.510  27.782  1.00  0.00     0.029 A 
ATOM     61  C   UNL A   1      45.403  31.154  28.219  1.00  0.00     0.049 A 
ATOM     62  H   UNL A   1      44.437  29.282  28.110  1.00  0.00     0.167 HD
ATOM     63  C   UNL A   1      43.201  31.537  29.290  1.00  0.00     0.074 A 
ATOM     64  C   UNL A   1      42.241  32.355  30.002  1.00  0.00     0.031 C 
ATOM     65  C   UNL A   1      44.420  31.972  28.882  1.00  0.00     0.034 A 
BRANCH  52  66
ATOM     66  C   UNL A   1      47.877  27.587  26.229  1.00  0.00     0.023 A 
ATOM     67  C   UNL A   1      48.932  27.129  27.043  1.00  0.00     0.012 A 
ATOM     68  C   UNL A   1      48.055  27.647  24.834  1.00  0.00     0.148 A 
ATOM     69  C   UNL A   1      50.155  26.767  26.483  1.00  0.00     0.002 A 
ATOM     70  C   UNL A   1      49.266  27.249  24.278  1.00  0.00     0.091 A 
ATOM     71  F   UNL A   1      47.050  28.113  24.078  1.00  0.00    -0.205 F 
ATOM     72  C   UNL A   1      50.319  26.816  25.100  1.00  0.00     0.022 A 
BRANCH  70  73
ATOM     73  S   UNL A   1      49.541  27.220  22.503  1.00  0.00     0.127 S 
ATOM     74  O   UNL A   1      50.970  26.922  22.431  1.00  0.00    -0.237 OA
ATOM     75  O   UNL A   1      48.668  26.130  22.068  1.00  0.00    -0.237 OA
ATOM     76  O   UNL A   1      49.145  28.536  22.021  1.00  0.00    -0.744 OA
ENDBRANCH  70  73
ENDBRANCH  52  66
BRANCH  53  77
ATOM     77  C   UNL A   1      39.103  29.569  30.546  1.00  0.00     0.023 A 
ATOM     78  C   UNL A   1      38.866  29.012  31.817  1.00  0.00     0.012 A 
ATOM     79  C   UNL A   1      38.133  30.415  29.973  1.00  0.00     0.148 A 
ATOM     80  C   UNL A   1      37.676  29.279  32.498  1.00  0.00     0.002 A 
ATOM     81  C   UNL A   1      36.974  30.717  30.677  1.00  0.00     0.091 A 
ATOM     82  F   UNL A   1      38.370  30.916  28.753  1.00  0.00    -0.205 F 
ATOM     83  C   UNL A   1      36.738  30.139  31.935  1.00  0.00     0.022 A 
BRANCH  81  84
ATOM     84  S   UNL A   1      35.772  31.911  30.081  1.00  0.00     0.127 S 
ATOM     85  O   UNL A   1      35.228  31.228  28.910  1.00  0.00    -0.237 OA
ATOM     86  O   UNL A   1      34.855  32.011  31.217  1.00  0.00    -0.237 OA
ATOM     87  O   UNL A   1      36.529  33.126  29.812  1.00  0.00    -0.744 OA
ENDBRANCH  81  84
ENDBRANCH  53  77
BRANCH  65  88
ATOM     88  C   UNL A   1      44.790  33.401  29.180  1.00  0.00     0.023 A 
ATOM     89  C   UNL A   1      45.443  33.713  30.389  1.00  0.00     0.012 A 
ATOM     90  C   UNL A   1      44.568  34.419  28.231  1.00  0.00     0.148 A 
ATOM     91  C   UNL A   1      45.847  35.020  30.660  1.00  0.00     0.002 A 
ATOM     92  C   UNL A   1      45.011  35.712  28.491  1.00  0.00     0.091 A 
ATOM     93  F   UNL A   1      43.927  34.109  27.095  1.00  0.00    -0.205 F 
ATOM     94  C   UNL A   1      45.643  36.016  29.709  1.00  0.00     0.022 A 
BRANCH  92  95
ATOM     95  S   UNL A   1      44.869  37.036  27.284  1.00  0.00     0.127 S 
ATOM     96  O   UNL A   1      45.357  38.186  28.043  1.00  0.00    -0.237 OA
ATOM     97  O   UNL A   1      45.765  36.586  26.217  1.00  0.00    -0.237 OA
ATOM     98  O   UNL A   1      43.463  37.080  26.908  1.00  0.00    -0.744 OA
ENDBRANCH  92  95
ENDBRANCH  65  88
ENDBRANCH  39  40
ENDBRANCH  32  34
ENDBRANCH  31  32
ENDBRANCH  30  31
ENDBRANCH  29  30
ENDBRANCH   1  29
TORSDOF 20
ENDMDL
MODEL 2
REMARK VINA RESULT:     -11.2      1.065      7.441
REMARK SMILES C[C@H](NC(=O)c1c(C(=O)OCCOCCOC(=O)c2ccc(-c3c4nc(c(-c5cccc(S(=O)(=O)[O-])c5F)c5ccc([nH]5)c(-c5cccc(S(=O)(=O)[O-])c5F)c5nc(c(-c6cccc(S(=O)(=O)[O-])c6F)c6ccc3[nH]6)C=C5)C=C4)cc2)cnn1C)[C@]12C[C@H]3C[C@H](C[C@H](C3)C1)C2
REMARK SMILES IDX 13 1 12 2 11 3 10 4 8 5 9 6 7 7 6 8 84 9 82 10 83 11 85 12
REMARK SMILES IDX 4 13 3 14 5 16 2 17 1 18 86 19 87 20 94 21 95 22 88 23 92 24
REMARK SMILES IDX 90 25 89 26 93 27 91 28 14 29 15 30 16 31 17 32 18 33 19 34
REMARK SMILES IDX 20 35 81 36 21 37 80 38 22 39 23 40 24 41 74 42 25 43 79 44
REMARK SMILES IDX 73 45 75 46 26 47 78 48 72 49 71 50 27 52 59 53 39 54 58 55
REMARK SMILES IDX 40 56 43 57 57 58 76 59 41 60 42 61 56 63 77 64 44 65 28 66
REMARK SMILES IDX 29 67 37 68 30 69 32 70 38 71 31 72 33 73 34 74 35 75 36 76
REMARK SMILES IDX 60 77 61 78 69 79 62 80 64 81 70 82 63 83 65 84 66 85 67 86
REMARK SMILES IDX 68 87 45 88 46 89 54 90 47 91 49 92 55 93 48 94 50 95 51 96
REMARK SMILES IDX 52 97 53 98
REMARK H PARENT 3 15 75 51 43 62
REMARK Flexibility Score: inf
ROOT
ATOM      1  O   UNL A   1      38.187  21.534  25.608  1.00  0.00    -0.374 OA
ENDROOT
BRANCH   1   2
ATOM      2  C   UNL A   1      36.978  22.264  25.383  1.00  0.00     0.202 C 
BRANCH   2   3
ATOM      3  C   UNL A   1      35.842  21.921  26.347  1.00  0.00     0.261 C 
BRANCH   3   4
ATOM      4  O   UNL A   1      34.955  23.042  26.491  1.00  0.00    -0.460 OA
BRANCH   4   5
ATOM      5  C   UNL A   1      33.656  22.738  26.750  1.00  0.00     0.342 C 
ATOM      6  O   UNL A   1      33.188  22.594  27.875  1.00  0.00    -0.246 OA
BRANCH   5   7
ATOM      7  C   UNL A   1      32.805  22.703  25.573  1.00  0.00     0.111 A 
ATOM      8  C   UNL A   1      31.497  23.149  25.354  1.00  0.00     0.140 A 
ATOM      9  N   UNL A   1      31.321  23.000  23.997  1.00  0.00    -0.262 N 
ATOM     10  C   UNL A   1      33.193  22.117  24.349  1.00  0.00     0.151 A 
ATOM     11  N   UNL A   1      32.263  22.236  23.405  1.00  0.00    -0.180 NA
ATOM     12  C   UNL A   1      30.363  23.647  23.132  1.00  0.00     0.174 C 
BRANCH   8  13
ATOM     13  C   UNL A   1      30.600  23.795  26.281  1.00  0.00     0.270 C 
ATOM     14  N   UNL A   1      30.078  25.044  26.025  1.00  0.00    -0.348 N 
ATOM     15  H   UNL A   1      29.412  25.335  26.688  1.00  0.00     0.164 HD
ATOM     16  O   UNL A   1      30.234  23.241  27.314  1.00  0.00    -0.267 OA
BRANCH  14  17
ATOM     17  C   UNL A   1      30.315  26.031  24.961  1.00  0.00     0.085 C 
ATOM     18  C   UNL A   1      28.995  26.545  24.373  1.00  0.00     0.031 C 
BRANCH  17  19
ATOM     19  C   UNL A   1      31.343  27.200  25.329  1.00  0.00    -0.009 C 
ATOM     20  C   UNL A   1      32.812  26.884  24.912  1.00  0.00     0.012 C 
ATOM     21  C   UNL A   1      31.331  27.382  26.882  1.00  0.00     0.012 C 
ATOM     22  C   UNL A   1      30.983  28.586  24.714  1.00  0.00     0.012 C 
ATOM     23  C   UNL A   1      33.790  27.979  25.373  1.00  0.00    -0.010 C 
ATOM     24  C   UNL A   1      32.310  28.477  27.342  1.00  0.00    -0.010 C 
ATOM     25  C   UNL A   1      31.964  29.687  25.168  1.00  0.00    -0.010 C 
ATOM     26  C   UNL A   1      33.390  29.315  24.736  1.00  0.00     0.007 C 
ATOM     27  C   UNL A   1      33.731  28.100  26.904  1.00  0.00     0.007 C 
ATOM     28  C   UNL A   1      31.919  29.815  26.697  1.00  0.00     0.007 C 
ENDBRANCH  17  19
ENDBRANCH  14  17
ENDBRANCH   8  13
ENDBRANCH   5   7
ENDBRANCH   4   5
ENDBRANCH   3   4
ENDBRANCH   2   3
ENDBRANCH   1   2
BRANCH   1  29
ATOM     29  C   UNL A   1      38.258  20.237  25.007  1.00  0.00     0.202 C 
BRANCH  29  30
ATOM     30  C   UNL A   1      39.176  19.245  25.727  1.00  0.00     0.261 C 
BRANCH  30  31
ATOM     31  O   UNL A   1      40.557  19.501  25.410  1.00  0.00    -0.460 OA
BRANCH  31  32
ATOM     32  C   UNL A   1      41.377  19.625  26.482  1.00  0.00     0.338 C 
ATOM     33  O   UNL A   1      42.002  18.736  27.035  1.00  0.00    -0.246 OA
BRANCH  32  34
ATOM     34  C   UNL A   1      41.565  21.055  26.810  1.00  0.00     0.060 A 
ATOM     35  C   UNL A   1      41.696  21.945  25.737  1.00  0.00     0.016 A 
ATOM     36  C   UNL A   1      41.657  21.516  28.126  1.00  0.00     0.016 A 
ATOM     37  C   UNL A   1      41.975  23.290  25.972  1.00  0.00     0.010 A 
ATOM     38  C   UNL A   1      41.943  22.865  28.360  1.00  0.00     0.010 A 
ATOM     39  C   UNL A   1      42.140  23.749  27.285  1.00  0.00    -0.014 A 
BRANCH  39  40
ATOM     40  C   UNL A   1      42.653  25.121  27.518  1.00  0.00     0.031 A 
ATOM     41  C   UNL A   1      41.754  26.139  28.166  1.00  0.00     0.074 A 
ATOM     42  C   UNL A   1      43.905  25.458  27.163  1.00  0.00     0.049 A 
ATOM     43  N   UNL A   1      41.998  27.388  28.464  1.00  0.00    -0.248 NA
ATOM     44  C   UNL A   1      40.399  25.687  28.525  1.00  0.00     0.031 C 
ATOM     45  C   UNL A   1      44.867  24.567  26.515  1.00  0.00     0.029 A 
ATOM     46  N   UNL A   1      44.572  26.652  27.276  1.00  0.00    -0.354 N 
ATOM     47  C   UNL A   1      40.827  27.877  29.028  1.00  0.00     0.074 A 
ATOM     48  C   UNL A   1      39.865  26.796  29.013  1.00  0.00     0.031 C 
ATOM     49  C   UNL A   1      45.989  25.258  26.253  1.00  0.00     0.029 A 
ATOM     50  C   UNL A   1      45.822  26.639  26.705  1.00  0.00     0.049 A 
ATOM     51  H   UNL A   1      44.191  27.443  27.722  1.00  0.00     0.167 HD
ATOM     52  C   UNL A   1      40.579  29.109  29.536  1.00  0.00     0.034 A 
ATOM     53  C   UNL A   1      46.720  27.631  26.549  1.00  0.00     0.034 A 
ATOM     54  C   UNL A   1      41.538  30.179  29.568  1.00  0.00     0.049 A 
ATOM     55  C   UNL A   1      46.421  28.995  27.113  1.00  0.00     0.074 A 
ATOM     56  C   UNL A   1      41.395  31.448  30.101  1.00  0.00     0.029 A 
ATOM     57  N   UNL A   1      42.816  30.110  29.036  1.00  0.00    -0.354 N 
ATOM     58  N   UNL A   1      45.360  29.404  27.765  1.00  0.00    -0.248 NA
ATOM     59  C   UNL A   1      47.459  30.025  26.955  1.00  0.00     0.031 C 
ATOM     60  C   UNL A   1      42.584  32.152  29.879  1.00  0.00     0.029 A 
ATOM     61  C   UNL A   1      43.472  31.316  29.219  1.00  0.00     0.049 A 
ATOM     62  H   UNL A   1      43.202  29.321  28.593  1.00  0.00     0.167 HD
ATOM     63  C   UNL A   1      45.611  30.726  28.117  1.00  0.00     0.074 A 
ATOM     64  C   UNL A   1      46.937  31.043  27.625  1.00  0.00     0.031 C 
ATOM     65  C   UNL A   1      44.810  31.604  28.771  1.00  0.00     0.034 A 
BRANCH  52  66
ATOM     66  C   UNL A   1      39.221  29.344  30.140  1.00  0.00     0.023 A 
ATOM     67  C   UNL A   1      38.885  28.706  31.351  1.00  0.00     0.012 A 
ATOM     68  C   UNL A   1      38.295  30.217  29.538  1.00  0.00     0.148 A 
ATOM     69  C   UNL A   1      37.637  28.907  31.937  1.00  0.00     0.002 A 
ATOM     70  C   UNL A   1      37.065  30.440  30.147  1.00  0.00     0.091 A 
ATOM     71  F   UNL A   1      38.620  30.791  28.370  1.00  0.00    -0.205 F 
ATOM     72  C   UNL A   1      36.731  29.781  31.341  1.00  0.00     0.022 A 
BRANCH  70  73
ATOM     73  S   UNL A   1      35.864  31.599  29.482  1.00  0.00     0.127 S 
ATOM     74  O   UNL A   1      36.725  32.693  29.037  1.00  0.00    -0.237 OA
ATOM     75  O   UNL A   1      35.250  30.828  28.400  1.00  0.00    -0.237 OA
ATOM     76  O   UNL A   1      34.964  31.910  30.584  1.00  0.00    -0.744 OA
ENDBRANCH  70  73
ENDBRANCH  52  66
BRANCH  53  77
ATOM     77  C   UNL A   1      48.008  27.352  25.855  1.00  0.00     0.023 A 
ATOM     78  C   UNL A   1      49.102  26.854  26.588  1.00  0.00     0.012 A 
ATOM     79  C   UNL A   1      48.139  27.538  24.465  1.00  0.00     0.148 A 
ATOM     80  C   UNL A   1      50.310  26.565  25.951  1.00  0.00     0.002 A 
ATOM     81  C   UNL A   1      49.327  27.202  23.829  1.00  0.00     0.091 A 
ATOM     82  F   UNL A   1      47.092  28.034  23.790  1.00  0.00    -0.205 F 
ATOM     83  C   UNL A   1      50.419  26.727  24.573  1.00  0.00     0.022 A 
BRANCH  81  84
ATOM     84  S   UNL A   1      49.512  27.261  22.043  1.00  0.00     0.127 S 
ATOM     85  O   UNL A   1      50.925  26.931  21.877  1.00  0.00    -0.237 OA
ATOM     86  O   UNL A   1      48.581  26.221  21.607  1.00  0.00    -0.237 OA
ATOM     87  O   UNL A   1      49.128  28.612  21.655  1.00  0.00    -0.744 OA
ENDBRANCH  81  84
ENDBRANCH  53  77
BRANCH  65  88
ATOM     88  C   UNL A   1      45.341  32.993  29.011  1.00  0.00     0.023 A 
ATOM     89  C   UNL A   1      46.138  33.246  30.145  1.00  0.00     0.012 A 
ATOM     90  C   UNL A   1      45.122  34.024  28.077  1.00  0.00     0.148 A 
ATOM     91  C   UNL A   1      46.688  34.509  30.358  1.00  0.00     0.002 A 
ATOM     92  C   UNL A   1      45.709  35.270  28.274  1.00  0.00     0.091 A 
ATOM     93  F   UNL A   1      44.344  33.772  27.014  1.00  0.00    -0.205 F 
ATOM     94  C   UNL A   1      46.485  35.517  29.419  1.00  0.00     0.022 A 
BRANCH  92  95
ATOM     95  S   UNL A   1      45.572  36.596  27.070  1.00  0.00     0.127 S 
ATOM     96  O   UNL A   1      46.348  37.659  27.706  1.00  0.00    -0.237 OA
ATOM     97  O   UNL A   1      46.199  36.011  25.884  1.00  0.00    -0.237 OA
ATOM     98  O   UNL A   1      44.146  36.857  26.927  1.00  0.00    -0.744 OA
ENDBRANCH  92  95
ENDBRANCH  65  88
ENDBRANCH  39  40
ENDBRANCH  32  34
ENDBRANCH  31  32
ENDBRANCH  30  31
ENDBRANCH  29  30
ENDBRANCH   1  29
TORSDOF 20
ENDMDL
MODEL 3
REMARK VINA RESULT:     -10.9      5.788     11.004
REMARK SMILES C[C@H](NC(=O)c1c(C(=O)OCCOCCOC(=O)c2ccc(-c3c4nc(c(-c5cccc(S(=O)(=O)[O-])c5F)c5ccc([nH]5)c(-c5cccc(S(=O)(=O)[O-])c5F)c5nc(c(-c6cccc(S(=O)(=O)[O-])c6F)c6ccc3[nH]6)C=C5)C=C4)cc2)cnn1C)[C@]12C[C@H]3C[C@H](C[C@H](C3)C1)C2
REMARK SMILES IDX 13 1 12 2 11 3 10 4 8 5 9 6 7 7 6 8 84 9 82 10 83 11 85 12
REMARK SMILES IDX 4 13 3 14 5 16 2 17 1 18 86 19 87 20 94 21 95 22 88 23 92 24
REMARK SMILES IDX 90 25 89 26 93 27 91 28 14 29 15 30 16 31 17 32 18 33 19 34
REMARK SMILES IDX 20 35 81 36 21 37 80 38 22 39 23 40 24 41 74 42 25 43 79 44
REMARK SMILES IDX 73 45 75 46 26 47 78 48 72 49 71 50 27 52 59 53 39 54 58 55
REMARK SMILES IDX 40 56 43 57 57 58 76 59 41 60 42 61 56 63 77 64 44 65 28 66
REMARK SMILES IDX 29 67 37 68 30 69 32 70 38 71 31 72 33 73 34 74 35 75 36 76
REMARK SMILES IDX 60 77 61 78 69 79 62 80 64 81 70 82 63 83 65 84 66 85 67 86
REMARK SMILES IDX 68 87 45 88 46 89 54 90 47 91 49 92 55 93 48 94 50 95 51 96
REMARK SMILES IDX 52 97 53 98
REMARK H PARENT 3 15 75 51 43 62
REMARK Flexibility Score: inf
ROOT
ATOM      1  O   UNL A   1      34.695  33.244  28.025  1.00  0.00    -0.374 OA
ENDROOT
BRANCH   1   2
ATOM      2  C   UNL A   1      34.923  31.833  28.074  1.00  0.00     0.202 C 
BRANCH   2   3
ATOM      3  C   UNL A   1      33.726  30.982  27.649  1.00  0.00     0.261 C 
BRANCH   3   4
ATOM      4  O   UNL A   1      33.871  30.563  26.282  1.00  0.00    -0.460 OA
BRANCH   4   5
ATOM      5  C   UNL A   1      33.427  29.312  25.998  1.00  0.00     0.342 C 
ATOM      6  O   UNL A   1      33.768  28.300  26.603  1.00  0.00    -0.246 OA
BRANCH   5   7
ATOM      7  C   UNL A   1      32.402  29.261  24.969  1.00  0.00     0.111 A 
ATOM      8  C   UNL A   1      32.405  28.731  23.674  1.00  0.00     0.140 A 
ATOM      9  N   UNL A   1      31.092  28.829  23.274  1.00  0.00    -0.262 N 
ATOM     10  C   UNL A   1      31.120  29.831  25.119  1.00  0.00     0.151 A 
ATOM     11  N   UNL A   1      30.340  29.629  24.060  1.00  0.00    -0.180 NA
ATOM     12  C   UNL A   1      30.405  28.100  22.234  1.00  0.00     0.174 C 
BRANCH   8  13
ATOM     13  C   UNL A   1      33.477  28.061  22.979  1.00  0.00     0.270 C 
ATOM     14  N   UNL A   1      33.579  26.687  22.969  1.00  0.00    -0.348 N 
ATOM     15  H   UNL A   1      34.299  26.351  22.388  1.00  0.00     0.164 HD
ATOM     16  O   UNL A   1      34.316  28.686  22.336  1.00  0.00    -0.267 OA
BRANCH  14  17
ATOM     17  C   UNL A   1      32.831  25.621  23.651  1.00  0.00     0.085 C 
ATOM     18  C   UNL A   1      31.728  25.051  22.750  1.00  0.00     0.031 C 
BRANCH  17  19
ATOM     19  C   UNL A   1      33.728  24.493  24.346  1.00  0.00    -0.009 C 
ATOM     20  C   UNL A   1      34.881  25.075  25.220  1.00  0.00     0.012 C 
ATOM     21  C   UNL A   1      34.387  23.636  23.217  1.00  0.00     0.012 C 
ATOM     22  C   UNL A   1      32.927  23.504  25.247  1.00  0.00     0.012 C 
ATOM     23  C   UNL A   1      35.787  23.968  25.788  1.00  0.00    -0.010 C 
ATOM     24  C   UNL A   1      35.293  22.530  23.786  1.00  0.00    -0.010 C 
ATOM     25  C   UNL A   1      33.832  22.396  25.825  1.00  0.00    -0.010 C 
ATOM     26  C   UNL A   1      34.949  23.030  26.666  1.00  0.00     0.007 C 
ATOM     27  C   UNL A   1      36.405  23.171  24.627  1.00  0.00     0.007 C 
ATOM     28  C   UNL A   1      34.460  21.595  24.675  1.00  0.00     0.007 C 
ENDBRANCH  17  19
ENDBRANCH  14  17
ENDBRANCH   8  13
ENDBRANCH   5   7
ENDBRANCH   4   5
ENDBRANCH   3   4
ENDBRANCH   2   3
ENDBRANCH   1   2
BRANCH   1  29
ATOM     29  C   UNL A   1      33.326  33.656  27.980  1.00  0.00     0.202 C 
BRANCH  29  30
ATOM     30  C   UNL A   1      33.027  34.972  28.703  1.00  0.00     0.261 C 
BRANCH  30  31
ATOM     31  O   UNL A   1      32.591  34.728  30.053  1.00  0.00    -0.460 OA
BRANCH  31  32
ATOM     32  C   UNL A   1      33.414  35.209  31.017  1.00  0.00     0.338 C 
ATOM     33  O   UNL A   1      33.181  36.121  31.792  1.00  0.00    -0.246 OA
BRANCH  32  34
ATOM     34  C   UNL A   1      34.610  34.348  31.135  1.00  0.00     0.060 A 
ATOM     35  C   UNL A   1      34.439  33.093  31.731  1.00  0.00     0.016 A 
ATOM     36  C   UNL A   1      35.877  34.765  30.716  1.00  0.00     0.016 A 
ATOM     37  C   UNL A   1      35.540  32.271  31.964  1.00  0.00     0.010 A 
ATOM     38  C   UNL A   1      36.983  33.942  30.957  1.00  0.00     0.010 A 
ATOM     39  C   UNL A   1      36.824  32.709  31.614  1.00  0.00    -0.014 A 
BRANCH  39  40
ATOM     40  C   UNL A   1      38.006  31.934  32.064  1.00  0.00     0.031 A 
ATOM     41  C   UNL A   1      38.659  32.288  33.372  1.00  0.00     0.074 A 
ATOM     42  C   UNL A   1      38.489  30.923  31.321  1.00  0.00     0.049 A 
ATOM     43  N   UNL A   1      39.695  31.743  33.953  1.00  0.00    -0.248 NA
ATOM     44  C   UNL A   1      38.065  33.406  34.123  1.00  0.00     0.031 C 
ATOM     45  C   UNL A   1      37.954  30.493  30.030  1.00  0.00     0.029 A 
ATOM     46  N   UNL A   1      39.560  30.093  31.537  1.00  0.00    -0.354 N 
ATOM     47  C   UNL A   1      39.890  32.460  35.127  1.00  0.00     0.074 A 
ATOM     48  C   UNL A   1      38.877  33.492  35.167  1.00  0.00     0.031 C 
ATOM     49  C   UNL A   1      38.723  29.501  29.551  1.00  0.00     0.029 A 
ATOM     50  C   UNL A   1      39.808  29.233  30.494  1.00  0.00     0.049 A 
ATOM     51  H   UNL A   1      40.100  30.111  32.361  1.00  0.00     0.167 HD
ATOM     52  C   UNL A   1      40.814  32.263  36.098  1.00  0.00     0.034 A 
ATOM     53  C   UNL A   1      40.806  28.345  30.313  1.00  0.00     0.034 A 
ATOM     54  C   UNL A   1      41.810  31.228  36.070  1.00  0.00     0.049 A 
ATOM     55  C   UNL A   1      41.827  28.148  31.402  1.00  0.00     0.074 A 
ATOM     56  C   UNL A   1      42.761  30.921  37.027  1.00  0.00     0.029 A 
ATOM     57  N   UNL A   1      41.993  30.335  35.025  1.00  0.00    -0.354 N 
ATOM     58  N   UNL A   1      41.916  28.742  32.568  1.00  0.00    -0.248 NA
ATOM     59  C   UNL A   1      42.864  27.132  31.168  1.00  0.00     0.031 C 
ATOM     60  C   UNL A   1      43.529  29.851  36.555  1.00  0.00     0.029 A 
ATOM     61  C   UNL A   1      43.046  29.482  35.308  1.00  0.00     0.049 A 
ATOM     62  H   UNL A   1      41.453  30.311  34.203  1.00  0.00     0.167 HD
ATOM     63  C   UNL A   1      42.998  28.156  33.216  1.00  0.00     0.074 A 
ATOM     64  C   UNL A   1      43.520  27.143  32.321  1.00  0.00     0.031 C 
ATOM     65  C   UNL A   1      43.524  28.443  34.433  1.00  0.00     0.034 A 
BRANCH  52  66
ATOM     66  C   UNL A   1      40.754  33.168  37.300  1.00  0.00     0.023 A 
ATOM     67  C   UNL A   1      39.843  32.880  38.335  1.00  0.00     0.012 A 
ATOM     68  C   UNL A   1      41.614  34.275  37.423  1.00  0.00     0.148 A 
ATOM     69  C   UNL A   1      39.766  33.697  39.461  1.00  0.00     0.002 A 
ATOM     70  C   UNL A   1      41.557  35.065  38.566  1.00  0.00     0.091 A 
ATOM     71  F   UNL A   1      42.454  34.552  36.414  1.00  0.00    -0.205 F 
ATOM     72  C   UNL A   1      40.629  34.783  39.582  1.00  0.00     0.022 A 
BRANCH  70  73
ATOM     73  S   UNL A   1      42.676  36.446  38.832  1.00  0.00     0.127 S 
ATOM     74  O   UNL A   1      42.061  37.106  39.983  1.00  0.00    -0.237 OA
ATOM     75  O   UNL A   1      43.942  35.772  39.121  1.00  0.00    -0.237 OA
ATOM     76  O   UNL A   1      42.668  37.205  37.589  1.00  0.00    -0.744 OA
ENDBRANCH  70  73
ENDBRANCH  52  66
BRANCH  53  77
ATOM     77  C   UNL A   1      40.859  27.548  29.056  1.00  0.00     0.023 A 
ATOM     78  C   UNL A   1      39.975  26.468  28.877  1.00  0.00     0.012 A 
ATOM     79  C   UNL A   1      41.754  27.884  28.021  1.00  0.00     0.148 A 
ATOM     80  C   UNL A   1      39.995  25.722  27.697  1.00  0.00     0.002 A 
ATOM     81  C   UNL A   1      41.733  27.170  26.829  1.00  0.00     0.091 A 
ATOM     82  F   UNL A   1      42.602  28.903  28.221  1.00  0.00    -0.205 F 
ATOM     83  C   UNL A   1      40.863  26.080  26.670  1.00  0.00     0.022 A 
BRANCH  81  84
ATOM     84  S   UNL A   1      42.730  27.641  25.411  1.00  0.00     0.127 S 
ATOM     85  O   UNL A   1      42.733  26.410  24.625  1.00  0.00    -0.237 OA
ATOM     86  O   UNL A   1      41.947  28.736  24.838  1.00  0.00    -0.237 OA
ATOM     87  O   UNL A   1      44.019  28.047  25.956  1.00  0.00    -0.744 OA
ENDBRANCH  81  84
ENDBRANCH  53  77
BRANCH  65  88
ATOM     88  C   UNL A   1      44.720  27.647  34.886  1.00  0.00     0.023 A 
ATOM     89  C   UNL A   1      46.015  28.162  34.683  1.00  0.00     0.012 A 
ATOM     90  C   UNL A   1      44.560  26.433  35.583  1.00  0.00     0.148 A 
ATOM     91  C   UNL A   1      47.134  27.470  35.145  1.00  0.00     0.002 A 
ATOM     92  C   UNL A   1      45.677  25.769  36.078  1.00  0.00     0.091 A 
ATOM     93  F   UNL A   1      43.321  25.947  35.749  1.00  0.00    -0.205 F 
ATOM     94  C   UNL A   1      46.966  26.282  35.853  1.00  0.00     0.022 A 
BRANCH  92  95
ATOM     95  S   UNL A   1      45.546  24.281  37.076  1.00  0.00     0.127 S 
ATOM     96  O   UNL A   1      44.922  23.348  36.139  1.00  0.00    -0.237 OA
ATOM     97  O   UNL A   1      46.945  23.987  37.389  1.00  0.00    -0.237 OA
ATOM     98  O   UNL A   1      44.737  24.647  38.230  1.00  0.00    -0.744 OA
ENDBRANCH  92  95
ENDBRANCH  65  88
ENDBRANCH  39  40
ENDBRANCH  32  34
ENDBRANCH  31  32
ENDBRANCH  30  31
ENDBRANCH  29  30
ENDBRANCH   1  29
TORSDOF 20
ENDMDL
