MODEL 1
REMARK VINA RESULT:     -10.7      0.000      0.000
REMARK SMILES O=C(Cc1ccn(C(F)F)c(=O)c1)OCCOCCOC(=O)c1ccc(-c2c3nc(c(-c4cccc(S(=O)(=O)[O-])c4F)c4ccc([nH]4)c(-c4cccc(S(=O)(=O)[O-])c4F)c4nc(c(-c5cccc(S(=O)(=O)[O-])c5F)c5ccc2[nH]5)C=C4)C=C3)cc1
REMARK SMILES IDX 18 1 17 2 16 3 15 4 14 5 2 6 1 7 3 8 4 9 5 10 13 11 6 12
REMARK SMILES IDX 11 13 7 14 12 15 8 16 9 17 10 18 19 19 20 20 21 21 22 22
REMARK SMILES IDX 23 23 24 24 85 25 25 26 84 27 26 28 27 29 28 30 78 31 29 32
REMARK SMILES IDX 83 33 77 34 79 35 30 36 82 37 76 38 75 39 31 41 63 42 43 43
REMARK SMILES IDX 62 44 44 45 47 46 61 47 80 48 45 49 46 50 60 52 81 53 48 54
REMARK SMILES IDX 32 55 33 56 41 57 34 58 36 59 42 60 35 61 37 62 38 63 39 64
REMARK SMILES IDX 40 65 64 66 65 67 73 68 66 69 68 70 74 71 67 72 69 73 70 74
REMARK SMILES IDX 71 75 72 76 49 77 50 78 58 79 51 80 53 81 59 82 52 83 54 84
REMARK SMILES IDX 55 85 56 86 57 87
REMARK H PARENT 79 40 47 51
REMARK Flexibility Score: inf
ROOT
ATOM      1  C   UNL A   1      35.531  21.218  24.603  1.00  0.00     0.202 C 
ENDROOT
BRANCH   1   2
ATOM      2  O   UNL A   1      35.161  22.585  24.393  1.00  0.00    -0.374 OA
BRANCH   2   3
ATOM      3  C   UNL A   1      34.473  22.903  23.191  1.00  0.00     0.202 C 
BRANCH   3   4
ATOM      4  C   UNL A   1      33.362  23.946  23.268  1.00  0.00     0.261 C 
BRANCH   4   5
ATOM      5  O   UNL A   1      33.802  25.306  23.392  1.00  0.00    -0.463 OA
BRANCH   5   6
ATOM      6  C   UNL A   1      33.446  26.313  22.560  1.00  0.00     0.310 C 
ATOM      7  O   UNL A   1      33.509  26.150  21.342  1.00  0.00    -0.252 OA
BRANCH   6   8
ATOM      8  C   UNL A   1      33.042  27.663  23.132  1.00  0.00     0.158 C 
BRANCH   8   9
ATOM      9  C   UNL A   1      31.604  28.091  23.032  1.00  0.00    -0.030 A 
ATOM     10  C   UNL A   1      30.581  27.464  23.846  1.00  0.00     0.023 A 
ATOM     11  C   UNL A   1      31.258  29.099  22.212  1.00  0.00     0.076 A 
ATOM     12  C   UNL A   1      29.326  27.926  23.823  1.00  0.00     0.095 A 
ATOM     13  C   UNL A   1      29.844  29.552  22.097  1.00  0.00     0.255 A 
ATOM     14  N   UNL A   1      28.956  28.957  22.978  1.00  0.00    -0.258 N 
ATOM     15  O   UNL A   1      29.573  30.399  21.254  1.00  0.00    -0.269 OA
BRANCH  14  16
ATOM     16  C   UNL A   1      27.571  29.336  22.877  1.00  0.00     0.451 C 
ATOM     17  F   UNL A   1      26.738  28.280  23.044  1.00  0.00    -0.185 F 
ATOM     18  F   UNL A   1      27.269  30.256  23.827  1.00  0.00    -0.185 F 
ENDBRANCH  14  16
ENDBRANCH   8   9
ENDBRANCH   6   8
ENDBRANCH   5   6
ENDBRANCH   4   5
ENDBRANCH   3   4
ENDBRANCH   2   3
ENDBRANCH   1   2
BRANCH   1  19
ATOM     19  C   UNL A   1      37.027  20.891  24.664  1.00  0.00     0.261 C 
BRANCH  19  20
ATOM     20  O   UNL A   1      37.594  21.268  25.929  1.00  0.00    -0.460 OA
BRANCH  20  21
ATOM     21  C   UNL A   1      38.939  21.123  26.040  1.00  0.00     0.338 C 
ATOM     22  O   UNL A   1      39.622  20.229  25.569  1.00  0.00    -0.246 OA
BRANCH  21  23
ATOM     23  C   UNL A   1      39.488  22.368  26.611  1.00  0.00     0.060 A 
ATOM     24  C   UNL A   1      40.531  22.331  27.535  1.00  0.00     0.016 A 
ATOM     25  C   UNL A   1      38.936  23.592  26.204  1.00  0.00     0.016 A 
ATOM     26  C   UNL A   1      41.052  23.528  28.025  1.00  0.00     0.010 A 
ATOM     27  C   UNL A   1      39.457  24.789  26.695  1.00  0.00     0.010 A 
ATOM     28  C   UNL A   1      40.537  24.763  27.585  1.00  0.00    -0.014 A 
BRANCH  28  29
ATOM     29  C   UNL A   1      41.270  26.006  27.911  1.00  0.00     0.031 A 
ATOM     30  C   UNL A   1      42.684  26.235  27.477  1.00  0.00     0.074 A 
ATOM     31  C   UNL A   1      40.616  26.939  28.630  1.00  0.00     0.049 A 
ATOM     32  N   UNL A   1      43.405  27.317  27.602  1.00  0.00    -0.248 NA
ATOM     33  C   UNL A   1      43.380  25.115  26.827  1.00  0.00     0.031 C 
ATOM     34  C   UNL A   1      39.257  26.786  29.157  1.00  0.00     0.029 A 
ATOM     35  N   UNL A   1      40.992  28.192  29.034  1.00  0.00    -0.354 N 
ATOM     36  C   UNL A   1      44.642  27.016  27.051  1.00  0.00     0.074 A 
ATOM     37  C   UNL A   1      44.582  25.640  26.605  1.00  0.00     0.031 C 
ATOM     38  C   UNL A   1      38.903  27.914  29.789  1.00  0.00     0.029 A 
ATOM     39  C   UNL A   1      40.014  28.859  29.731  1.00  0.00     0.049 A 
ATOM     40  H   UNL A   1      41.877  28.578  28.844  1.00  0.00     0.167 HD
ATOM     41  C   UNL A   1      45.717  27.827  26.911  1.00  0.00     0.034 A 
ATOM     42  C   UNL A   1      40.002  30.097  30.257  1.00  0.00     0.034 A 
ATOM     43  C   UNL A   1      45.760  29.197  27.350  1.00  0.00     0.049 A 
ATOM     44  C   UNL A   1      41.201  30.978  30.074  1.00  0.00     0.074 A 
ATOM     45  C   UNL A   1      46.787  30.113  27.198  1.00  0.00     0.029 A 
ATOM     46  N   UNL A   1      44.745  29.846  28.035  1.00  0.00    -0.354 N 
ATOM     47  N   UNL A   1      42.316  30.719  29.436  1.00  0.00    -0.248 NA
ATOM     48  C   UNL A   1      41.135  32.326  30.653  1.00  0.00     0.031 C 
ATOM     49  C   UNL A   1      46.401  31.308  27.811  1.00  0.00     0.029 A 
ATOM     50  C   UNL A   1      45.123  31.146  28.322  1.00  0.00     0.049 A 
ATOM     51  H   UNL A   1      43.882  29.441  28.281  1.00  0.00     0.167 HD
ATOM     52  C   UNL A   1      43.077  31.877  29.516  1.00  0.00     0.074 A 
ATOM     53  C   UNL A   1      42.291  32.845  30.256  1.00  0.00     0.031 C 
ATOM     54  C   UNL A   1      44.318  32.110  29.026  1.00  0.00     0.034 A 
BRANCH  41  55
ATOM     55  C   UNL A   1      46.930  27.286  26.208  1.00  0.00     0.023 A 
ATOM     56  C   UNL A   1      47.085  27.526  24.828  1.00  0.00     0.012 A 
ATOM     57  C   UNL A   1      47.966  26.656  26.925  1.00  0.00     0.148 A 
ATOM     58  C   UNL A   1      48.253  27.142  24.169  1.00  0.00     0.002 A 
ATOM     59  C   UNL A   1      49.137  26.299  26.267  1.00  0.00     0.091 A 
ATOM     60  F   UNL A   1      47.789  26.431  28.234  1.00  0.00    -0.205 F 
ATOM     61  C   UNL A   1      49.281  26.540  24.890  1.00  0.00     0.022 A 
BRANCH  59  62
ATOM     62  S   UNL A   1      50.540  25.556  27.107  1.00  0.00     0.127 S 
ATOM     63  O   UNL A   1      49.931  24.363  27.694  1.00  0.00    -0.237 OA
ATOM     64  O   UNL A   1      51.457  25.293  25.998  1.00  0.00    -0.237 OA
ATOM     65  O   UNL A   1      51.006  26.546  28.069  1.00  0.00    -0.744 OA
ENDBRANCH  59  62
ENDBRANCH  41  55
BRANCH  42  66
ATOM     66  C   UNL A   1      38.773  30.580  30.939  1.00  0.00     0.023 A 
ATOM     67  C   UNL A   1      38.678  30.485  32.339  1.00  0.00     0.012 A 
ATOM     68  C   UNL A   1      37.749  31.219  30.214  1.00  0.00     0.148 A 
ATOM     69  C   UNL A   1      37.577  31.018  33.010  1.00  0.00     0.002 A 
ATOM     70  C   UNL A   1      36.674  31.780  30.891  1.00  0.00     0.091 A 
ATOM     71  F   UNL A   1      37.873  31.299  28.883  1.00  0.00    -0.205 F 
ATOM     72  C   UNL A   1      36.581  31.673  32.289  1.00  0.00     0.022 A 
BRANCH  70  73
ATOM     73  S   UNL A   1      35.395  32.728  30.061  1.00  0.00     0.127 S 
ATOM     74  O   UNL A   1      34.470  33.002  31.158  1.00  0.00    -0.237 OA
ATOM     75  O   UNL A   1      36.147  33.888  29.585  1.00  0.00    -0.237 OA
ATOM     76  O   UNL A   1      34.878  31.864  29.010  1.00  0.00    -0.744 OA
ENDBRANCH  70  73
ENDBRANCH  42  66
BRANCH  54  77
ATOM     77  C   UNL A   1      44.920  33.469  29.249  1.00  0.00     0.023 A 
ATOM     78  C   UNL A   1      45.660  33.717  30.422  1.00  0.00     0.012 A 
ATOM     79  C   UNL A   1      44.861  34.451  28.241  1.00  0.00     0.148 A 
ATOM     80  C   UNL A   1      46.327  34.929  30.591  1.00  0.00     0.002 A 
ATOM     81  C   UNL A   1      45.557  35.641  28.401  1.00  0.00     0.091 A 
ATOM     82  F   UNL A   1      44.142  34.190  27.140  1.00  0.00    -0.205 F 
ATOM     83  C   UNL A   1      46.287  35.884  29.577  1.00  0.00     0.022 A 
BRANCH  81  84
ATOM     84  S   UNL A   1      45.627  36.901  27.122  1.00  0.00     0.127 S 
ATOM     85  O   UNL A   1      44.217  37.268  26.989  1.00  0.00    -0.237 OA
ATOM     86  O   UNL A   1      46.467  37.924  27.745  1.00  0.00    -0.237 OA
ATOM     87  O   UNL A   1      46.210  36.260  25.952  1.00  0.00    -0.744 OA
ENDBRANCH  81  84
ENDBRANCH  54  77
ENDBRANCH  28  29
ENDBRANCH  21  23
ENDBRANCH  20  21
ENDBRANCH  19  20
ENDBRANCH   1  19
TORSDOF 19
ENDMDL
MODEL 2
REMARK VINA RESULT:     -10.5      3.356      4.462
REMARK SMILES O=C(Cc1ccn(C(F)F)c(=O)c1)OCCOCCOC(=O)c1ccc(-c2c3nc(c(-c4cccc(S(=O)(=O)[O-])c4F)c4ccc([nH]4)c(-c4cccc(S(=O)(=O)[O-])c4F)c4nc(c(-c5cccc(S(=O)(=O)[O-])c5F)c5ccc2[nH]5)C=C4)C=C3)cc1
REMARK SMILES IDX 18 1 17 2 16 3 15 4 14 5 2 6 1 7 3 8 4 9 5 10 13 11 6 12
REMARK SMILES IDX 11 13 7 14 12 15 8 16 9 17 10 18 19 19 20 20 21 21 22 22
REMARK SMILES IDX 23 23 24 24 85 25 25 26 84 27 26 28 27 29 28 30 78 31 29 32
REMARK SMILES IDX 83 33 77 34 79 35 30 36 82 37 76 38 75 39 31 41 63 42 43 43
REMARK SMILES IDX 62 44 44 45 47 46 61 47 80 48 45 49 46 50 60 52 81 53 48 54
REMARK SMILES IDX 32 55 33 56 41 57 34 58 36 59 42 60 35 61 37 62 38 63 39 64
REMARK SMILES IDX 40 65 64 66 65 67 73 68 66 69 68 70 74 71 67 72 69 73 70 74
REMARK SMILES IDX 71 75 72 76 49 77 50 78 58 79 51 80 53 81 59 82 52 83 54 84
REMARK SMILES IDX 55 85 56 86 57 87
REMARK H PARENT 79 40 47 51
REMARK Flexibility Score: inf
ROOT
ATOM      1  C   UNL A   1      36.270  21.234  25.720  1.00  0.00     0.202 C 
ENDROOT
BRANCH   1   2
ATOM      2  O   UNL A   1      35.685  22.420  25.171  1.00  0.00    -0.374 OA
BRANCH   2   3
ATOM      3  C   UNL A   1      34.461  22.871  25.734  1.00  0.00     0.202 C 
BRANCH   3   4
ATOM      4  C   UNL A   1      33.677  23.930  24.964  1.00  0.00     0.261 C 
BRANCH   4   5
ATOM      5  O   UNL A   1      33.764  23.842  23.535  1.00  0.00    -0.463 OA
BRANCH   5   6
ATOM      6  C   UNL A   1      33.022  23.013  22.764  1.00  0.00     0.310 C 
ATOM      7  O   UNL A   1      33.177  23.012  21.543  1.00  0.00    -0.252 OA
BRANCH   6   8
ATOM      8  C   UNL A   1      31.948  22.143  23.400  1.00  0.00     0.158 C 
BRANCH   8   9
ATOM      9  C   UNL A   1      32.225  20.678  23.594  1.00  0.00    -0.030 A 
ATOM     10  C   UNL A   1      32.259  19.769  22.465  1.00  0.00     0.023 A 
ATOM     11  C   UNL A   1      32.489  20.202  24.823  1.00  0.00     0.076 A 
ATOM     12  C   UNL A   1      32.609  18.490  22.642  1.00  0.00     0.095 A 
ATOM     13  C   UNL A   1      32.775  18.758  25.048  1.00  0.00     0.255 A 
ATOM     14  N   UNL A   1      32.876  17.986  23.902  1.00  0.00    -0.258 N 
ATOM     15  O   UNL A   1      32.900  18.364  26.202  1.00  0.00    -0.269 OA
BRANCH  14  16
ATOM     16  C   UNL A   1      33.113  16.577  24.072  1.00  0.00     0.451 C 
ATOM     17  F   UNL A   1      34.391  16.313  24.439  1.00  0.00    -0.185 F 
ATOM     18  F   UNL A   1      32.295  16.079  25.033  1.00  0.00    -0.185 F 
ENDBRANCH  14  16
ENDBRANCH   8   9
ENDBRANCH   6   8
ENDBRANCH   5   6
ENDBRANCH   4   5
ENDBRANCH   3   4
ENDBRANCH   2   3
ENDBRANCH   1   2
BRANCH   1  19
ATOM     19  C   UNL A   1      37.535  20.691  25.045  1.00  0.00     0.261 C 
BRANCH  19  20
ATOM     20  O   UNL A   1      38.648  21.579  25.230  1.00  0.00    -0.460 OA
BRANCH  20  21
ATOM     21  C   UNL A   1      39.443  21.317  26.299  1.00  0.00     0.338 C 
ATOM     22  O   UNL A   1      39.901  20.234  26.623  1.00  0.00    -0.246 OA
BRANCH  21  23
ATOM     23  C   UNL A   1      39.882  22.604  26.870  1.00  0.00     0.060 A 
ATOM     24  C   UNL A   1      40.881  22.651  27.842  1.00  0.00     0.016 A 
ATOM     25  C   UNL A   1      39.270  23.782  26.417  1.00  0.00     0.016 A 
ATOM     26  C   UNL A   1      41.299  23.887  28.332  1.00  0.00     0.010 A 
ATOM     27  C   UNL A   1      39.688  25.018  26.909  1.00  0.00     0.010 A 
ATOM     28  C   UNL A   1      40.725  25.078  27.847  1.00  0.00    -0.014 A 
BRANCH  28  29
ATOM     29  C   UNL A   1      41.359  26.372  28.183  1.00  0.00     0.031 A 
ATOM     30  C   UNL A   1      42.768  26.694  27.794  1.00  0.00     0.074 A 
ATOM     31  C   UNL A   1      40.618  27.264  28.869  1.00  0.00     0.049 A 
ATOM     32  N   UNL A   1      43.409  27.824  27.931  1.00  0.00    -0.248 NA
ATOM     33  C   UNL A   1      43.562  25.619  27.182  1.00  0.00     0.031 C 
ATOM     34  C   UNL A   1      39.256  27.022  29.352  1.00  0.00     0.029 A 
ATOM     35  N   UNL A   1      40.893  28.544  29.271  1.00  0.00    -0.354 N 
ATOM     36  C   UNL A   1      44.682  27.605  27.425  1.00  0.00     0.074 A 
ATOM     37  C   UNL A   1      44.731  26.224  26.994  1.00  0.00     0.031 C 
ATOM     38  C   UNL A   1      38.803  28.129  29.959  1.00  0.00     0.029 A 
ATOM     39  C   UNL A   1      39.848  29.147  29.927  1.00  0.00     0.049 A 
ATOM     40  H   UNL A   1      41.756  28.988  29.106  1.00  0.00     0.167 HD
ATOM     41  C   UNL A   1      45.702  28.487  27.313  1.00  0.00     0.034 A 
ATOM     42  C   UNL A   1      39.732  30.386  30.438  1.00  0.00     0.034 A 
ATOM     43  C   UNL A   1      45.636  29.861  27.737  1.00  0.00     0.049 A 
ATOM     44  C   UNL A   1      40.874  31.347  30.285  1.00  0.00     0.074 A 
ATOM     45  C   UNL A   1      46.602  30.844  27.609  1.00  0.00     0.029 A 
ATOM     46  N   UNL A   1      44.555  30.444  28.380  1.00  0.00    -0.354 N 
ATOM     47  N   UNL A   1      42.025  31.160  29.688  1.00  0.00    -0.248 NA
ATOM     48  C   UNL A   1      40.695  32.693  30.846  1.00  0.00     0.031 C 
ATOM     49  C   UNL A   1      46.113  32.015  28.194  1.00  0.00     0.029 A 
ATOM     50  C   UNL A   1      44.833  31.770  28.664  1.00  0.00     0.049 A 
ATOM     51  H   UNL A   1      43.714  29.983  28.602  1.00  0.00     0.167 HD
ATOM     52  C   UNL A   1      42.701  32.369  29.780  1.00  0.00     0.074 A 
ATOM     53  C   UNL A   1      41.826  33.286  30.482  1.00  0.00     0.031 C 
ATOM     54  C   UNL A   1      43.940  32.682  29.330  1.00  0.00     0.034 A 
BRANCH  41  55
ATOM     55  C   UNL A   1      46.973  28.024  26.657  1.00  0.00     0.023 A 
ATOM     56  C   UNL A   1      47.977  27.434  27.450  1.00  0.00     0.012 A 
ATOM     57  C   UNL A   1      47.123  28.060  25.257  1.00  0.00     0.148 A 
ATOM     58  C   UNL A   1      49.116  26.887  26.859  1.00  0.00     0.002 A 
ATOM     59  C   UNL A   1      48.249  27.491  24.673  1.00  0.00     0.091 A 
ATOM     60  F   UNL A   1      46.158  28.635  24.527  1.00  0.00    -0.205 F 
ATOM     61  C   UNL A   1      49.246  26.906  25.473  1.00  0.00     0.022 A 
BRANCH  59  62
ATOM     62  S   UNL A   1      48.498  27.422  22.896  1.00  0.00     0.127 S 
ATOM     63  O   UNL A   1      49.851  27.963  22.770  1.00  0.00    -0.237 OA
ATOM     64  O   UNL A   1      48.384  25.990  22.624  1.00  0.00    -0.237 OA
ATOM     65  O   UNL A   1      47.448  28.245  22.309  1.00  0.00    -0.744 OA
ENDBRANCH  59  62
ENDBRANCH  41  55
BRANCH  42  66
ATOM     66  C   UNL A   1      38.450  30.789  31.072  1.00  0.00     0.023 A 
ATOM     67  C   UNL A   1      38.279  30.611  32.457  1.00  0.00     0.012 A 
ATOM     68  C   UNL A   1      37.447  31.436  30.325  1.00  0.00     0.148 A 
ATOM     69  C   UNL A   1      37.124  31.068  33.091  1.00  0.00     0.002 A 
ATOM     70  C   UNL A   1      36.317  31.923  30.968  1.00  0.00     0.091 A 
ATOM     71  F   UNL A   1      37.644  31.598  29.010  1.00  0.00    -0.205 F 
ATOM     72  C   UNL A   1      36.148  31.732  32.349  1.00  0.00     0.022 A 
BRANCH  70  73
ATOM     73  S   UNL A   1      35.054  32.875  30.119  1.00  0.00     0.127 S 
ATOM     74  O   UNL A   1      34.580  31.919  29.122  1.00  0.00    -0.237 OA
ATOM     75  O   UNL A   1      34.112  33.152  31.204  1.00  0.00    -0.237 OA
ATOM     76  O   UNL A   1      35.731  34.049  29.587  1.00  0.00    -0.744 OA
ENDBRANCH  70  73
ENDBRANCH  42  66
BRANCH  54  77
ATOM     77  C   UNL A   1      44.439  34.081  29.557  1.00  0.00     0.023 A 
ATOM     78  C   UNL A   1      45.120  34.391  30.750  1.00  0.00     0.012 A 
ATOM     79  C   UNL A   1      44.345  35.048  28.536  1.00  0.00     0.148 A 
ATOM     80  C   UNL A   1      45.696  35.648  30.927  1.00  0.00     0.002 A 
ATOM     81  C   UNL A   1      44.952  36.285  28.706  1.00  0.00     0.091 A 
ATOM     82  F   UNL A   1      43.683  34.728  27.416  1.00  0.00    -0.205 F 
ATOM     83  C   UNL A   1      45.624  36.588  29.902  1.00  0.00     0.022 A 
BRANCH  81  84
ATOM     84  S   UNL A   1      44.976  37.536  27.416  1.00  0.00     0.127 S 
ATOM     85  O   UNL A   1      45.473  38.703  28.144  1.00  0.00    -0.237 OA
ATOM     86  O   UNL A   1      45.921  36.968  26.455  1.00  0.00    -0.237 OA
ATOM     87  O   UNL A   1      43.606  37.648  26.934  1.00  0.00    -0.744 OA
ENDBRANCH  81  84
ENDBRANCH  54  77
ENDBRANCH  28  29
ENDBRANCH  21  23
ENDBRANCH  20  21
ENDBRANCH  19  20
ENDBRANCH   1  19
TORSDOF 19
ENDMDL
MODEL 3
REMARK VINA RESULT:     -10.5      5.259     10.195
REMARK SMILES O=C(Cc1ccn(C(F)F)c(=O)c1)OCCOCCOC(=O)c1ccc(-c2c3nc(c(-c4cccc(S(=O)(=O)[O-])c4F)c4ccc([nH]4)c(-c4cccc(S(=O)(=O)[O-])c4F)c4nc(c(-c5cccc(S(=O)(=O)[O-])c5F)c5ccc2[nH]5)C=C4)C=C3)cc1
REMARK SMILES IDX 18 1 17 2 16 3 15 4 14 5 2 6 1 7 3 8 4 9 5 10 13 11 6 12
REMARK SMILES IDX 11 13 7 14 12 15 8 16 9 17 10 18 19 19 20 20 21 21 22 22
REMARK SMILES IDX 23 23 24 24 85 25 25 26 84 27 26 28 27 29 28 30 78 31 29 32
REMARK SMILES IDX 83 33 77 34 79 35 30 36 82 37 76 38 75 39 31 41 63 42 43 43
REMARK SMILES IDX 62 44 44 45 47 46 61 47 80 48 45 49 46 50 60 52 81 53 48 54
REMARK SMILES IDX 32 55 33 56 41 57 34 58 36 59 42 60 35 61 37 62 38 63 39 64
REMARK SMILES IDX 40 65 64 66 65 67 73 68 66 69 68 70 74 71 67 72 69 73 70 74
REMARK SMILES IDX 71 75 72 76 49 77 50 78 58 79 51 80 53 81 59 82 52 83 54 84
REMARK SMILES IDX 55 85 56 86 57 87
REMARK H PARENT 79 40 47 51
REMARK Flexibility Score: inf
ROOT
ATOM      1  C   UNL A   1      31.923  30.463  26.265  1.00  0.00     0.202 C 
ENDROOT
BRANCH   1   2
ATOM      2  O   UNL A   1      32.976  30.033  25.395  1.00  0.00    -0.374 OA
BRANCH   2   3
ATOM      3  C   UNL A   1      32.657  29.066  24.404  1.00  0.00     0.202 C 
BRANCH   3   4
ATOM      4  C   UNL A   1      33.358  27.713  24.487  1.00  0.00     0.261 C 
BRANCH   4   5
ATOM      5  O   UNL A   1      32.539  26.622  24.930  1.00  0.00    -0.463 OA
BRANCH   5   6
ATOM      6  C   UNL A   1      31.197  26.547  24.771  1.00  0.00     0.310 C 
ATOM      7  O   UNL A   1      30.475  26.371  25.752  1.00  0.00    -0.252 OA
BRANCH   6   8
ATOM      8  C   UNL A   1      30.593  26.606  23.376  1.00  0.00     0.158 C 
BRANCH   8   9
ATOM      9  C   UNL A   1      29.846  27.843  22.962  1.00  0.00    -0.030 A 
ATOM     10  C   UNL A   1      30.459  28.828  22.092  1.00  0.00     0.023 A 
ATOM     11  C   UNL A   1      28.576  28.027  23.362  1.00  0.00     0.076 A 
ATOM     12  C   UNL A   1      29.746  29.870  21.648  1.00  0.00     0.095 A 
ATOM     13  C   UNL A   1      27.807  29.237  22.962  1.00  0.00     0.255 A 
ATOM     14  N   UNL A   1      28.441  30.074  22.059  1.00  0.00    -0.258 N 
ATOM     15  O   UNL A   1      26.692  29.403  23.445  1.00  0.00    -0.269 OA
BRANCH  14  16
ATOM     16  C   UNL A   1      27.751  31.277  21.673  1.00  0.00     0.451 C 
ATOM     17  F   UNL A   1      27.924  32.277  22.570  1.00  0.00    -0.185 F 
ATOM     18  F   UNL A   1      28.210  31.712  20.473  1.00  0.00    -0.185 F 
ENDBRANCH  14  16
ENDBRANCH   8   9
ENDBRANCH   6   8
ENDBRANCH   5   6
ENDBRANCH   4   5
ENDBRANCH   3   4
ENDBRANCH   2   3
ENDBRANCH   1   2
BRANCH   1  19
ATOM     19  C   UNL A   1      31.995  31.893  26.810  1.00  0.00     0.261 C 
BRANCH  19  20
ATOM     20  O   UNL A   1      32.882  31.981  27.936  1.00  0.00    -0.460 OA
BRANCH  20  21
ATOM     21  C   UNL A   1      33.865  32.911  27.843  1.00  0.00     0.338 C 
ATOM     22  O   UNL A   1      33.727  34.107  27.649  1.00  0.00    -0.246 OA
BRANCH  21  23
ATOM     23  C   UNL A   1      35.130  32.286  28.274  1.00  0.00     0.060 A 
ATOM     24  C   UNL A   1      36.320  33.014  28.283  1.00  0.00     0.016 A 
ATOM     25  C   UNL A   1      35.112  30.941  28.673  1.00  0.00     0.016 A 
ATOM     26  C   UNL A   1      37.490  32.403  28.732  1.00  0.00     0.010 A 
ATOM     27  C   UNL A   1      36.283  30.331  29.122  1.00  0.00     0.010 A 
ATOM     28  C   UNL A   1      37.471  31.069  29.181  1.00  0.00    -0.014 A 
BRANCH  28  29
ATOM     29  C   UNL A   1      38.652  30.531  29.893  1.00  0.00     0.031 A 
ATOM     30  C   UNL A   1      38.990  30.934  31.294  1.00  0.00     0.074 A 
ATOM     31  C   UNL A   1      39.431  29.659  29.226  1.00  0.00     0.049 A 
ATOM     32  N   UNL A   1      39.930  30.462  32.069  1.00  0.00    -0.248 NA
ATOM     33  C   UNL A   1      38.182  32.000  31.903  1.00  0.00     0.031 C 
ATOM     34  C   UNL A   1      39.226  29.250  27.833  1.00  0.00     0.029 A 
ATOM     35  N   UNL A   1      40.539  28.956  29.619  1.00  0.00    -0.354 N 
ATOM     36  C   UNL A   1      39.833  31.168  33.259  1.00  0.00     0.074 A 
ATOM     37  C   UNL A   1      38.753  32.119  33.098  1.00  0.00     0.031 C 
ATOM     38  C   UNL A   1      40.157  28.346  27.500  1.00  0.00     0.029 A 
ATOM     39  C   UNL A   1      41.037  28.127  28.643  1.00  0.00     0.049 A 
ATOM     40  H   UNL A   1      40.939  29.036  30.515  1.00  0.00     0.167 HD
ATOM     41  C   UNL A   1      40.567  31.016  34.386  1.00  0.00     0.034 A 
ATOM     42  C   UNL A   1      42.078  27.276  28.664  1.00  0.00     0.034 A 
ATOM     43  C   UNL A   1      41.633  30.060  34.535  1.00  0.00     0.049 A 
ATOM     44  C   UNL A   1      42.864  27.117  29.931  1.00  0.00     0.074 A 
ATOM     45  C   UNL A   1      42.394  29.795  35.661  1.00  0.00     0.029 A 
ATOM     46  N   UNL A   1      42.098  29.224  33.533  1.00  0.00    -0.354 N 
ATOM     47  N   UNL A   1      42.677  27.702  31.089  1.00  0.00    -0.248 NA
ATOM     48  C   UNL A   1      43.982  26.164  29.910  1.00  0.00     0.031 C 
ATOM     49  C   UNL A   1      43.333  28.814  35.332  1.00  0.00     0.029 A 
ATOM     50  C   UNL A   1      43.141  28.449  34.009  1.00  0.00     0.049 A 
ATOM     51  H   UNL A   1      41.739  29.187  32.616  1.00  0.00     0.167 HD
ATOM     52  C   UNL A   1      43.637  27.174  31.941  1.00  0.00     0.074 A 
ATOM     53  C   UNL A   1      44.399  26.213  31.169  1.00  0.00     0.031 C 
ATOM     54  C   UNL A   1      43.868  27.470  33.242  1.00  0.00     0.034 A 
BRANCH  41  55
ATOM     55  C   UNL A   1      40.221  31.860  35.581  1.00  0.00     0.023 A 
ATOM     56  C   UNL A   1      40.945  33.046  35.814  1.00  0.00     0.012 A 
ATOM     57  C   UNL A   1      39.112  31.551  36.392  1.00  0.00     0.148 A 
ATOM     58  C   UNL A   1      40.573  33.912  36.842  1.00  0.00     0.002 A 
ATOM     59  C   UNL A   1      38.732  32.430  37.399  1.00  0.00     0.091 A 
ATOM     60  F   UNL A   1      38.446  30.412  36.154  1.00  0.00    -0.205 F 
ATOM     61  C   UNL A   1      39.463  33.610  37.626  1.00  0.00     0.022 A 
BRANCH  59  62
ATOM     62  S   UNL A   1      37.293  32.161  38.439  1.00  0.00     0.127 S 
ATOM     63  O   UNL A   1      37.173  30.703  38.399  1.00  0.00    -0.237 OA
ATOM     64  O   UNL A   1      37.736  32.703  39.723  1.00  0.00    -0.237 OA
ATOM     65  O   UNL A   1      36.198  32.886  37.810  1.00  0.00    -0.744 OA
ENDBRANCH  59  62
ENDBRANCH  41  55
BRANCH  42  66
ATOM     66  C   UNL A   1      42.371  26.464  27.454  1.00  0.00     0.023 A 
ATOM     67  C   UNL A   1      43.131  27.028  26.413  1.00  0.00     0.012 A 
ATOM     68  C   UNL A   1      41.986  25.113  27.380  1.00  0.00     0.148 A 
ATOM     69  C   UNL A   1      43.501  26.257  25.311  1.00  0.00     0.002 A 
ATOM     70  C   UNL A   1      42.388  24.340  26.299  1.00  0.00     0.091 A 
ATOM     71  F   UNL A   1      41.270  24.604  28.392  1.00  0.00    -0.205 F 
ATOM     72  C   UNL A   1      43.138  24.913  25.258  1.00  0.00     0.022 A 
BRANCH  70  73
ATOM     73  S   UNL A   1      42.057  22.580  26.189  1.00  0.00     0.127 S 
ATOM     74  O   UNL A   1      42.709  22.232  24.928  1.00  0.00    -0.237 OA
ATOM     75  O   UNL A   1      42.726  22.076  27.388  1.00  0.00    -0.237 OA
ATOM     76  O   UNL A   1      40.607  22.446  26.199  1.00  0.00    -0.744 OA
ENDBRANCH  70  73
ENDBRANCH  42  66
BRANCH  54  77
ATOM     77  C   UNL A   1      44.979  26.742  33.944  1.00  0.00     0.023 A 
ATOM     78  C   UNL A   1      46.238  27.360  34.077  1.00  0.00     0.012 A 
ATOM     79  C   UNL A   1      44.737  25.508  34.578  1.00  0.00     0.148 A 
ATOM     80  C   UNL A   1      47.244  26.754  34.829  1.00  0.00     0.002 A 
ATOM     81  C   UNL A   1      45.732  24.929  35.354  1.00  0.00     0.091 A 
ATOM     82  F   UNL A   1      43.533  24.940  34.426  1.00  0.00    -0.205 F 
ATOM     83  C   UNL A   1      46.987  25.548  35.477  1.00  0.00     0.022 A 
BRANCH  81  84
ATOM     84  S   UNL A   1      45.475  23.414  36.285  1.00  0.00     0.127 S 
ATOM     85  O   UNL A   1      46.785  22.773  36.178  1.00  0.00    -0.237 OA
ATOM     86  O   UNL A   1      45.153  23.924  37.618  1.00  0.00    -0.237 OA
ATOM     87  O   UNL A   1      44.387  22.709  35.621  1.00  0.00    -0.744 OA
ENDBRANCH  81  84
ENDBRANCH  54  77
ENDBRANCH  28  29
ENDBRANCH  21  23
ENDBRANCH  20  21
ENDBRANCH  19  20
ENDBRANCH   1  19
TORSDOF 19
ENDMDL
