MODEL 1
REMARK VINA RESULT:     -11.7      0.000      0.000
REMARK SMILES C[C@@H]1[C@H](C(=O)OCCOCCOC(=O)c2ccc(-c3c4nc(c(-c5cccc(S(=O)(=O)[O-])c5F)c5ccc([nH]5)c(-c5cccc(S(=O)(=O)[O-])c5F)c5nc(c(-c6cccc(S(=O)(=O)[O-])c6F)c6ccc3[nH]6)C=C5)C=C4)cc2)CCN1S(=O)(=O)c1cc(F)cc(F)c1
REMARK SMILES IDX 10 1 9 2 8 3 7 4 6 5 4 6 5 7 3 8 1 9 2 10 80 11 78 12 79 13
REMARK SMILES IDX 81 14 82 15 83 16 84 17 85 18 91 19 86 20 89 21 87 22 88 23
REMARK SMILES IDX 90 24 11 25 12 26 13 27 14 28 15 29 16 30 77 31 17 32 76 33
REMARK SMILES IDX 18 34 19 35 20 36 70 37 21 38 75 39 69 40 71 41 22 42 74 43
REMARK SMILES IDX 68 44 67 45 23 47 55 48 35 49 54 50 36 51 39 52 53 53 72 54
REMARK SMILES IDX 37 55 38 56 52 58 73 59 40 60 24 61 25 62 33 63 26 64 28 65
REMARK SMILES IDX 34 66 27 67 29 68 30 69 31 70 32 71 56 72 57 73 65 74 58 75
REMARK SMILES IDX 60 76 66 77 59 78 61 79 62 80 63 81 64 82 41 83 42 84 50 85
REMARK SMILES IDX 43 86 45 87 51 88 44 89 46 90 47 91 48 92 49 93
REMARK H PARENT 71 46 39 57
REMARK Flexibility Score: inf
ROOT
ATOM      1  C   UNL A   1      31.439  29.189  25.314  1.00  0.00     0.202 C 
ENDROOT
BRANCH   1   2
ATOM      2  O   UNL A   1      32.543  28.661  24.580  1.00  0.00    -0.374 OA
BRANCH   2   3
ATOM      3  C   UNL A   1      32.551  28.896  23.168  1.00  0.00     0.202 C 
BRANCH   3   4
ATOM      4  C   UNL A   1      33.667  28.171  22.410  1.00  0.00     0.261 C 
BRANCH   4   5
ATOM      5  O   UNL A   1      33.698  26.795  22.836  1.00  0.00    -0.463 OA
BRANCH   5   6
ATOM      6  C   UNL A   1      33.161  25.875  22.014  1.00  0.00     0.310 C 
ATOM      7  O   UNL A   1      33.304  25.851  20.797  1.00  0.00    -0.252 OA
BRANCH   6   8
ATOM      8  C   UNL A   1      32.376  24.811  22.748  1.00  0.00     0.118 C 
ATOM      9  C   UNL A   1      34.394  23.412  23.648  1.00  0.00     0.027 C 
ATOM     10  C   UNL A   1      32.974  23.425  23.085  1.00  0.00     0.084 C 
ATOM     11  N   UNL A   1      31.943  22.864  24.029  1.00  0.00    -0.194 NA
ATOM     12  C   UNL A   1      31.870  25.287  24.087  1.00  0.00     0.034 C 
ATOM     13  C   UNL A   1      31.209  24.034  24.637  1.00  0.00     0.104 C 
BRANCH  11  14
ATOM     14  S   UNL A   1      32.200  21.621  25.157  1.00  0.00     0.243 S 
ATOM     15  O   UNL A   1      33.385  21.931  25.922  1.00  0.00    -0.207 OA
ATOM     16  O   UNL A   1      30.923  21.455  25.827  1.00  0.00    -0.207 OA
BRANCH  14  17
ATOM     17  C   UNL A   1      32.498  20.076  24.328  1.00  0.00     0.088 A 
ATOM     18  C   UNL A   1      33.207  19.104  25.052  1.00  0.00     0.061 A 
ATOM     19  C   UNL A   1      32.143  19.820  23.006  1.00  0.00     0.061 A 
ATOM     20  C   UNL A   1      33.574  17.911  24.438  1.00  0.00     0.127 A 
ATOM     21  C   UNL A   1      32.526  18.616  22.414  1.00  0.00     0.127 A 
ATOM     22  F   UNL A   1      34.266  17.001  25.132  1.00  0.00    -0.207 F 
ATOM     23  C   UNL A   1      33.246  17.659  23.115  1.00  0.00     0.078 A 
ATOM     24  F   UNL A   1      32.202  18.389  21.135  1.00  0.00    -0.207 F 
ENDBRANCH  14  17
ENDBRANCH  11  14
ENDBRANCH   6   8
ENDBRANCH   5   6
ENDBRANCH   4   5
ENDBRANCH   3   4
ENDBRANCH   2   3
ENDBRANCH   1   2
BRANCH   1  25
ATOM     25  C   UNL A   1      31.786  30.217  26.396  1.00  0.00     0.261 C 
BRANCH  25  26
ATOM     26  O   UNL A   1      33.090  30.786  26.179  1.00  0.00    -0.460 OA
BRANCH  26  27
ATOM     27  C   UNL A   1      33.511  31.608  27.174  1.00  0.00     0.338 C 
ATOM     28  O   UNL A   1      32.853  32.469  27.737  1.00  0.00    -0.246 OA
BRANCH  27  29
ATOM     29  C   UNL A   1      34.849  31.200  27.642  1.00  0.00     0.060 A 
ATOM     30  C   UNL A   1      35.076  29.827  27.805  1.00  0.00     0.016 A 
ATOM     31  C   UNL A   1      35.845  32.124  27.970  1.00  0.00     0.016 A 
ATOM     32  C   UNL A   1      36.273  29.374  28.353  1.00  0.00     0.010 A 
ATOM     33  C   UNL A   1      37.048  31.667  28.522  1.00  0.00     0.010 A 
ATOM     34  C   UNL A   1      37.251  30.293  28.756  1.00  0.00    -0.014 A 
BRANCH  34  35
ATOM     35  C   UNL A   1      38.411  29.815  29.548  1.00  0.00     0.031 A 
ATOM     36  C   UNL A   1      38.588  30.305  30.961  1.00  0.00     0.074 A 
ATOM     37  C   UNL A   1      39.283  28.930  29.031  1.00  0.00     0.049 A 
ATOM     38  N   UNL A   1      39.517  30.006  31.831  1.00  0.00    -0.248 NA
ATOM     39  C   UNL A   1      37.583  31.259  31.460  1.00  0.00     0.031 C 
ATOM     40  C   UNL A   1      39.222  28.375  27.680  1.00  0.00     0.029 A 
ATOM     41  N   UNL A   1      40.404  28.357  29.581  1.00  0.00    -0.354 N 
ATOM     42  C   UNL A   1      39.228  30.752  32.968  1.00  0.00     0.074 A 
ATOM     43  C   UNL A   1      38.044  31.530  32.672  1.00  0.00     0.031 C 
ATOM     44  C   UNL A   1      40.273  27.556  27.498  1.00  0.00     0.029 A 
ATOM     45  C   UNL A   1      41.091  27.547  28.710  1.00  0.00     0.049 A 
ATOM     46  H   UNL A   1      40.687  28.512  30.511  1.00  0.00     0.167 HD
ATOM     47  C   UNL A   1      39.875  30.775  34.157  1.00  0.00     0.034 A 
ATOM     48  C   UNL A   1      42.258  26.888  28.864  1.00  0.00     0.034 A 
ATOM     49  C   UNL A   1      41.037  29.985  34.462  1.00  0.00     0.049 A 
ATOM     50  C   UNL A   1      42.972  26.950  30.190  1.00  0.00     0.074 A 
ATOM     51  C   UNL A   1      41.730  29.904  35.656  1.00  0.00     0.029 A 
ATOM     52  N   UNL A   1      41.685  29.152  33.565  1.00  0.00    -0.354 N 
ATOM     53  N   UNL A   1      42.616  27.562  31.294  1.00  0.00    -0.248 NA
ATOM     54  C   UNL A   1      44.234  26.202  30.302  1.00  0.00     0.031 C 
ATOM     55  C   UNL A   1      42.818  29.043  35.473  1.00  0.00     0.029 A 
ATOM     56  C   UNL A   1      42.781  28.562  34.174  1.00  0.00     0.049 A 
ATOM     57  H   UNL A   1      41.408  29.001  32.632  1.00  0.00     0.167 HD
ATOM     58  C   UNL A   1      43.585  27.242  32.239  1.00  0.00     0.074 A 
ATOM     59  C   UNL A   1      44.534  26.367  31.584  1.00  0.00     0.031 C 
ATOM     60  C   UNL A   1      43.688  27.648  33.529  1.00  0.00     0.034 A 
BRANCH  47  61
ATOM     61  C   UNL A   1      39.322  31.669  35.236  1.00  0.00     0.023 A 
ATOM     62  C   UNL A   1      38.378  31.159  36.151  1.00  0.00     0.012 A 
ATOM     63  C   UNL A   1      39.781  32.992  35.382  1.00  0.00     0.148 A 
ATOM     64  C   UNL A   1      37.877  31.962  37.175  1.00  0.00     0.002 A 
ATOM     65  C   UNL A   1      39.310  33.772  36.432  1.00  0.00     0.091 A 
ATOM     66  F   UNL A   1      40.662  33.466  34.489  1.00  0.00    -0.205 F 
ATOM     67  C   UNL A   1      38.350  33.263  37.322  1.00  0.00     0.022 A 
BRANCH  65  68
ATOM     68  S   UNL A   1      39.916  35.432  36.752  1.00  0.00     0.127 S 
ATOM     69  O   UNL A   1      41.363  35.216  36.788  1.00  0.00    -0.237 OA
ATOM     70  O   UNL A   1      39.439  36.166  35.579  1.00  0.00    -0.237 OA
ATOM     71  O   UNL A   1      39.315  35.844  38.013  1.00  0.00    -0.744 OA
ENDBRANCH  65  68
ENDBRANCH  47  61
BRANCH  48  72
ATOM     72  C   UNL A   1      42.813  26.081  27.742  1.00  0.00     0.023 A 
ATOM     73  C   UNL A   1      43.811  26.630  26.914  1.00  0.00     0.012 A 
ATOM     74  C   UNL A   1      42.361  24.769  27.495  1.00  0.00     0.148 A 
ATOM     75  C   UNL A   1      44.326  25.901  25.841  1.00  0.00     0.002 A 
ATOM     76  C   UNL A   1      42.918  24.028  26.460  1.00  0.00     0.091 A 
ATOM     77  F   UNL A   1      41.397  24.272  28.282  1.00  0.00    -0.205 F 
ATOM     78  C   UNL A   1      43.887  24.598  25.621  1.00  0.00     0.022 A 
BRANCH  76  79
ATOM     79  S   UNL A   1      42.509  22.302  26.183  1.00  0.00     0.127 S 
ATOM     80  O   UNL A   1      42.983  21.681  27.417  1.00  0.00    -0.237 OA
ATOM     81  O   UNL A   1      41.054  22.357  26.039  1.00  0.00    -0.237 OA
ATOM     82  O   UNL A   1      43.218  21.920  24.969  1.00  0.00    -0.744 OA
ENDBRANCH  76  79
ENDBRANCH  48  72
BRANCH  60  83
ATOM     83  C   UNL A   1      44.843  27.120  34.344  1.00  0.00     0.023 A 
ATOM     84  C   UNL A   1      46.051  27.843  34.401  1.00  0.00     0.012 A 
ATOM     85  C   UNL A   1      44.702  25.949  35.115  1.00  0.00     0.148 A 
ATOM     86  C   UNL A   1      47.112  27.390  35.184  1.00  0.00     0.002 A 
ATOM     87  C   UNL A   1      45.745  25.530  35.932  1.00  0.00     0.091 A 
ATOM     88  F   UNL A   1      43.551  25.265  35.036  1.00  0.00    -0.205 F 
ATOM     89  C   UNL A   1      46.956  26.242  35.958  1.00  0.00     0.022 A 
BRANCH  87  90
ATOM     90  S   UNL A   1      45.599  24.120  37.036  1.00  0.00     0.127 S 
ATOM     91  O   UNL A   1      44.652  24.618  38.032  1.00  0.00    -0.237 OA
ATOM     92  O   UNL A   1      45.065  23.085  36.150  1.00  0.00    -0.237 OA
ATOM     93  O   UNL A   1      46.944  23.855  37.529  1.00  0.00    -0.744 OA
ENDBRANCH  87  90
ENDBRANCH  60  83
ENDBRANCH  34  35
ENDBRANCH  27  29
ENDBRANCH  26  27
ENDBRANCH  25  26
ENDBRANCH   1  25
TORSDOF 19
ENDMDL
MODEL 2
REMARK VINA RESULT:     -11.5      5.310     10.435
REMARK SMILES C[C@@H]1[C@H](C(=O)OCCOCCOC(=O)c2ccc(-c3c4nc(c(-c5cccc(S(=O)(=O)[O-])c5F)c5ccc([nH]5)c(-c5cccc(S(=O)(=O)[O-])c5F)c5nc(c(-c6cccc(S(=O)(=O)[O-])c6F)c6ccc3[nH]6)C=C5)C=C4)cc2)CCN1S(=O)(=O)c1cc(F)cc(F)c1
REMARK SMILES IDX 10 1 9 2 8 3 7 4 6 5 4 6 5 7 3 8 1 9 2 10 80 11 78 12 79 13
REMARK SMILES IDX 81 14 82 15 83 16 84 17 85 18 91 19 86 20 89 21 87 22 88 23
REMARK SMILES IDX 90 24 11 25 12 26 13 27 14 28 15 29 16 30 77 31 17 32 76 33
REMARK SMILES IDX 18 34 19 35 20 36 70 37 21 38 75 39 69 40 71 41 22 42 74 43
REMARK SMILES IDX 68 44 67 45 23 47 55 48 35 49 54 50 36 51 39 52 53 53 72 54
REMARK SMILES IDX 37 55 38 56 52 58 73 59 40 60 24 61 25 62 33 63 26 64 28 65
REMARK SMILES IDX 34 66 27 67 29 68 30 69 31 70 32 71 56 72 57 73 65 74 58 75
REMARK SMILES IDX 60 76 66 77 59 78 61 79 62 80 63 81 64 82 41 83 42 84 50 85
REMARK SMILES IDX 43 86 45 87 51 88 44 89 46 90 47 91 48 92 49 93
REMARK H PARENT 71 46 39 57
REMARK Flexibility Score: inf
ROOT
ATOM      1  C   UNL A   1      36.953  21.514  24.248  1.00  0.00     0.202 C 
ENDROOT
BRANCH   1   2
ATOM      2  O   UNL A   1      35.785  21.713  25.043  1.00  0.00    -0.374 OA
BRANCH   2   3
ATOM      3  C   UNL A   1      34.864  20.620  25.123  1.00  0.00     0.202 C 
BRANCH   3   4
ATOM      4  C   UNL A   1      33.478  20.913  24.543  1.00  0.00     0.261 C 
BRANCH   4   5
ATOM      5  O   UNL A   1      33.453  22.271  24.066  1.00  0.00    -0.463 OA
BRANCH   5   6
ATOM      6  C   UNL A   1      32.552  22.584  23.116  1.00  0.00     0.310 C 
ATOM      7  O   UNL A   1      31.704  21.817  22.673  1.00  0.00    -0.252 OA
BRANCH   6   8
ATOM      8  C   UNL A   1      32.649  24.021  22.658  1.00  0.00     0.118 C 
ATOM      9  C   UNL A   1      31.107  25.098  24.475  1.00  0.00     0.027 C 
ATOM     10  C   UNL A   1      31.583  25.081  23.024  1.00  0.00     0.084 C 
ATOM     11  N   UNL A   1      32.255  26.358  22.593  1.00  0.00    -0.194 NA
ATOM     12  C   UNL A   1      33.934  24.681  23.093  1.00  0.00     0.034 C 
ATOM     13  C   UNL A   1      33.743  26.103  22.592  1.00  0.00     0.104 C 
BRANCH  11  14
ATOM     14  S   UNL A   1      31.879  27.917  23.152  1.00  0.00     0.243 S 
ATOM     15  O   UNL A   1      32.582  28.880  22.337  1.00  0.00    -0.207 OA
ATOM     16  O   UNL A   1      30.429  27.946  23.228  1.00  0.00    -0.207 OA
BRANCH  14  17
ATOM     17  C   UNL A   1      32.440  28.133  24.825  1.00  0.00     0.088 A 
ATOM     18  C   UNL A   1      31.469  28.008  25.832  1.00  0.00     0.061 A 
ATOM     19  C   UNL A   1      33.741  28.488  25.171  1.00  0.00     0.061 A 
ATOM     20  C   UNL A   1      31.804  28.268  27.156  1.00  0.00     0.127 A 
ATOM     21  C   UNL A   1      34.049  28.746  26.507  1.00  0.00     0.127 A 
ATOM     22  F   UNL A   1      30.865  28.164  28.104  1.00  0.00    -0.207 F 
ATOM     23  C   UNL A   1      33.090  28.647  27.506  1.00  0.00     0.078 A 
ATOM     24  F   UNL A   1      35.296  29.112  26.828  1.00  0.00    -0.207 F 
ENDBRANCH  14  17
ENDBRANCH  11  14
ENDBRANCH   6   8
ENDBRANCH   5   6
ENDBRANCH   4   5
ENDBRANCH   3   4
ENDBRANCH   2   3
ENDBRANCH   1   2
BRANCH   1  25
ATOM     25  C   UNL A   1      37.950  20.477  24.776  1.00  0.00     0.261 C 
BRANCH  25  26
ATOM     26  O   UNL A   1      38.345  20.769  26.128  1.00  0.00    -0.460 OA
BRANCH  26  27
ATOM     27  C   UNL A   1      39.687  20.833  26.315  1.00  0.00     0.338 C 
ATOM     28  O   UNL A   1      40.519  20.032  25.918  1.00  0.00    -0.246 OA
BRANCH  27  29
ATOM     29  C   UNL A   1      40.059  22.129  26.916  1.00  0.00     0.060 A 
ATOM     30  C   UNL A   1      39.408  23.268  26.425  1.00  0.00     0.016 A 
ATOM     31  C   UNL A   1      41.053  22.248  27.891  1.00  0.00     0.016 A 
ATOM     32  C   UNL A   1      39.788  24.535  26.860  1.00  0.00     0.010 A 
ATOM     33  C   UNL A   1      41.434  23.523  28.327  1.00  0.00     0.010 A 
ATOM     34  C   UNL A   1      40.834  24.674  27.783  1.00  0.00    -0.014 A 
BRANCH  34  35
ATOM     35  C   UNL A   1      41.383  26.025  28.057  1.00  0.00     0.031 A 
ATOM     36  C   UNL A   1      42.777  26.359  27.595  1.00  0.00     0.074 A 
ATOM     37  C   UNL A   1      40.641  26.959  28.682  1.00  0.00     0.049 A 
ATOM     38  N   UNL A   1      43.443  27.478  27.716  1.00  0.00    -0.248 NA
ATOM     39  C   UNL A   1      43.518  25.290  26.905  1.00  0.00     0.031 C 
ATOM     40  C   UNL A   1      39.278  26.764  29.173  1.00  0.00     0.029 A 
ATOM     41  N   UNL A   1      40.942  28.254  29.024  1.00  0.00    -0.354 N 
ATOM     42  C   UNL A   1      44.688  27.242  27.145  1.00  0.00     0.074 A 
ATOM     43  C   UNL A   1      44.690  25.868  26.690  1.00  0.00     0.031 C 
ATOM     44  C   UNL A   1      38.867  27.895  29.774  1.00  0.00     0.029 A 
ATOM     45  C   UNL A   1      39.944  28.882  29.729  1.00  0.00     0.049 A 
ATOM     46  H   UNL A   1      41.792  28.691  28.786  1.00  0.00     0.167 HD
ATOM     47  C   UNL A   1      45.730  28.095  26.993  1.00  0.00     0.034 A 
ATOM     48  C   UNL A   1      39.909  30.108  30.291  1.00  0.00     0.034 A 
ATOM     49  C   UNL A   1      45.721  29.467  27.423  1.00  0.00     0.049 A 
ATOM     50  C   UNL A   1      41.092  31.029  30.130  1.00  0.00     0.074 A 
ATOM     51  C   UNL A   1      46.710  30.421  27.267  1.00  0.00     0.029 A 
ATOM     52  N   UNL A   1      44.681  30.077  28.104  1.00  0.00    -0.354 N 
ATOM     53  N   UNL A   1      42.211  30.831  29.478  1.00  0.00    -0.248 NA
ATOM     54  C   UNL A   1      40.991  32.357  30.756  1.00  0.00     0.031 C 
ATOM     55  C   UNL A   1      46.280  31.602  27.881  1.00  0.00     0.029 A 
ATOM     56  C   UNL A   1      45.008  31.393  28.389  1.00  0.00     0.049 A 
ATOM     57  H   UNL A   1      43.833  29.641  28.350  1.00  0.00     0.167 HD
ATOM     58  C   UNL A   1      42.929  32.019  29.580  1.00  0.00     0.074 A 
ATOM     59  C   UNL A   1      42.110  32.937  30.342  1.00  0.00     0.031 C 
ATOM     60  C   UNL A   1      44.162  32.317  29.100  1.00  0.00     0.034 A 
BRANCH  47  61
ATOM     61  C   UNL A   1      46.964  27.574  26.308  1.00  0.00     0.023 A 
ATOM     62  C   UNL A   1      47.865  26.753  27.018  1.00  0.00     0.012 A 
ATOM     63  C   UNL A   1      47.204  27.845  24.947  1.00  0.00     0.148 A 
ATOM     64  C   UNL A   1      48.999  26.236  26.393  1.00  0.00     0.002 A 
ATOM     65  C   UNL A   1      48.312  27.290  24.319  1.00  0.00     0.091 A 
ATOM     66  F   UNL A   1      46.349  28.646  24.295  1.00  0.00    -0.205 F 
ATOM     67  C   UNL A   1      49.217  26.496  25.043  1.00  0.00     0.022 A 
BRANCH  65  68
ATOM     68  S   UNL A   1      48.638  27.501  22.565  1.00  0.00     0.127 S 
ATOM     69  O   UNL A   1      48.679  26.113  22.104  1.00  0.00    -0.237 OA
ATOM     70  O   UNL A   1      47.465  28.255  22.123  1.00  0.00    -0.237 OA
ATOM     71  O   UNL A   1      49.897  28.226  22.474  1.00  0.00    -0.744 OA
ENDBRANCH  65  68
ENDBRANCH  47  61
BRANCH  48  72
ATOM     72  C   UNL A   1      38.697  30.554  31.034  1.00  0.00     0.023 A 
ATOM     73  C   UNL A   1      38.612  30.340  32.423  1.00  0.00     0.012 A 
ATOM     74  C   UNL A   1      37.631  31.194  30.371  1.00  0.00     0.148 A 
ATOM     75  C   UNL A   1      37.475  30.726  33.134  1.00  0.00     0.002 A 
ATOM     76  C   UNL A   1      36.526  31.626  31.095  1.00  0.00     0.091 A 
ATOM     77  F   UNL A   1      37.723  31.371  29.046  1.00  0.00    -0.205 F 
ATOM     78  C   UNL A   1      36.437  31.378  32.472  1.00  0.00     0.022 A 
BRANCH  76  79
ATOM     79  S   UNL A   1      35.204  32.587  30.350  1.00  0.00     0.127 S 
ATOM     80  O   UNL A   1      34.268  32.720  31.464  1.00  0.00    -0.237 OA
ATOM     81  O   UNL A   1      35.899  33.819  29.979  1.00  0.00    -0.237 OA
ATOM     82  O   UNL A   1      34.733  31.798  29.220  1.00  0.00    -0.744 OA
ENDBRANCH  76  79
ENDBRANCH  48  72
BRANCH  60  83
ATOM     83  C   UNL A   1      44.695  33.707  29.340  1.00  0.00     0.023 A 
ATOM     84  C   UNL A   1      45.368  34.005  30.541  1.00  0.00     0.012 A 
ATOM     85  C   UNL A   1      44.596  34.696  28.340  1.00  0.00     0.148 A 
ATOM     86  C   UNL A   1      45.903  35.274  30.759  1.00  0.00     0.002 A 
ATOM     87  C   UNL A   1      45.175  35.944  28.543  1.00  0.00     0.091 A 
ATOM     88  F   UNL A   1      43.938  34.401  27.210  1.00  0.00    -0.205 F 
ATOM     89  C   UNL A   1      45.818  36.238  29.756  1.00  0.00     0.022 A 
BRANCH  87  90
ATOM     90  S   UNL A   1      45.200  37.214  27.272  1.00  0.00     0.127 S 
ATOM     91  O   UNL A   1      45.842  38.324  27.973  1.00  0.00    -0.237 OA
ATOM     92  O   UNL A   1      46.020  36.595  26.230  1.00  0.00    -0.237 OA
ATOM     93  O   UNL A   1      43.810  37.432  26.896  1.00  0.00    -0.744 OA
ENDBRANCH  87  90
ENDBRANCH  60  83
ENDBRANCH  34  35
ENDBRANCH  27  29
ENDBRANCH  26  27
ENDBRANCH  25  26
ENDBRANCH   1  25
TORSDOF 19
ENDMDL
MODEL 3
REMARK VINA RESULT:     -11.2      2.554      9.120
REMARK SMILES C[C@@H]1[C@H](C(=O)OCCOCCOC(=O)c2ccc(-c3c4nc(c(-c5cccc(S(=O)(=O)[O-])c5F)c5ccc([nH]5)c(-c5cccc(S(=O)(=O)[O-])c5F)c5nc(c(-c6cccc(S(=O)(=O)[O-])c6F)c6ccc3[nH]6)C=C5)C=C4)cc2)CCN1S(=O)(=O)c1cc(F)cc(F)c1
REMARK SMILES IDX 10 1 9 2 8 3 7 4 6 5 4 6 5 7 3 8 1 9 2 10 80 11 78 12 79 13
REMARK SMILES IDX 81 14 82 15 83 16 84 17 85 18 91 19 86 20 89 21 87 22 88 23
REMARK SMILES IDX 90 24 11 25 12 26 13 27 14 28 15 29 16 30 77 31 17 32 76 33
REMARK SMILES IDX 18 34 19 35 20 36 70 37 21 38 75 39 69 40 71 41 22 42 74 43
REMARK SMILES IDX 68 44 67 45 23 47 55 48 35 49 54 50 36 51 39 52 53 53 72 54
REMARK SMILES IDX 37 55 38 56 52 58 73 59 40 60 24 61 25 62 33 63 26 64 28 65
REMARK SMILES IDX 34 66 27 67 29 68 30 69 31 70 32 71 56 72 57 73 65 74 58 75
REMARK SMILES IDX 60 76 66 77 59 78 61 79 62 80 63 81 64 82 41 83 42 84 50 85
REMARK SMILES IDX 43 86 45 87 51 88 44 89 46 90 47 91 48 92 49 93
REMARK H PARENT 71 46 39 57
REMARK Flexibility Score: inf
ROOT
ATOM      1  C   UNL A   1      43.348  21.169  25.644  1.00  0.00     0.202 C 
ENDROOT
BRANCH   1   2
ATOM      2  O   UNL A   1      41.992  21.608  25.712  1.00  0.00    -0.374 OA
BRANCH   2   3
ATOM      3  C   UNL A   1      41.130  20.903  26.611  1.00  0.00     0.202 C 
BRANCH   3   4
ATOM      4  C   UNL A   1      39.875  21.677  27.026  1.00  0.00     0.261 C 
BRANCH   4   5
ATOM      5  O   UNL A   1      39.208  22.147  25.839  1.00  0.00    -0.463 OA
BRANCH   5   6
ATOM      6  C   UNL A   1      38.116  21.476  25.428  1.00  0.00     0.310 C 
ATOM      7  O   UNL A   1      38.105  20.302  25.075  1.00  0.00    -0.252 OA
BRANCH   6   8
ATOM      8  C   UNL A   1      36.854  22.307  25.483  1.00  0.00     0.118 C 
ATOM      9  C   UNL A   1      36.551  22.697  22.915  1.00  0.00     0.027 C 
ATOM     10  C   UNL A   1      36.434  23.252  24.333  1.00  0.00     0.084 C 
ATOM     11  N   UNL A   1      35.026  23.614  24.727  1.00  0.00    -0.194 NA
ATOM     12  C   UNL A   1      35.618  21.468  25.689  1.00  0.00     0.034 C 
ATOM     13  C   UNL A   1      34.515  22.511  25.622  1.00  0.00     0.104 C 
BRANCH  11  14
ATOM     14  S   UNL A   1      33.820  24.196  23.684  1.00  0.00     0.243 S 
ATOM     15  O   UNL A   1      34.440  25.041  22.690  1.00  0.00    -0.207 OA
ATOM     16  O   UNL A   1      33.078  23.016  23.277  1.00  0.00    -0.207 OA
BRANCH  14  17
ATOM     17  C   UNL A   1      32.653  25.198  24.575  1.00  0.00     0.088 A 
ATOM     18  C   UNL A   1      33.008  26.542  24.778  1.00  0.00     0.061 A 
ATOM     19  C   UNL A   1      31.474  24.712  25.134  1.00  0.00     0.061 A 
ATOM     20  C   UNL A   1      32.201  27.364  25.557  1.00  0.00     0.127 A 
ATOM     21  C   UNL A   1      30.685  25.558  25.913  1.00  0.00     0.127 A 
ATOM     22  F   UNL A   1      32.561  28.637  25.759  1.00  0.00    -0.207 F 
ATOM     23  C   UNL A   1      31.040  26.880  26.138  1.00  0.00     0.078 A 
ATOM     24  F   UNL A   1      29.566  25.075  26.467  1.00  0.00    -0.207 F 
ENDBRANCH  14  17
ENDBRANCH  11  14
ENDBRANCH   6   8
ENDBRANCH   5   6
ENDBRANCH   4   5
ENDBRANCH   3   4
ENDBRANCH   2   3
ENDBRANCH   1   2
BRANCH   1  25
ATOM     25  C   UNL A   1      44.230  21.883  24.614  1.00  0.00     0.261 C 
BRANCH  25  26
ATOM     26  O   UNL A   1      43.746  23.211  24.340  1.00  0.00    -0.460 OA
BRANCH  26  27
ATOM     27  C   UNL A   1      44.481  24.199  24.910  1.00  0.00     0.338 C 
ATOM     28  O   UNL A   1      45.618  24.527  24.612  1.00  0.00    -0.246 OA
BRANCH  27  29
ATOM     29  C   UNL A   1      43.648  24.983  25.842  1.00  0.00     0.060 A 
ATOM     30  C   UNL A   1      43.853  26.369  25.868  1.00  0.00     0.016 A 
ATOM     31  C   UNL A   1      42.729  24.388  26.712  1.00  0.00     0.016 A 
ATOM     32  C   UNL A   1      43.189  27.159  26.802  1.00  0.00     0.010 A 
ATOM     33  C   UNL A   1      42.062  25.185  27.651  1.00  0.00     0.010 A 
ATOM     34  C   UNL A   1      42.320  26.567  27.729  1.00  0.00    -0.014 A 
BRANCH  34  35
ATOM     35  C   UNL A   1      41.805  27.378  28.860  1.00  0.00     0.031 A 
ATOM     36  C   UNL A   1      42.594  27.436  30.141  1.00  0.00     0.074 A 
ATOM     37  C   UNL A   1      40.665  28.084  28.741  1.00  0.00     0.049 A 
ATOM     38  N   UNL A   1      42.336  28.092  31.243  1.00  0.00    -0.248 NA
ATOM     39  C   UNL A   1      43.838  26.650  30.187  1.00  0.00     0.031 C 
ATOM     40  C   UNL A   1      39.813  28.117  27.554  1.00  0.00     0.029 A 
ATOM     41  N   UNL A   1      40.020  28.895  29.642  1.00  0.00    -0.354 N 
ATOM     42  C   UNL A   1      43.367  27.779  32.121  1.00  0.00     0.074 A 
ATOM     43  C   UNL A   1      44.247  26.862  31.429  1.00  0.00     0.031 C 
ATOM     44  C   UNL A   1      38.744  28.893  27.807  1.00  0.00     0.029 A 
ATOM     45  C   UNL A   1      38.826  29.391  29.180  1.00  0.00     0.049 A 
ATOM     46  H   UNL A   1      40.381  29.101  30.535  1.00  0.00     0.167 HD
ATOM     47  C   UNL A   1      43.576  28.227  33.382  1.00  0.00     0.034 A 
ATOM     48  C   UNL A   1      37.894  30.145  29.798  1.00  0.00     0.034 A 
ATOM     49  C   UNL A   1      42.715  29.157  34.063  1.00  0.00     0.049 A 
ATOM     50  C   UNL A   1      38.138  30.610  31.211  1.00  0.00     0.074 A 
ATOM     51  C   UNL A   1      42.872  29.707  35.322  1.00  0.00     0.029 A 
ATOM     52  N   UNL A   1      41.532  29.662  33.551  1.00  0.00    -0.354 N 
ATOM     53  N   UNL A   1      39.179  30.406  31.981  1.00  0.00    -0.248 NA
ATOM     54  C   UNL A   1      37.091  31.440  31.829  1.00  0.00     0.031 C 
ATOM     55  C   UNL A   1      41.767  30.524  35.584  1.00  0.00     0.029 A 
ATOM     56  C   UNL A   1      40.939  30.508  34.473  1.00  0.00     0.049 A 
ATOM     57  H   UNL A   1      41.166  29.452  32.661  1.00  0.00     0.167 HD
ATOM     58  C   UNL A   1      38.932  31.111  33.154  1.00  0.00     0.074 A 
ATOM     59  C   UNL A   1      37.651  31.763  32.987  1.00  0.00     0.031 C 
ATOM     60  C   UNL A   1      39.690  31.198  34.276  1.00  0.00     0.034 A 
BRANCH  47  61
ATOM     61  C   UNL A   1      44.802  27.736  34.104  1.00  0.00     0.023 A 
ATOM     62  C   UNL A   1      46.006  28.466  34.013  1.00  0.00     0.012 A 
ATOM     63  C   UNL A   1      44.749  26.590  34.921  1.00  0.00     0.148 A 
ATOM     64  C   UNL A   1      47.145  28.044  34.698  1.00  0.00     0.002 A 
ATOM     65  C   UNL A   1      45.876  26.202  35.635  1.00  0.00     0.091 A 
ATOM     66  F   UNL A   1      43.603  25.897  34.977  1.00  0.00    -0.205 F 
ATOM     67  C   UNL A   1      47.077  26.920  35.516  1.00  0.00     0.022 A 
BRANCH  65  68
ATOM     68  S   UNL A   1      45.868  24.815  36.777  1.00  0.00     0.127 S 
ATOM     69  O   UNL A   1      47.258  24.801  37.234  1.00  0.00    -0.237 OA
ATOM     70  O   UNL A   1      44.899  25.250  37.783  1.00  0.00    -0.237 OA
ATOM     71  O   UNL A   1      45.456  23.655  35.997  1.00  0.00    -0.744 OA
ENDBRANCH  65  68
ENDBRANCH  47  61
BRANCH  48  72
ATOM     72  C   UNL A   1      36.653  30.540  29.074  1.00  0.00     0.023 A 
ATOM     73  C   UNL A   1      35.834  29.548  28.500  1.00  0.00     0.012 A 
ATOM     74  C   UNL A   1      36.277  31.893  28.956  1.00  0.00     0.148 A 
ATOM     75  C   UNL A   1      34.682  29.897  27.795  1.00  0.00     0.002 A 
ATOM     76  C   UNL A   1      35.100  32.230  28.301  1.00  0.00     0.091 A 
ATOM     77  F   UNL A   1      37.080  32.823  29.491  1.00  0.00    -0.205 F 
ATOM     78  C   UNL A   1      34.309  31.236  27.705  1.00  0.00     0.022 A 
BRANCH  76  79
ATOM     79  S   UNL A   1      34.475  33.913  28.247  1.00  0.00     0.127 S 
ATOM     80  O   UNL A   1      35.277  34.495  27.173  1.00  0.00    -0.237 OA
ATOM     81  O   UNL A   1      33.065  33.700  27.917  1.00  0.00    -0.237 OA
ATOM     82  O   UNL A   1      34.706  34.460  29.576  1.00  0.00    -0.744 OA
ENDBRANCH  76  79
ENDBRANCH  48  72
BRANCH  60  83
ATOM     83  C   UNL A   1      39.185  32.063  35.403  1.00  0.00     0.023 A 
ATOM     84  C   UNL A   1      38.277  31.535  36.342  1.00  0.00     0.012 A 
ATOM     85  C   UNL A   1      39.672  33.375  35.575  1.00  0.00     0.148 A 
ATOM     86  C   UNL A   1      37.834  32.310  37.414  1.00  0.00     0.002 A 
ATOM     87  C   UNL A   1      39.265  34.124  36.673  1.00  0.00     0.091 A 
ATOM     88  F   UNL A   1      40.522  33.867  34.663  1.00  0.00    -0.205 F 
ATOM     89  C   UNL A   1      38.337  33.598  37.586  1.00  0.00     0.022 A 
BRANCH  87  90
ATOM     90  S   UNL A   1      39.932  35.754  37.029  1.00  0.00     0.127 S 
ATOM     91  O   UNL A   1      39.192  36.122  38.235  1.00  0.00    -0.237 OA
ATOM     92  O   UNL A   1      41.350  35.468  37.247  1.00  0.00    -0.237 OA
ATOM     93  O   UNL A   1      39.655  36.567  35.853  1.00  0.00    -0.744 OA
ENDBRANCH  87  90
ENDBRANCH  60  83
ENDBRANCH  34  35
ENDBRANCH  27  29
ENDBRANCH  26  27
ENDBRANCH  25  26
ENDBRANCH   1  25
TORSDOF 19
ENDMDL
