MODEL 1
REMARK VINA RESULT:      -7.2      0.000      0.000
REMARK SMILES CC[NH2+]C[C@@H](C)C(=O)N1CCO[C@@H](CC(=O)OCCOCCOC(=O)c2ccc(-c3c4nc(c(-c5cccc(S(=O)(=O)[O-])c5F)c5ccc([nH]5)c(-c5cccc(S(=O)(=O)[O-])c5F)c5nc(c(-c6cccc(S(=O)(=O)[O-])c6F)c6ccc3[nH]6)C=C5)C=C4)cc2)C1
REMARK SMILES IDX 18 1 17 2 15 3 16 4 14 5 13 6 9 7 10 8 89 9 11 10 12 11 7 12
REMARK SMILES IDX 8 13 5 14 6 15 4 16 3 17 2 20 1 21 19 22 20 23 21 24 22 25
REMARK SMILES IDX 23 26 24 27 25 28 26 29 27 30 88 31 28 32 87 33 29 34 30 35
REMARK SMILES IDX 31 36 81 37 32 38 86 39 80 40 82 41 33 42 85 43 79 44 78 45
REMARK SMILES IDX 34 47 66 48 46 49 65 50 47 51 50 52 64 53 83 54 48 55 49 56
REMARK SMILES IDX 63 58 84 59 51 60 35 61 36 62 44 63 37 64 39 65 45 66 38 67
REMARK SMILES IDX 40 68 41 69 42 70 43 71 67 72 68 73 76 74 69 75 71 76 77 77
REMARK SMILES IDX 70 78 72 79 73 80 74 81 75 82 52 83 53 84 61 85 54 86 56 87
REMARK SMILES IDX 62 88 55 89 57 90 58 91 59 92 60 93
REMARK H PARENT 3 18 3 19 82 46 50 57
REMARK Flexibility Score: inf
ROOT
ATOM      1  C   UNL A   1      49.144  27.432  22.155  1.00  0.00     0.261 C 
ENDROOT
BRANCH   1   2
ATOM      2  O   UNL A   1      48.539  27.913  23.373  1.00  0.00    -0.463 OA
BRANCH   2   3
ATOM      3  C   UNL A   1      47.879  26.994  24.118  1.00  0.00     0.308 C 
ATOM      4  O   UNL A   1      48.140  25.797  24.160  1.00  0.00    -0.252 OA
BRANCH   3   5
ATOM      5  C   UNL A   1      46.724  27.601  24.866  1.00  0.00     0.156 C 
BRANCH   5   6
ATOM      6  C   UNL A   1      45.552  26.673  25.186  1.00  0.00     0.148 C 
ATOM      7  N   UNL A   1      44.431  25.304  26.929  1.00  0.00    -0.337 N 
ATOM      8  C   UNL A   1      43.349  26.274  26.963  1.00  0.00     0.148 C 
ATOM      9  C   UNL A   1      45.712  25.906  26.529  1.00  0.00     0.152 C 
ATOM     10  C   UNL A   1      43.184  26.872  25.576  1.00  0.00     0.182 C 
ATOM     11  O   UNL A   1      44.388  27.546  25.196  1.00  0.00    -0.374 OA
BRANCH   7  12
ATOM     12  C   UNL A   1      44.412  24.084  27.574  1.00  0.00     0.231 C 
ATOM     13  O   UNL A   1      45.371  23.315  27.479  1.00  0.00    -0.274 OA
BRANCH  12  14
ATOM     14  C   UNL A   1      43.097  23.570  28.201  1.00  0.00     0.130 C 
ATOM     15  C   UNL A   1      43.343  23.226  29.671  1.00  0.00     0.024 C 
BRANCH  14  16
ATOM     16  C   UNL A   1      42.352  22.464  27.444  1.00  0.00     0.273 C 
BRANCH  16  17
ATOM     17  N   UNL A   1      43.175  21.394  26.860  1.00  0.00    -0.346 N 
ATOM     18  H   UNL A   1      43.614  21.754  26.013  1.00  0.00     0.346 HD
ATOM     19  H   UNL A   1      43.852  21.122  27.570  1.00  0.00     0.346 HD
BRANCH  17  20
ATOM     20  C   UNL A   1      42.424  20.191  26.510  1.00  0.00     0.257 C 
ATOM     21  C   UNL A   1      41.252  20.049  27.471  1.00  0.00     0.071 C 
ENDBRANCH  17  20
ENDBRANCH  16  17
ENDBRANCH  14  16
ENDBRANCH  12  14
ENDBRANCH   7  12
ENDBRANCH   5   6
ENDBRANCH   3   5
ENDBRANCH   2   3
ENDBRANCH   1   2
BRANCH   1  22
ATOM     22  C   UNL A   1      50.671  27.451  22.238  1.00  0.00     0.202 C 
BRANCH  22  23
ATOM     23  O   UNL A   1      51.221  27.017  23.483  1.00  0.00    -0.374 OA
BRANCH  23  24
ATOM     24  C   UNL A   1      52.294  27.796  24.009  1.00  0.00     0.202 C 
BRANCH  24  25
ATOM     25  C   UNL A   1      53.219  27.068  24.989  1.00  0.00     0.261 C 
BRANCH  25  26
ATOM     26  O   UNL A   1      52.519  26.046  25.721  1.00  0.00    -0.460 OA
BRANCH  26  27
ATOM     27  C   UNL A   1      52.729  26.046  27.059  1.00  0.00     0.338 C 
ATOM     28  O   UNL A   1      53.804  25.928  27.632  1.00  0.00    -0.246 OA
BRANCH  27  29
ATOM     29  C   UNL A   1      51.482  26.379  27.772  1.00  0.00     0.060 A 
ATOM     30  C   UNL A   1      50.269  25.990  27.193  1.00  0.00     0.016 A 
ATOM     31  C   UNL A   1      51.491  27.108  28.959  1.00  0.00     0.016 A 
ATOM     32  C   UNL A   1      49.061  26.371  27.778  1.00  0.00     0.010 A 
ATOM     33  C   UNL A   1      50.280  27.471  29.558  1.00  0.00     0.010 A 
ATOM     34  C   UNL A   1      49.057  27.146  28.947  1.00  0.00    -0.014 A 
BRANCH  34  35
ATOM     35  C   UNL A   1      47.787  27.731  29.446  1.00  0.00     0.031 A 
ATOM     36  C   UNL A   1      47.028  27.019  30.533  1.00  0.00     0.074 A 
ATOM     37  C   UNL A   1      47.307  28.882  28.940  1.00  0.00     0.049 A 
ATOM     38  N   UNL A   1      45.912  27.358  31.124  1.00  0.00    -0.248 NA
ATOM     39  C   UNL A   1      47.597  25.748  31.011  1.00  0.00     0.031 C 
ATOM     40  C   UNL A   1      47.923  29.651  27.860  1.00  0.00     0.029 A 
ATOM     41  N   UNL A   1      46.173  29.590  29.255  1.00  0.00    -0.354 N 
ATOM     42  C   UNL A   1      45.627  26.332  32.018  1.00  0.00     0.074 A 
ATOM     43  C   UNL A   1      46.676  25.345  31.873  1.00  0.00     0.031 C 
ATOM     44  C   UNL A   1      47.150  30.716  27.588  1.00  0.00     0.029 A 
ATOM     45  C   UNL A   1      45.977  30.696  28.462  1.00  0.00     0.049 A 
ATOM     46  H   UNL A   1      45.559  29.331  29.980  1.00  0.00     0.167 HD
ATOM     47  C   UNL A   1      44.603  26.226  32.897  1.00  0.00     0.034 A 
ATOM     48  C   UNL A   1      44.963  31.585  28.436  1.00  0.00     0.034 A 
ATOM     49  C   UNL A   1      43.579  27.220  33.067  1.00  0.00     0.049 A 
ATOM     50  C   UNL A   1      43.841  31.459  29.434  1.00  0.00     0.074 A 
ATOM     51  C   UNL A   1      42.546  27.244  33.987  1.00  0.00     0.029 A 
ATOM     52  N   UNL A   1      43.448  28.361  32.290  1.00  0.00    -0.354 N 
ATOM     53  N   UNL A   1      43.672  30.566  30.379  1.00  0.00    -0.248 NA
ATOM     54  C   UNL A   1      42.790  32.487  29.388  1.00  0.00     0.031 C 
ATOM     55  C   UNL A   1      41.776  28.388  33.751  1.00  0.00     0.029 A 
ATOM     56  C   UNL A   1      42.343  29.089  32.699  1.00  0.00     0.049 A 
ATOM     57  H   UNL A   1      44.052  28.616  31.555  1.00  0.00     0.167 HD
ATOM     58  C   UNL A   1      42.516  30.937  31.057  1.00  0.00     0.074 A 
ATOM     59  C   UNL A   1      42.036  32.151  30.427  1.00  0.00     0.031 C 
ATOM     60  C   UNL A   1      41.900  30.322  32.097  1.00  0.00     0.034 A 
BRANCH  47  61
ATOM     61  C   UNL A   1      44.567  25.001  33.772  1.00  0.00     0.023 A 
ATOM     62  C   UNL A   1      44.008  23.805  33.274  1.00  0.00     0.012 A 
ATOM     63  C   UNL A   1      45.104  25.020  35.073  1.00  0.00     0.148 A 
ATOM     64  C   UNL A   1      43.944  22.663  34.070  1.00  0.00     0.002 A 
ATOM     65  C   UNL A   1      45.077  23.864  35.847  1.00  0.00     0.091 A 
ATOM     66  F   UNL A   1      45.609  26.170  35.542  1.00  0.00    -0.205 F 
ATOM     67  C   UNL A   1      44.486  22.690  35.353  1.00  0.00     0.022 A 
BRANCH  65  68
ATOM     68  S   UNL A   1      45.818  23.785  37.481  1.00  0.00     0.127 S 
ATOM     69  O   UNL A   1      47.173  24.266  37.215  1.00  0.00    -0.237 OA
ATOM     70  O   UNL A   1      44.984  24.711  38.247  1.00  0.00    -0.237 OA
ATOM     71  O   UNL A   1      45.712  22.394  37.897  1.00  0.00    -0.744 OA
ENDBRANCH  65  68
ENDBRANCH  47  61
BRANCH  48  72
ATOM     72  C   UNL A   1      44.998  32.707  27.455  1.00  0.00     0.023 A 
ATOM     73  C   UNL A   1      44.301  32.586  26.238  1.00  0.00     0.012 A 
ATOM     74  C   UNL A   1      45.676  33.907  27.745  1.00  0.00     0.148 A 
ATOM     75  C   UNL A   1      44.293  33.635  25.318  1.00  0.00     0.002 A 
ATOM     76  C   UNL A   1      45.620  34.967  26.848  1.00  0.00     0.091 A 
ATOM     77  F   UNL A   1      46.344  33.994  28.903  1.00  0.00    -0.205 F 
ATOM     78  C   UNL A   1      44.941  34.828  25.627  1.00  0.00     0.022 A 
BRANCH  76  79
ATOM     79  S   UNL A   1      46.311  36.584  27.214  1.00  0.00     0.127 S 
ATOM     80  O   UNL A   1      45.320  37.131  28.139  1.00  0.00    -0.237 OA
ATOM     81  O   UNL A   1      47.593  36.230  27.825  1.00  0.00    -0.237 OA
ATOM     82  O   UNL A   1      46.422  37.269  25.933  1.00  0.00    -0.744 OA
ENDBRANCH  76  79
ENDBRANCH  48  72
BRANCH  60  83
ATOM     83  C   UNL A   1      40.646  30.953  32.647  1.00  0.00     0.023 A 
ATOM     84  C   UNL A   1      40.742  31.933  33.655  1.00  0.00     0.012 A 
ATOM     85  C   UNL A   1      39.382  30.640  32.107  1.00  0.00     0.148 A 
ATOM     86  C   UNL A   1      39.599  32.572  34.135  1.00  0.00     0.002 A 
ATOM     87  C   UNL A   1      38.253  31.313  32.559  1.00  0.00     0.091 A 
ATOM     88  F   UNL A   1      39.307  29.692  31.162  1.00  0.00    -0.205 F 
ATOM     89  C   UNL A   1      38.358  32.271  33.580  1.00  0.00     0.022 A 
BRANCH  87  90
ATOM     90  S   UNL A   1      36.628  31.060  31.834  1.00  0.00     0.127 S 
ATOM     91  O   UNL A   1      36.373  29.657  32.156  1.00  0.00    -0.237 OA
ATOM     92  O   UNL A   1      35.803  32.015  32.574  1.00  0.00    -0.237 OA
ATOM     93  O   UNL A   1      36.772  31.360  30.415  1.00  0.00    -0.744 OA
ENDBRANCH  87  90
ENDBRANCH  60  83
ENDBRANCH  34  35
ENDBRANCH  27  29
ENDBRANCH  26  27
ENDBRANCH  25  26
ENDBRANCH  24  25
ENDBRANCH  23  24
ENDBRANCH  22  23
ENDBRANCH   1  22
TORSDOF 23
ENDMDL
MODEL 2
REMARK VINA RESULT:      -6.7      3.183     10.374
REMARK SMILES CC[NH2+]C[C@@H](C)C(=O)N1CCO[C@@H](CC(=O)OCCOCCOC(=O)c2ccc(-c3c4nc(c(-c5cccc(S(=O)(=O)[O-])c5F)c5ccc([nH]5)c(-c5cccc(S(=O)(=O)[O-])c5F)c5nc(c(-c6cccc(S(=O)(=O)[O-])c6F)c6ccc3[nH]6)C=C5)C=C4)cc2)C1
REMARK SMILES IDX 18 1 17 2 15 3 16 4 14 5 13 6 9 7 10 8 89 9 11 10 12 11 7 12
REMARK SMILES IDX 8 13 5 14 6 15 4 16 3 17 2 20 1 21 19 22 20 23 21 24 22 25
REMARK SMILES IDX 23 26 24 27 25 28 26 29 27 30 88 31 28 32 87 33 29 34 30 35
REMARK SMILES IDX 31 36 81 37 32 38 86 39 80 40 82 41 33 42 85 43 79 44 78 45
REMARK SMILES IDX 34 47 66 48 46 49 65 50 47 51 50 52 64 53 83 54 48 55 49 56
REMARK SMILES IDX 63 58 84 59 51 60 35 61 36 62 44 63 37 64 39 65 45 66 38 67
REMARK SMILES IDX 40 68 41 69 42 70 43 71 67 72 68 73 76 74 69 75 71 76 77 77
REMARK SMILES IDX 70 78 72 79 73 80 74 81 75 82 52 83 53 84 61 85 54 86 56 87
REMARK SMILES IDX 62 88 55 89 57 90 58 91 59 92 60 93
REMARK H PARENT 3 18 3 19 82 46 50 57
REMARK Flexibility Score: inf
ROOT
ATOM      1  C   UNL A   1      33.106  35.903  31.101  1.00  0.00     0.261 C 
ENDROOT
BRANCH   1   2
ATOM      2  O   UNL A   1      33.024  34.799  30.178  1.00  0.00    -0.463 OA
BRANCH   2   3
ATOM      3  C   UNL A   1      33.777  34.898  29.055  1.00  0.00     0.308 C 
ATOM      4  O   UNL A   1      34.046  35.942  28.474  1.00  0.00    -0.252 OA
BRANCH   3   5
ATOM      5  C   UNL A   1      34.214  33.550  28.551  1.00  0.00     0.156 C 
BRANCH   5   6
ATOM      6  C   UNL A   1      35.320  32.850  29.340  1.00  0.00     0.148 C 
ATOM      7  N   UNL A   1      37.310  31.368  29.216  1.00  0.00    -0.337 N 
ATOM      8  C   UNL A   1      38.152  32.510  29.531  1.00  0.00     0.148 C 
ATOM      9  C   UNL A   1      36.070  31.758  28.526  1.00  0.00     0.152 C 
ATOM     10  C   UNL A   1      37.378  33.454  30.435  1.00  0.00     0.182 C 
ATOM     11  O   UNL A   1      36.210  33.924  29.755  1.00  0.00    -0.374 OA
BRANCH   7  12
ATOM     12  C   UNL A   1      37.748  30.060  29.164  1.00  0.00     0.231 C 
ATOM     13  O   UNL A   1      37.074  29.158  29.664  1.00  0.00    -0.274 OA
BRANCH  12  14
ATOM     14  C   UNL A   1      39.193  29.755  28.711  1.00  0.00     0.130 C 
ATOM     15  C   UNL A   1      39.178  29.323  27.244  1.00  0.00     0.024 C 
BRANCH  14  16
ATOM     16  C   UNL A   1      40.017  28.817  29.601  1.00  0.00     0.273 C 
BRANCH  16  17
ATOM     17  N   UNL A   1      41.353  28.445  29.112  1.00  0.00    -0.346 N 
ATOM     18  H   UNL A   1      41.270  28.167  28.135  1.00  0.00     0.346 HD
ATOM     19  H   UNL A   1      41.951  29.260  29.239  1.00  0.00     0.346 HD
BRANCH  17  20
ATOM     20  C   UNL A   1      41.972  27.348  29.851  1.00  0.00     0.257 C 
ATOM     21  C   UNL A   1      42.951  26.631  28.931  1.00  0.00     0.071 C 
ENDBRANCH  17  20
ENDBRANCH  16  17
ENDBRANCH  14  16
ENDBRANCH  12  14
ENDBRANCH   7  12
ENDBRANCH   5   6
ENDBRANCH   3   5
ENDBRANCH   2   3
ENDBRANCH   1   2
BRANCH   1  22
ATOM     22  C   UNL A   1      34.238  35.711  32.112  1.00  0.00     0.202 C 
BRANCH  22  23
ATOM     23  O   UNL A   1      33.953  34.813  33.185  1.00  0.00    -0.374 OA
BRANCH  23  24
ATOM     24  C   UNL A   1      34.884  34.797  34.266  1.00  0.00     0.202 C 
BRANCH  24  25
ATOM     25  C   UNL A   1      36.231  34.131  33.968  1.00  0.00     0.261 C 
BRANCH  25  26
ATOM     26  O   UNL A   1      36.247  32.756  34.388  1.00  0.00    -0.460 OA
BRANCH  26  27
ATOM     27  C   UNL A   1      37.289  32.407  35.181  1.00  0.00     0.338 C 
ATOM     28  O   UNL A   1      37.262  32.233  36.393  1.00  0.00    -0.246 OA
BRANCH  27  29
ATOM     29  C   UNL A   1      38.471  32.089  34.361  1.00  0.00     0.060 A 
ATOM     30  C   UNL A   1      38.314  31.194  33.297  1.00  0.00     0.016 A 
ATOM     31  C   UNL A   1      39.729  32.612  34.656  1.00  0.00     0.016 A 
ATOM     32  C   UNL A   1      39.423  30.785  32.556  1.00  0.00     0.010 A 
ATOM     33  C   UNL A   1      40.838  32.219  33.899  1.00  0.00     0.010 A 
ATOM     34  C   UNL A   1      40.700  31.267  32.875  1.00  0.00    -0.014 A 
BRANCH  34  35
ATOM     35  C   UNL A   1      41.901  30.672  32.234  1.00  0.00     0.031 A 
ATOM     36  C   UNL A   1      42.514  29.434  32.833  1.00  0.00     0.074 A 
ATOM     37  C   UNL A   1      42.445  31.223  31.135  1.00  0.00     0.049 A 
ATOM     38  N   UNL A   1      43.548  28.743  32.429  1.00  0.00    -0.248 NA
ATOM     39  C   UNL A   1      41.884  28.911  34.055  1.00  0.00     0.031 C 
ATOM     40  C   UNL A   1      41.973  32.440  30.478  1.00  0.00     0.029 A 
ATOM     41  N   UNL A   1      43.534  30.837  30.390  1.00  0.00    -0.354 N 
ATOM     42  C   UNL A   1      43.714  27.726  33.362  1.00  0.00     0.074 A 
ATOM     43  C   UNL A   1      42.687  27.905  34.366  1.00  0.00     0.031 C 
ATOM     44  C   UNL A   1      42.779  32.715  29.438  1.00  0.00     0.029 A 
ATOM     45  C   UNL A   1      43.832  31.703  29.364  1.00  0.00     0.049 A 
ATOM     46  H   UNL A   1      44.050  30.019  30.574  1.00  0.00     0.167 HD
ATOM     47  C   UNL A   1      44.618  26.718  33.374  1.00  0.00     0.034 A 
ATOM     48  C   UNL A   1      44.846  31.688  28.474  1.00  0.00     0.034 A 
ATOM     49  C   UNL A   1      45.618  26.519  32.360  1.00  0.00     0.049 A 
ATOM     50  C   UNL A   1      45.833  30.549  28.495  1.00  0.00     0.074 A 
ATOM     51  C   UNL A   1      46.527  25.482  32.240  1.00  0.00     0.029 A 
ATOM     52  N   UNL A   1      45.850  27.380  31.299  1.00  0.00    -0.354 N 
ATOM     53  N   UNL A   1      45.878  29.508  29.291  1.00  0.00    -0.248 NA
ATOM     54  C   UNL A   1      46.886  30.562  27.467  1.00  0.00     0.031 C 
ATOM     55  C   UNL A   1      47.326  25.730  31.118  1.00  0.00     0.029 A 
ATOM     56  C   UNL A   1      46.898  26.908  30.527  1.00  0.00     0.049 A 
ATOM     57  H   UNL A   1      45.345  28.205  31.121  1.00  0.00     0.167 HD
ATOM     58  C   UNL A   1      46.941  28.730  28.847  1.00  0.00     0.074 A 
ATOM     59  C   UNL A   1      47.502  29.409  27.696  1.00  0.00     0.031 C 
ATOM     60  C   UNL A   1      47.419  27.566  29.354  1.00  0.00     0.034 A 
BRANCH  47  61
ATOM     61  C   UNL A   1      44.539  25.732  34.509  1.00  0.00     0.023 A 
ATOM     62  C   UNL A   1      43.781  24.552  34.355  1.00  0.00     0.012 A 
ATOM     63  C   UNL A   1      45.227  25.955  35.717  1.00  0.00     0.148 A 
ATOM     64  C   UNL A   1      43.675  23.632  35.398  1.00  0.00     0.002 A 
ATOM     65  C   UNL A   1      45.153  25.013  36.737  1.00  0.00     0.091 A 
ATOM     66  F   UNL A   1      45.922  27.094  35.858  1.00  0.00    -0.205 F 
ATOM     67  C   UNL A   1      44.367  23.859  36.584  1.00  0.00     0.022 A 
BRANCH  65  68
ATOM     68  S   UNL A   1      46.071  25.184  38.271  1.00  0.00     0.127 S 
ATOM     69  O   UNL A   1      47.422  25.451  37.779  1.00  0.00    -0.237 OA
ATOM     70  O   UNL A   1      45.415  26.330  38.901  1.00  0.00    -0.237 OA
ATOM     71  O   UNL A   1      45.895  23.925  38.981  1.00  0.00    -0.744 OA
ENDBRANCH  65  68
ENDBRANCH  47  61
BRANCH  48  72
ATOM     72  C   UNL A   1      44.939  32.769  27.453  1.00  0.00     0.023 A 
ATOM     73  C   UNL A   1      44.214  32.653  26.252  1.00  0.00     0.012 A 
ATOM     74  C   UNL A   1      45.702  33.930  27.687  1.00  0.00     0.148 A 
ATOM     75  C   UNL A   1      44.260  33.666  25.294  1.00  0.00     0.002 A 
ATOM     76  C   UNL A   1      45.702  34.958  26.753  1.00  0.00     0.091 A 
ATOM     77  F   UNL A   1      46.396  34.011  28.831  1.00  0.00    -0.205 F 
ATOM     78  C   UNL A   1      44.992  34.822  25.549  1.00  0.00     0.022 A 
BRANCH  76  79
ATOM     79  S   UNL A   1      46.507  36.536  27.048  1.00  0.00     0.127 S 
ATOM     80  O   UNL A   1      45.824  37.000  28.254  1.00  0.00    -0.237 OA
ATOM     81  O   UNL A   1      47.899  36.128  27.247  1.00  0.00    -0.237 OA
ATOM     82  O   UNL A   1      46.277  37.331  25.849  1.00  0.00    -0.744 OA
ENDBRANCH  76  79
ENDBRANCH  48  72
BRANCH  60  83
ATOM     83  C   UNL A   1      48.596  26.926  28.663  1.00  0.00     0.023 A 
ATOM     84  C   UNL A   1      48.378  25.945  27.676  1.00  0.00     0.012 A 
ATOM     85  C   UNL A   1      49.912  27.358  28.927  1.00  0.00     0.148 A 
ATOM     86  C   UNL A   1      49.450  25.384  26.983  1.00  0.00     0.002 A 
ATOM     87  C   UNL A   1      50.971  26.828  28.201  1.00  0.00     0.091 A 
ATOM     88  F   UNL A   1      50.103  28.280  29.882  1.00  0.00    -0.205 F 
ATOM     89  C   UNL A   1      50.744  25.833  27.236  1.00  0.00     0.022 A 
BRANCH  87  90
ATOM     90  S   UNL A   1      52.659  27.415  28.393  1.00  0.00     0.127 S 
ATOM     91  O   UNL A   1      52.449  28.761  28.920  1.00  0.00    -0.237 OA
ATOM     92  O   UNL A   1      53.214  26.463  29.355  1.00  0.00    -0.237 OA
ATOM     93  O   UNL A   1      53.259  27.349  27.066  1.00  0.00    -0.744 OA
ENDBRANCH  87  90
ENDBRANCH  60  83
ENDBRANCH  34  35
ENDBRANCH  27  29
ENDBRANCH  26  27
ENDBRANCH  25  26
ENDBRANCH  24  25
ENDBRANCH  23  24
ENDBRANCH  22  23
ENDBRANCH   1  22
TORSDOF 23
ENDMDL
MODEL 3
REMARK VINA RESULT:      -6.6      6.992     13.710
REMARK SMILES CC[NH2+]C[C@@H](C)C(=O)N1CCO[C@@H](CC(=O)OCCOCCOC(=O)c2ccc(-c3c4nc(c(-c5cccc(S(=O)(=O)[O-])c5F)c5ccc([nH]5)c(-c5cccc(S(=O)(=O)[O-])c5F)c5nc(c(-c6cccc(S(=O)(=O)[O-])c6F)c6ccc3[nH]6)C=C5)C=C4)cc2)C1
REMARK SMILES IDX 18 1 17 2 15 3 16 4 14 5 13 6 9 7 10 8 89 9 11 10 12 11 7 12
REMARK SMILES IDX 8 13 5 14 6 15 4 16 3 17 2 20 1 21 19 22 20 23 21 24 22 25
REMARK SMILES IDX 23 26 24 27 25 28 26 29 27 30 88 31 28 32 87 33 29 34 30 35
REMARK SMILES IDX 31 36 81 37 32 38 86 39 80 40 82 41 33 42 85 43 79 44 78 45
REMARK SMILES IDX 34 47 66 48 46 49 65 50 47 51 50 52 64 53 83 54 48 55 49 56
REMARK SMILES IDX 63 58 84 59 51 60 35 61 36 62 44 63 37 64 39 65 45 66 38 67
REMARK SMILES IDX 40 68 41 69 42 70 43 71 67 72 68 73 76 74 69 75 71 76 77 77
REMARK SMILES IDX 70 78 72 79 73 80 74 81 75 82 52 83 53 84 61 85 54 86 56 87
REMARK SMILES IDX 62 88 55 89 57 90 58 91 59 92 60 93
REMARK H PARENT 3 18 3 19 82 46 50 57
REMARK Flexibility Score: inf
ROOT
ATOM      1  C   UNL A   1      45.494  43.677  23.506  1.00  0.00     0.261 C 
ENDROOT
BRANCH   1   2
ATOM      2  O   UNL A   1      45.294  43.197  22.161  1.00  0.00    -0.463 OA
BRANCH   2   3
ATOM      3  C   UNL A   1      46.284  42.429  21.644  1.00  0.00     0.308 C 
ATOM      4  O   UNL A   1      46.435  41.232  21.859  1.00  0.00    -0.252 OA
BRANCH   3   5
ATOM      5  C   UNL A   1      47.237  43.232  20.803  1.00  0.00     0.156 C 
BRANCH   5   6
ATOM      6  C   UNL A   1      46.754  43.622  19.406  1.00  0.00     0.148 C 
ATOM      7  N   UNL A   1      44.963  44.723  18.084  1.00  0.00    -0.337 N 
ATOM      8  C   UNL A   1      45.873  45.820  17.804  1.00  0.00     0.148 C 
ATOM      9  C   UNL A   1      45.262  44.056  19.361  1.00  0.00     0.152 C 
ATOM     10  C   UNL A   1      47.290  45.274  17.738  1.00  0.00     0.182 C 
ATOM     11  O   UNL A   1      47.644  44.699  19.000  1.00  0.00    -0.374 OA
BRANCH   7  12
ATOM     12  C   UNL A   1      43.727  44.558  17.491  1.00  0.00     0.231 C 
ATOM     13  O   UNL A   1      43.615  43.888  16.462  1.00  0.00    -0.274 OA
BRANCH  12  14
ATOM     14  C   UNL A   1      42.531  45.414  17.964  1.00  0.00     0.130 C 
ATOM     15  C   UNL A   1      41.392  44.489  18.396  1.00  0.00     0.024 C 
BRANCH  14  16
ATOM     16  C   UNL A   1      42.068  46.537  17.029  1.00  0.00     0.273 C 
BRANCH  16  17
ATOM     17  N   UNL A   1      42.078  47.901  17.578  1.00  0.00    -0.346 N 
ATOM     18  H   UNL A   1      41.113  48.220  17.660  1.00  0.00     0.346 HD
ATOM     19  H   UNL A   1      42.555  47.853  18.477  1.00  0.00     0.346 HD
BRANCH  17  20
ATOM     20  C   UNL A   1      42.812  48.865  16.762  1.00  0.00     0.257 C 
ATOM     21  C   UNL A   1      44.214  48.327  16.511  1.00  0.00     0.071 C 
ENDBRANCH  17  20
ENDBRANCH  16  17
ENDBRANCH  14  16
ENDBRANCH  12  14
ENDBRANCH   7  12
ENDBRANCH   5   6
ENDBRANCH   3   5
ENDBRANCH   2   3
ENDBRANCH   1   2
BRANCH   1  22
ATOM     22  C   UNL A   1      44.175  44.094  24.158  1.00  0.00     0.202 C 
BRANCH  22  23
ATOM     23  O   UNL A   1      43.515  43.074  24.910  1.00  0.00    -0.374 OA
BRANCH  23  24
ATOM     24  C   UNL A   1      44.294  42.412  25.905  1.00  0.00     0.202 C 
BRANCH  24  25
ATOM     25  C   UNL A   1      44.114  40.892  25.981  1.00  0.00     0.261 C 
BRANCH  25  26
ATOM     26  O   UNL A   1      42.815  40.488  25.515  1.00  0.00    -0.460 OA
BRANCH  26  27
ATOM     27  C   UNL A   1      41.923  40.180  26.487  1.00  0.00     0.338 C 
ATOM     28  O   UNL A   1      40.840  40.717  26.686  1.00  0.00    -0.246 OA
BRANCH  27  29
ATOM     29  C   UNL A   1      42.351  38.968  27.209  1.00  0.00     0.060 A 
ATOM     30  C   UNL A   1      42.347  37.753  26.515  1.00  0.00     0.016 A 
ATOM     31  C   UNL A   1      42.700  39.005  28.558  1.00  0.00     0.016 A 
ATOM     32  C   UNL A   1      42.647  36.565  27.184  1.00  0.00     0.010 A 
ATOM     33  C   UNL A   1      43.022  37.816  29.222  1.00  0.00     0.010 A 
ATOM     34  C   UNL A   1      42.951  36.584  28.552  1.00  0.00    -0.014 A 
BRANCH  34  35
ATOM     35  C   UNL A   1      43.056  35.309  29.307  1.00  0.00     0.031 A 
ATOM     36  C   UNL A   1      41.797  34.577  29.690  1.00  0.00     0.074 A 
ATOM     37  C   UNL A   1      44.254  34.805  29.654  1.00  0.00     0.049 A 
ATOM     38  N   UNL A   1      41.658  33.446  30.332  1.00  0.00    -0.248 NA
ATOM     39  C   UNL A   1      40.525  35.209  29.307  1.00  0.00     0.031 C 
ATOM     40  C   UNL A   1      45.545  35.432  29.379  1.00  0.00     0.029 A 
ATOM     41  N   UNL A   1      44.574  33.656  30.336  1.00  0.00    -0.354 N 
ATOM     42  C   UNL A   1      40.288  33.247  30.459  1.00  0.00     0.074 A 
ATOM     43  C   UNL A   1      39.639  34.387  29.848  1.00  0.00     0.031 C 
ATOM     44  C   UNL A   1      46.520  34.670  29.904  1.00  0.00     0.029 A 
ATOM     45  C   UNL A   1      45.922  33.511  30.566  1.00  0.00     0.049 A 
ATOM     46  H   UNL A   1      43.902  33.000  30.632  1.00  0.00     0.167 HD
ATOM     47  C   UNL A   1      39.626  32.203  31.010  1.00  0.00     0.034 A 
ATOM     48  C   UNL A   1      46.596  32.558  31.244  1.00  0.00     0.034 A 
ATOM     49  C   UNL A   1      40.269  31.054  31.588  1.00  0.00     0.049 A 
ATOM     50  C   UNL A   1      45.841  31.396  31.835  1.00  0.00     0.074 A 
ATOM     51  C   UNL A   1      39.685  29.907  32.097  1.00  0.00     0.029 A 
ATOM     52  N   UNL A   1      41.638  30.910  31.746  1.00  0.00    -0.354 N 
ATOM     53  N   UNL A   1      44.554  31.145  31.807  1.00  0.00    -0.248 NA
ATOM     54  C   UNL A   1      46.636  30.363  32.517  1.00  0.00     0.031 C 
ATOM     55  C   UNL A   1      40.703  29.079  32.586  1.00  0.00     0.029 A 
ATOM     56  C   UNL A   1      41.920  29.701  32.359  1.00  0.00     0.049 A 
ATOM     57  H   UNL A   1      42.311  31.571  31.464  1.00  0.00     0.167 HD
ATOM     58  C   UNL A   1      44.388  29.917  32.440  1.00  0.00     0.074 A 
ATOM     59  C   UNL A   1      45.709  29.464  32.823  1.00  0.00     0.031 C 
ATOM     60  C   UNL A   1      43.243  29.235  32.693  1.00  0.00     0.034 A 
BRANCH  47  61
ATOM     61  C   UNL A   1      38.121  32.244  30.978  1.00  0.00     0.023 A 
ATOM     62  C   UNL A   1      37.428  31.596  29.934  1.00  0.00     0.012 A 
ATOM     63  C   UNL A   1      37.390  32.901  31.985  1.00  0.00     0.148 A 
ATOM     64  C   UNL A   1      36.036  31.637  29.870  1.00  0.00     0.002 A 
ATOM     65  C   UNL A   1      36.000  32.901  31.940  1.00  0.00     0.091 A 
ATOM     66  F   UNL A   1      38.063  33.536  32.957  1.00  0.00    -0.205 F 
ATOM     67  C   UNL A   1      35.322  32.282  30.877  1.00  0.00     0.022 A 
BRANCH  65  68
ATOM     68  S   UNL A   1      34.996  33.641  33.232  1.00  0.00     0.127 S 
ATOM     69  O   UNL A   1      33.649  33.241  32.826  1.00  0.00    -0.237 OA
ATOM     70  O   UNL A   1      35.493  32.973  34.434  1.00  0.00    -0.237 OA
ATOM     71  O   UNL A   1      35.273  35.070  33.179  1.00  0.00    -0.744 OA
ENDBRANCH  65  68
ENDBRANCH  47  61
BRANCH  48  72
ATOM     72  C   UNL A   1      48.080  32.645  31.347  1.00  0.00     0.023 A 
ATOM     73  C   UNL A   1      48.664  33.173  32.514  1.00  0.00     0.012 A 
ATOM     74  C   UNL A   1      48.912  32.163  30.317  1.00  0.00     0.148 A 
ATOM     75  C   UNL A   1      50.052  33.235  32.647  1.00  0.00     0.002 A 
ATOM     76  C   UNL A   1      50.292  32.180  30.478  1.00  0.00     0.091 A 
ATOM     77  F   UNL A   1      48.333  31.679  29.210  1.00  0.00    -0.205 F 
ATOM     78  C   UNL A   1      50.864  32.728  31.637  1.00  0.00     0.022 A 
BRANCH  76  79
ATOM     79  S   UNL A   1      51.414  31.433  29.292  1.00  0.00     0.127 S 
ATOM     80  O   UNL A   1      52.714  31.682  29.911  1.00  0.00    -0.237 OA
ATOM     81  O   UNL A   1      50.982  30.035  29.310  1.00  0.00    -0.237 OA
ATOM     82  O   UNL A   1      51.176  32.121  28.030  1.00  0.00    -0.744 OA
ENDBRANCH  76  79
ENDBRANCH  48  72
BRANCH  60  83
ATOM     83  C   UNL A   1      43.355  27.909  33.401  1.00  0.00     0.023 A 
ATOM     84  C   UNL A   1      43.847  26.786  32.706  1.00  0.00     0.012 A 
ATOM     85  C   UNL A   1      43.058  27.794  34.774  1.00  0.00     0.148 A 
ATOM     86  C   UNL A   1      44.015  25.565  33.358  1.00  0.00     0.002 A 
ATOM     87  C   UNL A   1      43.271  26.586  35.428  1.00  0.00     0.091 A 
ATOM     88  F   UNL A   1      42.574  28.868  35.415  1.00  0.00    -0.205 F 
ATOM     89  C   UNL A   1      43.738  25.467  34.719  1.00  0.00     0.022 A 
BRANCH  87  90
ATOM     90  S   UNL A   1      43.033  26.396  37.199  1.00  0.00     0.127 S 
ATOM     91  O   UNL A   1      43.829  27.502  37.727  1.00  0.00    -0.237 OA
ATOM     92  O   UNL A   1      41.587  26.563  37.341  1.00  0.00    -0.237 OA
ATOM     93  O   UNL A   1      43.520  25.062  37.527  1.00  0.00    -0.744 OA
ENDBRANCH  87  90
ENDBRANCH  60  83
ENDBRANCH  34  35
ENDBRANCH  27  29
ENDBRANCH  26  27
ENDBRANCH  25  26
ENDBRANCH  24  25
ENDBRANCH  23  24
ENDBRANCH  22  23
ENDBRANCH   1  22
TORSDOF 23
ENDMDL
