MODEL 1
REMARK VINA RESULT:     -10.6      0.000      0.000
REMARK SMILES O=C(N[C@@H](Cc1ccc(O)cc1)C(=O)N[C@@H](Cc1c[nH]c2ccccc12)C(=O)N[C@@H](CO)C(=O)OCCOCCOC(=O)c1ccc(-c2c3nc(c(-c4cccc(S(=O)(=O)[O-])c4F)c4ccc([nH]4)c(-c4cccc(S(=O)(=O)[O-])c4F)c4nc(c(-c5cccc(S(=O)(=O)[O-])c5F)c5ccc2[nH]5)C=C4)C=C3)cc1)c1ccc(F)cc1
REMARK SMILES IDX 36 1 35 2 33 3 34 4 30 5 29 6 27 7 28 8 16 10 15 11 13 12
REMARK SMILES IDX 14 13 4 15 3 16 1 17 2 18 107 20 108 21 113 22 109 23 112 24
REMARK SMILES IDX 110 25 111 26 5 27 6 28 7 29 12 30 8 31 11 32 9 33 10 34
REMARK SMILES IDX 17 36 18 37 19 38 26 39 20 40 21 41 25 42 22 44 24 45 23 46
REMARK SMILES IDX 31 47 32 48 37 50 38 51 39 52 40 53 41 54 42 55 43 56 44 57
REMARK SMILES IDX 45 58 106 59 46 60 105 61 47 62 48 63 49 64 99 65 50 66
REMARK SMILES IDX 104 67 98 68 100 69 51 70 103 71 97 72 96 73 52 75 84 76
REMARK SMILES IDX 64 77 83 78 65 79 68 80 82 81 101 82 66 83 67 84 81 86
REMARK SMILES IDX 102 87 69 88 53 89 54 90 62 91 55 92 57 93 63 94 56 95 58 96
REMARK SMILES IDX 59 97 60 98 61 99 85 100 86 101 94 102 87 103 89 104 95 105
REMARK SMILES IDX 88 106 90 107 91 108 92 109 93 110 70 111 71 112 79 113
REMARK SMILES IDX 72 114 74 115 80 116 73 117 75 118 76 119 77 120 78 121
REMARK H PARENT 29 9 15 14 3 19 10 35 20 43 32 49 100 74 68 85
REMARK Flexibility Score: inf
ROOT
ATOM      1  C   UNL A   1      34.246  31.924  28.716  1.00  0.00     0.261 C 
ENDROOT
BRANCH   1   2
ATOM      2  O   UNL A   1      33.866  32.092  27.341  1.00  0.00    -0.462 OA
BRANCH   2   3
ATOM      3  C   UNL A   1      32.539  32.269  27.099  1.00  0.00     0.331 C 
ATOM      4  O   UNL A   1      31.868  33.223  27.478  1.00  0.00    -0.250 OA
BRANCH   3   5
ATOM      5  C   UNL A   1      31.960  31.064  26.333  1.00  0.00     0.218 C 
BRANCH   5   6
ATOM      6  N   UNL A   1      31.661  29.937  27.232  1.00  0.00    -0.339 N 
ATOM      7  C   UNL A   1      31.968  28.615  27.128  1.00  0.00     0.243 C 
ATOM      8  O   UNL A   1      32.194  28.006  28.178  1.00  0.00    -0.273 OA
ATOM      9  H   UNL A   1      31.154  30.179  28.041  1.00  0.00     0.164 HD
BRANCH   7  10
ATOM     10  C   UNL A   1      32.108  27.841  25.806  1.00  0.00     0.175 C 
BRANCH  10  11
ATOM     11  N   UNL A   1      33.254  28.210  24.980  1.00  0.00    -0.342 N 
ATOM     12  C   UNL A   1      33.315  28.474  23.644  1.00  0.00     0.243 C 
ATOM     13  O   UNL A   1      34.271  29.162  23.267  1.00  0.00    -0.273 OA
ATOM     14  H   UNL A   1      34.111  28.278  25.459  1.00  0.00     0.164 HD
BRANCH  12  15
ATOM     15  C   UNL A   1      32.247  28.015  22.615  1.00  0.00     0.176 C 
BRANCH  15  16
ATOM     16  N   UNL A   1      31.551  29.103  21.915  1.00  0.00    -0.340 N 
ATOM     17  O   UNL A   1      29.868  30.439  21.270  1.00  0.00    -0.269 OA
ATOM     18  C   UNL A   1      30.231  29.475  21.939  1.00  0.00     0.251 C 
ATOM     19  H   UNL A   1      32.124  29.654  21.335  1.00  0.00     0.164 HD
BRANCH  18  20
ATOM     20  C   UNL A   1      29.214  28.681  22.664  1.00  0.00     0.040 A 
ATOM     21  C   UNL A   1      29.502  27.455  23.275  1.00  0.00     0.017 A 
ATOM     22  C   UNL A   1      27.920  29.217  22.742  1.00  0.00     0.017 A 
ATOM     23  C   UNL A   1      28.475  26.729  23.885  1.00  0.00     0.040 A 
ATOM     24  C   UNL A   1      26.902  28.497  23.368  1.00  0.00     0.040 A 
ATOM     25  C   UNL A   1      27.185  27.252  23.919  1.00  0.00     0.123 A 
ATOM     26  F   UNL A   1      26.203  26.550  24.497  1.00  0.00    -0.207 F 
ENDBRANCH  18  20
ENDBRANCH  15  16
BRANCH  15  27
ATOM     27  C   UNL A   1      32.645  26.837  21.709  1.00  0.00     0.070 C 
BRANCH  27  28
ATOM     28  C   UNL A   1      32.546  25.433  22.243  1.00  0.00    -0.045 A 
ATOM     29  C   UNL A   1      33.635  24.553  22.176  1.00  0.00     0.007 A 
ATOM     30  C   UNL A   1      31.320  24.964  22.742  1.00  0.00     0.007 A 
ATOM     31  C   UNL A   1      33.505  23.231  22.617  1.00  0.00     0.046 A 
ATOM     32  C   UNL A   1      31.188  23.642  23.170  1.00  0.00     0.046 A 
ATOM     33  C   UNL A   1      32.284  22.792  23.122  1.00  0.00     0.115 A 
BRANCH  33  34
ATOM     34  O   UNL A   1      32.127  21.529  23.607  1.00  0.00    -0.508 OA
ATOM     35  H   UNL A   1      32.871  21.044  23.906  1.00  0.00     0.293 HD
ENDBRANCH  33  34
ENDBRANCH  27  28
ENDBRANCH  15  27
ENDBRANCH  12  15
ENDBRANCH  10  11
BRANCH  10  36
ATOM     36  C   UNL A   1      31.860  26.324  25.942  1.00  0.00     0.072 C 
BRANCH  36  37
ATOM     37  C   UNL A   1      33.065  25.437  25.865  1.00  0.00    -0.020 A 
ATOM     38  C   UNL A   1      34.300  25.751  25.333  1.00  0.00     0.087 A 
ATOM     39  C   UNL A   1      33.149  24.069  26.305  1.00  0.00     0.003 A 
ATOM     40  N   UNL A   1      35.157  24.712  25.592  1.00  0.00    -0.361 N 
ATOM     41  C   UNL A   1      34.482  23.677  26.190  1.00  0.00     0.046 A 
ATOM     42  C   UNL A   1      32.228  23.141  26.838  1.00  0.00     0.010 A 
ATOM     43  H   UNL A   1      36.119  24.710  25.381  1.00  0.00     0.166 HD
ATOM     44  C   UNL A   1      34.955  22.440  26.646  1.00  0.00     0.026 A 
ATOM     45  C   UNL A   1      32.681  21.893  27.287  1.00  0.00     0.001 A 
ATOM     46  C   UNL A   1      34.029  21.559  27.209  1.00  0.00     0.002 A 
ENDBRANCH  36  37
ENDBRANCH  10  36
ENDBRANCH   7  10
ENDBRANCH   5   6
BRANCH   5  47
ATOM     47  C   UNL A   1      30.714  31.531  25.579  1.00  0.00     0.193 C 
BRANCH  47  48
ATOM     48  O   UNL A   1      30.544  30.843  24.344  1.00  0.00    -0.394 OA
ATOM     49  H   UNL A   1      29.887  31.309  23.802  1.00  0.00     0.210 HD
ENDBRANCH  47  48
ENDBRANCH   5  47
ENDBRANCH   3   5
ENDBRANCH   2   3
ENDBRANCH   1   2
BRANCH   1  50
ATOM     50  C   UNL A   1      34.667  33.278  29.296  1.00  0.00     0.202 C 
BRANCH  50  51
ATOM     51  O   UNL A   1      33.578  34.077  29.774  1.00  0.00    -0.374 OA
BRANCH  51  52
ATOM     52  C   UNL A   1      33.549  35.400  29.229  1.00  0.00     0.202 C 
BRANCH  52  53
ATOM     53  C   UNL A   1      32.826  36.374  30.159  1.00  0.00     0.261 C 
BRANCH  53  54
ATOM     54  O   UNL A   1      32.384  35.616  31.293  1.00  0.00    -0.460 OA
BRANCH  54  55
ATOM     55  C   UNL A   1      33.004  35.996  32.437  1.00  0.00     0.338 C 
ATOM     56  O   UNL A   1      32.590  36.802  33.248  1.00  0.00    -0.246 OA
BRANCH  55  57
ATOM     57  C   UNL A   1      34.191  35.135  32.650  1.00  0.00     0.060 A 
ATOM     58  C   UNL A   1      33.956  33.855  33.159  1.00  0.00     0.016 A 
ATOM     59  C   UNL A   1      35.495  35.540  32.331  1.00  0.00     0.016 A 
ATOM     60  C   UNL A   1      35.024  33.015  33.445  1.00  0.00     0.010 A 
ATOM     61  C   UNL A   1      36.569  34.691  32.603  1.00  0.00     0.010 A 
ATOM     62  C   UNL A   1      36.336  33.453  33.221  1.00  0.00    -0.014 A 
BRANCH  62  63
ATOM     63  C   UNL A   1      37.438  32.686  33.838  1.00  0.00     0.031 A 
ATOM     64  C   UNL A   1      38.020  31.536  33.066  1.00  0.00     0.074 A 
ATOM     65  C   UNL A   1      37.966  33.069  35.012  1.00  0.00     0.049 A 
ATOM     66  N   UNL A   1      39.103  30.845  33.301  1.00  0.00    -0.248 NA
ATOM     67  C   UNL A   1      37.285  31.110  31.861  1.00  0.00     0.031 C 
ATOM     68  C   UNL A   1      37.466  34.157  35.849  1.00  0.00     0.029 A 
ATOM     69  N   UNL A   1      39.053  32.588  35.693  1.00  0.00    -0.354 N 
ATOM     70  C   UNL A   1      39.182  29.910  32.276  1.00  0.00     0.074 A 
ATOM     71  C   UNL A   1      38.017  30.091  31.440  1.00  0.00     0.031 C 
ATOM     72  C   UNL A   1      38.253  34.268  36.933  1.00  0.00     0.029 A 
ATOM     73  C   UNL A   1      39.311  33.261  36.862  1.00  0.00     0.049 A 
ATOM     74  H   UNL A   1      39.598  31.831  35.376  1.00  0.00     0.167 HD
ATOM     75  C   UNL A   1      40.154  29.001  32.034  1.00  0.00     0.034 A 
ATOM     76  C   UNL A   1      40.303  33.093  37.758  1.00  0.00     0.034 A 
ATOM     77  C   UNL A   1      41.310  28.829  32.870  1.00  0.00     0.049 A 
ATOM     78  C   UNL A   1      41.374  32.074  37.469  1.00  0.00     0.074 A 
ATOM     79  C   UNL A   1      42.373  27.961  32.709  1.00  0.00     0.029 A 
ATOM     80  N   UNL A   1      41.544  29.540  34.039  1.00  0.00    -0.354 N 
ATOM     81  N   UNL A   1      41.511  31.291  36.425  1.00  0.00    -0.248 NA
ATOM     82  C   UNL A   1      42.450  31.948  38.461  1.00  0.00     0.031 C 
ATOM     83  C   UNL A   1      43.241  28.131  33.795  1.00  0.00     0.029 A 
ATOM     84  C   UNL A   1      42.729  29.123  34.618  1.00  0.00     0.049 A 
ATOM     85  H   UNL A   1      40.954  30.238  34.403  1.00  0.00     0.167 HD
ATOM     86  C   UNL A   1      42.701  30.599  36.618  1.00  0.00     0.074 A 
ATOM     87  C   UNL A   1      43.260  31.080  37.867  1.00  0.00     0.031 C 
ATOM     88  C   UNL A   1      43.277  29.643  35.846  1.00  0.00     0.034 A 
BRANCH  75  89
ATOM     89  C   UNL A   1      40.009  28.153  30.797  1.00  0.00     0.023 A 
ATOM     90  C   UNL A   1      39.037  27.131  30.766  1.00  0.00     0.012 A 
ATOM     91  C   UNL A   1      40.830  28.358  29.673  1.00  0.00     0.148 A 
ATOM     92  C   UNL A   1      38.911  26.302  29.652  1.00  0.00     0.002 A 
ATOM     93  C   UNL A   1      40.670  27.555  28.549  1.00  0.00     0.091 A 
ATOM     94  F   UNL A   1      41.771  29.311  29.732  1.00  0.00    -0.205 F 
ATOM     95  C   UNL A   1      39.721  26.519  28.541  1.00  0.00     0.022 A 
BRANCH  93  96
ATOM     96  S   UNL A   1      41.624  27.801  27.047  1.00  0.00     0.127 S 
ATOM     97  O   UNL A   1      42.940  27.304  27.447  1.00  0.00    -0.237 OA
ATOM     98  O   UNL A   1      40.917  26.952  26.088  1.00  0.00    -0.237 OA
ATOM     99  O   UNL A   1      41.550  29.227  26.760  1.00  0.00    -0.744 OA
ENDBRANCH  93  96
ENDBRANCH  75  89
BRANCH  76 100
ATOM    100  C   UNL A   1      40.371  33.972  38.959  1.00  0.00     0.023 A 
ATOM    101  C   UNL A   1      41.260  35.065  38.973  1.00  0.00     0.012 A 
ATOM    102  C   UNL A   1      39.529  33.759  40.067  1.00  0.00     0.148 A 
ATOM    103  C   UNL A   1      41.325  35.916  40.077  1.00  0.00     0.002 A 
ATOM    104  C   UNL A   1      39.560  34.641  41.141  1.00  0.00     0.091 A 
ATOM    105  F   UNL A   1      38.702  32.704  40.042  1.00  0.00    -0.205 F 
ATOM    106  C   UNL A   1      40.467  35.712  41.155  1.00  0.00     0.022 A 
BRANCH 104 107
ATOM    107  S   UNL A   1      38.403  34.532  42.513  1.00  0.00     0.127 S 
ATOM    108  O   UNL A   1      37.118  34.643  41.829  1.00  0.00    -0.237 OA
ATOM    109  O   UNL A   1      38.703  33.206  43.053  1.00  0.00    -0.237 OA
ATOM    110  O   UNL A   1      38.744  35.634  43.402  1.00  0.00    -0.744 OA
ENDBRANCH 104 107
ENDBRANCH  76 100
BRANCH  88 111
ATOM    111  C   UNL A   1      44.580  29.061  36.330  1.00  0.00     0.023 A 
ATOM    112  C   UNL A   1      45.791  29.708  36.011  1.00  0.00     0.012 A 
ATOM    113  C   UNL A   1      44.604  27.909  37.139  1.00  0.00     0.148 A 
ATOM    114  C   UNL A   1      47.009  29.191  36.453  1.00  0.00     0.002 A 
ATOM    115  C   UNL A   1      45.817  27.427  37.616  1.00  0.00     0.091 A 
ATOM    116  F   UNL A   1      43.445  27.294  37.416  1.00  0.00    -0.205 F 
ATOM    117  C   UNL A   1      47.020  28.057  37.264  1.00  0.00     0.022 A 
BRANCH 115 118
ATOM    118  S   UNL A   1      45.905  26.031  38.744  1.00  0.00     0.127 S 
ATOM    119  O   UNL A   1      47.340  25.954  39.013  1.00  0.00    -0.237 OA
ATOM    120  O   UNL A   1      45.097  26.487  39.876  1.00  0.00    -0.237 OA
ATOM    121  O   UNL A   1      45.334  24.905  38.017  1.00  0.00    -0.744 OA
ENDBRANCH 115 118
ENDBRANCH  88 111
ENDBRANCH  62  63
ENDBRANCH  55  57
ENDBRANCH  54  55
ENDBRANCH  53  54
ENDBRANCH  52  53
ENDBRANCH  51  52
ENDBRANCH  50  51
ENDBRANCH   1  50
TORSDOF 30
ENDMDL
MODEL 2
REMARK VINA RESULT:      -9.7      1.312      7.087
REMARK SMILES O=C(N[C@@H](Cc1ccc(O)cc1)C(=O)N[C@@H](Cc1c[nH]c2ccccc12)C(=O)N[C@@H](CO)C(=O)OCCOCCOC(=O)c1ccc(-c2c3nc(c(-c4cccc(S(=O)(=O)[O-])c4F)c4ccc([nH]4)c(-c4cccc(S(=O)(=O)[O-])c4F)c4nc(c(-c5cccc(S(=O)(=O)[O-])c5F)c5ccc2[nH]5)C=C4)C=C3)cc1)c1ccc(F)cc1
REMARK SMILES IDX 36 1 35 2 33 3 34 4 30 5 29 6 27 7 28 8 16 10 15 11 13 12
REMARK SMILES IDX 14 13 4 15 3 16 1 17 2 18 107 20 108 21 113 22 109 23 112 24
REMARK SMILES IDX 110 25 111 26 5 27 6 28 7 29 12 30 8 31 11 32 9 33 10 34
REMARK SMILES IDX 17 36 18 37 19 38 26 39 20 40 21 41 25 42 22 44 24 45 23 46
REMARK SMILES IDX 31 47 32 48 37 50 38 51 39 52 40 53 41 54 42 55 43 56 44 57
REMARK SMILES IDX 45 58 106 59 46 60 105 61 47 62 48 63 49 64 99 65 50 66
REMARK SMILES IDX 104 67 98 68 100 69 51 70 103 71 97 72 96 73 52 75 84 76
REMARK SMILES IDX 64 77 83 78 65 79 68 80 82 81 101 82 66 83 67 84 81 86
REMARK SMILES IDX 102 87 69 88 53 89 54 90 62 91 55 92 57 93 63 94 56 95 58 96
REMARK SMILES IDX 59 97 60 98 61 99 85 100 86 101 94 102 87 103 89 104 95 105
REMARK SMILES IDX 88 106 90 107 91 108 92 109 93 110 70 111 71 112 79 113
REMARK SMILES IDX 72 114 74 115 80 116 73 117 75 118 76 119 77 120 78 121
REMARK H PARENT 29 9 15 14 3 19 10 35 20 43 32 49 100 74 68 85
REMARK Flexibility Score: inf
ROOT
ATOM      1  C   UNL A   1      33.530  32.430  28.039  1.00  0.00     0.261 C 
ENDROOT
BRANCH   1   2
ATOM      2  O   UNL A   1      32.385  32.714  27.220  1.00  0.00    -0.462 OA
BRANCH   2   3
ATOM      3  C   UNL A   1      31.705  31.638  26.739  1.00  0.00     0.331 C 
ATOM      4  O   UNL A   1      30.533  31.641  26.379  1.00  0.00    -0.250 OA
BRANCH   3   5
ATOM      5  C   UNL A   1      32.591  30.377  26.767  1.00  0.00     0.218 C 
BRANCH   5   6
ATOM      6  N   UNL A   1      31.990  29.304  27.577  1.00  0.00    -0.339 N 
ATOM      7  C   UNL A   1      31.822  27.980  27.310  1.00  0.00     0.243 C 
ATOM      8  O   UNL A   1      31.900  27.199  28.263  1.00  0.00    -0.273 OA
ATOM      9  H   UNL A   1      31.652  29.592  28.456  1.00  0.00     0.164 HD
BRANCH   7  10
ATOM     10  C   UNL A   1      31.600  27.382  25.910  1.00  0.00     0.175 C 
BRANCH  10  11
ATOM     11  N   UNL A   1      32.810  27.153  25.125  1.00  0.00    -0.342 N 
ATOM     12  C   UNL A   1      33.002  27.235  23.778  1.00  0.00     0.243 C 
ATOM     13  O   UNL A   1      34.167  27.417  23.404  1.00  0.00    -0.273 OA
ATOM     14  H   UNL A   1      33.606  26.901  25.646  1.00  0.00     0.164 HD
BRANCH  12  15
ATOM     15  C   UNL A   1      31.860  27.169  22.729  1.00  0.00     0.176 C 
BRANCH  15  16
ATOM     16  N   UNL A   1      31.568  28.438  22.048  1.00  0.00    -0.340 N 
ATOM     17  O   UNL A   1      30.410  30.241  21.384  1.00  0.00    -0.269 OA
ATOM     18  C   UNL A   1      30.424  29.193  22.024  1.00  0.00     0.251 C 
ATOM     19  H   UNL A   1      32.316  28.806  21.523  1.00  0.00     0.164 HD
BRANCH  18  20
ATOM     20  C   UNL A   1      29.172  28.724  22.659  1.00  0.00     0.040 A 
ATOM     21  C   UNL A   1      29.044  27.457  23.242  1.00  0.00     0.017 A 
ATOM     22  C   UNL A   1      28.091  29.617  22.681  1.00  0.00     0.017 A 
ATOM     23  C   UNL A   1      27.811  27.058  23.764  1.00  0.00     0.040 A 
ATOM     24  C   UNL A   1      26.867  29.221  23.220  1.00  0.00     0.040 A 
ATOM     25  C   UNL A   1      26.733  27.939  23.741  1.00  0.00     0.123 A 
ATOM     26  F   UNL A   1      25.552  27.550  24.236  1.00  0.00    -0.207 F 
ENDBRANCH  18  20
ENDBRANCH  15  16
BRANCH  15  27
ATOM     27  C   UNL A   1      31.866  25.943  21.800  1.00  0.00     0.070 C 
BRANCH  27  28
ATOM     28  C   UNL A   1      32.203  24.592  22.370  1.00  0.00    -0.045 A 
ATOM     29  C   UNL A   1      33.500  24.065  22.272  1.00  0.00     0.007 A 
ATOM     30  C   UNL A   1      31.189  23.803  22.936  1.00  0.00     0.007 A 
ATOM     31  C   UNL A   1      33.779  22.780  22.749  1.00  0.00     0.046 A 
ATOM     32  C   UNL A   1      31.467  22.517  23.400  1.00  0.00     0.046 A 
ATOM     33  C   UNL A   1      32.761  22.022  23.320  1.00  0.00     0.115 A 
BRANCH  33  34
ATOM     34  O   UNL A   1      33.000  20.786  23.841  1.00  0.00    -0.508 OA
ATOM     35  H   UNL A   1      32.783  20.603  24.734  1.00  0.00     0.293 HD
ENDBRANCH  33  34
ENDBRANCH  27  28
ENDBRANCH  15  27
ENDBRANCH  12  15
ENDBRANCH  10  11
BRANCH  10  36
ATOM     36  C   UNL A   1      30.572  26.233  25.879  1.00  0.00     0.072 C 
BRANCH  36  37
ATOM     37  C   UNL A   1      31.037  24.901  26.384  1.00  0.00    -0.020 A 
ATOM     38  C   UNL A   1      30.264  23.907  26.952  1.00  0.00     0.087 A 
ATOM     39  C   UNL A   1      32.393  24.420  26.403  1.00  0.00     0.003 A 
ATOM     40  N   UNL A   1      31.054  22.802  27.141  1.00  0.00    -0.361 N 
ATOM     41  C   UNL A   1      32.356  23.086  26.809  1.00  0.00     0.046 A 
ATOM     42  C   UNL A   1      33.648  24.975  26.066  1.00  0.00     0.010 A 
ATOM     43  H   UNL A   1      30.734  21.930  27.468  1.00  0.00     0.166 HD
ATOM     44  C   UNL A   1      33.487  22.261  26.822  1.00  0.00     0.026 A 
ATOM     45  C   UNL A   1      34.792  24.168  26.088  1.00  0.00     0.001 A 
ATOM     46  C   UNL A   1      34.707  22.826  26.442  1.00  0.00     0.002 A 
ENDBRANCH  36  37
ENDBRANCH  10  36
ENDBRANCH   7  10
ENDBRANCH   5   6
BRANCH   5  47
ATOM     47  C   UNL A   1      32.831  29.929  25.325  1.00  0.00     0.193 C 
BRANCH  47  48
ATOM     48  O   UNL A   1      31.714  30.202  24.485  1.00  0.00    -0.394 OA
ATOM     49  H   UNL A   1      31.621  31.162  24.373  1.00  0.00     0.210 HD
ENDBRANCH  47  48
ENDBRANCH   5  47
ENDBRANCH   3   5
ENDBRANCH   2   3
ENDBRANCH   1   2
BRANCH   1  50
ATOM     50  C   UNL A   1      33.933  33.694  28.804  1.00  0.00     0.202 C 
BRANCH  50  51
ATOM     51  O   UNL A   1      32.856  34.608  29.039  1.00  0.00    -0.374 OA
BRANCH  51  52
ATOM     52  C   UNL A   1      33.272  35.869  29.573  1.00  0.00     0.202 C 
BRANCH  52  53
ATOM     53  C   UNL A   1      32.547  36.194  30.878  1.00  0.00     0.261 C 
BRANCH  53  54
ATOM     54  O   UNL A   1      32.878  35.154  31.808  1.00  0.00    -0.460 OA
BRANCH  54  55
ATOM     55  C   UNL A   1      33.781  35.561  32.732  1.00  0.00     0.338 C 
ATOM     56  O   UNL A   1      33.589  36.367  33.623  1.00  0.00    -0.246 OA
BRANCH  55  57
ATOM     57  C   UNL A   1      35.002  34.731  32.610  1.00  0.00     0.060 A 
ATOM     58  C   UNL A   1      35.025  33.537  33.337  1.00  0.00     0.016 A 
ATOM     59  C   UNL A   1      36.083  35.077  31.786  1.00  0.00     0.016 A 
ATOM     60  C   UNL A   1      36.161  32.738  33.323  1.00  0.00     0.010 A 
ATOM     61  C   UNL A   1      37.219  34.267  31.759  1.00  0.00     0.010 A 
ATOM     62  C   UNL A   1      37.281  33.131  32.579  1.00  0.00    -0.014 A 
BRANCH  62  63
ATOM     63  C   UNL A   1      38.565  32.450  32.848  1.00  0.00     0.031 A 
ATOM     64  C   UNL A   1      39.291  32.783  34.121  1.00  0.00     0.074 A 
ATOM     65  C   UNL A   1      39.018  31.491  32.024  1.00  0.00     0.049 A 
ATOM     66  N   UNL A   1      40.316  32.187  34.669  1.00  0.00    -0.248 NA
ATOM     67  C   UNL A   1      38.790  33.940  34.884  1.00  0.00     0.031 C 
ATOM     68  C   UNL A   1      38.401  31.104  30.757  1.00  0.00     0.029 A 
ATOM     69  N   UNL A   1      40.100  30.658  32.143  1.00  0.00    -0.354 N 
ATOM     70  C   UNL A   1      40.580  32.891  35.837  1.00  0.00     0.074 A 
ATOM     71  C   UNL A   1      39.636  33.984  35.901  1.00  0.00     0.031 C 
ATOM     72  C   UNL A   1      39.111  30.100  30.216  1.00  0.00     0.029 A 
ATOM     73  C   UNL A   1      40.229  29.773  31.101  1.00  0.00     0.049 A 
ATOM     74  H   UNL A   1      40.725  30.692  32.903  1.00  0.00     0.167 HD
ATOM     75  C   UNL A   1      41.505  32.633  36.790  1.00  0.00     0.034 A 
ATOM     76  C   UNL A   1      41.135  28.797  30.900  1.00  0.00     0.034 A 
ATOM     77  C   UNL A   1      42.438  31.543  36.719  1.00  0.00     0.049 A 
ATOM     78  C   UNL A   1      42.158  28.528  31.974  1.00  0.00     0.074 A 
ATOM     79  C   UNL A   1      43.401  31.167  37.636  1.00  0.00     0.029 A 
ATOM     80  N   UNL A   1      42.529  30.658  35.654  1.00  0.00    -0.354 N 
ATOM     81  N   UNL A   1      42.308  29.113  33.139  1.00  0.00    -0.248 NA
ATOM     82  C   UNL A   1      43.106  27.435  31.723  1.00  0.00     0.031 C 
ATOM     83  C   UNL A   1      44.091  30.066  37.115  1.00  0.00     0.029 A 
ATOM     84  C   UNL A   1      43.541  29.742  35.884  1.00  0.00     0.049 A 
ATOM     85  H   UNL A   1      41.959  30.678  34.853  1.00  0.00     0.167 HD
ATOM     86  C   UNL A   1      43.348  28.443  33.773  1.00  0.00     0.074 A 
ATOM     87  C   UNL A   1      43.770  27.388  32.871  1.00  0.00     0.031 C 
ATOM     88  C   UNL A   1      43.917  28.682  34.982  1.00  0.00     0.034 A 
BRANCH  75  89
ATOM     89  C   UNL A   1      41.518  33.535  37.997  1.00  0.00     0.023 A 
ATOM     90  C   UNL A   1      42.494  34.550  38.094  1.00  0.00     0.012 A 
ATOM     91  C   UNL A   1      40.579  33.381  39.032  1.00  0.00     0.148 A 
ATOM     92  C   UNL A   1      42.558  35.370  39.220  1.00  0.00     0.002 A 
ATOM     93  C   UNL A   1      40.622  34.229  40.133  1.00  0.00     0.091 A 
ATOM     94  F   UNL A   1      39.680  32.390  38.940  1.00  0.00    -0.205 F 
ATOM     95  C   UNL A   1      41.618  35.216  40.235  1.00  0.00     0.022 A 
BRANCH  93  96
ATOM     96  S   UNL A   1      39.414  34.149  41.459  1.00  0.00     0.127 S 
ATOM     97  O   UNL A   1      39.301  32.705  41.669  1.00  0.00    -0.237 OA
ATOM     98  O   UNL A   1      40.090  34.870  42.539  1.00  0.00    -0.237 OA
ATOM     99  O   UNL A   1      38.220  34.806  40.948  1.00  0.00    -0.744 OA
ENDBRANCH  93  96
ENDBRANCH  75  89
BRANCH  76 100
ATOM    100  C   UNL A   1      41.053  27.951  29.677  1.00  0.00     0.023 A 
ATOM    101  C   UNL A   1      40.088  26.929  29.600  1.00  0.00     0.012 A 
ATOM    102  C   UNL A   1      41.896  28.184  28.573  1.00  0.00     0.148 A 
ATOM    103  C   UNL A   1      39.976  26.140  28.454  1.00  0.00     0.002 A 
ATOM    104  C   UNL A   1      41.745  27.430  27.414  1.00  0.00     0.091 A 
ATOM    105  F   UNL A   1      42.820  29.151  28.672  1.00  0.00    -0.205 F 
ATOM    106  C   UNL A   1      40.796  26.397  27.358  1.00  0.00     0.022 A 
BRANCH 104 107
ATOM    107  S   UNL A   1      42.666  27.777  25.911  1.00  0.00     0.127 S 
ATOM    108  O   UNL A   1      41.914  27.015  24.918  1.00  0.00    -0.237 OA
ATOM    109  O   UNL A   1      42.532  29.230  25.805  1.00  0.00    -0.237 OA
ATOM    110  O   UNL A   1      44.023  27.315  26.167  1.00  0.00    -0.744 OA
ENDBRANCH 104 107
ENDBRANCH  76 100
BRANCH  88 111
ATOM    111  C   UNL A   1      45.051  27.782  35.399  1.00  0.00     0.023 A 
ATOM    112  C   UNL A   1      46.381  28.184  35.162  1.00  0.00     0.012 A 
ATOM    113  C   UNL A   1      44.805  26.567  36.067  1.00  0.00     0.148 A 
ATOM    114  C   UNL A   1      47.447  27.370  35.544  1.00  0.00     0.002 A 
ATOM    115  C   UNL A   1      45.873  25.784  36.489  1.00  0.00     0.091 A 
ATOM    116  F   UNL A   1      43.534  26.190  36.267  1.00  0.00    -0.205 F 
ATOM    117  C   UNL A   1      47.193  26.176  36.216  1.00  0.00     0.022 A 
BRANCH 115 118
ATOM    118  S   UNL A   1      45.629  24.283  37.445  1.00  0.00     0.127 S 
ATOM    119  O   UNL A   1      47.005  23.893  37.746  1.00  0.00    -0.237 OA
ATOM    120  O   UNL A   1      44.865  24.763  38.598  1.00  0.00    -0.237 OA
ATOM    121  O   UNL A   1      44.889  23.380  36.573  1.00  0.00    -0.744 OA
ENDBRANCH 115 118
ENDBRANCH  88 111
ENDBRANCH  62  63
ENDBRANCH  55  57
ENDBRANCH  54  55
ENDBRANCH  53  54
ENDBRANCH  52  53
ENDBRANCH  51  52
ENDBRANCH  50  51
ENDBRANCH   1  50
TORSDOF 30
ENDMDL
MODEL 3
REMARK VINA RESULT:      -8.8      6.691     16.197
REMARK SMILES O=C(N[C@@H](Cc1ccc(O)cc1)C(=O)N[C@@H](Cc1c[nH]c2ccccc12)C(=O)N[C@@H](CO)C(=O)OCCOCCOC(=O)c1ccc(-c2c3nc(c(-c4cccc(S(=O)(=O)[O-])c4F)c4ccc([nH]4)c(-c4cccc(S(=O)(=O)[O-])c4F)c4nc(c(-c5cccc(S(=O)(=O)[O-])c5F)c5ccc2[nH]5)C=C4)C=C3)cc1)c1ccc(F)cc1
REMARK SMILES IDX 36 1 35 2 33 3 34 4 30 5 29 6 27 7 28 8 16 10 15 11 13 12
REMARK SMILES IDX 14 13 4 15 3 16 1 17 2 18 107 20 108 21 113 22 109 23 112 24
REMARK SMILES IDX 110 25 111 26 5 27 6 28 7 29 12 30 8 31 11 32 9 33 10 34
REMARK SMILES IDX 17 36 18 37 19 38 26 39 20 40 21 41 25 42 22 44 24 45 23 46
REMARK SMILES IDX 31 47 32 48 37 50 38 51 39 52 40 53 41 54 42 55 43 56 44 57
REMARK SMILES IDX 45 58 106 59 46 60 105 61 47 62 48 63 49 64 99 65 50 66
REMARK SMILES IDX 104 67 98 68 100 69 51 70 103 71 97 72 96 73 52 75 84 76
REMARK SMILES IDX 64 77 83 78 65 79 68 80 82 81 101 82 66 83 67 84 81 86
REMARK SMILES IDX 102 87 69 88 53 89 54 90 62 91 55 92 57 93 63 94 56 95 58 96
REMARK SMILES IDX 59 97 60 98 61 99 85 100 86 101 94 102 87 103 89 104 95 105
REMARK SMILES IDX 88 106 90 107 91 108 92 109 93 110 70 111 71 112 79 113
REMARK SMILES IDX 72 114 74 115 80 116 73 117 75 118 76 119 77 120 78 121
REMARK H PARENT 29 9 15 14 3 19 10 35 20 43 32 49 100 74 68 85
REMARK Flexibility Score: inf
ROOT
ATOM      1  C   UNL A   1      49.978  20.412  38.334  1.00  0.00     0.261 C 
ENDROOT
BRANCH   1   2
ATOM      2  O   UNL A   1      48.589  20.056  38.254  1.00  0.00    -0.462 OA
BRANCH   2   3
ATOM      3  C   UNL A   1      47.722  20.846  38.942  1.00  0.00     0.331 C 
ATOM      4  O   UNL A   1      47.521  20.796  40.151  1.00  0.00    -0.250 OA
BRANCH   3   5
ATOM      5  C   UNL A   1      46.962  21.784  37.984  1.00  0.00     0.218 C 
BRANCH   5   6
ATOM      6  N   UNL A   1      47.880  22.622  37.195  1.00  0.00    -0.339 N 
ATOM      7  C   UNL A   1      48.625  23.702  37.556  1.00  0.00     0.243 C 
ATOM      8  O   UNL A   1      49.718  23.844  36.998  1.00  0.00    -0.273 OA
ATOM      9  H   UNL A   1      47.970  22.357  36.251  1.00  0.00     0.164 HD
BRANCH   7  10
ATOM     10  C   UNL A   1      48.236  24.722  38.638  1.00  0.00     0.175 C 
BRANCH  10  11
ATOM     11  N   UNL A   1      47.065  24.374  39.439  1.00  0.00    -0.342 N 
ATOM     12  C   UNL A   1      45.768  24.770  39.302  1.00  0.00     0.243 C 
ATOM     13  O   UNL A   1      44.916  24.031  39.809  1.00  0.00    -0.273 OA
ATOM     14  H   UNL A   1      47.238  23.763  40.190  1.00  0.00     0.164 HD
BRANCH  12  15
ATOM     15  C   UNL A   1      45.319  26.032  38.516  1.00  0.00     0.176 C 
BRANCH  15  16
ATOM     16  N   UNL A   1      43.869  26.265  38.491  1.00  0.00    -0.340 N 
ATOM     17  O   UNL A   1      41.750  26.200  37.756  1.00  0.00    -0.269 OA
ATOM     18  C   UNL A   1      42.926  25.902  37.563  1.00  0.00     0.251 C 
ATOM     19  H   UNL A   1      43.517  26.761  39.264  1.00  0.00     0.164 HD
BRANCH  18  20
ATOM     20  C   UNL A   1      43.302  25.257  36.286  1.00  0.00     0.040 A 
ATOM     21  C   UNL A   1      43.862  23.975  36.217  1.00  0.00     0.017 A 
ATOM     22  C   UNL A   1      43.056  25.978  35.108  1.00  0.00     0.017 A 
ATOM     23  C   UNL A   1      44.254  23.458  34.979  1.00  0.00     0.040 A 
ATOM     24  C   UNL A   1      43.431  25.449  33.873  1.00  0.00     0.040 A 
ATOM     25  C   UNL A   1      44.042  24.201  33.822  1.00  0.00     0.123 A 
ATOM     26  F   UNL A   1      44.426  23.705  32.640  1.00  0.00    -0.207 F 
ENDBRANCH  18  20
ENDBRANCH  15  16
BRANCH  15  27
ATOM     27  C   UNL A   1      46.157  27.302  38.744  1.00  0.00     0.070 C 
BRANCH  27  28
ATOM     28  C   UNL A   1      46.103  27.987  40.083  1.00  0.00    -0.045 A 
ATOM     29  C   UNL A   1      46.814  27.487  41.184  1.00  0.00     0.007 A 
ATOM     30  C   UNL A   1      45.263  29.098  40.262  1.00  0.00     0.007 A 
ATOM     31  C   UNL A   1      46.700  28.099  42.437  1.00  0.00     0.046 A 
ATOM     32  C   UNL A   1      45.141  29.700  41.515  1.00  0.00     0.046 A 
ATOM     33  C   UNL A   1      45.872  29.208  42.587  1.00  0.00     0.115 A 
BRANCH  33  34
ATOM     34  O   UNL A   1      45.770  29.865  43.777  1.00  0.00    -0.508 OA
ATOM     35  H   UNL A   1      46.542  30.095  44.255  1.00  0.00     0.293 HD
ENDBRANCH  33  34
ENDBRANCH  27  28
ENDBRANCH  15  27
ENDBRANCH  12  15
ENDBRANCH  10  11
BRANCH  10  36
ATOM     36  C   UNL A   1      49.435  25.272  39.438  1.00  0.00     0.072 C 
BRANCH  36  37
ATOM     37  C   UNL A   1      49.793  26.709  39.211  1.00  0.00    -0.020 A 
ATOM     38  C   UNL A   1      49.811  27.384  38.006  1.00  0.00     0.087 A 
ATOM     39  C   UNL A   1      50.221  27.652  40.210  1.00  0.00     0.003 A 
ATOM     40  N   UNL A   1      50.051  28.710  38.260  1.00  0.00    -0.361 N 
ATOM     41  C   UNL A   1      50.299  28.902  39.597  1.00  0.00     0.046 A 
ATOM     42  C   UNL A   1      50.502  27.573  41.592  1.00  0.00     0.010 A 
ATOM     43  H   UNL A   1      50.047  29.423  37.580  1.00  0.00     0.166 HD
ATOM     44  C   UNL A   1      50.567  30.082  40.301  1.00  0.00     0.026 A 
ATOM     45  C   UNL A   1      50.787  28.742  42.310  1.00  0.00     0.001 A 
ATOM     46  C   UNL A   1      50.799  29.980  41.675  1.00  0.00     0.002 A 
ENDBRANCH  36  37
ENDBRANCH  10  36
ENDBRANCH   7  10
ENDBRANCH   5   6
BRANCH   5  47
ATOM     47  C   UNL A   1      46.067  20.928  37.087  1.00  0.00     0.193 C 
BRANCH  47  48
ATOM     48  O   UNL A   1      45.818  19.642  37.646  1.00  0.00    -0.394 OA
ATOM     49  H   UNL A   1      44.865  19.535  37.798  1.00  0.00     0.210 HD
ENDBRANCH  47  48
ENDBRANCH   5  47
ENDBRANCH   3   5
ENDBRANCH   2   3
ENDBRANCH   1   2
BRANCH   1  50
ATOM     50  C   UNL A   1      50.821  19.323  37.664  1.00  0.00     0.202 C 
BRANCH  50  51
ATOM     51  O   UNL A   1      51.069  19.544  36.271  1.00  0.00    -0.374 OA
BRANCH  51  52
ATOM     52  C   UNL A   1      51.431  20.892  35.955  1.00  0.00     0.202 C 
BRANCH  52  53
ATOM     53  C   UNL A   1      51.159  21.217  34.487  1.00  0.00     0.261 C 
BRANCH  53  54
ATOM     54  O   UNL A   1      50.749  22.590  34.433  1.00  0.00    -0.460 OA
BRANCH  54  55
ATOM     55  C   UNL A   1      50.771  23.083  33.171  1.00  0.00     0.338 C 
ATOM     56  O   UNL A   1      51.407  22.639  32.234  1.00  0.00    -0.246 OA
BRANCH  55  57
ATOM     57  C   UNL A   1      49.748  24.149  33.053  1.00  0.00     0.060 A 
ATOM     58  C   UNL A   1      48.554  23.953  33.754  1.00  0.00     0.016 A 
ATOM     59  C   UNL A   1      49.951  25.324  32.317  1.00  0.00     0.016 A 
ATOM     60  C   UNL A   1      47.524  24.878  33.640  1.00  0.00     0.010 A 
ATOM     61  C   UNL A   1      48.922  26.262  32.214  1.00  0.00     0.010 A 
ATOM     62  C   UNL A   1      47.686  26.006  32.825  1.00  0.00    -0.014 A 
BRANCH  62  63
ATOM     63  C   UNL A   1      46.479  26.779  32.464  1.00  0.00     0.031 A 
ATOM     64  C   UNL A   1      45.730  26.385  31.222  1.00  0.00     0.074 A 
ATOM     65  C   UNL A   1      46.013  27.741  33.276  1.00  0.00     0.049 A 
ATOM     66  N   UNL A   1      44.554  26.772  30.807  1.00  0.00    -0.248 NA
ATOM     67  C   UNL A   1      46.392  25.417  30.330  1.00  0.00     0.031 C 
ATOM     68  C   UNL A   1      46.672  28.212  34.492  1.00  0.00     0.029 A 
ATOM     69  N   UNL A   1      44.865  28.485  33.202  1.00  0.00    -0.354 N 
ATOM     70  C   UNL A   1      44.335  26.096  29.613  1.00  0.00     0.074 A 
ATOM     71  C   UNL A   1      45.515  25.306  29.346  1.00  0.00     0.031 C 
ATOM     72  C   UNL A   1      45.910  29.164  35.058  1.00  0.00     0.029 A 
ATOM     73  C   UNL A   1      44.711  29.364  34.245  1.00  0.00     0.049 A 
ATOM     74  H   UNL A   1      44.212  28.398  32.470  1.00  0.00     0.167 HD
ATOM     75  C   UNL A   1      43.236  26.107  28.824  1.00  0.00     0.034 A 
ATOM     76  C   UNL A   1      43.704  30.216  34.520  1.00  0.00     0.034 A 
ATOM     77  C   UNL A   1      42.066  26.895  29.099  1.00  0.00     0.049 A 
ATOM     78  C   UNL A   1      42.491  30.213  33.626  1.00  0.00     0.074 A 
ATOM     79  C   UNL A   1      40.884  26.966  28.388  1.00  0.00     0.029 A 
ATOM     80  N   UNL A   1      41.941  27.764  30.174  1.00  0.00    -0.354 N 
ATOM     81  N   UNL A   1      42.238  29.467  32.577  1.00  0.00    -0.248 NA
ATOM     82  C   UNL A   1      41.406  31.138  33.983  1.00  0.00     0.031 C 
ATOM     83  C   UNL A   1      40.051  27.897  29.021  1.00  0.00     0.029 A 
ATOM     84  C   UNL A   1      40.706  28.386  30.141  1.00  0.00     0.049 A 
ATOM     85  H   UNL A   1      42.630  27.916  30.860  1.00  0.00     0.167 HD
ATOM     86  C   UNL A   1      40.956  29.810  32.163  1.00  0.00     0.074 A 
ATOM     87  C   UNL A   1      40.475  30.812  33.096  1.00  0.00     0.031 C 
ATOM     88  C   UNL A   1      40.242  29.355  31.102  1.00  0.00     0.034 A 
BRANCH  75  89
ATOM     89  C   UNL A   1      43.252  25.214  27.612  1.00  0.00     0.023 A 
ATOM     90  C   UNL A   1      43.888  25.655  26.432  1.00  0.00     0.012 A 
ATOM     91  C   UNL A   1      42.638  23.948  27.631  1.00  0.00     0.148 A 
ATOM     92  C   UNL A   1      43.880  24.868  25.281  1.00  0.00     0.002 A 
ATOM     93  C   UNL A   1      42.670  23.150  26.493  1.00  0.00     0.091 A 
ATOM     94  F   UNL A   1      42.008  23.558  28.749  1.00  0.00    -0.205 F 
ATOM     95  C   UNL A   1      43.279  23.613  25.314  1.00  0.00     0.022 A 
BRANCH  93  96
ATOM     96  S   UNL A   1      41.978  21.493  26.459  1.00  0.00     0.127 S 
ATOM     97  O   UNL A   1      42.287  21.016  27.807  1.00  0.00    -0.237 OA
ATOM     98  O   UNL A   1      40.559  21.754  26.214  1.00  0.00    -0.237 OA
ATOM     99  O   UNL A   1      42.661  20.801  25.374  1.00  0.00    -0.744 OA
ENDBRANCH  93  96
ENDBRANCH  75  89
BRANCH  76 100
ATOM    100  C   UNL A   1      43.768  31.069  35.739  1.00  0.00     0.023 A 
ATOM    101  C   UNL A   1      43.298  30.566  36.968  1.00  0.00     0.012 A 
ATOM    102  C   UNL A   1      44.334  32.358  35.697  1.00  0.00     0.148 A 
ATOM    103  C   UNL A   1      43.370  31.338  38.128  1.00  0.00     0.002 A 
ATOM    104  C   UNL A   1      44.452  33.102  36.866  1.00  0.00     0.091 A 
ATOM    105  F   UNL A   1      44.760  32.826  34.515  1.00  0.00    -0.205 F 
ATOM    106  C   UNL A   1      43.957  32.600  38.080  1.00  0.00     0.022 A 
BRANCH 104 107
ATOM    107  S   UNL A   1      45.310  34.680  36.923  1.00  0.00     0.127 S 
ATOM    108  O   UNL A   1      44.404  35.540  36.167  1.00  0.00    -0.237 OA
ATOM    109  O   UNL A   1      45.355  34.945  38.362  1.00  0.00    -0.237 OA
ATOM    110  O   UNL A   1      46.611  34.441  36.315  1.00  0.00    -0.744 OA
ENDBRANCH 104 107
ENDBRANCH  76 100
BRANCH  88 111
ATOM    111  C   UNL A   1      38.865  29.933  30.900  1.00  0.00     0.023 A 
ATOM    112  C   UNL A   1      37.733  29.179  31.274  1.00  0.00     0.012 A 
ATOM    113  C   UNL A   1      38.692  31.234  30.392  1.00  0.00     0.148 A 
ATOM    114  C   UNL A   1      36.450  29.696  31.103  1.00  0.00     0.002 A 
ATOM    115  C   UNL A   1      37.412  31.761  30.270  1.00  0.00     0.091 A 
ATOM    116  F   UNL A   1      39.777  31.930  30.023  1.00  0.00    -0.205 F 
ATOM    117  C   UNL A   1      36.290  30.990  30.610  1.00  0.00     0.022 A 
BRANCH 115 118
ATOM    118  S   UNL A   1      37.130  33.453  29.736  1.00  0.00     0.127 S 
ATOM    119  O   UNL A   1      35.673  33.550  29.802  1.00  0.00    -0.237 OA
ATOM    120  O   UNL A   1      37.839  34.229  30.756  1.00  0.00    -0.237 OA
ATOM    121  O   UNL A   1      37.713  33.546  28.404  1.00  0.00    -0.744 OA
ENDBRANCH 115 118
ENDBRANCH  88 111
ENDBRANCH  62  63
ENDBRANCH  55  57
ENDBRANCH  54  55
ENDBRANCH  53  54
ENDBRANCH  52  53
ENDBRANCH  51  52
ENDBRANCH  50  51
ENDBRANCH   1  50
TORSDOF 30
ENDMDL
