MODEL 1
REMARK VINA RESULT:     -12.0      0.000      0.000
REMARK SMILES CC(=O)NS(=O)(=O)c1cc(-c2ccn(C(F)F)c(=O)c2)ccc1C(=O)OCCOCCOC(=O)c1ccc(-c2c3nc(c(-c4cccc(S(=O)(=O)[O-])c4F)c4ccc([nH]4)c(-c4cccc(S(=O)(=O)[O-])c4F)c4nc(c(-c5cccc(S(=O)(=O)[O-])c5F)c5ccc2[nH]5)C=C4)C=C3)cc1
REMARK SMILES IDX 30 1 29 2 28 3 27 4 26 5 24 6 25 7 23 8 8 9 9 10 10 11 22 12
REMARK SMILES IDX 21 13 5 14 6 15 7 16 4 17 1 18 2 19 3 20 11 22 12 23 20 24
REMARK SMILES IDX 13 25 18 26 14 27 19 28 15 29 16 30 17 31 31 32 32 33 33 34
REMARK SMILES IDX 34 35 35 36 36 37 97 38 37 39 96 40 38 41 39 42 40 43 90 44
REMARK SMILES IDX 41 45 95 46 89 47 91 48 42 49 94 50 88 51 87 52 43 54 75 55
REMARK SMILES IDX 55 56 74 57 56 58 59 59 73 60 92 61 57 62 58 63 72 65 93 66
REMARK SMILES IDX 60 67 44 68 45 69 53 70 46 71 48 72 54 73 47 74 49 75 50 76
REMARK SMILES IDX 51 77 52 78 76 79 77 80 85 81 78 82 80 83 86 84 79 85 81 86
REMARK SMILES IDX 82 87 83 88 84 89 61 90 62 91 70 92 63 93 65 94 71 95 64 96
REMARK SMILES IDX 66 97 67 98 68 99 69 100
REMARK H PARENT 4 21 91 53 59 64
REMARK Flexibility Score: inf
ROOT
ATOM      1  C   UNL A   1      32.215  29.556  26.559  1.00  0.00     0.202 C 
ENDROOT
BRANCH   1   2
ATOM      2  O   UNL A   1      31.339  28.842  25.683  1.00  0.00    -0.374 OA
BRANCH   2   3
ATOM      3  C   UNL A   1      31.195  29.415  24.376  1.00  0.00     0.202 C 
BRANCH   3   4
ATOM      4  C   UNL A   1      32.127  28.766  23.355  1.00  0.00     0.261 C 
BRANCH   4   5
ATOM      5  O   UNL A   1      32.181  27.349  23.607  1.00  0.00    -0.460 OA
BRANCH   5   6
ATOM      6  C   UNL A   1      31.508  26.555  22.765  1.00  0.00     0.339 C 
ATOM      7  O   UNL A   1      30.855  26.931  21.802  1.00  0.00    -0.246 OA
BRANCH   6   8
ATOM      8  C   UNL A   1      31.692  25.102  23.066  1.00  0.00     0.080 A 
ATOM      9  C   UNL A   1      31.233  24.368  24.176  1.00  0.00     0.103 A 
ATOM     10  C   UNL A   1      31.450  22.977  24.231  1.00  0.00     0.032 A 
ATOM     11  C   UNL A   1      32.222  22.328  23.263  1.00  0.00    -0.017 A 
ATOM     12  C   UNL A   1      32.437  24.416  22.080  1.00  0.00     0.018 A 
ATOM     13  C   UNL A   1      32.722  23.056  22.188  1.00  0.00     0.010 A 
BRANCH   9  14
ATOM     14  S   UNL A   1      30.516  25.155  25.602  1.00  0.00     0.264 S 
ATOM     15  O   UNL A   1      30.186  24.111  26.540  1.00  0.00    -0.201 OA
ATOM     16  O   UNL A   1      29.565  26.134  25.124  1.00  0.00    -0.201 OA
BRANCH  14  17
ATOM     17  N   UNL A   1      31.764  26.012  26.318  1.00  0.00    -0.249 N 
ATOM     18  C   UNL A   1      33.556  24.274  26.537  1.00  0.00     0.115 C 
ATOM     19  C   UNL A   1      33.131  25.684  26.216  1.00  0.00     0.230 C 
ATOM     20  O   UNL A   1      33.954  26.579  26.081  1.00  0.00    -0.274 OA
ATOM     21  H   UNL A   1      31.526  26.805  26.850  1.00  0.00     0.183 HD
ENDBRANCH  14  17
ENDBRANCH   9  14
BRANCH  11  22
ATOM     22  C   UNL A   1      32.600  20.919  23.439  1.00  0.00    -0.011 A 
ATOM     23  C   UNL A   1      33.428  20.487  24.548  1.00  0.00     0.027 A 
ATOM     24  C   UNL A   1      32.156  20.013  22.553  1.00  0.00     0.080 A 
ATOM     25  C   UNL A   1      33.753  19.198  24.688  1.00  0.00     0.095 A 
ATOM     26  C   UNL A   1      32.522  18.576  22.690  1.00  0.00     0.255 A 
ATOM     27  N   UNL A   1      33.313  18.253  23.782  1.00  0.00    -0.258 N 
ATOM     28  O   UNL A   1      32.117  17.784  21.844  1.00  0.00    -0.269 OA
BRANCH  27  29
ATOM     29  C   UNL A   1      33.685  16.871  23.933  1.00  0.00     0.451 C 
ATOM     30  F   UNL A   1      34.899  16.747  24.523  1.00  0.00    -0.185 F 
ATOM     31  F   UNL A   1      32.779  16.204  24.690  1.00  0.00    -0.185 F 
ENDBRANCH  27  29
ENDBRANCH  11  22
ENDBRANCH   6   8
ENDBRANCH   5   6
ENDBRANCH   4   5
ENDBRANCH   3   4
ENDBRANCH   2   3
ENDBRANCH   1   2
BRANCH   1  32
ATOM     32  C   UNL A   1      31.884  31.048  26.664  1.00  0.00     0.261 C 
BRANCH  32  33
ATOM     33  O   UNL A   1      33.052  31.845  26.413  1.00  0.00    -0.460 OA
BRANCH  33  34
ATOM     34  C   UNL A   1      33.480  32.596  27.456  1.00  0.00     0.338 C 
ATOM     35  O   UNL A   1      32.860  33.486  28.015  1.00  0.00    -0.246 OA
BRANCH  34  36
ATOM     36  C   UNL A   1      34.783  32.083  27.946  1.00  0.00     0.060 A 
ATOM     37  C   UNL A   1      34.847  30.733  28.315  1.00  0.00     0.016 A 
ATOM     38  C   UNL A   1      35.925  32.888  28.039  1.00  0.00     0.016 A 
ATOM     39  C   UNL A   1      36.032  30.199  28.819  1.00  0.00     0.010 A 
ATOM     40  C   UNL A   1      37.113  32.352  28.549  1.00  0.00     0.010 A 
ATOM     41  C   UNL A   1      37.161  31.015  28.970  1.00  0.00    -0.014 A 
BRANCH  41  42
ATOM     42  C   UNL A   1      38.341  30.490  29.695  1.00  0.00     0.031 A 
ATOM     43  C   UNL A   1      38.594  30.953  31.102  1.00  0.00     0.074 A 
ATOM     44  C   UNL A   1      39.167  29.600  29.117  1.00  0.00     0.049 A 
ATOM     45  N   UNL A   1      39.502  30.553  31.951  1.00  0.00    -0.248 NA
ATOM     46  C   UNL A   1      37.701  32.003  31.622  1.00  0.00     0.031 C 
ATOM     47  C   UNL A   1      39.046  29.094  27.752  1.00  0.00     0.029 A 
ATOM     48  N   UNL A   1      40.284  28.974  29.612  1.00  0.00    -0.354 N 
ATOM     49  C   UNL A   1      39.291  31.296  33.105  1.00  0.00     0.074 A 
ATOM     50  C   UNL A   1      38.185  32.190  32.841  1.00  0.00     0.031 C 
ATOM     51  C   UNL A   1      40.061  28.246  27.510  1.00  0.00     0.029 A 
ATOM     52  C   UNL A   1      40.899  28.145  28.705  1.00  0.00     0.049 A 
ATOM     53  H   UNL A   1      40.612  29.105  30.531  1.00  0.00     0.167 HD
ATOM     54  C   UNL A   1      39.939  31.219  34.291  1.00  0.00     0.034 A 
ATOM     55  C   UNL A   1      42.007  27.387  28.829  1.00  0.00     0.034 A 
ATOM     56  C   UNL A   1      41.025  30.322  34.565  1.00  0.00     0.049 A 
ATOM     57  C   UNL A   1      42.723  27.335  30.153  1.00  0.00     0.074 A 
ATOM     58  C   UNL A   1      41.706  30.130  35.754  1.00  0.00     0.029 A 
ATOM     59  N   UNL A   1      41.601  29.475  33.631  1.00  0.00    -0.354 N 
ATOM     60  N   UNL A   1      42.404  27.913  31.287  1.00  0.00    -0.248 NA
ATOM     61  C   UNL A   1      43.930  26.497  30.227  1.00  0.00     0.031 C 
ATOM     62  C   UNL A   1      42.698  29.167  35.538  1.00  0.00     0.029 A 
ATOM     63  C   UNL A   1      42.638  28.766  34.212  1.00  0.00     0.049 A 
ATOM     64  H   UNL A   1      41.314  29.390  32.693  1.00  0.00     0.167 HD
ATOM     65  C   UNL A   1      43.353  27.490  32.212  1.00  0.00     0.074 A 
ATOM     66  C   UNL A   1      44.247  26.590  31.513  1.00  0.00     0.031 C 
ATOM     67  C   UNL A   1      43.483  27.829  33.518  1.00  0.00     0.034 A 
BRANCH  54  68
ATOM     68  C   UNL A   1      39.433  32.087  35.407  1.00  0.00     0.023 A 
ATOM     69  C   UNL A   1      38.470  31.562  36.291  1.00  0.00     0.012 A 
ATOM     70  C   UNL A   1      39.923  33.389  35.607  1.00  0.00     0.148 A 
ATOM     71  C   UNL A   1      37.990  32.326  37.353  1.00  0.00     0.002 A 
ATOM     72  C   UNL A   1      39.457  34.138  36.682  1.00  0.00     0.091 A 
ATOM     73  F   UNL A   1      40.809  33.885  34.731  1.00  0.00    -0.205 F 
ATOM     74  C   UNL A   1      38.490  33.611  37.554  1.00  0.00     0.022 A 
BRANCH  72  75
ATOM     75  S   UNL A   1      40.085  35.785  37.031  1.00  0.00     0.127 S 
ATOM     76  O   UNL A   1      41.519  35.536  37.156  1.00  0.00    -0.237 OA
ATOM     77  O   UNL A   1      39.700  36.534  35.833  1.00  0.00    -0.237 OA
ATOM     78  O   UNL A   1      39.402  36.211  38.246  1.00  0.00    -0.744 OA
ENDBRANCH  72  75
ENDBRANCH  54  68
BRANCH  55  79
ATOM     79  C   UNL A   1      42.466  26.555  27.684  1.00  0.00     0.023 A 
ATOM     80  C   UNL A   1      43.350  27.110  26.739  1.00  0.00     0.012 A 
ATOM     81  C   UNL A   1      42.057  25.217  27.538  1.00  0.00     0.148 A 
ATOM     82  C   UNL A   1      43.804  26.351  25.660  1.00  0.00     0.002 A 
ATOM     83  C   UNL A   1      42.547  24.453  26.484  1.00  0.00     0.091 A 
ATOM     84  F   UNL A   1      41.190  24.712  28.429  1.00  0.00    -0.205 F 
ATOM     85  C   UNL A   1      43.412  25.019  25.538  1.00  0.00     0.022 A 
BRANCH  83  86
ATOM     86  S   UNL A   1      42.169  22.701  26.341  1.00  0.00     0.127 S 
ATOM     87  O   UNL A   1      40.709  22.708  26.323  1.00  0.00    -0.237 OA
ATOM     88  O   UNL A   1      42.798  22.345  25.068  1.00  0.00    -0.237 OA
ATOM     89  O   UNL A   1      42.796  22.087  27.505  1.00  0.00    -0.744 OA
ENDBRANCH  83  86
ENDBRANCH  55  79
BRANCH  67  90
ATOM     90  C   UNL A   1      44.629  27.232  34.288  1.00  0.00     0.023 A 
ATOM     91  C   UNL A   1      45.855  27.925  34.338  1.00  0.00     0.012 A 
ATOM     92  C   UNL A   1      44.471  26.049  35.035  1.00  0.00     0.148 A 
ATOM     93  C   UNL A   1      46.911  27.439  35.108  1.00  0.00     0.002 A 
ATOM     94  C   UNL A   1      45.517  25.590  35.827  1.00  0.00     0.091 A 
ATOM     95  F   UNL A   1      43.305  25.390  34.957  1.00  0.00    -0.205 F 
ATOM     96  C   UNL A   1      46.740  26.281  35.862  1.00  0.00     0.022 A 
BRANCH  94  97
ATOM     97  S   UNL A   1      45.330  24.151  36.887  1.00  0.00     0.127 S 
ATOM     98  O   UNL A   1      46.709  23.896  37.296  1.00  0.00    -0.237 OA
ATOM     99  O   UNL A   1      44.461  24.648  37.956  1.00  0.00    -0.237 OA
ATOM    100  O   UNL A   1      44.716  23.132  36.046  1.00  0.00    -0.744 OA
ENDBRANCH  94  97
ENDBRANCH  67  90
ENDBRANCH  41  42
ENDBRANCH  34  36
ENDBRANCH  33  34
ENDBRANCH  32  33
ENDBRANCH   1  32
TORSDOF 21
ENDMDL
MODEL 2
REMARK VINA RESULT:     -11.6      1.667      2.078
REMARK SMILES CC(=O)NS(=O)(=O)c1cc(-c2ccn(C(F)F)c(=O)c2)ccc1C(=O)OCCOCCOC(=O)c1ccc(-c2c3nc(c(-c4cccc(S(=O)(=O)[O-])c4F)c4ccc([nH]4)c(-c4cccc(S(=O)(=O)[O-])c4F)c4nc(c(-c5cccc(S(=O)(=O)[O-])c5F)c5ccc2[nH]5)C=C4)C=C3)cc1
REMARK SMILES IDX 30 1 29 2 28 3 27 4 26 5 24 6 25 7 23 8 8 9 9 10 10 11 22 12
REMARK SMILES IDX 21 13 5 14 6 15 7 16 4 17 1 18 2 19 3 20 11 22 12 23 20 24
REMARK SMILES IDX 13 25 18 26 14 27 19 28 15 29 16 30 17 31 31 32 32 33 33 34
REMARK SMILES IDX 34 35 35 36 36 37 97 38 37 39 96 40 38 41 39 42 40 43 90 44
REMARK SMILES IDX 41 45 95 46 89 47 91 48 42 49 94 50 88 51 87 52 43 54 75 55
REMARK SMILES IDX 55 56 74 57 56 58 59 59 73 60 92 61 57 62 58 63 72 65 93 66
REMARK SMILES IDX 60 67 44 68 45 69 53 70 46 71 48 72 54 73 47 74 49 75 50 76
REMARK SMILES IDX 51 77 52 78 76 79 77 80 85 81 78 82 80 83 86 84 79 85 81 86
REMARK SMILES IDX 82 87 83 88 84 89 61 90 62 91 70 92 63 93 65 94 71 95 64 96
REMARK SMILES IDX 66 97 67 98 68 99 69 100
REMARK H PARENT 4 21 91 53 59 64
REMARK Flexibility Score: inf
ROOT
ATOM      1  C   UNL A   1      31.021  31.821  26.152  1.00  0.00     0.202 C 
ENDROOT
BRANCH   1   2
ATOM      2  O   UNL A   1      31.489  30.524  26.528  1.00  0.00    -0.374 OA
BRANCH   2   3
ATOM      3  C   UNL A   1      31.864  29.678  25.432  1.00  0.00     0.202 C 
BRANCH   3   4
ATOM      4  C   UNL A   1      33.309  29.198  25.541  1.00  0.00     0.261 C 
BRANCH   4   5
ATOM      5  O   UNL A   1      33.336  27.764  25.411  1.00  0.00    -0.460 OA
BRANCH   5   6
ATOM      6  C   UNL A   1      33.663  27.266  24.212  1.00  0.00     0.339 C 
ATOM      7  O   UNL A   1      34.081  27.915  23.264  1.00  0.00    -0.246 OA
BRANCH   6   8
ATOM      8  C   UNL A   1      33.546  25.777  24.150  1.00  0.00     0.080 A 
ATOM      9  C   UNL A   1      32.457  24.997  23.717  1.00  0.00     0.103 A 
ATOM     10  C   UNL A   1      32.581  23.595  23.665  1.00  0.00     0.032 A 
ATOM     11  C   UNL A   1      33.722  22.952  24.152  1.00  0.00    -0.017 A 
ATOM     12  C   UNL A   1      34.704  25.106  24.601  1.00  0.00     0.018 A 
ATOM     13  C   UNL A   1      34.783  23.713  24.629  1.00  0.00     0.010 A 
BRANCH   9  14
ATOM     14  S   UNL A   1      30.860  25.705  23.375  1.00  0.00     0.264 S 
ATOM     15  O   UNL A   1      29.958  24.610  23.121  1.00  0.00    -0.201 OA
ATOM     16  O   UNL A   1      31.063  26.806  22.459  1.00  0.00    -0.201 OA
BRANCH  14  17
ATOM     17  N   UNL A   1      30.346  26.375  24.821  1.00  0.00    -0.249 N 
ATOM     18  C   UNL A   1      30.229  24.378  26.330  1.00  0.00     0.115 C 
ATOM     19  C   UNL A   1      30.584  25.824  26.096  1.00  0.00     0.230 C 
ATOM     20  O   UNL A   1      30.867  26.566  27.027  1.00  0.00    -0.274 OA
ATOM     21  H   UNL A   1      29.839  27.218  24.778  1.00  0.00     0.183 HD
ENDBRANCH  14  17
ENDBRANCH   9  14
BRANCH  11  22
ATOM     22  C   UNL A   1      33.755  21.488  24.269  1.00  0.00    -0.011 A 
ATOM     23  C   UNL A   1      32.567  20.682  24.063  1.00  0.00     0.027 A 
ATOM     24  C   UNL A   1      34.919  20.887  24.565  1.00  0.00     0.080 A 
ATOM     25  C   UNL A   1      32.625  19.351  24.170  1.00  0.00     0.095 A 
ATOM     26  C   UNL A   1      34.994  19.405  24.700  1.00  0.00     0.255 A 
ATOM     27  N   UNL A   1      33.812  18.715  24.482  1.00  0.00    -0.258 N 
ATOM     28  O   UNL A   1      36.072  18.897  24.997  1.00  0.00    -0.269 OA
BRANCH  27  29
ATOM     29  C   UNL A   1      33.857  17.282  24.612  1.00  0.00     0.451 C 
ATOM     30  F   UNL A   1      33.450  16.885  25.842  1.00  0.00    -0.185 F 
ATOM     31  F   UNL A   1      33.062  16.685  23.691  1.00  0.00    -0.185 F 
ENDBRANCH  27  29
ENDBRANCH  11  22
ENDBRANCH   6   8
ENDBRANCH   5   6
ENDBRANCH   4   5
ENDBRANCH   3   4
ENDBRANCH   2   3
ENDBRANCH   1   2
BRANCH   1  32
ATOM     32  C   UNL A   1      31.743  32.961  26.877  1.00  0.00     0.261 C 
BRANCH  32  33
ATOM     33  O   UNL A   1      33.123  32.626  27.099  1.00  0.00    -0.460 OA
BRANCH  33  34
ATOM     34  C   UNL A   1      33.765  33.383  28.022  1.00  0.00     0.338 C 
ATOM     35  O   UNL A   1      33.338  34.391  28.561  1.00  0.00    -0.246 OA
BRANCH  34  36
ATOM     36  C   UNL A   1      35.034  32.725  28.418  1.00  0.00     0.060 A 
ATOM     37  C   UNL A   1      34.961  31.398  28.863  1.00  0.00     0.016 A 
ATOM     38  C   UNL A   1      36.273  33.373  28.354  1.00  0.00     0.016 A 
ATOM     39  C   UNL A   1      36.113  30.736  29.286  1.00  0.00     0.010 A 
ATOM     40  C   UNL A   1      37.428  32.710  28.783  1.00  0.00     0.010 A 
ATOM     41  C   UNL A   1      37.346  31.400  29.279  1.00  0.00    -0.014 A 
BRANCH  41  42
ATOM     42  C   UNL A   1      38.517  30.759  29.921  1.00  0.00     0.031 A 
ATOM     43  C   UNL A   1      38.855  31.120  31.340  1.00  0.00     0.074 A 
ATOM     44  C   UNL A   1      39.259  29.853  29.259  1.00  0.00     0.049 A 
ATOM     45  N   UNL A   1      39.768  30.613  32.125  1.00  0.00    -0.248 NA
ATOM     46  C   UNL A   1      38.055  32.192  31.957  1.00  0.00     0.031 C 
ATOM     47  C   UNL A   1      39.050  29.439  27.873  1.00  0.00     0.029 A 
ATOM     48  N   UNL A   1      40.350  29.129  29.669  1.00  0.00    -0.354 N 
ATOM     49  C   UNL A   1      39.653  31.298  33.328  1.00  0.00     0.074 A 
ATOM     50  C   UNL A   1      38.599  32.275  33.163  1.00  0.00     0.031 C 
ATOM     51  C   UNL A   1      39.997  28.543  27.540  1.00  0.00     0.029 A 
ATOM     52  C   UNL A   1      40.872  28.318  28.690  1.00  0.00     0.049 A 
ATOM     53  H   UNL A   1      40.722  29.184  30.578  1.00  0.00     0.167 HD
ATOM     54  C   UNL A   1      40.340  31.109  34.478  1.00  0.00     0.034 A 
ATOM     55  C   UNL A   1      41.932  27.485  28.722  1.00  0.00     0.034 A 
ATOM     56  C   UNL A   1      41.374  30.129  34.653  1.00  0.00     0.049 A 
ATOM     57  C   UNL A   1      42.694  27.308  30.010  1.00  0.00     0.074 A 
ATOM     58  C   UNL A   1      42.087  29.824  35.799  1.00  0.00     0.029 A 
ATOM     59  N   UNL A   1      41.855  29.304  33.649  1.00  0.00    -0.354 N 
ATOM     60  N   UNL A   1      42.460  27.837  31.187  1.00  0.00    -0.248 NA
ATOM     61  C   UNL A   1      43.845  26.391  29.983  1.00  0.00     0.031 C 
ATOM     62  C   UNL A   1      43.004  28.814  35.485  1.00  0.00     0.029 A 
ATOM     63  C   UNL A   1      42.865  28.497  34.143  1.00  0.00     0.049 A 
ATOM     64  H   UNL A   1      41.526  29.294  32.721  1.00  0.00     0.167 HD
ATOM     65  C   UNL A   1      43.414  27.299  32.045  1.00  0.00     0.074 A 
ATOM     66  C   UNL A   1      44.218  26.387  31.257  1.00  0.00     0.031 C 
ATOM     67  C   UNL A   1      43.618  27.551  33.361  1.00  0.00     0.034 A 
BRANCH  54  68
ATOM     68  C   UNL A   1      39.937  31.939  35.662  1.00  0.00     0.023 A 
ATOM     69  C   UNL A   1      40.537  33.203  35.840  1.00  0.00     0.012 A 
ATOM     70  C   UNL A   1      38.957  31.502  36.569  1.00  0.00     0.148 A 
ATOM     71  C   UNL A   1      40.175  34.014  36.913  1.00  0.00     0.002 A 
ATOM     72  C   UNL A   1      38.584  32.328  37.625  1.00  0.00     0.091 A 
ATOM     73  F   UNL A   1      38.427  30.281  36.405  1.00  0.00    -0.205 F 
ATOM     74  C   UNL A   1      39.192  33.581  37.800  1.00  0.00     0.022 A 
BRANCH  72  75
ATOM     75  S   UNL A   1      37.295  31.857  38.785  1.00  0.00     0.127 S 
ATOM     76  O   UNL A   1      37.968  32.041  40.068  1.00  0.00    -0.237 OA
ATOM     77  O   UNL A   1      36.242  32.834  38.505  1.00  0.00    -0.237 OA
ATOM     78  O   UNL A   1      36.945  30.486  38.439  1.00  0.00    -0.744 OA
ENDBRANCH  72  75
ENDBRANCH  54  68
BRANCH  55  79
ATOM     79  C   UNL A   1      42.289  26.695  27.513  1.00  0.00     0.023 A 
ATOM     80  C   UNL A   1      42.944  27.331  26.442  1.00  0.00     0.012 A 
ATOM     81  C   UNL A   1      42.009  25.318  27.427  1.00  0.00     0.148 A 
ATOM     82  C   UNL A   1      43.299  26.614  25.299  1.00  0.00     0.002 A 
ATOM     83  C   UNL A   1      42.404  24.600  26.302  1.00  0.00     0.091 A 
ATOM     84  F   UNL A   1      41.357  24.732  28.442  1.00  0.00    -0.205 F 
ATOM     85  C   UNL A   1      43.040  25.247  25.233  1.00  0.00     0.022 A 
BRANCH  83  86
ATOM     86  S   UNL A   1      42.201  22.817  26.210  1.00  0.00     0.127 S 
ATOM     87  O   UNL A   1      42.965  22.366  27.369  1.00  0.00    -0.237 OA
ATOM     88  O   UNL A   1      40.751  22.657  26.329  1.00  0.00    -0.237 OA
ATOM     89  O   UNL A   1      42.733  22.446  24.904  1.00  0.00    -0.744 OA
ENDBRANCH  83  86
ENDBRANCH  55  79
BRANCH  67  90
ATOM     90  C   UNL A   1      44.751  26.838  34.045  1.00  0.00     0.023 A 
ATOM     91  C   UNL A   1      46.012  27.463  34.116  1.00  0.00     0.012 A 
ATOM     92  C   UNL A   1      44.552  25.605  34.698  1.00  0.00     0.148 A 
ATOM     93  C   UNL A   1      47.061  26.864  34.812  1.00  0.00     0.002 A 
ATOM     94  C   UNL A   1      45.594  25.032  35.418  1.00  0.00     0.091 A 
ATOM     95  F   UNL A   1      43.353  25.012  34.600  1.00  0.00    -0.205 F 
ATOM     96  C   UNL A   1      46.850  25.657  35.473  1.00  0.00     0.022 A 
BRANCH  94  97
ATOM     97  S   UNL A   1      45.361  23.521  36.362  1.00  0.00     0.127 S 
ATOM     98  O   UNL A   1      46.709  22.959  36.372  1.00  0.00    -0.237 OA
ATOM     99  O   UNL A   1      44.900  24.018  37.661  1.00  0.00    -0.237 OA
ATOM    100  O   UNL A   1      44.358  22.759  35.628  1.00  0.00    -0.744 OA
ENDBRANCH  94  97
ENDBRANCH  67  90
ENDBRANCH  41  42
ENDBRANCH  34  36
ENDBRANCH  33  34
ENDBRANCH  32  33
ENDBRANCH   1  32
TORSDOF 21
ENDMDL
MODEL 3
REMARK VINA RESULT:     -11.4      5.598      8.767
REMARK SMILES CC(=O)NS(=O)(=O)c1cc(-c2ccn(C(F)F)c(=O)c2)ccc1C(=O)OCCOCCOC(=O)c1ccc(-c2c3nc(c(-c4cccc(S(=O)(=O)[O-])c4F)c4ccc([nH]4)c(-c4cccc(S(=O)(=O)[O-])c4F)c4nc(c(-c5cccc(S(=O)(=O)[O-])c5F)c5ccc2[nH]5)C=C4)C=C3)cc1
REMARK SMILES IDX 30 1 29 2 28 3 27 4 26 5 24 6 25 7 23 8 8 9 9 10 10 11 22 12
REMARK SMILES IDX 21 13 5 14 6 15 7 16 4 17 1 18 2 19 3 20 11 22 12 23 20 24
REMARK SMILES IDX 13 25 18 26 14 27 19 28 15 29 16 30 17 31 31 32 32 33 33 34
REMARK SMILES IDX 34 35 35 36 36 37 97 38 37 39 96 40 38 41 39 42 40 43 90 44
REMARK SMILES IDX 41 45 95 46 89 47 91 48 42 49 94 50 88 51 87 52 43 54 75 55
REMARK SMILES IDX 55 56 74 57 56 58 59 59 73 60 92 61 57 62 58 63 72 65 93 66
REMARK SMILES IDX 60 67 44 68 45 69 53 70 46 71 48 72 54 73 47 74 49 75 50 76
REMARK SMILES IDX 51 77 52 78 76 79 77 80 85 81 78 82 80 83 86 84 79 85 81 86
REMARK SMILES IDX 82 87 83 88 84 89 61 90 62 91 70 92 63 93 65 94 71 95 64 96
REMARK SMILES IDX 66 97 67 98 68 99 69 100
REMARK H PARENT 4 21 91 53 59 64
REMARK Flexibility Score: inf
ROOT
ATOM      1  C   UNL A   1      37.159  20.578  24.656  1.00  0.00     0.202 C 
ENDROOT
BRANCH   1   2
ATOM      2  O   UNL A   1      36.863  21.747  25.424  1.00  0.00    -0.374 OA
BRANCH   2   3
ATOM      3  C   UNL A   1      36.732  22.952  24.658  1.00  0.00     0.202 C 
BRANCH   3   4
ATOM      4  C   UNL A   1      35.966  22.730  23.356  1.00  0.00     0.261 C 
BRANCH   4   5
ATOM      5  O   UNL A   1      35.043  23.819  23.166  1.00  0.00    -0.460 OA
BRANCH   5   6
ATOM      6  C   UNL A   1      33.744  23.509  23.081  1.00  0.00     0.339 C 
ATOM      7  O   UNL A   1      33.285  22.377  23.019  1.00  0.00    -0.246 OA
BRANCH   6   8
ATOM      8  C   UNL A   1      32.855  24.709  23.151  1.00  0.00     0.080 A 
ATOM      9  C   UNL A   1      32.450  25.440  24.285  1.00  0.00     0.103 A 
ATOM     10  C   UNL A   1      31.664  26.597  24.124  1.00  0.00     0.032 A 
ATOM     11  C   UNL A   1      31.172  26.968  22.869  1.00  0.00    -0.017 A 
ATOM     12  C   UNL A   1      32.377  25.126  21.889  1.00  0.00     0.018 A 
ATOM     13  C   UNL A   1      31.526  26.222  21.750  1.00  0.00     0.010 A 
BRANCH   9  14
ATOM     14  S   UNL A   1      32.765  24.871  25.941  1.00  0.00     0.264 S 
ATOM     15  O   UNL A   1      31.767  25.471  26.791  1.00  0.00    -0.201 OA
ATOM     16  O   UNL A   1      34.189  24.983  26.174  1.00  0.00    -0.201 OA
BRANCH  14  17
ATOM     17  N   UNL A   1      32.410  23.235  25.930  1.00  0.00    -0.249 N 
ATOM     18  C   UNL A   1      30.097  23.178  26.893  1.00  0.00     0.115 C 
ATOM     19  C   UNL A   1      31.110  22.691  25.889  1.00  0.00     0.230 C 
ATOM     20  O   UNL A   1      30.895  21.705  25.198  1.00  0.00    -0.274 OA
ATOM     21  H   UNL A   1      33.166  22.604  25.955  1.00  0.00     0.183 HD
ENDBRANCH  14  17
ENDBRANCH   9  14
BRANCH  11  22
ATOM     22  C   UNL A   1      30.198  28.061  22.749  1.00  0.00    -0.011 A 
ATOM     23  C   UNL A   1      30.576  29.362  22.233  1.00  0.00     0.027 A 
ATOM     24  C   UNL A   1      28.926  27.840  23.116  1.00  0.00     0.080 A 
ATOM     25  C   UNL A   1      29.669  30.339  22.127  1.00  0.00     0.095 A 
ATOM     26  C   UNL A   1      27.908  28.923  23.017  1.00  0.00     0.255 A 
ATOM     27  N   UNL A   1      28.357  30.133  22.509  1.00  0.00    -0.258 N 
ATOM     28  O   UNL A   1      26.762  28.687  23.388  1.00  0.00    -0.269 OA
BRANCH  27  29
ATOM     29  C   UNL A   1      27.394  31.197  22.408  1.00  0.00     0.451 C 
ATOM     30  F   UNL A   1      27.090  31.706  23.627  1.00  0.00    -0.185 F 
ATOM     31  F   UNL A   1      27.865  32.207  21.636  1.00  0.00    -0.185 F 
ENDBRANCH  27  29
ENDBRANCH  11  22
ENDBRANCH   6   8
ENDBRANCH   5   6
ENDBRANCH   4   5
ENDBRANCH   3   4
ENDBRANCH   2   3
ENDBRANCH   1   2
BRANCH   1  32
ATOM     32  C   UNL A   1      38.377  19.805  25.173  1.00  0.00     0.261 C 
BRANCH  32  33
ATOM     33  O   UNL A   1      38.812  20.332  26.437  1.00  0.00    -0.460 OA
BRANCH  33  34
ATOM     34  C   UNL A   1      40.153  20.377  26.619  1.00  0.00     0.338 C 
ATOM     35  O   UNL A   1      40.948  19.478  26.400  1.00  0.00    -0.246 OA
BRANCH  34  36
ATOM     36  C   UNL A   1      40.566  21.753  26.989  1.00  0.00     0.060 A 
ATOM     37  C   UNL A   1      40.065  22.807  26.214  1.00  0.00     0.016 A 
ATOM     38  C   UNL A   1      41.414  22.023  28.070  1.00  0.00     0.016 A 
ATOM     39  C   UNL A   1      40.445  24.120  26.486  1.00  0.00     0.010 A 
ATOM     40  C   UNL A   1      41.798  23.340  28.341  1.00  0.00     0.010 A 
ATOM     41  C   UNL A   1      41.339  24.390  27.530  1.00  0.00    -0.014 A 
BRANCH  41  42
ATOM     42  C   UNL A   1      41.892  25.756  27.676  1.00  0.00     0.031 A 
ATOM     43  C   UNL A   1      41.066  26.803  28.367  1.00  0.00     0.074 A 
ATOM     44  C   UNL A   1      43.120  26.058  27.216  1.00  0.00     0.049 A 
ATOM     45  N   UNL A   1      41.388  28.027  28.690  1.00  0.00    -0.248 NA
ATOM     46  C   UNL A   1      39.697  26.418  28.749  1.00  0.00     0.031 C 
ATOM     47  C   UNL A   1      44.006  25.140  26.505  1.00  0.00     0.029 A 
ATOM     48  N   UNL A   1      43.824  27.234  27.272  1.00  0.00    -0.354 N 
ATOM     49  C   UNL A   1      40.267  28.559  29.315  1.00  0.00     0.074 A 
ATOM     50  C   UNL A   1      39.246  27.534  29.304  1.00  0.00     0.031 C 
ATOM     51  C   UNL A   1      45.135  25.794  26.174  1.00  0.00     0.029 A 
ATOM     52  C   UNL A   1      45.050  27.173  26.655  1.00  0.00     0.049 A 
ATOM     53  H   UNL A   1      43.483  28.046  27.714  1.00  0.00     0.167 HD
ATOM     54  C   UNL A   1      40.111  29.780  29.878  1.00  0.00     0.034 A 
ATOM     55  C   UNL A   1      45.997  28.120  26.501  1.00  0.00     0.034 A 
ATOM     56  C   UNL A   1      41.127  30.795  29.908  1.00  0.00     0.049 A 
ATOM     57  C   UNL A   1      45.791  29.478  27.119  1.00  0.00     0.074 A 
ATOM     58  C   UNL A   1      41.082  32.041  30.505  1.00  0.00     0.029 A 
ATOM     59  N   UNL A   1      42.367  30.684  29.299  1.00  0.00    -0.354 N 
ATOM     60  N   UNL A   1      44.795  29.907  27.858  1.00  0.00    -0.248 NA
ATOM     61  C   UNL A   1      46.855  30.473  26.913  1.00  0.00     0.031 C 
ATOM     62  C   UNL A   1      42.298  32.688  30.256  1.00  0.00     0.029 A 
ATOM     63  C   UNL A   1      43.094  31.846  29.496  1.00  0.00     0.049 A 
ATOM     64  H   UNL A   1      42.684  29.897  28.801  1.00  0.00     0.167 HD
ATOM     65  C   UNL A   1      45.124  31.208  28.226  1.00  0.00     0.074 A 
ATOM     66  C   UNL A   1      46.421  31.491  27.646  1.00  0.00     0.031 C 
ATOM     67  C   UNL A   1      44.409  32.093  28.962  1.00  0.00     0.034 A 
BRANCH  54  68
ATOM     68  C   UNL A   1      38.810  30.054  30.573  1.00  0.00     0.023 A 
ATOM     69  C   UNL A   1      38.587  29.487  31.844  1.00  0.00     0.012 A 
ATOM     70  C   UNL A   1      37.831  30.886  30.003  1.00  0.00     0.148 A 
ATOM     71  C   UNL A   1      37.401  29.735  32.533  1.00  0.00     0.002 A 
ATOM     72  C   UNL A   1      36.660  31.148  30.706  1.00  0.00     0.091 A 
ATOM     73  F   UNL A   1      38.045  31.384  28.776  1.00  0.00    -0.205 F 
ATOM     74  C   UNL A   1      36.442  30.572  31.969  1.00  0.00     0.022 A 
BRANCH  72  75
ATOM     75  S   UNL A   1      35.395  32.251  30.063  1.00  0.00     0.127 S 
ATOM     76  O   UNL A   1      34.483  32.351  31.199  1.00  0.00    -0.237 OA
ATOM     77  O   UNL A   1      36.152  33.472  29.781  1.00  0.00    -0.237 OA
ATOM     78  O   UNL A   1      34.869  31.587  28.878  1.00  0.00    -0.744 OA
ENDBRANCH  72  75
ENDBRANCH  54  68
BRANCH  55  79
ATOM     79  C   UNL A   1      47.264  27.791  25.793  1.00  0.00     0.023 A 
ATOM     80  C   UNL A   1      48.379  27.361  26.538  1.00  0.00     0.012 A 
ATOM     81  C   UNL A   1      47.365  27.875  24.392  1.00  0.00     0.148 A 
ATOM     82  C   UNL A   1      49.577  27.038  25.900  1.00  0.00     0.002 A 
ATOM     83  C   UNL A   1      48.549  27.511  23.759  1.00  0.00     0.091 A 
ATOM     84  F   UNL A   1      46.304  28.316  23.699  1.00  0.00    -0.205 F 
ATOM     85  C   UNL A   1      49.659  27.101  24.511  1.00  0.00     0.022 A 
BRANCH  83  86
ATOM     86  S   UNL A   1      48.678  27.461  21.967  1.00  0.00     0.127 S 
ATOM     87  O   UNL A   1      48.724  26.026  21.708  1.00  0.00    -0.237 OA
ATOM     88  O   UNL A   1      47.443  28.124  21.543  1.00  0.00    -0.237 OA
ATOM     89  O   UNL A   1      49.889  28.211  21.658  1.00  0.00    -0.744 OA
ENDBRANCH  83  86
ENDBRANCH  55  79
BRANCH  67  90
ATOM     90  C   UNL A   1      45.001  33.456  29.190  1.00  0.00     0.023 A 
ATOM     91  C   UNL A   1      45.815  33.670  30.319  1.00  0.00     0.012 A 
ATOM     92  C   UNL A   1      44.837  34.491  28.248  1.00  0.00     0.148 A 
ATOM     93  C   UNL A   1      46.444  34.899  30.516  1.00  0.00     0.002 A 
ATOM     94  C   UNL A   1      45.495  35.702  28.435  1.00  0.00     0.091 A 
ATOM     95  F   UNL A   1      44.039  34.279  27.190  1.00  0.00    -0.205 F 
ATOM     96  C   UNL A   1      46.295  35.910  29.570  1.00  0.00     0.022 A 
BRANCH  94  97
ATOM     97  S   UNL A   1      45.412  37.013  27.209  1.00  0.00     0.127 S 
ATOM     98  O   UNL A   1      43.982  37.062  26.915  1.00  0.00    -0.237 OA
ATOM     99  O   UNL A   1      45.922  38.174  27.942  1.00  0.00    -0.237 OA
ATOM    100  O   UNL A   1      46.273  36.574  26.118  1.00  0.00    -0.744 OA
ENDBRANCH  94  97
ENDBRANCH  67  90
ENDBRANCH  41  42
ENDBRANCH  34  36
ENDBRANCH  33  34
ENDBRANCH  32  33
ENDBRANCH   1  32
TORSDOF 21
ENDMDL
