MODEL 1
REMARK VINA RESULT:     -10.8      0.000      0.000
REMARK SMILES O=C(OCCOCCOC(=O)c1nn2cc(Br)cnc2c1Br)c1ccc(-c2c3nc(c(-c4cccc(S(=O)(=O)[O-])c4F)c4ccc([nH]4)c(-c4cccc(S(=O)(=O)[O-])c4F)c4nc(c(-c5cccc(S(=O)(=O)[O-])c5F)c5ccc2[nH]5)C=C4)C=C3)cc1
REMARK SMILES IDX 4 1 3 2 2 3 1 4 23 5 24 6 85 7 25 8 84 9 26 10 27 11 28 12
REMARK SMILES IDX 78 13 29 14 83 15 77 16 79 17 30 18 82 19 76 20 75 21 31 23
REMARK SMILES IDX 63 24 43 25 62 26 44 27 47 28 61 29 80 30 45 31 46 32 60 34
REMARK SMILES IDX 81 35 48 36 32 37 33 38 41 39 34 40 36 41 42 42 35 43 37 44
REMARK SMILES IDX 38 45 39 46 40 47 64 48 65 49 73 50 66 51 68 52 74 53 67 54
REMARK SMILES IDX 69 55 70 56 71 57 72 58 49 59 50 60 58 61 51 62 53 63 59 64
REMARK SMILES IDX 52 65 54 66 55 67 56 68 57 69 5 70 6 71 7 72 8 73 9 74 10 75
REMARK SMILES IDX 11 76 12 77 13 78 21 79 14 80 20 81 22 82 15 83 19 84 16 85
REMARK SMILES IDX 18 86 17 87
REMARK H PARENT 79 22 47 33
REMARK Flexibility Score: inf
ROOT
ATOM      1  C   UNL A   1      34.226  32.737  28.170  1.00  0.00     0.261 C 
ENDROOT
BRANCH   1   2
ATOM      2  O   UNL A   1      34.378  32.804  29.597  1.00  0.00    -0.460 OA
BRANCH   2   3
ATOM      3  C   UNL A   1      35.209  32.101  30.399  1.00  0.00     0.338 C 
ATOM      4  O   UNL A   1      34.960  32.073  31.604  1.00  0.00    -0.246 OA
BRANCH   3   5
ATOM      5  C   UNL A   1      36.339  31.267  29.891  1.00  0.00     0.060 A 
ATOM      6  C   UNL A   1      36.332  29.882  29.747  1.00  0.00     0.016 A 
ATOM      7  C   UNL A   1      37.542  31.955  29.633  1.00  0.00     0.016 A 
ATOM      8  C   UNL A   1      37.521  29.187  29.600  1.00  0.00     0.010 A 
ATOM      9  C   UNL A   1      38.730  31.266  29.421  1.00  0.00     0.010 A 
ATOM     10  C   UNL A   1      38.727  29.880  29.514  1.00  0.00    -0.014 A 
BRANCH  10  11
ATOM     11  C   UNL A   1      39.943  29.083  29.584  1.00  0.00     0.031 A 
ATOM     12  C   UNL A   1      40.541  28.900  30.931  1.00  0.00     0.074 A 
ATOM     13  C   UNL A   1      40.526  28.560  28.489  1.00  0.00     0.049 A 
ATOM     14  N   UNL A   1      41.673  29.354  31.367  1.00  0.00    -0.248 NA
ATOM     15  C   UNL A   1      39.733  28.212  31.944  1.00  0.00     0.031 C 
ATOM     16  C   UNL A   1      39.965  28.426  27.141  1.00  0.00     0.029 A 
ATOM     17  N   UNL A   1      41.725  27.921  28.394  1.00  0.00    -0.354 N 
ATOM     18  C   UNL A   1      41.815  28.842  32.657  1.00  0.00     0.074 A 
ATOM     19  C   UNL A   1      40.541  28.266  33.004  1.00  0.00     0.031 C 
ATOM     20  C   UNL A   1      40.698  27.526  26.449  1.00  0.00     0.029 A 
ATOM     21  C   UNL A   1      41.853  27.156  27.245  1.00  0.00     0.049 A 
ATOM     22  H   UNL A   1      42.433  27.996  29.075  1.00  0.00     0.167 HD
ATOM     23  C   UNL A   1      43.025  28.762  33.274  1.00  0.00     0.034 A 
ATOM     24  C   UNL A   1      42.799  26.219  27.012  1.00  0.00     0.034 A 
ATOM     25  C   UNL A   1      44.013  29.591  32.637  1.00  0.00     0.049 A 
ATOM     26  C   UNL A   1      43.954  26.518  27.887  1.00  0.00     0.074 A 
ATOM     27  C   UNL A   1      44.181  30.943  32.420  1.00  0.00     0.029 A 
ATOM     28  N   UNL A   1      44.932  28.961  31.837  1.00  0.00    -0.354 N 
ATOM     29  N   UNL A   1      44.721  27.563  27.749  1.00  0.00    -0.248 NA
ATOM     30  C   UNL A   1      44.069  25.821  29.157  1.00  0.00     0.031 C 
ATOM     31  C   UNL A   1      44.888  31.038  31.185  1.00  0.00     0.029 A 
ATOM     32  C   UNL A   1      45.115  29.739  30.726  1.00  0.00     0.049 A 
ATOM     33  H   UNL A   1      45.379  28.104  32.027  1.00  0.00     0.167 HD
ATOM     34  C   UNL A   1      45.081  27.905  29.045  1.00  0.00     0.074 A 
ATOM     35  C   UNL A   1      44.779  26.720  29.842  1.00  0.00     0.031 C 
ATOM     36  C   UNL A   1      45.317  29.206  29.394  1.00  0.00     0.034 A 
BRANCH  23  37
ATOM     37  C   UNL A   1      43.430  27.698  34.270  1.00  0.00     0.023 A 
ATOM     38  C   UNL A   1      43.827  28.130  35.559  1.00  0.00     0.012 A 
ATOM     39  C   UNL A   1      43.706  26.353  33.938  1.00  0.00     0.148 A 
ATOM     40  C   UNL A   1      44.513  27.289  36.442  1.00  0.00     0.002 A 
ATOM     41  C   UNL A   1      44.315  25.498  34.852  1.00  0.00     0.091 A 
ATOM     42  F   UNL A   1      43.509  25.915  32.691  1.00  0.00    -0.205 F 
ATOM     43  C   UNL A   1      44.751  25.968  36.092  1.00  0.00     0.022 A 
BRANCH  41  44
ATOM     44  S   UNL A   1      44.580  23.763  34.464  1.00  0.00     0.127 S 
ATOM     45  O   UNL A   1      45.633  23.844  33.458  1.00  0.00    -0.237 OA
ATOM     46  O   UNL A   1      44.998  23.221  35.757  1.00  0.00    -0.237 OA
ATOM     47  O   UNL A   1      43.283  23.276  34.009  1.00  0.00    -0.744 OA
ENDBRANCH  41  44
ENDBRANCH  23  37
BRANCH  24  48
ATOM     48  C   UNL A   1      42.661  24.937  26.291  1.00  0.00     0.023 A 
ATOM     49  C   UNL A   1      43.647  24.557  25.360  1.00  0.00     0.012 A 
ATOM     50  C   UNL A   1      41.723  23.966  26.711  1.00  0.00     0.148 A 
ATOM     51  C   UNL A   1      43.721  23.241  24.891  1.00  0.00     0.002 A 
ATOM     52  C   UNL A   1      41.797  22.661  26.235  1.00  0.00     0.091 A 
ATOM     53  F   UNL A   1      40.824  24.294  27.648  1.00  0.00    -0.205 F 
ATOM     54  C   UNL A   1      42.802  22.292  25.333  1.00  0.00     0.022 A 
BRANCH  52  55
ATOM     55  S   UNL A   1      40.660  21.380  26.783  1.00  0.00     0.127 S 
ATOM     56  O   UNL A   1      39.379  21.872  26.276  1.00  0.00    -0.237 OA
ATOM     57  O   UNL A   1      41.179  20.202  26.091  1.00  0.00    -0.237 OA
ATOM     58  O   UNL A   1      40.758  21.357  28.236  1.00  0.00    -0.744 OA
ENDBRANCH  52  55
ENDBRANCH  24  48
BRANCH  36  59
ATOM     59  C   UNL A   1      45.466  30.226  28.290  1.00  0.00     0.023 A 
ATOM     60  C   UNL A   1      44.342  30.813  27.671  1.00  0.00     0.012 A 
ATOM     61  C   UNL A   1      46.742  30.749  28.010  1.00  0.00     0.148 A 
ATOM     62  C   UNL A   1      44.486  31.874  26.776  1.00  0.00     0.002 A 
ATOM     63  C   UNL A   1      46.877  31.840  27.157  1.00  0.00     0.091 A 
ATOM     64  F   UNL A   1      47.804  30.191  28.612  1.00  0.00    -0.205 F 
ATOM     65  C   UNL A   1      45.752  32.398  26.530  1.00  0.00     0.022 A 
BRANCH  63  66
ATOM     66  S   UNL A   1      48.457  32.660  26.916  1.00  0.00     0.127 S 
ATOM     67  O   UNL A   1      48.128  33.671  25.915  1.00  0.00    -0.237 OA
ATOM     68  O   UNL A   1      48.743  33.192  28.251  1.00  0.00    -0.237 OA
ATOM     69  O   UNL A   1      49.383  31.621  26.483  1.00  0.00    -0.744 OA
ENDBRANCH  63  66
ENDBRANCH  36  59
ENDBRANCH  10  11
ENDBRANCH   3   5
ENDBRANCH   2   3
ENDBRANCH   1   2
BRANCH   1  70
ATOM     70  C   UNL A   1      33.285  31.627  27.707  1.00  0.00     0.202 C 
BRANCH  70  71
ATOM     71  O   UNL A   1      33.869  30.393  27.305  1.00  0.00    -0.374 OA
BRANCH  71  72
ATOM     72  C   UNL A   1      33.321  29.744  26.149  1.00  0.00     0.202 C 
BRANCH  72  73
ATOM     73  C   UNL A   1      33.817  28.327  25.822  1.00  0.00     0.261 C 
BRANCH  73  74
ATOM     74  O   UNL A   1      33.882  28.115  24.398  1.00  0.00    -0.458 OA
BRANCH  74  75
ATOM     75  C   UNL A   1      33.009  27.192  23.887  1.00  0.00     0.360 C 
ATOM     76  O   UNL A   1      33.172  25.987  23.916  1.00  0.00    -0.244 OA
BRANCH  75  77
ATOM     77  C   UNL A   1      31.764  27.822  23.433  1.00  0.00     0.187 A 
ATOM     78  N   UNL A   1      31.801  28.894  22.614  1.00  0.00    -0.158 NA
ATOM     79  C   UNL A   1      30.436  27.472  23.734  1.00  0.00     0.097 A 
ATOM     80  N   UNL A   1      30.509  29.225  22.405  1.00  0.00    -0.219 N 
ATOM     81  C   UNL A   1      29.632  28.402  23.119  1.00  0.00     0.170 A 
ATOM     82  Br  UNL A   1      29.898  26.061  24.841  1.00  0.00    -0.044 Br
ATOM     83  C   UNL A   1      30.030  30.264  21.617  1.00  0.00     0.132 A 
ATOM     84  N   UNL A   1      28.277  28.612  23.113  1.00  0.00    -0.235 NA
ATOM     85  C   UNL A   1      28.716  30.515  21.558  1.00  0.00     0.054 A 
ATOM     86  C   UNL A   1      27.863  29.608  22.384  1.00  0.00     0.131 A 
ATOM     87  Br  UNL A   1      27.933  31.873  20.580  1.00  0.00    -0.047 Br
ENDBRANCH  75  77
ENDBRANCH  74  75
ENDBRANCH  73  74
ENDBRANCH  72  73
ENDBRANCH  71  72
ENDBRANCH  70  71
ENDBRANCH   1  70
TORSDOF 17
ENDMDL
MODEL 2
REMARK VINA RESULT:     -10.8      1.959      3.027
REMARK SMILES O=C(OCCOCCOC(=O)c1nn2cc(Br)cnc2c1Br)c1ccc(-c2c3nc(c(-c4cccc(S(=O)(=O)[O-])c4F)c4ccc([nH]4)c(-c4cccc(S(=O)(=O)[O-])c4F)c4nc(c(-c5cccc(S(=O)(=O)[O-])c5F)c5ccc2[nH]5)C=C4)C=C3)cc1
REMARK SMILES IDX 4 1 3 2 2 3 1 4 23 5 24 6 85 7 25 8 84 9 26 10 27 11 28 12
REMARK SMILES IDX 78 13 29 14 83 15 77 16 79 17 30 18 82 19 76 20 75 21 31 23
REMARK SMILES IDX 63 24 43 25 62 26 44 27 47 28 61 29 80 30 45 31 46 32 60 34
REMARK SMILES IDX 81 35 48 36 32 37 33 38 41 39 34 40 36 41 42 42 35 43 37 44
REMARK SMILES IDX 38 45 39 46 40 47 64 48 65 49 73 50 66 51 68 52 74 53 67 54
REMARK SMILES IDX 69 55 70 56 71 57 72 58 49 59 50 60 58 61 51 62 53 63 59 64
REMARK SMILES IDX 52 65 54 66 55 67 56 68 57 69 5 70 6 71 7 72 8 73 9 74 10 75
REMARK SMILES IDX 11 76 12 77 13 78 21 79 14 80 20 81 22 82 15 83 19 84 16 85
REMARK SMILES IDX 18 86 17 87
REMARK H PARENT 79 22 47 33
REMARK Flexibility Score: inf
ROOT
ATOM      1  C   UNL A   1      33.169  31.388  27.324  1.00  0.00     0.261 C 
ENDROOT
BRANCH   1   2
ATOM      2  O   UNL A   1      34.089  31.855  28.324  1.00  0.00    -0.460 OA
BRANCH   2   3
ATOM      3  C   UNL A   1      35.380  32.231  28.186  1.00  0.00     0.338 C 
ATOM      4  O   UNL A   1      35.615  33.268  27.567  1.00  0.00    -0.246 OA
BRANCH   3   5
ATOM      5  C   UNL A   1      36.521  31.522  28.839  1.00  0.00     0.060 A 
ATOM      6  C   UNL A   1      37.752  32.085  29.168  1.00  0.00     0.016 A 
ATOM      7  C   UNL A   1      36.350  30.138  29.040  1.00  0.00     0.016 A 
ATOM      8  C   UNL A   1      38.841  31.276  29.446  1.00  0.00     0.010 A 
ATOM      9  C   UNL A   1      37.424  29.326  29.382  1.00  0.00     0.010 A 
ATOM     10  C   UNL A   1      38.689  29.892  29.477  1.00  0.00    -0.014 A 
BRANCH  10  11
ATOM     11  C   UNL A   1      39.911  29.104  29.554  1.00  0.00     0.031 A 
ATOM     12  C   UNL A   1      40.508  28.933  30.904  1.00  0.00     0.074 A 
ATOM     13  C   UNL A   1      40.502  28.581  28.463  1.00  0.00     0.049 A 
ATOM     14  N   UNL A   1      41.634  29.399  31.341  1.00  0.00    -0.248 NA
ATOM     15  C   UNL A   1      39.703  28.243  31.918  1.00  0.00     0.031 C 
ATOM     16  C   UNL A   1      39.946  28.436  27.114  1.00  0.00     0.029 A 
ATOM     17  N   UNL A   1      41.706  27.952  28.375  1.00  0.00    -0.354 N 
ATOM     18  C   UNL A   1      41.777  28.894  32.633  1.00  0.00     0.074 A 
ATOM     19  C   UNL A   1      40.507  28.310  32.980  1.00  0.00     0.031 C 
ATOM     20  C   UNL A   1      40.688  27.539  26.429  1.00  0.00     0.029 A 
ATOM     21  C   UNL A   1      41.844  27.182  27.230  1.00  0.00     0.049 A 
ATOM     22  H   UNL A   1      42.411  28.036  29.057  1.00  0.00     0.167 HD
ATOM     23  C   UNL A   1      42.986  28.828  33.254  1.00  0.00     0.034 A 
ATOM     24  C   UNL A   1      42.798  26.252  27.004  1.00  0.00     0.034 A 
ATOM     25  C   UNL A   1      43.969  29.661  32.616  1.00  0.00     0.049 A 
ATOM     26  C   UNL A   1      43.948  26.564  27.880  1.00  0.00     0.074 A 
ATOM     27  C   UNL A   1      44.127  31.013  32.392  1.00  0.00     0.029 A 
ATOM     28  N   UNL A   1      44.895  29.034  31.821  1.00  0.00    -0.354 N 
ATOM     29  N   UNL A   1      44.707  27.616  27.740  1.00  0.00    -0.248 NA
ATOM     30  C   UNL A   1      44.065  25.875  29.155  1.00  0.00     0.031 C 
ATOM     31  C   UNL A   1      44.836  31.108  31.159  1.00  0.00     0.029 A 
ATOM     32  C   UNL A   1      45.075  29.808  30.707  1.00  0.00     0.049 A 
ATOM     33  H   UNL A   1      45.349  28.183  32.017  1.00  0.00     0.167 HD
ATOM     34  C   UNL A   1      45.061  27.967  29.035  1.00  0.00     0.074 A 
ATOM     35  C   UNL A   1      44.766  26.783  29.837  1.00  0.00     0.031 C 
ATOM     36  C   UNL A   1      45.285  29.271  29.378  1.00  0.00     0.034 A 
BRANCH  23  37
ATOM     37  C   UNL A   1      43.397  27.771  34.257  1.00  0.00     0.023 A 
ATOM     38  C   UNL A   1      43.809  28.214  35.537  1.00  0.00     0.012 A 
ATOM     39  C   UNL A   1      43.664  26.422  33.935  1.00  0.00     0.148 A 
ATOM     40  C   UNL A   1      44.502  27.379  36.421  1.00  0.00     0.002 A 
ATOM     41  C   UNL A   1      44.278  25.573  34.851  1.00  0.00     0.091 A 
ATOM     42  F   UNL A   1      43.452  25.972  32.695  1.00  0.00    -0.205 F 
ATOM     43  C   UNL A   1      44.730  26.054  36.081  1.00  0.00     0.022 A 
BRANCH  41  44
ATOM     44  S   UNL A   1      44.532  23.834  34.477  1.00  0.00     0.127 S 
ATOM     45  O   UNL A   1      45.419  23.907  33.322  1.00  0.00    -0.237 OA
ATOM     46  O   UNL A   1      45.154  23.344  35.708  1.00  0.00    -0.237 OA
ATOM     47  O   UNL A   1      43.195  23.301  34.238  1.00  0.00    -0.744 OA
ENDBRANCH  41  44
ENDBRANCH  23  37
BRANCH  24  48
ATOM     48  C   UNL A   1      42.673  24.965  26.288  1.00  0.00     0.023 A 
ATOM     49  C   UNL A   1      43.686  24.568  25.396  1.00  0.00     0.012 A 
ATOM     50  C   UNL A   1      41.711  24.007  26.683  1.00  0.00     0.148 A 
ATOM     51  C   UNL A   1      43.764  23.248  24.941  1.00  0.00     0.002 A 
ATOM     52  C   UNL A   1      41.788  22.697  26.220  1.00  0.00     0.091 A 
ATOM     53  F   UNL A   1      40.783  24.352  27.586  1.00  0.00    -0.205 F 
ATOM     54  C   UNL A   1      42.821  22.311  25.358  1.00  0.00     0.022 A 
BRANCH  52  55
ATOM     55  S   UNL A   1      40.620  21.432  26.739  1.00  0.00     0.127 S 
ATOM     56  O   UNL A   1      40.762  21.465  28.194  1.00  0.00    -0.237 OA
ATOM     57  O   UNL A   1      39.357  21.965  26.235  1.00  0.00    -0.237 OA
ATOM     58  O   UNL A   1      41.078  20.193  26.122  1.00  0.00    -0.744 OA
ENDBRANCH  52  55
ENDBRANCH  24  48
BRANCH  36  59
ATOM     59  C   UNL A   1      45.429  30.287  28.270  1.00  0.00     0.023 A 
ATOM     60  C   UNL A   1      44.302  30.861  27.645  1.00  0.00     0.012 A 
ATOM     61  C   UNL A   1      46.701  30.819  27.991  1.00  0.00     0.148 A 
ATOM     62  C   UNL A   1      44.439  31.919  26.744  1.00  0.00     0.002 A 
ATOM     63  C   UNL A   1      46.829  31.907  27.133  1.00  0.00     0.091 A 
ATOM     64  F   UNL A   1      47.766  30.273  28.599  1.00  0.00    -0.205 F 
ATOM     65  C   UNL A   1      45.702  32.453  26.499  1.00  0.00     0.022 A 
BRANCH  63  66
ATOM     66  S   UNL A   1      48.402  32.739  26.893  1.00  0.00     0.127 S 
ATOM     67  O   UNL A   1      48.062  33.760  25.905  1.00  0.00    -0.237 OA
ATOM     68  O   UNL A   1      48.693  33.259  28.232  1.00  0.00    -0.237 OA
ATOM     69  O   UNL A   1      49.333  31.711  26.443  1.00  0.00    -0.744 OA
ENDBRANCH  63  66
ENDBRANCH  36  59
ENDBRANCH  10  11
ENDBRANCH   3   5
ENDBRANCH   2   3
ENDBRANCH   1   2
BRANCH   1  70
ATOM     70  C   UNL A   1      33.182  29.871  27.142  1.00  0.00     0.202 C 
BRANCH  70  71
ATOM     71  O   UNL A   1      33.593  29.362  25.878  1.00  0.00    -0.374 OA
BRANCH  71  72
ATOM     72  C   UNL A   1      32.726  29.586  24.758  1.00  0.00     0.202 C 
BRANCH  72  73
ATOM     73  C   UNL A   1      33.041  28.844  23.450  1.00  0.00     0.261 C 
BRANCH  73  74
ATOM     74  O   UNL A   1      33.697  27.587  23.711  1.00  0.00    -0.458 OA
BRANCH  74  75
ATOM     75  C   UNL A   1      33.548  26.622  22.751  1.00  0.00     0.360 C 
ATOM     76  O   UNL A   1      33.773  26.775  21.566  1.00  0.00    -0.244 OA
BRANCH  75  77
ATOM     77  C   UNL A   1      33.227  25.318  23.343  1.00  0.00     0.187 A 
ATOM     78  N   UNL A   1      34.057  24.269  23.174  1.00  0.00    -0.158 NA
ATOM     79  C   UNL A   1      32.110  24.950  24.115  1.00  0.00     0.097 A 
ATOM     80  N   UNL A   1      33.468  23.242  23.825  1.00  0.00    -0.219 N 
ATOM     81  C   UNL A   1      32.237  23.607  24.379  1.00  0.00     0.170 A 
ATOM     82  Br  UNL A   1      30.690  26.072  24.593  1.00  0.00    -0.044 Br
ATOM     83  C   UNL A   1      33.948  21.944  23.945  1.00  0.00     0.132 A 
ATOM     84  N   UNL A   1      31.433  22.697  25.017  1.00  0.00    -0.235 NA
ATOM     85  C   UNL A   1      33.217  21.011  24.567  1.00  0.00     0.054 A 
ATOM     86  C   UNL A   1      31.901  21.485  25.091  1.00  0.00     0.131 A 
ATOM     87  Br  UNL A   1      33.707  19.242  24.781  1.00  0.00    -0.047 Br
ENDBRANCH  75  77
ENDBRANCH  74  75
ENDBRANCH  73  74
ENDBRANCH  72  73
ENDBRANCH  71  72
ENDBRANCH  70  71
ENDBRANCH   1  70
TORSDOF 17
ENDMDL
MODEL 3
REMARK VINA RESULT:     -10.6      1.956      2.921
REMARK SMILES O=C(OCCOCCOC(=O)c1nn2cc(Br)cnc2c1Br)c1ccc(-c2c3nc(c(-c4cccc(S(=O)(=O)[O-])c4F)c4ccc([nH]4)c(-c4cccc(S(=O)(=O)[O-])c4F)c4nc(c(-c5cccc(S(=O)(=O)[O-])c5F)c5ccc2[nH]5)C=C4)C=C3)cc1
REMARK SMILES IDX 4 1 3 2 2 3 1 4 23 5 24 6 85 7 25 8 84 9 26 10 27 11 28 12
REMARK SMILES IDX 78 13 29 14 83 15 77 16 79 17 30 18 82 19 76 20 75 21 31 23
REMARK SMILES IDX 63 24 43 25 62 26 44 27 47 28 61 29 80 30 45 31 46 32 60 34
REMARK SMILES IDX 81 35 48 36 32 37 33 38 41 39 34 40 36 41 42 42 35 43 37 44
REMARK SMILES IDX 38 45 39 46 40 47 64 48 65 49 73 50 66 51 68 52 74 53 67 54
REMARK SMILES IDX 69 55 70 56 71 57 72 58 49 59 50 60 58 61 51 62 53 63 59 64
REMARK SMILES IDX 52 65 54 66 55 67 56 68 57 69 5 70 6 71 7 72 8 73 9 74 10 75
REMARK SMILES IDX 11 76 12 77 13 78 21 79 14 80 20 81 22 82 15 83 19 84 16 85
REMARK SMILES IDX 18 86 17 87
REMARK H PARENT 79 22 47 33
REMARK Flexibility Score: inf
ROOT
ATOM      1  C   UNL A   1      34.733  33.194  28.513  1.00  0.00     0.261 C 
ENDROOT
BRANCH   1   2
ATOM      2  O   UNL A   1      35.072  32.917  29.882  1.00  0.00    -0.460 OA
BRANCH   2   3
ATOM      3  C   UNL A   1      36.292  32.852  30.461  1.00  0.00     0.338 C 
ATOM      4  O   UNL A   1      36.476  33.498  31.493  1.00  0.00    -0.246 OA
BRANCH   3   5
ATOM      5  C   UNL A   1      37.386  31.953  29.985  1.00  0.00     0.060 A 
ATOM      6  C   UNL A   1      37.228  30.651  29.517  1.00  0.00     0.016 A 
ATOM      7  C   UNL A   1      38.696  32.454  30.123  1.00  0.00     0.016 A 
ATOM      8  C   UNL A   1      38.318  29.801  29.429  1.00  0.00     0.010 A 
ATOM      9  C   UNL A   1      39.800  31.624  29.974  1.00  0.00     0.010 A 
ATOM     10  C   UNL A   1      39.594  30.272  29.733  1.00  0.00    -0.014 A 
BRANCH  10  11
ATOM     11  C   UNL A   1      40.650  29.274  29.833  1.00  0.00     0.031 A 
ATOM     12  C   UNL A   1      41.107  28.925  31.202  1.00  0.00     0.074 A 
ATOM     13  C   UNL A   1      41.216  28.714  28.748  1.00  0.00     0.049 A 
ATOM     14  N   UNL A   1      42.262  29.155  31.738  1.00  0.00    -0.248 NA
ATOM     15  C   UNL A   1      40.121  28.337  32.116  1.00  0.00     0.031 C 
ATOM     16  C   UNL A   1      40.743  28.745  27.360  1.00  0.00     0.029 A 
ATOM     17  N   UNL A   1      42.294  27.883  28.692  1.00  0.00    -0.354 N 
ATOM     18  C   UNL A   1      42.220  28.563  33.000  1.00  0.00     0.074 A 
ATOM     19  C   UNL A   1      40.844  28.199  33.227  1.00  0.00     0.031 C 
ATOM     20  C   UNL A   1      41.364  27.768  26.663  1.00  0.00     0.029 A 
ATOM     21  C   UNL A   1      42.377  27.166  27.509  1.00  0.00     0.049 A 
ATOM     22  H   UNL A   1      42.952  27.801  29.421  1.00  0.00     0.167 HD
ATOM     23  C   UNL A   1      43.349  28.245  33.688  1.00  0.00     0.034 A 
ATOM     24  C   UNL A   1      43.166  26.092  27.281  1.00  0.00     0.034 A 
ATOM     25  C   UNL A   1      44.508  28.921  33.169  1.00  0.00     0.049 A 
ATOM     26  C   UNL A   1      44.286  26.144  28.245  1.00  0.00     0.074 A 
ATOM     27  C   UNL A   1      44.918  30.233  33.047  1.00  0.00     0.029 A 
ATOM     28  N   UNL A   1      45.364  28.183  32.393  1.00  0.00    -0.354 N 
ATOM     29  N   UNL A   1      45.227  27.047  28.223  1.00  0.00    -0.248 NA
ATOM     30  C   UNL A   1      44.187  25.375  29.475  1.00  0.00     0.031 C 
ATOM     31  C   UNL A   1      45.720  30.266  31.869  1.00  0.00     0.029 A 
ATOM     32  C   UNL A   1      45.758  28.971  31.347  1.00  0.00     0.049 A 
ATOM     33  H   UNL A   1      45.645  27.254  32.560  1.00  0.00     0.167 HD
ATOM     34  C   UNL A   1      45.542  27.257  29.558  1.00  0.00     0.074 A 
ATOM     35  C   UNL A   1      44.986  26.104  30.259  1.00  0.00     0.031 C 
ATOM     36  C   UNL A   1      45.967  28.479  30.001  1.00  0.00     0.034 A 
BRANCH  23  37
ATOM     37  C   UNL A   1      43.494  27.079  34.642  1.00  0.00     0.023 A 
ATOM     38  C   UNL A   1      43.598  27.375  36.023  1.00  0.00     0.012 A 
ATOM     39  C   UNL A   1      43.808  25.758  34.251  1.00  0.00     0.148 A 
ATOM     40  C   UNL A   1      44.047  26.429  36.950  1.00  0.00     0.002 A 
ATOM     41  C   UNL A   1      44.174  24.798  35.189  1.00  0.00     0.091 A 
ATOM     42  F   UNL A   1      43.889  25.443  32.955  1.00  0.00    -0.205 F 
ATOM     43  C   UNL A   1      44.328  25.136  36.535  1.00  0.00     0.022 A 
BRANCH  41  44
ATOM     44  S   UNL A   1      44.480  23.096  34.703  1.00  0.00     0.127 S 
ATOM     45  O   UNL A   1      43.229  22.749  34.038  1.00  0.00    -0.237 OA
ATOM     46  O   UNL A   1      45.636  23.234  33.816  1.00  0.00    -0.237 OA
ATOM     47  O   UNL A   1      44.771  22.394  35.948  1.00  0.00    -0.744 OA
ENDBRANCH  41  44
ENDBRANCH  23  37
BRANCH  24  48
ATOM     48  C   UNL A   1      42.869  24.890  26.474  1.00  0.00     0.023 A 
ATOM     49  C   UNL A   1      43.779  24.478  25.483  1.00  0.00     0.012 A 
ATOM     50  C   UNL A   1      41.843  23.996  26.857  1.00  0.00     0.148 A 
ATOM     51  C   UNL A   1      43.696  23.202  24.918  1.00  0.00     0.002 A 
ATOM     52  C   UNL A   1      41.759  22.730  26.286  1.00  0.00     0.091 A 
ATOM     53  F   UNL A   1      41.013  24.346  27.849  1.00  0.00    -0.205 F 
ATOM     54  C   UNL A   1      42.692  22.325  25.324  1.00  0.00     0.022 A 
BRANCH  52  55
ATOM     55  S   UNL A   1      40.506  21.540  26.782  1.00  0.00     0.127 S 
ATOM     56  O   UNL A   1      40.721  21.456  28.227  1.00  0.00    -0.237 OA
ATOM     57  O   UNL A   1      39.275  22.218  26.385  1.00  0.00    -0.237 OA
ATOM     58  O   UNL A   1      40.817  20.313  26.061  1.00  0.00    -0.744 OA
ENDBRANCH  52  55
ENDBRANCH  24  48
BRANCH  36  59
ATOM     59  C   UNL A   1      46.368  29.511  28.974  1.00  0.00     0.023 A 
ATOM     60  C   UNL A   1      47.666  29.537  28.422  1.00  0.00     0.012 A 
ATOM     61  C   UNL A   1      45.377  30.335  28.411  1.00  0.00     0.148 A 
ATOM     62  C   UNL A   1      47.977  30.382  27.355  1.00  0.00     0.002 A 
ATOM     63  C   UNL A   1      45.677  31.138  27.314  1.00  0.00     0.091 A 
ATOM     64  F   UNL A   1      44.142  30.296  28.936  1.00  0.00    -0.205 F 
ATOM     65  C   UNL A   1      46.979  31.172  26.791  1.00  0.00     0.022 A 
BRANCH  63  66
ATOM     66  S   UNL A   1      44.407  32.062  26.444  1.00  0.00     0.127 S 
ATOM     67  O   UNL A   1      45.125  32.534  25.263  1.00  0.00    -0.237 OA
ATOM     68  O   UNL A   1      43.397  31.035  26.174  1.00  0.00    -0.237 OA
ATOM     69  O   UNL A   1      43.963  33.098  27.368  1.00  0.00    -0.744 OA
ENDBRANCH  63  66
ENDBRANCH  36  59
ENDBRANCH  10  11
ENDBRANCH   3   5
ENDBRANCH   2   3
ENDBRANCH   1   2
BRANCH   1  70
ATOM     70  C   UNL A   1      34.480  31.938  27.681  1.00  0.00     0.202 C 
BRANCH  70  71
ATOM     71  O   UNL A   1      33.148  31.440  27.627  1.00  0.00    -0.374 OA
BRANCH  71  72
ATOM     72  C   UNL A   1      32.927  30.208  26.927  1.00  0.00     0.202 C 
BRANCH  72  73
ATOM     73  C   UNL A   1      31.916  30.215  25.770  1.00  0.00     0.261 C 
BRANCH  73  74
ATOM     74  O   UNL A   1      31.355  28.904  25.562  1.00  0.00    -0.458 OA
BRANCH  74  75
ATOM     75  C   UNL A   1      30.991  28.603  24.276  1.00  0.00     0.360 C 
ATOM     76  O   UNL A   1      30.378  29.346  23.533  1.00  0.00    -0.244 OA
BRANCH  75  77
ATOM     77  C   UNL A   1      31.564  27.326  23.838  1.00  0.00     0.187 A 
ATOM     78  N   UNL A   1      30.947  26.163  24.136  1.00  0.00    -0.158 NA
ATOM     79  C   UNL A   1      32.743  27.091  23.108  1.00  0.00     0.097 A 
ATOM     80  N   UNL A   1      31.732  25.200  23.606  1.00  0.00    -0.219 N 
ATOM     81  C   UNL A   1      32.879  25.727  23.004  1.00  0.00     0.170 A 
ATOM     82  Br  UNL A   1      33.929  28.401  22.490  1.00  0.00    -0.044 Br
ATOM     83  C   UNL A   1      31.511  23.829  23.643  1.00  0.00     0.132 A 
ATOM     84  N   UNL A   1      33.852  24.920  22.472  1.00  0.00    -0.235 NA
ATOM     85  C   UNL A   1      32.416  22.987  23.129  1.00  0.00     0.054 A 
ATOM     86  C   UNL A   1      33.625  23.640  22.543  1.00  0.00     0.131 A 
ATOM     87  Br  UNL A   1      32.278  21.145  23.128  1.00  0.00    -0.047 Br
ENDBRANCH  75  77
ENDBRANCH  74  75
ENDBRANCH  73  74
ENDBRANCH  72  73
ENDBRANCH  71  72
ENDBRANCH  70  71
ENDBRANCH   1  70
TORSDOF 17
ENDMDL
