MODEL 1
REMARK VINA RESULT:     -12.3      0.000      0.000
REMARK SMILES CCc1ccc(-c2cc(Cl)cc3c2O[C@@H](C(F)(F)F)C(C(=O)OCCOCCOC(=O)c2ccc(-c4c5nc(c(-c6cccc(S(=O)(=O)[O-])c6F)c6ccc([nH]6)c(-c6cccc(S(=O)(=O)[O-])c6F)c6nc(c(-c7cccc(S(=O)(=O)[O-])c7F)c7ccc4[nH]7)C=C6)C=C5)cc2)=C3)cc1
REMARK SMILES IDX 27 1 26 2 25 3 24 4 23 5 21 6 22 7 20 8 7 9 8 10 13 11 9 12
REMARK SMILES IDX 12 13 14 14 10 15 11 16 95 17 15 18 6 19 3 20 4 21 97 22
REMARK SMILES IDX 5 23 96 24 2 25 1 26 16 27 17 28 18 29 19 30 28 31 29 32
REMARK SMILES IDX 30 33 31 34 32 35 33 36 94 37 34 38 93 39 35 40 36 41 37 42
REMARK SMILES IDX 87 43 38 44 92 45 86 46 88 47 39 48 91 49 85 50 84 51 40 53
REMARK SMILES IDX 72 54 52 55 71 56 53 57 56 58 70 59 89 60 54 61 55 62 69 64
REMARK SMILES IDX 90 65 57 66 41 67 42 68 50 69 43 70 45 71 51 72 44 73 46 74
REMARK SMILES IDX 47 75 48 76 49 77 73 78 74 79 82 80 75 81 77 82 83 83 76 84
REMARK SMILES IDX 78 85 79 86 80 87 81 88 58 89 59 90 67 91 60 92 62 93 68 94
REMARK SMILES IDX 61 95 63 96 64 97 65 98 66 99
REMARK H PARENT 88 52 56 63
REMARK Flexibility Score: inf
ROOT
ATOM      1  C   UNL A   1      31.655  31.401  26.862  1.00  0.00     0.202 C 
ENDROOT
BRANCH   1   2
ATOM      2  O   UNL A   1      31.361  30.790  25.606  1.00  0.00    -0.374 OA
BRANCH   2   3
ATOM      3  C   UNL A   1      31.787  29.448  25.403  1.00  0.00     0.202 C 
BRANCH   3   4
ATOM      4  C   UNL A   1      33.203  29.199  24.860  1.00  0.00     0.261 C 
BRANCH   4   5
ATOM      5  O   UNL A   1      33.322  27.967  24.132  1.00  0.00    -0.460 OA
BRANCH   5   6
ATOM      6  C   UNL A   1      33.385  26.848  24.877  1.00  0.00     0.338 C 
ATOM      7  O   UNL A   1      33.825  26.779  26.016  1.00  0.00    -0.246 OA
BRANCH   6   8
ATOM      8  C   UNL A   1      32.675  25.708  24.248  1.00  0.00     0.087 C 
ATOM      9  C   UNL A   1      33.992  21.937  25.394  1.00  0.00     0.026 A 
ATOM     10  C   UNL A   1      35.285  22.173  25.913  1.00  0.00     0.033 A 
ATOM     11  C   UNL A   1      33.369  23.071  24.831  1.00  0.00     0.135 A 
ATOM     12  C   UNL A   1      36.022  23.286  25.510  1.00  0.00     0.042 A 
ATOM     13  C   UNL A   1      34.166  24.043  24.209  1.00  0.00     0.019 A 
ATOM     14  O   UNL A   1      32.134  23.507  25.358  1.00  0.00    -0.475 OA
ATOM     15  Cl  UNL A   1      37.628  23.494  26.083  1.00  0.00    -0.084 Cl
ATOM     16  C   UNL A   1      35.501  24.169  24.574  1.00  0.00     0.032 A 
ATOM     17  C   UNL A   1      33.502  25.081  23.392  1.00  0.00     0.027 C 
ATOM     18  C   UNL A   1      31.616  24.814  24.861  1.00  0.00     0.316 C 
BRANCH   9  19
ATOM     19  C   UNL A   1      33.857  20.543  24.812  1.00  0.00    -0.015 A 
ATOM     20  C   UNL A   1      33.651  17.675  24.611  1.00  0.00    -0.048 A 
ATOM     21  C   UNL A   1      32.509  18.478  24.694  1.00  0.00     0.004 A 
ATOM     22  C   UNL A   1      34.891  18.321  24.549  1.00  0.00     0.004 A 
ATOM     23  C   UNL A   1      32.611  19.882  24.769  1.00  0.00     0.009 A 
ATOM     24  C   UNL A   1      34.991  19.724  24.639  1.00  0.00     0.009 A 
BRANCH  20  25
ATOM     25  C   UNL A   1      33.578  16.165  24.717  1.00  0.00     0.032 C 
ATOM     26  C   UNL A   1      32.554  15.632  25.711  1.00  0.00     0.009 C 
ENDBRANCH  20  25
ENDBRANCH   9  19
BRANCH  18  27
ATOM     27  C   UNL A   1      30.580  25.525  25.761  1.00  0.00     0.430 C 
ATOM     28  F   UNL A   1      31.230  26.149  26.780  1.00  0.00    -0.167 F 
ATOM     29  F   UNL A   1      29.917  26.493  25.083  1.00  0.00    -0.167 F 
ATOM     30  F   UNL A   1      29.654  24.723  26.315  1.00  0.00    -0.167 F 
ENDBRANCH  18  27
ENDBRANCH   6   8
ENDBRANCH   5   6
ENDBRANCH   4   5
ENDBRANCH   3   4
ENDBRANCH   2   3
ENDBRANCH   1   2
BRANCH   1  31
ATOM     31  C   UNL A   1      32.287  32.796  26.867  1.00  0.00     0.261 C 
BRANCH  31  32
ATOM     32  O   UNL A   1      33.051  33.071  28.051  1.00  0.00    -0.460 OA
BRANCH  32  33
ATOM     33  C   UNL A   1      34.226  33.712  27.837  1.00  0.00     0.338 C 
ATOM     34  O   UNL A   1      34.387  34.859  27.443  1.00  0.00    -0.246 OA
BRANCH  33  35
ATOM     35  C   UNL A   1      35.333  32.871  28.311  1.00  0.00     0.060 A 
ATOM     36  C   UNL A   1      35.038  31.585  28.782  1.00  0.00     0.016 A 
ATOM     37  C   UNL A   1      36.634  33.370  28.358  1.00  0.00     0.016 A 
ATOM     38  C   UNL A   1      36.050  30.792  29.316  1.00  0.00     0.010 A 
ATOM     39  C   UNL A   1      37.645  32.578  28.904  1.00  0.00     0.010 A 
ATOM     40  C   UNL A   1      37.354  31.295  29.404  1.00  0.00    -0.014 A 
BRANCH  40  41
ATOM     41  C   UNL A   1      38.407  30.521  30.100  1.00  0.00     0.031 A 
ATOM     42  C   UNL A   1      38.780  30.890  31.507  1.00  0.00     0.074 A 
ATOM     43  C   UNL A   1      39.051  29.530  29.459  1.00  0.00     0.049 A 
ATOM     44  N   UNL A   1      39.733  30.411  32.262  1.00  0.00    -0.248 NA
ATOM     45  C   UNL A   1      37.977  31.945  32.144  1.00  0.00     0.031 C 
ATOM     46  C   UNL A   1      38.773  29.091  28.093  1.00  0.00     0.029 A 
ATOM     47  N   UNL A   1      40.102  28.743  29.862  1.00  0.00    -0.354 N 
ATOM     48  C   UNL A   1      39.672  31.130  33.449  1.00  0.00     0.074 A 
ATOM     49  C   UNL A   1      38.589  32.081  33.312  1.00  0.00     0.031 C 
ATOM     50  C   UNL A   1      39.662  28.143  27.752  1.00  0.00     0.029 A 
ATOM     51  C   UNL A   1      40.590  27.936  28.862  1.00  0.00     0.049 A 
ATOM     52  H   UNL A   1      40.469  28.757  30.775  1.00  0.00     0.167 HD
ATOM     53  C   UNL A   1      40.443  31.003  34.554  1.00  0.00     0.034 A 
ATOM     54  C   UNL A   1      41.685  27.152  28.832  1.00  0.00     0.034 A 
ATOM     55  C   UNL A   1      41.512  30.049  34.682  1.00  0.00     0.049 A 
ATOM     56  C   UNL A   1      42.546  27.048  30.064  1.00  0.00     0.074 A 
ATOM     57  C   UNL A   1      42.314  29.798  35.781  1.00  0.00     0.029 A 
ATOM     58  N   UNL A   1      41.946  29.207  33.669  1.00  0.00    -0.354 N 
ATOM     59  N   UNL A   1      42.399  27.639  31.226  1.00  0.00    -0.248 NA
ATOM     60  C   UNL A   1      43.705  26.147  29.991  1.00  0.00     0.031 C 
ATOM     61  C   UNL A   1      43.259  28.833  35.418  1.00  0.00     0.029 A 
ATOM     62  C   UNL A   1      43.020  28.452  34.108  1.00  0.00     0.049 A 
ATOM     63  H   UNL A   1      41.548  29.153  32.770  1.00  0.00     0.167 HD
ATOM     64  C   UNL A   1      43.428  27.161  32.030  1.00  0.00     0.074 A 
ATOM     65  C   UNL A   1      44.178  26.214  31.229  1.00  0.00     0.031 C 
ATOM     66  C   UNL A   1      43.731  27.483  33.313  1.00  0.00     0.034 A 
BRANCH  53  67
ATOM     67  C   UNL A   1      40.155  31.917  35.716  1.00  0.00     0.023 A 
ATOM     68  C   UNL A   1      40.989  33.026  35.964  1.00  0.00     0.012 A 
ATOM     69  C   UNL A   1      39.032  31.702  36.539  1.00  0.00     0.148 A 
ATOM     70  C   UNL A   1      40.734  33.883  37.034  1.00  0.00     0.002 A 
ATOM     71  C   UNL A   1      38.756  32.587  37.576  1.00  0.00     0.091 A 
ATOM     72  F   UNL A   1      38.262  30.630  36.304  1.00  0.00    -0.205 F 
ATOM     73  C   UNL A   1      39.614  33.669  37.833  1.00  0.00     0.022 A 
BRANCH  71  74
ATOM     74  S   UNL A   1      37.295  32.443  38.609  1.00  0.00     0.127 S 
ATOM     75  O   UNL A   1      37.682  33.233  39.778  1.00  0.00    -0.237 OA
ATOM     76  O   UNL A   1      36.265  33.058  37.772  1.00  0.00    -0.237 OA
ATOM     77  O   UNL A   1      37.111  31.019  38.850  1.00  0.00    -0.744 OA
ENDBRANCH  71  74
ENDBRANCH  53  67
BRANCH  54  78
ATOM     78  C   UNL A   1      42.023  26.401  27.591  1.00  0.00     0.023 A 
ATOM     79  C   UNL A   1      42.615  27.074  26.506  1.00  0.00     0.012 A 
ATOM     80  C   UNL A   1      41.791  25.015  27.497  1.00  0.00     0.148 A 
ATOM     81  C   UNL A   1      42.944  26.385  25.337  1.00  0.00     0.002 A 
ATOM     82  C   UNL A   1      42.172  24.324  26.354  1.00  0.00     0.091 A 
ATOM     83  F   UNL A   1      41.214  24.396  28.538  1.00  0.00    -0.205 F 
ATOM     84  C   UNL A   1      42.733  25.011  25.266  1.00  0.00     0.022 A 
BRANCH  82  85
ATOM     85  S   UNL A   1      42.058  22.537  26.222  1.00  0.00     0.127 S 
ATOM     86  O   UNL A   1      42.896  22.269  25.055  1.00  0.00    -0.237 OA
ATOM     87  O   UNL A   1      42.626  22.105  27.499  1.00  0.00    -0.237 OA
ATOM     88  O   UNL A   1      40.642  22.242  26.061  1.00  0.00    -0.744 OA
ENDBRANCH  82  85
ENDBRANCH  54  78
BRANCH  66  89
ATOM     89  C   UNL A   1      44.905  26.787  33.953  1.00  0.00     0.023 A 
ATOM     90  C   UNL A   1      46.184  27.375  33.906  1.00  0.00     0.012 A 
ATOM     91  C   UNL A   1      44.720  25.590  34.675  1.00  0.00     0.148 A 
ATOM     92  C   UNL A   1      47.267  26.769  34.543  1.00  0.00     0.002 A 
ATOM     93  C   UNL A   1      45.792  25.021  35.352  1.00  0.00     0.091 A 
ATOM     94  F   UNL A   1      43.499  25.039  34.695  1.00  0.00    -0.205 F 
ATOM     95  C   UNL A   1      47.068  25.602  35.276  1.00  0.00     0.022 A 
BRANCH  93  96
ATOM     96  S   UNL A   1      45.614  23.573  36.399  1.00  0.00     0.127 S 
ATOM     97  O   UNL A   1      47.009  23.214  36.652  1.00  0.00    -0.237 OA
ATOM     98  O   UNL A   1      44.904  24.116  37.558  1.00  0.00    -0.237 OA
ATOM     99  O   UNL A   1      44.854  22.602  35.623  1.00  0.00    -0.744 OA
ENDBRANCH  93  96
ENDBRANCH  66  89
ENDBRANCH  40  41
ENDBRANCH  33  35
ENDBRANCH  32  33
ENDBRANCH  31  32
ENDBRANCH   1  31
TORSDOF 20
ENDMDL
MODEL 2
REMARK VINA RESULT:     -12.2      1.886      7.629
REMARK SMILES CCc1ccc(-c2cc(Cl)cc3c2O[C@@H](C(F)(F)F)C(C(=O)OCCOCCOC(=O)c2ccc(-c4c5nc(c(-c6cccc(S(=O)(=O)[O-])c6F)c6ccc([nH]6)c(-c6cccc(S(=O)(=O)[O-])c6F)c6nc(c(-c7cccc(S(=O)(=O)[O-])c7F)c7ccc4[nH]7)C=C6)C=C5)cc2)=C3)cc1
REMARK SMILES IDX 27 1 26 2 25 3 24 4 23 5 21 6 22 7 20 8 7 9 8 10 13 11 9 12
REMARK SMILES IDX 12 13 14 14 10 15 11 16 95 17 15 18 6 19 3 20 4 21 97 22
REMARK SMILES IDX 5 23 96 24 2 25 1 26 16 27 17 28 18 29 19 30 28 31 29 32
REMARK SMILES IDX 30 33 31 34 32 35 33 36 94 37 34 38 93 39 35 40 36 41 37 42
REMARK SMILES IDX 87 43 38 44 92 45 86 46 88 47 39 48 91 49 85 50 84 51 40 53
REMARK SMILES IDX 72 54 52 55 71 56 53 57 56 58 70 59 89 60 54 61 55 62 69 64
REMARK SMILES IDX 90 65 57 66 41 67 42 68 50 69 43 70 45 71 51 72 44 73 46 74
REMARK SMILES IDX 47 75 48 76 49 77 73 78 74 79 82 80 75 81 77 82 83 83 76 84
REMARK SMILES IDX 78 85 79 86 80 87 81 88 58 89 59 90 67 91 60 92 62 93 68 94
REMARK SMILES IDX 61 95 63 96 64 97 65 98 66 99
REMARK H PARENT 88 52 56 63
REMARK Flexibility Score: inf
ROOT
ATOM      1  C   UNL A   1      31.994  30.814  26.606  1.00  0.00     0.202 C 
ENDROOT
BRANCH   1   2
ATOM      2  O   UNL A   1      33.291  30.240  26.453  1.00  0.00    -0.374 OA
BRANCH   2   3
ATOM      3  C   UNL A   1      33.378  28.916  25.940  1.00  0.00     0.202 C 
BRANCH   3   4
ATOM      4  C   UNL A   1      33.213  28.701  24.427  1.00  0.00     0.261 C 
BRANCH   4   5
ATOM      5  O   UNL A   1      33.352  27.328  24.031  1.00  0.00    -0.460 OA
BRANCH   5   6
ATOM      6  C   UNL A   1      33.242  27.083  22.712  1.00  0.00     0.338 C 
ATOM      7  O   UNL A   1      33.899  27.624  21.833  1.00  0.00    -0.246 OA
BRANCH   6   8
ATOM      8  C   UNL A   1      32.359  25.927  22.422  1.00  0.00     0.087 C 
ATOM      9  C   UNL A   1      32.948  22.590  24.827  1.00  0.00     0.026 A 
ATOM     10  C   UNL A   1      34.247  22.776  25.354  1.00  0.00     0.033 A 
ATOM     11  C   UNL A   1      32.554  23.558  23.878  1.00  0.00     0.135 A 
ATOM     12  C   UNL A   1      35.182  23.562  24.680  1.00  0.00     0.042 A 
ATOM     13  C   UNL A   1      33.530  24.129  23.049  1.00  0.00     0.019 A 
ATOM     14  O   UNL A   1      31.402  24.333  24.129  1.00  0.00    -0.475 OA
ATOM     15  Cl  UNL A   1      36.781  23.690  25.293  1.00  0.00    -0.084 Cl
ATOM     16  C   UNL A   1      34.855  24.156  23.469  1.00  0.00     0.032 A 
ATOM     17  C   UNL A   1      33.087  24.930  21.888  1.00  0.00     0.027 C 
ATOM     18  C   UNL A   1      31.140  25.466  23.195  1.00  0.00     0.316 C 
BRANCH   9  19
ATOM     19  C   UNL A   1      32.584  21.122  24.714  1.00  0.00    -0.015 A 
ATOM     20  C   UNL A   1      32.809  18.273  24.338  1.00  0.00    -0.048 A 
ATOM     21  C   UNL A   1      32.899  18.844  25.611  1.00  0.00     0.004 A 
ATOM     22  C   UNL A   1      32.526  19.128  23.266  1.00  0.00     0.004 A 
ATOM     23  C   UNL A   1      32.767  20.234  25.797  1.00  0.00     0.009 A 
ATOM     24  C   UNL A   1      32.408  20.520  23.452  1.00  0.00     0.009 A 
BRANCH  20  25
ATOM     25  C   UNL A   1      33.131  16.813  24.089  1.00  0.00     0.032 C 
ATOM     26  C   UNL A   1      34.292  16.558  23.136  1.00  0.00     0.009 C 
ENDBRANCH  20  25
ENDBRANCH   9  19
BRANCH  18  27
ATOM     27  C   UNL A   1      30.221  26.590  23.726  1.00  0.00     0.430 C 
ATOM     28  F   UNL A   1      30.301  27.661  22.891  1.00  0.00    -0.167 F 
ATOM     29  F   UNL A   1      28.922  26.207  23.730  1.00  0.00    -0.167 F 
ATOM     30  F   UNL A   1      30.508  27.031  24.963  1.00  0.00    -0.167 F 
ENDBRANCH  18  27
ENDBRANCH   6   8
ENDBRANCH   5   6
ENDBRANCH   4   5
ENDBRANCH   3   4
ENDBRANCH   2   3
ENDBRANCH   1   2
BRANCH   1  31
ATOM     31  C   UNL A   1      31.885  32.250  27.127  1.00  0.00     0.261 C 
BRANCH  31  32
ATOM     32  O   UNL A   1      33.146  32.933  27.186  1.00  0.00    -0.460 OA
BRANCH  32  33
ATOM     33  C   UNL A   1      33.264  33.830  28.194  1.00  0.00     0.338 C 
ATOM     34  O   UNL A   1      32.479  34.720  28.494  1.00  0.00    -0.246 OA
BRANCH  33  35
ATOM     35  C   UNL A   1      34.428  33.485  29.021  1.00  0.00     0.060 A 
ATOM     36  C   UNL A   1      35.697  33.892  28.589  1.00  0.00     0.016 A 
ATOM     37  C   UNL A   1      34.277  32.708  30.169  1.00  0.00     0.016 A 
ATOM     38  C   UNL A   1      36.829  33.511  29.303  1.00  0.00     0.010 A 
ATOM     39  C   UNL A   1      35.415  32.318  30.878  1.00  0.00     0.010 A 
ATOM     40  C   UNL A   1      36.696  32.700  30.437  1.00  0.00    -0.014 A 
BRANCH  40  41
ATOM     41  C   UNL A   1      37.897  32.168  31.119  1.00  0.00     0.031 A 
ATOM     42  C   UNL A   1      38.643  31.019  30.504  1.00  0.00     0.074 A 
ATOM     43  C   UNL A   1      38.285  32.681  32.300  1.00  0.00     0.049 A 
ATOM     44  N   UNL A   1      39.655  30.342  30.978  1.00  0.00    -0.248 NA
ATOM     45  C   UNL A   1      38.180  30.568  29.182  1.00  0.00     0.031 C 
ATOM     46  C   UNL A   1      37.633  33.794  32.989  1.00  0.00     0.029 A 
ATOM     47  N   UNL A   1      39.297  32.304  33.146  1.00  0.00    -0.354 N 
ATOM     48  C   UNL A   1      39.929  29.361  30.034  1.00  0.00     0.074 A 
ATOM     49  C   UNL A   1      38.972  29.529  28.960  1.00  0.00     0.031 C 
ATOM     50  C   UNL A   1      38.233  33.980  34.176  1.00  0.00     0.029 A 
ATOM     51  C   UNL A   1      39.285  32.980  34.343  1.00  0.00     0.049 A 
ATOM     52  H   UNL A   1      39.964  31.617  32.919  1.00  0.00     0.167 HD
ATOM     53  C   UNL A   1      40.894  28.412  30.057  1.00  0.00     0.034 A 
ATOM     54  C   UNL A   1      40.011  32.785  35.461  1.00  0.00     0.034 A 
ATOM     55  C   UNL A   1      41.845  28.259  31.125  1.00  0.00     0.049 A 
ATOM     56  C   UNL A   1      41.060  31.704  35.475  1.00  0.00     0.074 A 
ATOM     57  C   UNL A   1      42.900  27.370  31.218  1.00  0.00     0.029 A 
ATOM     58  N   UNL A   1      41.840  28.997  32.300  1.00  0.00    -0.354 N 
ATOM     59  N   UNL A   1      41.395  30.866  34.524  1.00  0.00    -0.248 NA
ATOM     60  C   UNL A   1      41.852  31.562  36.706  1.00  0.00     0.031 C 
ATOM     61  C   UNL A   1      43.507  27.542  32.466  1.00  0.00     0.029 A 
ATOM     62  C   UNL A   1      42.857  28.567  33.134  1.00  0.00     0.049 A 
ATOM     63  H   UNL A   1      41.205  29.720  32.510  1.00  0.00     0.167 HD
ATOM     64  C   UNL A   1      42.452  30.117  35.028  1.00  0.00     0.074 A 
ATOM     65  C   UNL A   1      42.717  30.617  36.362  1.00  0.00     0.031 C 
ATOM     66  C   UNL A   1      43.136  29.102  34.443  1.00  0.00     0.034 A 
BRANCH  53  67
ATOM     67  C   UNL A   1      40.973  27.467  28.887  1.00  0.00     0.023 A 
ATOM     68  C   UNL A   1      40.092  26.368  28.809  1.00  0.00     0.012 A 
ATOM     69  C   UNL A   1      41.891  27.689  27.842  1.00  0.00     0.148 A 
ATOM     70  C   UNL A   1      40.151  25.485  27.731  1.00  0.00     0.002 A 
ATOM     71  C   UNL A   1      41.911  26.832  26.747  1.00  0.00     0.091 A 
ATOM     72  F   UNL A   1      42.736  28.725  27.943  1.00  0.00    -0.205 F 
ATOM     73  C   UNL A   1      41.052  25.723  26.697  1.00  0.00     0.022 A 
BRANCH  71  74
ATOM     74  S   UNL A   1      42.980  27.099  25.329  1.00  0.00     0.127 S 
ATOM     75  O   UNL A   1      42.278  28.172  24.628  1.00  0.00    -0.237 OA
ATOM     76  O   UNL A   1      44.236  27.503  25.962  1.00  0.00    -0.237 OA
ATOM     77  O   UNL A   1      43.039  25.825  24.625  1.00  0.00    -0.744 OA
ENDBRANCH  71  74
ENDBRANCH  53  67
BRANCH  54  78
ATOM     78  C   UNL A   1      39.770  33.640  36.658  1.00  0.00     0.023 A 
ATOM     79  C   UNL A   1      40.209  34.976  36.662  1.00  0.00     0.012 A 
ATOM     80  C   UNL A   1      39.077  33.139  37.778  1.00  0.00     0.148 A 
ATOM     81  C   UNL A   1      39.987  35.793  37.772  1.00  0.00     0.002 A 
ATOM     82  C   UNL A   1      38.809  33.973  38.856  1.00  0.00     0.091 A 
ATOM     83  F   UNL A   1      38.679  31.858  37.757  1.00  0.00    -0.205 F 
ATOM     84  C   UNL A   1      39.278  35.295  38.862  1.00  0.00     0.022 A 
BRANCH  82  85
ATOM     85  S   UNL A   1      37.794  33.458  40.246  1.00  0.00     0.127 S 
ATOM     86  O   UNL A   1      36.543  33.094  39.584  1.00  0.00    -0.237 OA
ATOM     87  O   UNL A   1      38.562  32.331  40.776  1.00  0.00    -0.237 OA
ATOM     88  O   UNL A   1      37.725  34.611  41.132  1.00  0.00    -0.744 OA
ENDBRANCH  82  85
ENDBRANCH  54  78
BRANCH  66  89
ATOM     89  C   UNL A   1      44.264  28.475  35.223  1.00  0.00     0.023 A 
ATOM     90  C   UNL A   1      45.575  28.971  35.086  1.00  0.00     0.012 A 
ATOM     91  C   UNL A   1      44.006  27.450  36.155  1.00  0.00     0.148 A 
ATOM     92  C   UNL A   1      46.617  28.438  35.844  1.00  0.00     0.002 A 
ATOM     93  C   UNL A   1      45.039  26.960  36.945  1.00  0.00     0.091 A 
ATOM     94  F   UNL A   1      42.754  26.981  36.259  1.00  0.00    -0.205 F 
ATOM     95  C   UNL A   1      46.347  27.444  36.782  1.00  0.00     0.022 A 
BRANCH  93  96
ATOM     96  S   UNL A   1      44.772  25.750  38.245  1.00  0.00     0.127 S 
ATOM     97  O   UNL A   1      44.315  24.589  37.483  1.00  0.00    -0.237 OA
ATOM     98  O   UNL A   1      46.111  25.614  38.820  1.00  0.00    -0.237 OA
ATOM     99  O   UNL A   1      43.784  26.332  39.143  1.00  0.00    -0.744 OA
ENDBRANCH  93  96
ENDBRANCH  66  89
ENDBRANCH  40  41
ENDBRANCH  33  35
ENDBRANCH  32  33
ENDBRANCH  31  32
ENDBRANCH   1  31
TORSDOF 20
ENDMDL
MODEL 3
REMARK VINA RESULT:     -12.1      1.474      7.474
REMARK SMILES CCc1ccc(-c2cc(Cl)cc3c2O[C@@H](C(F)(F)F)C(C(=O)OCCOCCOC(=O)c2ccc(-c4c5nc(c(-c6cccc(S(=O)(=O)[O-])c6F)c6ccc([nH]6)c(-c6cccc(S(=O)(=O)[O-])c6F)c6nc(c(-c7cccc(S(=O)(=O)[O-])c7F)c7ccc4[nH]7)C=C6)C=C5)cc2)=C3)cc1
REMARK SMILES IDX 27 1 26 2 25 3 24 4 23 5 21 6 22 7 20 8 7 9 8 10 13 11 9 12
REMARK SMILES IDX 12 13 14 14 10 15 11 16 95 17 15 18 6 19 3 20 4 21 97 22
REMARK SMILES IDX 5 23 96 24 2 25 1 26 16 27 17 28 18 29 19 30 28 31 29 32
REMARK SMILES IDX 30 33 31 34 32 35 33 36 94 37 34 38 93 39 35 40 36 41 37 42
REMARK SMILES IDX 87 43 38 44 92 45 86 46 88 47 39 48 91 49 85 50 84 51 40 53
REMARK SMILES IDX 72 54 52 55 71 56 53 57 56 58 70 59 89 60 54 61 55 62 69 64
REMARK SMILES IDX 90 65 57 66 41 67 42 68 50 69 43 70 45 71 51 72 44 73 46 74
REMARK SMILES IDX 47 75 48 76 49 77 73 78 74 79 82 80 75 81 77 82 83 83 76 84
REMARK SMILES IDX 78 85 79 86 80 87 81 88 58 89 59 90 67 91 60 92 62 93 68 94
REMARK SMILES IDX 61 95 63 96 64 97 65 98 66 99
REMARK H PARENT 88 52 56 63
REMARK Flexibility Score: inf
ROOT
ATOM      1  C   UNL A   1      31.500  29.612  26.180  1.00  0.00     0.202 C 
ENDROOT
BRANCH   1   2
ATOM      2  O   UNL A   1      32.183  29.245  24.983  1.00  0.00    -0.374 OA
BRANCH   2   3
ATOM      3  C   UNL A   1      33.403  28.523  25.106  1.00  0.00     0.202 C 
BRANCH   3   4
ATOM      4  C   UNL A   1      34.043  27.936  23.838  1.00  0.00     0.261 C 
BRANCH   4   5
ATOM      5  O   UNL A   1      33.640  26.585  23.573  1.00  0.00    -0.460 OA
BRANCH   5   6
ATOM      6  C   UNL A   1      33.261  26.322  22.307  1.00  0.00     0.338 C 
ATOM      7  O   UNL A   1      33.760  26.810  21.303  1.00  0.00    -0.246 OA
BRANCH   6   8
ATOM      8  C   UNL A   1      32.281  25.212  22.228  1.00  0.00     0.087 C 
ATOM      9  C   UNL A   1      33.134  21.909  24.600  1.00  0.00     0.026 A 
ATOM     10  C   UNL A   1      34.516  22.033  24.870  1.00  0.00     0.033 A 
ATOM     11  C   UNL A   1      32.621  22.873  23.707  1.00  0.00     0.135 A 
ATOM     12  C   UNL A   1      35.349  22.746  24.008  1.00  0.00     0.042 A 
ATOM     13  C   UNL A   1      33.454  23.366  22.691  1.00  0.00     0.019 A 
ATOM     14  O   UNL A   1      31.578  23.720  24.138  1.00  0.00    -0.475 OA
ATOM     15  Cl  UNL A   1      37.039  22.798  24.310  1.00  0.00    -0.084 Cl
ATOM     16  C   UNL A   1      34.833  23.327  22.858  1.00  0.00     0.032 A 
ATOM     17  C   UNL A   1      32.843  24.161  21.604  1.00  0.00     0.027 C 
ATOM     18  C   UNL A   1      31.205  24.842  23.229  1.00  0.00     0.316 C 
BRANCH   9  19
ATOM     19  C   UNL A   1      32.680  20.462  24.609  1.00  0.00    -0.015 A 
ATOM     20  C   UNL A   1      32.723  17.585  24.445  1.00  0.00    -0.048 A 
ATOM     21  C   UNL A   1      32.886  18.242  25.669  1.00  0.00     0.004 A 
ATOM     22  C   UNL A   1      32.458  18.373  23.319  1.00  0.00     0.004 A 
ATOM     23  C   UNL A   1      32.842  19.648  25.751  1.00  0.00     0.009 A 
ATOM     24  C   UNL A   1      32.429  19.780  23.401  1.00  0.00     0.009 A 
BRANCH  20  25
ATOM     25  C   UNL A   1      32.950  16.093  24.300  1.00  0.00     0.032 C 
ATOM     26  C   UNL A   1      32.875  15.296  25.596  1.00  0.00     0.009 C 
ENDBRANCH  20  25
ENDBRANCH   9  19
BRANCH  18  27
ATOM     27  C   UNL A   1      30.461  26.030  23.880  1.00  0.00     0.430 C 
ATOM     28  F   UNL A   1      29.156  25.691  24.062  1.00  0.00    -0.167 F 
ATOM     29  F   UNL A   1      30.956  26.311  25.108  1.00  0.00    -0.167 F 
ATOM     30  F   UNL A   1      30.477  27.174  23.173  1.00  0.00    -0.167 F 
ENDBRANCH  18  27
ENDBRANCH   6   8
ENDBRANCH   5   6
ENDBRANCH   4   5
ENDBRANCH   3   4
ENDBRANCH   2   3
ENDBRANCH   1   2
BRANCH   1  31
ATOM     31  C   UNL A   1      31.577  31.069  26.649  1.00  0.00     0.261 C 
BRANCH  31  32
ATOM     32  O   UNL A   1      32.838  31.693  26.367  1.00  0.00    -0.460 OA
BRANCH  32  33
ATOM     33  C   UNL A   1      33.274  32.555  27.317  1.00  0.00     0.338 C 
ATOM     34  O   UNL A   1      32.672  33.509  27.790  1.00  0.00    -0.246 OA
BRANCH  33  35
ATOM     35  C   UNL A   1      34.560  32.084  27.849  1.00  0.00     0.060 A 
ATOM     36  C   UNL A   1      34.651  30.759  28.296  1.00  0.00     0.016 A 
ATOM     37  C   UNL A   1      35.640  32.957  27.973  1.00  0.00     0.016 A 
ATOM     38  C   UNL A   1      35.828  30.304  28.883  1.00  0.00     0.010 A 
ATOM     39  C   UNL A   1      36.815  32.502  28.572  1.00  0.00     0.010 A 
ATOM     40  C   UNL A   1      36.908  31.181  29.048  1.00  0.00    -0.014 A 
BRANCH  40  41
ATOM     41  C   UNL A   1      38.109  30.752  29.799  1.00  0.00     0.031 A 
ATOM     42  C   UNL A   1      39.040  29.747  29.183  1.00  0.00     0.074 A 
ATOM     43  C   UNL A   1      38.335  31.223  31.037  1.00  0.00     0.049 A 
ATOM     44  N   UNL A   1      40.089  29.165  29.701  1.00  0.00    -0.248 NA
ATOM     45  C   UNL A   1      38.743  29.337  27.801  1.00  0.00     0.031 C 
ATOM     46  C   UNL A   1      37.496  32.198  31.732  1.00  0.00     0.029 A 
ATOM     47  N   UNL A   1      39.317  30.912  31.944  1.00  0.00    -0.354 N 
ATOM     48  C   UNL A   1      40.558  28.293  28.727  1.00  0.00     0.074 A 
ATOM     49  C   UNL A   1      39.674  28.419  27.586  1.00  0.00     0.031 C 
ATOM     50  C   UNL A   1      37.972  32.371  32.977  1.00  0.00     0.029 A 
ATOM     51  C   UNL A   1      39.126  31.496  33.174  1.00  0.00     0.049 A 
ATOM     52  H   UNL A   1      40.081  30.328  31.735  1.00  0.00     0.167 HD
ATOM     53  C   UNL A   1      41.630  27.469  28.777  1.00  0.00     0.034 A 
ATOM     54  C   UNL A   1      39.780  31.312  34.336  1.00  0.00     0.034 A 
ATOM     55  C   UNL A   1      42.505  27.357  29.912  1.00  0.00     0.049 A 
ATOM     56  C   UNL A   1      40.953  30.368  34.377  1.00  0.00     0.074 A 
ATOM     57  C   UNL A   1      43.654  26.597  30.042  1.00  0.00     0.029 A 
ATOM     58  N   UNL A   1      42.315  28.004  31.124  1.00  0.00    -0.354 N 
ATOM     59  N   UNL A   1      41.464  29.645  33.409  1.00  0.00    -0.248 NA
ATOM     60  C   UNL A   1      41.658  30.235  35.660  1.00  0.00     0.031 C 
ATOM     61  C   UNL A   1      44.134  26.753  31.346  1.00  0.00     0.029 A 
ATOM     62  C   UNL A   1      43.310  27.643  32.016  1.00  0.00     0.049 A 
ATOM     63  H   UNL A   1      41.580  28.629  31.321  1.00  0.00     0.167 HD
ATOM     64  C   UNL A   1      42.565  28.995  33.957  1.00  0.00     0.074 A 
ATOM     65  C   UNL A   1      42.659  29.428  35.337  1.00  0.00     0.031 C 
ATOM     66  C   UNL A   1      43.415  28.113  33.374  1.00  0.00     0.034 A 
BRANCH  53  67
ATOM     67  C   UNL A   1      41.919  26.624  27.563  1.00  0.00     0.023 A 
ATOM     68  C   UNL A   1      42.529  27.204  26.431  1.00  0.00     0.012 A 
ATOM     69  C   UNL A   1      41.624  25.247  27.558  1.00  0.00     0.148 A 
ATOM     70  C   UNL A   1      42.805  26.434  25.301  1.00  0.00     0.002 A 
ATOM     71  C   UNL A   1      41.945  24.477  26.445  1.00  0.00     0.091 A 
ATOM     72  F   UNL A   1      41.024  24.718  28.633  1.00  0.00    -0.205 F 
ATOM     73  C   UNL A   1      42.522  25.071  25.312  1.00  0.00     0.022 A 
BRANCH  71  74
ATOM     74  S   UNL A   1      41.694  22.700  26.393  1.00  0.00     0.127 S 
ATOM     75  O   UNL A   1      42.585  22.308  25.303  1.00  0.00    -0.237 OA
ATOM     76  O   UNL A   1      42.141  22.287  27.724  1.00  0.00    -0.237 OA
ATOM     77  O   UNL A   1      40.273  22.501  26.142  1.00  0.00    -0.744 OA
ENDBRANCH  71  74
ENDBRANCH  53  67
BRANCH  54  78
ATOM     78  C   UNL A   1      39.340  32.045  35.557  1.00  0.00     0.023 A 
ATOM     79  C   UNL A   1      38.389  31.465  36.416  1.00  0.00     0.012 A 
ATOM     80  C   UNL A   1      39.888  33.301  35.885  1.00  0.00     0.148 A 
ATOM     81  C   UNL A   1      37.970  32.135  37.567  1.00  0.00     0.002 A 
ATOM     82  C   UNL A   1      39.510  33.937  37.060  1.00  0.00     0.091 A 
ATOM     83  F   UNL A   1      40.783  33.841  35.044  1.00  0.00    -0.205 F 
ATOM     84  C   UNL A   1      38.537  33.363  37.894  1.00  0.00     0.022 A 
BRANCH  82  85
ATOM     85  S   UNL A   1      40.279  35.458  37.627  1.00  0.00     0.127 S 
ATOM     86  O   UNL A   1      39.836  35.516  39.018  1.00  0.00    -0.237 OA
ATOM     87  O   UNL A   1      41.700  35.161  37.444  1.00  0.00    -0.237 OA
ATOM     88  O   UNL A   1      39.766  36.508  36.758  1.00  0.00    -0.744 OA
ENDBRANCH  82  85
ENDBRANCH  54  78
BRANCH  66  89
ATOM     89  C   UNL A   1      44.548  27.574  34.210  1.00  0.00     0.023 A 
ATOM     90  C   UNL A   1      45.765  28.280  34.286  1.00  0.00     0.012 A 
ATOM     91  C   UNL A   1      44.374  26.411  34.987  1.00  0.00     0.148 A 
ATOM     92  C   UNL A   1      46.801  27.822  35.100  1.00  0.00     0.002 A 
ATOM     93  C   UNL A   1      45.390  25.990  35.836  1.00  0.00     0.091 A 
ATOM     94  F   UNL A   1      43.214  25.746  34.889  1.00  0.00    -0.205 F 
ATOM     95  C   UNL A   1      46.608  26.687  35.884  1.00  0.00     0.022 A 
BRANCH  93  96
ATOM     96  S   UNL A   1      45.201  24.598  36.954  1.00  0.00     0.127 S 
ATOM     97  O   UNL A   1      44.916  23.505  36.026  1.00  0.00    -0.237 OA
ATOM     98  O   UNL A   1      46.518  24.532  37.589  1.00  0.00    -0.237 OA
ATOM     99  O   UNL A   1      44.110  24.948  37.855  1.00  0.00    -0.744 OA
ENDBRANCH  93  96
ENDBRANCH  66  89
ENDBRANCH  40  41
ENDBRANCH  33  35
ENDBRANCH  32  33
ENDBRANCH  31  32
ENDBRANCH   1  31
TORSDOF 20
ENDMDL
