MODEL 1
REMARK VINA RESULT:     -11.5      0.000      0.000
REMARK SMILES C[C@@H](C(=O)OCCOCCOC(=O)c1ccc(-c2c3nc(c(-c4cccc(S(=O)(=O)[O-])c4F)c4ccc([nH]4)c(-c4cccc(S(=O)(=O)[O-])c4F)c4nc(c(-c5cccc(S(=O)(=O)[O-])c5F)c5ccc2[nH]5)C=C4)C=C3)cc1)c1cccc(C(=O)c2ccccc2)c1
REMARK SMILES IDX 8 1 7 2 6 3 5 4 3 5 4 6 2 7 1 8 77 9 78 10 90 11 79 12 81 13
REMARK SMILES IDX 80 14 82 15 83 16 84 17 85 18 89 19 86 20 88 21 87 22 9 23
REMARK SMILES IDX 10 24 11 25 12 26 13 27 14 28 15 29 76 30 16 31 75 32 17 33
REMARK SMILES IDX 18 34 19 35 69 36 20 37 74 38 68 39 70 40 21 41 73 42 67 43
REMARK SMILES IDX 66 44 22 46 54 47 34 48 53 49 35 50 38 51 52 52 71 53 36 54
REMARK SMILES IDX 37 55 51 57 72 58 39 59 23 60 24 61 32 62 25 63 27 64 33 65
REMARK SMILES IDX 26 66 28 67 29 68 30 69 31 70 55 71 56 72 64 73 57 74 59 75
REMARK SMILES IDX 65 76 58 77 60 78 61 79 62 80 63 81 40 82 41 83 49 84 42 85
REMARK SMILES IDX 44 86 50 87 43 88 45 89 46 90 47 91 48 92
REMARK H PARENT 70 45 38 56
REMARK Flexibility Score: inf
ROOT
ATOM      1  O   UNL A   1      35.834  20.975  25.117  1.00  0.00    -0.374 OA
ENDROOT
BRANCH   1   2
ATOM      2  C   UNL A   1      34.591  21.083  25.815  1.00  0.00     0.202 C 
BRANCH   2   3
ATOM      3  C   UNL A   1      33.574  22.077  25.245  1.00  0.00     0.261 C 
BRANCH   3   4
ATOM      4  O   UNL A   1      34.219  23.031  24.391  1.00  0.00    -0.463 OA
BRANCH   4   5
ATOM      5  C   UNL A   1      33.399  23.746  23.573  1.00  0.00     0.313 C 
ATOM      6  O   UNL A   1      33.675  24.062  22.421  1.00  0.00    -0.252 OA
BRANCH   5   7
ATOM      7  C   UNL A   1      32.018  23.980  24.201  1.00  0.00     0.126 C 
ATOM      8  C   UNL A   1      30.905  23.481  23.264  1.00  0.00     0.025 C 
BRANCH   7   9
ATOM      9  C   UNL A   1      31.804  25.419  24.703  1.00  0.00    -0.033 A 
ATOM     10  C   UNL A   1      31.894  25.735  26.070  1.00  0.00     0.004 A 
ATOM     11  C   UNL A   1      31.577  26.485  23.810  1.00  0.00     0.016 A 
ATOM     12  C   UNL A   1      31.726  27.047  26.528  1.00  0.00     0.001 A 
ATOM     13  C   UNL A   1      31.376  27.800  24.263  1.00  0.00     0.023 A 
ATOM     14  C   UNL A   1      31.464  28.078  25.628  1.00  0.00     0.012 A 
BRANCH  13  15
ATOM     15  C   UNL A   1      31.119  28.928  23.320  1.00  0.00     0.193 C 
ATOM     16  O   UNL A   1      31.973  29.262  22.503  1.00  0.00    -0.289 OA
BRANCH  15  17
ATOM     17  C   UNL A   1      29.825  29.645  23.334  1.00  0.00     0.022 A 
ATOM     18  C   UNL A   1      28.684  28.974  22.884  1.00  0.00     0.012 A 
ATOM     19  C   UNL A   1      29.733  30.959  23.804  1.00  0.00     0.012 A 
ATOM     20  C   UNL A   1      27.440  29.602  22.955  1.00  0.00     0.001 A 
ATOM     21  C   UNL A   1      28.488  31.583  23.872  1.00  0.00     0.001 A 
ATOM     22  C   UNL A   1      27.343  30.902  23.457  1.00  0.00     0.000 A 
ENDBRANCH  15  17
ENDBRANCH  13  15
ENDBRANCH   7   9
ENDBRANCH   5   7
ENDBRANCH   4   5
ENDBRANCH   3   4
ENDBRANCH   2   3
ENDBRANCH   1   2
BRANCH   1  23
ATOM     23  C   UNL A   1      36.401  19.669  24.976  1.00  0.00     0.202 C 
BRANCH  23  24
ATOM     24  C   UNL A   1      37.931  19.550  25.008  1.00  0.00     0.261 C 
BRANCH  24  25
ATOM     25  O   UNL A   1      38.587  20.787  25.343  1.00  0.00    -0.460 OA
BRANCH  25  26
ATOM     26  C   UNL A   1      39.628  20.660  26.202  1.00  0.00     0.338 C 
ATOM     27  O   UNL A   1      40.316  19.661  26.381  1.00  0.00    -0.246 OA
BRANCH  26  28
ATOM     28  C   UNL A   1      39.975  21.961  26.800  1.00  0.00     0.060 A 
ATOM     29  C   UNL A   1      39.334  23.099  26.292  1.00  0.00     0.016 A 
ATOM     30  C   UNL A   1      40.982  22.084  27.759  1.00  0.00     0.016 A 
ATOM     31  C   UNL A   1      39.730  24.369  26.706  1.00  0.00     0.010 A 
ATOM     32  C   UNL A   1      41.384  23.362  28.168  1.00  0.00     0.010 A 
ATOM     33  C   UNL A   1      40.786  24.510  27.616  1.00  0.00    -0.014 A 
BRANCH  33  34
ATOM     34  C   UNL A   1      41.344  25.860  27.883  1.00  0.00     0.031 A 
ATOM     35  C   UNL A   1      42.744  26.180  27.432  1.00  0.00     0.074 A 
ATOM     36  C   UNL A   1      40.608  26.795  28.510  1.00  0.00     0.049 A 
ATOM     37  N   UNL A   1      43.424  27.288  27.568  1.00  0.00    -0.248 NA
ATOM     38  C   UNL A   1      43.473  25.109  26.734  1.00  0.00     0.031 C 
ATOM     39  C   UNL A   1      39.242  26.608  28.995  1.00  0.00     0.029 A 
ATOM     40  N   UNL A   1      40.920  28.084  28.865  1.00  0.00    -0.354 N 
ATOM     41  C   UNL A   1      44.667  27.044  26.997  1.00  0.00     0.074 A 
ATOM     42  C   UNL A   1      44.653  25.676  26.524  1.00  0.00     0.031 C 
ATOM     43  C   UNL A   1      38.842  27.732  29.613  1.00  0.00     0.029 A 
ATOM     44  C   UNL A   1      39.930  28.709  29.584  1.00  0.00     0.049 A 
ATOM     45  H   UNL A   1      41.771  28.518  28.628  1.00  0.00     0.167 HD
ATOM     46  C   UNL A   1      45.719  27.886  26.858  1.00  0.00     0.034 A 
ATOM     47  C   UNL A   1      39.909  29.924  30.169  1.00  0.00     0.034 A 
ATOM     48  C   UNL A   1      45.727  29.251  27.310  1.00  0.00     0.049 A 
ATOM     49  C   UNL A   1      41.099  30.836  30.020  1.00  0.00     0.074 A 
ATOM     50  C   UNL A   1      46.730  30.195  27.176  1.00  0.00     0.029 A 
ATOM     51  N   UNL A   1      44.689  29.865  27.994  1.00  0.00    -0.354 N 
ATOM     52  N   UNL A   1      42.219  30.632  29.369  1.00  0.00    -0.248 NA
ATOM     53  C   UNL A   1      41.009  32.160  30.655  1.00  0.00     0.031 C 
ATOM     54  C   UNL A   1      46.306  31.375  27.798  1.00  0.00     0.029 A 
ATOM     55  C   UNL A   1      45.029  31.172  28.298  1.00  0.00     0.049 A 
ATOM     56  H   UNL A   1      43.835  29.434  28.227  1.00  0.00     0.167 HD
ATOM     57  C   UNL A   1      42.952  31.809  29.488  1.00  0.00     0.074 A 
ATOM     58  C   UNL A   1      42.139  32.729  30.256  1.00  0.00     0.031 C 
ATOM     59  C   UNL A   1      44.190  32.097  29.017  1.00  0.00     0.034 A 
BRANCH  46  60
ATOM     60  C   UNL A   1      46.944  27.361  26.156  1.00  0.00     0.023 A 
ATOM     61  C   UNL A   1      47.102  27.586  24.774  1.00  0.00     0.012 A 
ATOM     62  C   UNL A   1      47.958  26.693  26.869  1.00  0.00     0.148 A 
ATOM     63  C   UNL A   1      48.238  27.129  24.106  1.00  0.00     0.002 A 
ATOM     64  C   UNL A   1      49.105  26.275  26.204  1.00  0.00     0.091 A 
ATOM     65  F   UNL A   1      47.778  26.466  28.178  1.00  0.00    -0.205 F 
ATOM     66  C   UNL A   1      49.242  26.483  24.822  1.00  0.00     0.022 A 
BRANCH  64  67
ATOM     67  S   UNL A   1      50.486  25.499  27.053  1.00  0.00     0.127 S 
ATOM     68  O   UNL A   1      51.428  25.292  25.954  1.00  0.00    -0.237 OA
ATOM     69  O   UNL A   1      50.881  26.534  28.009  1.00  0.00    -0.237 OA
ATOM     70  O   UNL A   1      49.952  24.287  27.658  1.00  0.00    -0.744 OA
ENDBRANCH  64  67
ENDBRANCH  46  60
BRANCH  47  71
ATOM     71  C   UNL A   1      38.703  30.361  30.926  1.00  0.00     0.023 A 
ATOM     72  C   UNL A   1      38.608  30.091  32.305  1.00  0.00     0.012 A 
ATOM     73  C   UNL A   1      37.660  31.063  30.291  1.00  0.00     0.148 A 
ATOM     74  C   UNL A   1      37.486  30.491  33.032  1.00  0.00     0.002 A 
ATOM     75  C   UNL A   1      36.572  31.508  31.032  1.00  0.00     0.091 A 
ATOM     76  F   UNL A   1      37.759  31.292  28.974  1.00  0.00    -0.205 F 
ATOM     77  C   UNL A   1      36.475  31.209  32.399  1.00  0.00     0.022 A 
BRANCH  75  78
ATOM     78  S   UNL A   1      35.290  32.550  30.326  1.00  0.00     0.127 S 
ATOM     79  O   UNL A   1      36.041  33.750  29.969  1.00  0.00    -0.237 OA
ATOM     80  O   UNL A   1      34.836  31.744  29.192  1.00  0.00    -0.237 OA
ATOM     81  O   UNL A   1      34.296  32.714  31.379  1.00  0.00    -0.744 OA
ENDBRANCH  75  78
ENDBRANCH  47  71
BRANCH  59  82
ATOM     82  C   UNL A   1      44.742  33.474  29.286  1.00  0.00     0.023 A 
ATOM     83  C   UNL A   1      45.447  33.723  30.480  1.00  0.00     0.012 A 
ATOM     84  C   UNL A   1      44.631  34.496  28.322  1.00  0.00     0.148 A 
ATOM     85  C   UNL A   1      46.007  34.976  30.724  1.00  0.00     0.002 A 
ATOM     86  C   UNL A   1      45.232  35.728  28.551  1.00  0.00     0.091 A 
ATOM     87  F   UNL A   1      43.941  34.245  27.200  1.00  0.00    -0.205 F 
ATOM     88  C   UNL A   1      45.910  35.974  29.756  1.00  0.00     0.022 A 
BRANCH  86  89
ATOM     89  S   UNL A   1      45.239  37.039  27.321  1.00  0.00     0.127 S 
ATOM     90  O   UNL A   1      46.007  36.427  26.238  1.00  0.00    -0.237 OA
ATOM     91  O   UNL A   1      43.812  37.208  27.038  1.00  0.00    -0.237 OA
ATOM     92  O   UNL A   1      45.865  38.186  27.964  1.00  0.00    -0.744 OA
ENDBRANCH  86  89
ENDBRANCH  59  82
ENDBRANCH  33  34
ENDBRANCH  26  28
ENDBRANCH  25  26
ENDBRANCH  24  25
ENDBRANCH  23  24
ENDBRANCH   1  23
TORSDOF 20
ENDMDL
MODEL 2
REMARK VINA RESULT:     -11.4      4.676     10.572
REMARK SMILES C[C@@H](C(=O)OCCOCCOC(=O)c1ccc(-c2c3nc(c(-c4cccc(S(=O)(=O)[O-])c4F)c4ccc([nH]4)c(-c4cccc(S(=O)(=O)[O-])c4F)c4nc(c(-c5cccc(S(=O)(=O)[O-])c5F)c5ccc2[nH]5)C=C4)C=C3)cc1)c1cccc(C(=O)c2ccccc2)c1
REMARK SMILES IDX 8 1 7 2 6 3 5 4 3 5 4 6 2 7 1 8 77 9 78 10 90 11 79 12 81 13
REMARK SMILES IDX 80 14 82 15 83 16 84 17 85 18 89 19 86 20 88 21 87 22 9 23
REMARK SMILES IDX 10 24 11 25 12 26 13 27 14 28 15 29 76 30 16 31 75 32 17 33
REMARK SMILES IDX 18 34 19 35 69 36 20 37 74 38 68 39 70 40 21 41 73 42 67 43
REMARK SMILES IDX 66 44 22 46 54 47 34 48 53 49 35 50 38 51 52 52 71 53 36 54
REMARK SMILES IDX 37 55 51 57 72 58 39 59 23 60 24 61 32 62 25 63 27 64 33 65
REMARK SMILES IDX 26 66 28 67 29 68 30 69 31 70 55 71 56 72 64 73 57 74 59 75
REMARK SMILES IDX 65 76 58 77 60 78 61 79 62 80 63 81 40 82 41 83 49 84 42 85
REMARK SMILES IDX 44 86 50 87 43 88 45 89 46 90 47 91 48 92
REMARK H PARENT 70 45 38 56
REMARK Flexibility Score: inf
ROOT
ATOM      1  O   UNL A   1      31.334  29.322  24.293  1.00  0.00    -0.374 OA
ENDROOT
BRANCH   1   2
ATOM      2  C   UNL A   1      30.924  27.998  23.941  1.00  0.00     0.202 C 
BRANCH   2   3
ATOM      3  C   UNL A   1      30.873  26.976  25.082  1.00  0.00     0.261 C 
BRANCH   3   4
ATOM      4  O   UNL A   1      30.515  25.679  24.587  1.00  0.00    -0.463 OA
BRANCH   4   5
ATOM      5  C   UNL A   1      31.527  24.954  24.035  1.00  0.00     0.313 C 
ATOM      6  O   UNL A   1      31.465  24.399  22.943  1.00  0.00    -0.252 OA
BRANCH   5   7
ATOM      7  C   UNL A   1      32.817  25.040  24.861  1.00  0.00     0.126 C 
ATOM      8  C   UNL A   1      33.984  25.542  23.995  1.00  0.00     0.025 C 
BRANCH   7   9
ATOM      9  C   UNL A   1      33.137  23.753  25.642  1.00  0.00    -0.033 A 
ATOM     10  C   UNL A   1      32.636  23.544  26.940  1.00  0.00     0.004 A 
ATOM     11  C   UNL A   1      33.885  22.708  25.066  1.00  0.00     0.016 A 
ATOM     12  C   UNL A   1      32.903  22.363  27.642  1.00  0.00     0.001 A 
ATOM     13  C   UNL A   1      34.183  21.532  25.775  1.00  0.00     0.023 A 
ATOM     14  C   UNL A   1      33.678  21.360  27.064  1.00  0.00     0.012 A 
BRANCH  13  15
ATOM     15  C   UNL A   1      34.990  20.431  25.172  1.00  0.00     0.193 C 
ATOM     16  O   UNL A   1      36.217  20.464  25.214  1.00  0.00    -0.289 OA
BRANCH  15  17
ATOM     17  C   UNL A   1      34.328  19.270  24.536  1.00  0.00     0.022 A 
ATOM     18  C   UNL A   1      33.037  19.432  24.026  1.00  0.00     0.012 A 
ATOM     19  C   UNL A   1      34.983  18.038  24.425  1.00  0.00     0.012 A 
ATOM     20  C   UNL A   1      32.421  18.375  23.357  1.00  0.00     0.001 A 
ATOM     21  C   UNL A   1      34.362  16.984  23.756  1.00  0.00     0.001 A 
ATOM     22  C   UNL A   1      33.087  17.156  23.215  1.00  0.00     0.000 A 
ENDBRANCH  15  17
ENDBRANCH  13  15
ENDBRANCH   7   9
ENDBRANCH   5   7
ENDBRANCH   4   5
ENDBRANCH   3   4
ENDBRANCH   2   3
ENDBRANCH   1   2
BRANCH   1  23
ATOM     23  C   UNL A   1      31.537  29.603  25.681  1.00  0.00     0.202 C 
BRANCH  23  24
ATOM     24  C   UNL A   1      31.892  31.045  26.070  1.00  0.00     0.261 C 
BRANCH  24  25
ATOM     25  O   UNL A   1      32.478  31.149  27.381  1.00  0.00    -0.460 OA
BRANCH  25  26
ATOM     26  C   UNL A   1      33.372  32.156  27.523  1.00  0.00     0.338 C 
ATOM     27  O   UNL A   1      33.135  33.359  27.502  1.00  0.00    -0.246 OA
BRANCH  26  28
ATOM     28  C   UNL A   1      34.697  31.632  27.897  1.00  0.00     0.060 A 
ATOM     29  C   UNL A   1      34.793  30.264  28.188  1.00  0.00     0.016 A 
ATOM     30  C   UNL A   1      35.800  32.472  28.067  1.00  0.00     0.016 A 
ATOM     31  C   UNL A   1      35.979  29.739  28.697  1.00  0.00     0.010 A 
ATOM     32  C   UNL A   1      36.989  31.942  28.586  1.00  0.00     0.010 A 
ATOM     33  C   UNL A   1      37.072  30.582  28.938  1.00  0.00    -0.014 A 
BRANCH  33  34
ATOM     34  C   UNL A   1      38.248  30.061  29.679  1.00  0.00     0.031 A 
ATOM     35  C   UNL A   1      38.507  30.542  31.081  1.00  0.00     0.074 A 
ATOM     36  C   UNL A   1      39.070  29.159  29.113  1.00  0.00     0.049 A 
ATOM     37  N   UNL A   1      39.475  30.222  31.900  1.00  0.00    -0.248 NA
ATOM     38  C   UNL A   1      37.548  31.512  31.633  1.00  0.00     0.031 C 
ATOM     39  C   UNL A   1      38.926  28.615  27.764  1.00  0.00     0.029 A 
ATOM     40  N   UNL A   1      40.204  28.558  29.601  1.00  0.00    -0.354 N 
ATOM     41  C   UNL A   1      39.257  30.965  33.054  1.00  0.00     0.074 A 
ATOM     42  C   UNL A   1      38.072  31.765  32.824  1.00  0.00     0.031 C 
ATOM     43  C   UNL A   1      39.953  27.783  27.519  1.00  0.00     0.029 A 
ATOM     44  C   UNL A   1      40.834  27.751  28.685  1.00  0.00     0.049 A 
ATOM     45  H   UNL A   1      40.534  28.694  30.518  1.00  0.00     0.167 HD
ATOM     46  C   UNL A   1      39.965  30.969  34.209  1.00  0.00     0.034 A 
ATOM     47  C   UNL A   1      41.999  27.077  28.770  1.00  0.00     0.034 A 
ATOM     48  C   UNL A   1      41.131  30.161  34.445  1.00  0.00     0.049 A 
ATOM     49  C   UNL A   1      42.781  27.113  30.057  1.00  0.00     0.074 A 
ATOM     50  C   UNL A   1      41.891  30.063  35.597  1.00  0.00     0.029 A 
ATOM     51  N   UNL A   1      41.714  29.320  33.510  1.00  0.00    -0.354 N 
ATOM     52  N   UNL A   1      42.494  27.724  31.180  1.00  0.00    -0.248 NA
ATOM     53  C   UNL A   1      44.030  26.336  30.100  1.00  0.00     0.031 C 
ATOM     54  C   UNL A   1      42.947  29.178  35.352  1.00  0.00     0.029 A 
ATOM     55  C   UNL A   1      42.830  28.706  34.054  1.00  0.00     0.049 A 
ATOM     56  H   UNL A   1      41.382  29.178  32.593  1.00  0.00     0.167 HD
ATOM     57  C   UNL A   1      43.505  27.382  32.073  1.00  0.00     0.074 A 
ATOM     58  C   UNL A   1      44.401  26.491  31.365  1.00  0.00     0.031 C 
ATOM     59  C   UNL A   1      43.684  27.780  33.356  1.00  0.00     0.034 A 
BRANCH  46  60
ATOM     60  C   UNL A   1      39.476  31.856  35.323  1.00  0.00     0.023 A 
ATOM     61  C   UNL A   1      38.575  31.340  36.276  1.00  0.00     0.012 A 
ATOM     62  C   UNL A   1      39.944  33.177  35.458  1.00  0.00     0.148 A 
ATOM     63  C   UNL A   1      38.124  32.135  37.330  1.00  0.00     0.002 A 
ATOM     64  C   UNL A   1      39.521  33.951  36.533  1.00  0.00     0.091 A 
ATOM     65  F   UNL A   1      40.781  33.658  34.527  1.00  0.00    -0.205 F 
ATOM     66  C   UNL A   1      38.604  33.435  37.463  1.00  0.00     0.022 A 
BRANCH  64  67
ATOM     67  S   UNL A   1      40.139  35.611  36.831  1.00  0.00     0.127 S 
ATOM     68  O   UNL A   1      39.587  35.898  38.154  1.00  0.00    -0.237 OA
ATOM     69  O   UNL A   1      41.589  35.411  36.805  1.00  0.00    -0.237 OA
ATOM     70  O   UNL A   1      39.622  36.430  35.745  1.00  0.00    -0.744 OA
ENDBRANCH  64  67
ENDBRANCH  46  60
BRANCH  47  71
ATOM     71  C   UNL A   1      42.481  26.283  27.605  1.00  0.00     0.023 A 
ATOM     72  C   UNL A   1      43.359  26.871  26.674  1.00  0.00     0.012 A 
ATOM     73  C   UNL A   1      42.093  24.940  27.429  1.00  0.00     0.148 A 
ATOM     74  C   UNL A   1      43.821  26.144  25.576  1.00  0.00     0.002 A 
ATOM     75  C   UNL A   1      42.602  24.205  26.365  1.00  0.00     0.091 A 
ATOM     76  F   UNL A   1      41.241  24.404  28.314  1.00  0.00    -0.205 F 
ATOM     77  C   UNL A   1      43.453  24.810  25.427  1.00  0.00     0.022 A 
BRANCH  75  78
ATOM     78  S   UNL A   1      42.284  22.448  26.172  1.00  0.00     0.127 S 
ATOM     79  O   UNL A   1      40.828  22.415  26.072  1.00  0.00    -0.237 OA
ATOM     80  O   UNL A   1      42.996  22.147  24.929  1.00  0.00    -0.237 OA
ATOM     81  O   UNL A   1      42.853  21.816  27.355  1.00  0.00    -0.744 OA
ENDBRANCH  75  78
ENDBRANCH  47  71
BRANCH  59  82
ATOM     82  C   UNL A   1      44.877  27.236  34.102  1.00  0.00     0.023 A 
ATOM     83  C   UNL A   1      46.091  27.949  34.094  1.00  0.00     0.012 A 
ATOM     84  C   UNL A   1      44.770  26.061  34.873  1.00  0.00     0.148 A 
ATOM     85  C   UNL A   1      47.190  27.488  34.817  1.00  0.00     0.002 A 
ATOM     86  C   UNL A   1      45.855  25.632  35.629  1.00  0.00     0.091 A 
ATOM     87  F   UNL A   1      43.612  25.385  34.853  1.00  0.00    -0.205 F 
ATOM     88  C   UNL A   1      47.068  26.337  35.593  1.00  0.00     0.022 A 
BRANCH  86  89
ATOM     89  S   UNL A   1      45.759  24.214  36.730  1.00  0.00     0.127 S 
ATOM     90  O   UNL A   1      45.480  23.128  35.793  1.00  0.00    -0.237 OA
ATOM     91  O   UNL A   1      47.100  24.185  37.317  1.00  0.00    -0.237 OA
ATOM     92  O   UNL A   1      44.694  24.515  37.677  1.00  0.00    -0.744 OA
ENDBRANCH  86  89
ENDBRANCH  59  82
ENDBRANCH  33  34
ENDBRANCH  26  28
ENDBRANCH  25  26
ENDBRANCH  24  25
ENDBRANCH  23  24
ENDBRANCH   1  23
TORSDOF 20
ENDMDL
MODEL 3
REMARK VINA RESULT:     -11.2      1.839      2.761
REMARK SMILES C[C@@H](C(=O)OCCOCCOC(=O)c1ccc(-c2c3nc(c(-c4cccc(S(=O)(=O)[O-])c4F)c4ccc([nH]4)c(-c4cccc(S(=O)(=O)[O-])c4F)c4nc(c(-c5cccc(S(=O)(=O)[O-])c5F)c5ccc2[nH]5)C=C4)C=C3)cc1)c1cccc(C(=O)c2ccccc2)c1
REMARK SMILES IDX 8 1 7 2 6 3 5 4 3 5 4 6 2 7 1 8 77 9 78 10 90 11 79 12 81 13
REMARK SMILES IDX 80 14 82 15 83 16 84 17 85 18 89 19 86 20 88 21 87 22 9 23
REMARK SMILES IDX 10 24 11 25 12 26 13 27 14 28 15 29 76 30 16 31 75 32 17 33
REMARK SMILES IDX 18 34 19 35 69 36 20 37 74 38 68 39 70 40 21 41 73 42 67 43
REMARK SMILES IDX 66 44 22 46 54 47 34 48 53 49 35 50 38 51 52 52 71 53 36 54
REMARK SMILES IDX 37 55 51 57 72 58 39 59 23 60 24 61 32 62 25 63 27 64 33 65
REMARK SMILES IDX 26 66 28 67 29 68 30 69 31 70 55 71 56 72 64 73 57 74 59 75
REMARK SMILES IDX 65 76 58 77 60 78 61 79 62 80 63 81 40 82 41 83 49 84 42 85
REMARK SMILES IDX 44 86 50 87 43 88 45 89 46 90 47 91 48 92
REMARK H PARENT 70 45 38 56
REMARK Flexibility Score: inf
ROOT
ATOM      1  O   UNL A   1      35.374  21.475  25.768  1.00  0.00    -0.374 OA
ENDROOT
BRANCH   1   2
ATOM      2  C   UNL A   1      34.059  21.217  26.268  1.00  0.00     0.202 C 
BRANCH   2   3
ATOM      3  C   UNL A   1      32.930  21.192  25.233  1.00  0.00     0.261 C 
BRANCH   3   4
ATOM      4  O   UNL A   1      33.183  22.133  24.181  1.00  0.00    -0.463 OA
BRANCH   4   5
ATOM      5  C   UNL A   1      32.377  23.230  24.158  1.00  0.00     0.313 C 
ATOM      6  O   UNL A   1      31.221  23.248  24.567  1.00  0.00    -0.252 OA
BRANCH   5   7
ATOM      7  C   UNL A   1      33.128  24.490  23.708  1.00  0.00     0.126 C 
ATOM      8  C   UNL A   1      34.599  24.433  24.154  1.00  0.00     0.025 C 
BRANCH   7   9
ATOM      9  C   UNL A   1      32.418  25.801  24.087  1.00  0.00    -0.033 A 
ATOM     10  C   UNL A   1      31.503  26.415  23.213  1.00  0.00     0.004 A 
ATOM     11  C   UNL A   1      32.602  26.401  25.349  1.00  0.00     0.016 A 
ATOM     12  C   UNL A   1      30.835  27.593  23.566  1.00  0.00     0.001 A 
ATOM     13  C   UNL A   1      31.960  27.601  25.699  1.00  0.00     0.023 A 
ATOM     14  C   UNL A   1      31.065  28.188  24.804  1.00  0.00     0.012 A 
BRANCH  13  15
ATOM     15  C   UNL A   1      32.167  28.246  27.029  1.00  0.00     0.193 C 
ATOM     16  O   UNL A   1      31.459  27.941  27.985  1.00  0.00    -0.289 OA
BRANCH  15  17
ATOM     17  C   UNL A   1      33.242  29.244  27.226  1.00  0.00     0.022 A 
ATOM     18  C   UNL A   1      32.889  30.590  27.355  1.00  0.00     0.012 A 
ATOM     19  C   UNL A   1      34.584  28.853  27.302  1.00  0.00     0.012 A 
ATOM     20  C   UNL A   1      33.876  31.541  27.616  1.00  0.00     0.001 A 
ATOM     21  C   UNL A   1      35.566  29.808  27.562  1.00  0.00     0.001 A 
ATOM     22  C   UNL A   1      35.212  31.148  27.727  1.00  0.00     0.000 A 
ENDBRANCH  15  17
ENDBRANCH  13  15
ENDBRANCH   7   9
ENDBRANCH   5   7
ENDBRANCH   4   5
ENDBRANCH   3   4
ENDBRANCH   2   3
ENDBRANCH   1   2
BRANCH   1  23
ATOM     23  C   UNL A   1      36.007  20.439  25.011  1.00  0.00     0.202 C 
BRANCH  23  24
ATOM     24  C   UNL A   1      37.540  20.440  24.948  1.00  0.00     0.261 C 
BRANCH  24  25
ATOM     25  O   UNL A   1      38.128  21.643  25.478  1.00  0.00    -0.460 OA
BRANCH  25  26
ATOM     26  C   UNL A   1      39.270  21.453  26.181  1.00  0.00     0.338 C 
ATOM     27  O   UNL A   1      39.934  20.424  26.242  1.00  0.00    -0.246 OA
BRANCH  26  28
ATOM     28  C   UNL A   1      39.749  22.723  26.755  1.00  0.00     0.060 A 
ATOM     29  C   UNL A   1      39.245  23.911  26.208  1.00  0.00     0.016 A 
ATOM     30  C   UNL A   1      40.749  22.759  27.729  1.00  0.00     0.016 A 
ATOM     31  C   UNL A   1      39.774  25.140  26.598  1.00  0.00     0.010 A 
ATOM     32  C   UNL A   1      41.283  23.996  28.114  1.00  0.00     0.010 A 
ATOM     33  C   UNL A   1      40.824  25.188  27.523  1.00  0.00    -0.014 A 
BRANCH  33  34
ATOM     34  C   UNL A   1      41.525  26.474  27.768  1.00  0.00     0.031 A 
ATOM     35  C   UNL A   1      42.956  26.628  27.330  1.00  0.00     0.074 A 
ATOM     36  C   UNL A   1      40.888  27.499  28.363  1.00  0.00     0.049 A 
ATOM     37  N   UNL A   1      43.753  27.658  27.452  1.00  0.00    -0.248 NA
ATOM     38  C   UNL A   1      43.571  25.467  26.667  1.00  0.00     0.031 C 
ATOM     39  C   UNL A   1      39.504  27.474  28.832  1.00  0.00     0.029 A 
ATOM     40  N   UNL A   1      41.335  28.754  28.693  1.00  0.00    -0.354 N 
ATOM     41  C   UNL A   1      44.967  27.265  26.904  1.00  0.00     0.074 A 
ATOM     42  C   UNL A   1      44.809  25.896  26.461  1.00  0.00     0.031 C 
ATOM     43  C   UNL A   1      39.223  28.651  29.419  1.00  0.00     0.029 A 
ATOM     44  C   UNL A   1      40.411  29.501  29.384  1.00  0.00     0.049 A 
ATOM     45  H   UNL A   1      42.232  29.086  28.459  1.00  0.00     0.167 HD
ATOM     46  C   UNL A   1      46.107  27.983  26.761  1.00  0.00     0.034 A 
ATOM     47  C   UNL A   1      40.517  30.725  29.941  1.00  0.00     0.034 A 
ATOM     48  C   UNL A   1      46.260  29.350  27.182  1.00  0.00     0.049 A 
ATOM     49  C   UNL A   1      41.802  31.497  29.788  1.00  0.00     0.074 A 
ATOM     50  C   UNL A   1      47.362  30.175  27.041  1.00  0.00     0.029 A 
ATOM     51  N   UNL A   1      45.288  30.090  27.837  1.00  0.00    -0.354 N 
ATOM     52  N   UNL A   1      42.900  31.156  29.158  1.00  0.00    -0.248 NA
ATOM     53  C   UNL A   1      41.850  32.838  30.392  1.00  0.00     0.031 C 
ATOM     54  C   UNL A   1      47.063  31.409  27.631  1.00  0.00     0.029 A 
ATOM     55  C   UNL A   1      45.766  31.359  28.116  1.00  0.00     0.049 A 
ATOM     56  H   UNL A   1      44.388  29.762  28.067  1.00  0.00     0.167 HD
ATOM     57  C   UNL A   1      43.756  32.248  29.261  1.00  0.00     0.074 A 
ATOM     58  C   UNL A   1      43.040  33.270  29.996  1.00  0.00     0.031 C 
ATOM     59  C   UNL A   1      45.024  32.387  28.802  1.00  0.00     0.034 A 
BRANCH  46  60
ATOM     60  C   UNL A   1      47.275  27.311  26.089  1.00  0.00     0.023 A 
ATOM     61  C   UNL A   1      47.404  27.380  24.688  1.00  0.00     0.012 A 
ATOM     62  C   UNL A   1      48.268  26.657  26.844  1.00  0.00     0.148 A 
ATOM     63  C   UNL A   1      48.488  26.783  24.044  1.00  0.00     0.002 A 
ATOM     64  C   UNL A   1      49.367  26.099  26.199  1.00  0.00     0.091 A 
ATOM     65  F   UNL A   1      48.115  26.580  28.174  1.00  0.00    -0.205 F 
ATOM     66  C   UNL A   1      49.473  26.152  24.800  1.00  0.00     0.022 A 
BRANCH  64  67
ATOM     67  S   UNL A   1      50.722  25.329  27.091  1.00  0.00     0.127 S 
ATOM     68  O   UNL A   1      50.043  24.220  27.759  1.00  0.00    -0.237 OA
ATOM     69  O   UNL A   1      51.619  24.929  26.005  1.00  0.00    -0.237 OA
ATOM     70  O   UNL A   1      51.258  26.357  27.971  1.00  0.00    -0.744 OA
ENDBRANCH  64  67
ENDBRANCH  46  60
BRANCH  47  71
ATOM     71  C   UNL A   1      39.357  31.309  30.670  1.00  0.00     0.023 A 
ATOM     72  C   UNL A   1      38.269  31.833  29.945  1.00  0.00     0.012 A 
ATOM     73  C   UNL A   1      39.316  31.325  32.077  1.00  0.00     0.148 A 
ATOM     74  C   UNL A   1      37.173  32.385  30.609  1.00  0.00     0.002 A 
ATOM     75  C   UNL A   1      38.196  31.825  32.732  1.00  0.00     0.091 A 
ATOM     76  F   UNL A   1      40.369  30.841  32.749  1.00  0.00    -0.205 F 
ATOM     77  C   UNL A   1      37.131  32.371  32.000  1.00  0.00     0.022 A 
BRANCH  75  78
ATOM     78  S   UNL A   1      38.002  31.726  34.515  1.00  0.00     0.127 S 
ATOM     79  O   UNL A   1      39.115  32.545  34.985  1.00  0.00    -0.237 OA
ATOM     80  O   UNL A   1      36.676  32.316  34.707  1.00  0.00    -0.237 OA
ATOM     81  O   UNL A   1      38.077  30.307  34.838  1.00  0.00    -0.744 OA
ENDBRANCH  75  78
ENDBRANCH  47  71
BRANCH  59  82
ATOM     82  C   UNL A   1      45.722  33.701  29.047  1.00  0.00     0.023 A 
ATOM     83  C   UNL A   1      46.525  33.863  30.193  1.00  0.00     0.012 A 
ATOM     84  C   UNL A   1      45.643  34.746  28.105  1.00  0.00     0.148 A 
ATOM     85  C   UNL A   1      47.216  35.053  30.412  1.00  0.00     0.002 A 
ATOM     86  C   UNL A   1      46.372  35.912  28.306  1.00  0.00     0.091 A 
ATOM     87  F   UNL A   1      44.858  34.581  27.030  1.00  0.00    -0.205 F 
ATOM     88  C   UNL A   1      47.150  36.073  29.464  1.00  0.00     0.022 A 
BRANCH  86  89
ATOM     89  S   UNL A   1      46.421  37.238  27.093  1.00  0.00     0.127 S 
ATOM     90  O   UNL A   1      47.345  38.181  27.720  1.00  0.00    -0.237 OA
ATOM     91  O   UNL A   1      46.951  36.559  25.910  1.00  0.00    -0.237 OA
ATOM     92  O   UNL A   1      45.047  37.703  26.955  1.00  0.00    -0.744 OA
ENDBRANCH  86  89
ENDBRANCH  59  82
ENDBRANCH  33  34
ENDBRANCH  26  28
ENDBRANCH  25  26
ENDBRANCH  24  25
ENDBRANCH  23  24
ENDBRANCH   1  23
TORSDOF 20
ENDMDL
