MODEL 1
REMARK VINA RESULT:     -11.5      0.000      0.000
REMARK SMILES Cc1oc(C)c(S(=O)(=O)Nn2c(C)ccc2C)c1C(=O)OCCOCCOC(=O)c1ccc(-c2c3nc(c(-c4cccc(S(=O)(=O)[O-])c4F)c4ccc([nH]4)c(-c4cccc(S(=O)(=O)[O-])c4F)c4nc(c(-c5cccc(S(=O)(=O)[O-])c5F)c5ccc2[nH]5)C=C4)C=C3)cc1
REMARK SMILES IDX 24 1 23 2 22 3 21 4 19 5 20 6 18 7 1 8 2 9 3 10 4 11 6 12
REMARK SMILES IDX 5 13 7 14 8 15 9 16 10 17 11 19 12 20 16 21 13 22 14 23
REMARK SMILES IDX 15 24 17 25 25 26 26 27 27 28 28 29 29 30 30 31 31 32 92 33
REMARK SMILES IDX 32 34 91 35 33 36 34 37 35 38 85 39 36 40 90 41 84 42 86 43
REMARK SMILES IDX 37 44 89 45 83 46 82 47 38 49 70 50 50 51 69 52 51 53 54 54
REMARK SMILES IDX 68 55 87 56 52 57 53 58 67 60 88 61 55 62 39 63 40 64 48 65
REMARK SMILES IDX 41 66 43 67 49 68 42 69 44 70 45 71 46 72 47 73 71 74 72 75
REMARK SMILES IDX 80 76 73 77 75 78 81 79 74 80 76 81 77 82 78 83 79 84 56 85
REMARK SMILES IDX 57 86 65 87 58 88 60 89 66 90 59 91 61 92 62 93 63 94 64 95
REMARK H PARENT 10 18 86 48 54 59
REMARK Flexibility Score: inf
ROOT
ATOM      1  O   UNL A   1      32.174  31.391  26.955  1.00  0.00    -0.374 OA
ENDROOT
BRANCH   1   2
ATOM      2  C   UNL A   1      31.753  30.031  27.081  1.00  0.00     0.202 C 
BRANCH   2   3
ATOM      3  C   UNL A   1      32.227  29.027  25.990  1.00  0.00     0.261 C 
BRANCH   3   4
ATOM      4  O   UNL A   1      31.143  28.404  25.269  1.00  0.00    -0.460 OA
BRANCH   4   5
ATOM      5  C   UNL A   1      31.032  27.040  25.271  1.00  0.00     0.343 C 
ATOM      6  O   UNL A   1      30.643  26.359  26.233  1.00  0.00    -0.246 OA
BRANCH   5   7
ATOM      7  C   UNL A   1      31.483  26.453  24.021  1.00  0.00     0.122 A 
ATOM      8  C   UNL A   1      30.194  28.098  22.389  1.00  0.00     0.088 C 
ATOM      9  C   UNL A   1      31.046  26.959  22.799  1.00  0.00     0.117 A 
ATOM     10  O   UNL A   1      31.566  26.256  21.768  1.00  0.00    -0.464 OA
ATOM     11  C   UNL A   1      32.353  25.286  22.287  1.00  0.00     0.122 A 
ATOM     12  C   UNL A   1      32.372  25.365  23.674  1.00  0.00     0.145 A 
ATOM     13  C   UNL A   1      32.983  24.412  21.268  1.00  0.00     0.089 C 
BRANCH  12  14
ATOM     14  S   UNL A   1      33.353  24.276  24.579  1.00  0.00     0.279 S 
ATOM     15  O   UNL A   1      34.505  25.067  24.970  1.00  0.00    -0.200 OA
ATOM     16  O   UNL A   1      32.448  23.801  25.606  1.00  0.00    -0.200 OA
BRANCH  14  17
ATOM     17  N   UNL A   1      34.025  22.940  23.891  1.00  0.00    -0.216 N 
ATOM     18  H   UNL A   1      34.757  23.078  23.247  1.00  0.00     0.202 HD
BRANCH  17  19
ATOM     19  N   UNL A   1      33.639  21.645  24.148  1.00  0.00    -0.256 N 
ATOM     20  C   UNL A   1      32.678  20.875  23.546  1.00  0.00     0.038 A 
ATOM     21  C   UNL A   1      34.324  20.916  25.088  1.00  0.00     0.038 A 
ATOM     22  C   UNL A   1      31.862  21.200  22.343  1.00  0.00     0.067 C 
ATOM     23  C   UNL A   1      32.605  19.723  24.312  1.00  0.00     0.025 A 
ATOM     24  C   UNL A   1      33.580  19.784  25.324  1.00  0.00     0.025 A 
ATOM     25  C   UNL A   1      35.566  21.367  25.769  1.00  0.00     0.067 C 
ENDBRANCH  17  19
ENDBRANCH  14  17
ENDBRANCH  12  14
ENDBRANCH   5   7
ENDBRANCH   4   5
ENDBRANCH   3   4
ENDBRANCH   2   3
ENDBRANCH   1   2
BRANCH   1  26
ATOM     26  C   UNL A   1      33.489  31.697  27.437  1.00  0.00     0.202 C 
BRANCH  26  27
ATOM     27  C   UNL A   1      33.720  33.116  28.014  1.00  0.00     0.261 C 
BRANCH  27  28
ATOM     28  O   UNL A   1      35.019  33.389  28.642  1.00  0.00    -0.460 OA
BRANCH  28  29
ATOM     29  C   UNL A   1      35.388  32.494  29.607  1.00  0.00     0.338 C 
ATOM     30  O   UNL A   1      34.725  32.362  30.635  1.00  0.00    -0.246 OA
BRANCH  29  31
ATOM     31  C   UNL A   1      36.576  31.565  29.315  1.00  0.00     0.060 A 
ATOM     32  C   UNL A   1      36.233  30.237  29.254  1.00  0.00     0.016 A 
ATOM     33  C   UNL A   1      37.965  31.780  29.166  1.00  0.00     0.016 A 
ATOM     34  C   UNL A   1      37.208  29.221  29.039  1.00  0.00     0.010 A 
ATOM     35  C   UNL A   1      38.989  30.670  29.033  1.00  0.00     0.010 A 
ATOM     36  C   UNL A   1      38.653  29.304  28.987  1.00  0.00    -0.014 A 
BRANCH  36  37
ATOM     37  C   UNL A   1      39.524  27.825  29.044  1.00  0.00     0.031 A 
ATOM     38  C   UNL A   1      40.308  27.971  30.289  1.00  0.00     0.074 A 
ATOM     39  C   UNL A   1      40.030  26.668  28.397  1.00  0.00     0.049 A 
ATOM     40  N   UNL A   1      41.214  28.883  30.214  1.00  0.00    -0.248 NA
ATOM     41  C   UNL A   1      39.931  27.610  31.656  1.00  0.00     0.031 C 
ATOM     42  C   UNL A   1      39.878  26.214  27.002  1.00  0.00     0.029 A 
ATOM     43  N   UNL A   1      40.923  25.600  28.863  1.00  0.00    -0.354 N 
ATOM     44  C   UNL A   1      41.581  29.254  31.460  1.00  0.00     0.074 A 
ATOM     45  C   UNL A   1      40.753  28.428  32.343  1.00  0.00     0.031 C 
ATOM     46  C   UNL A   1      40.452  24.986  26.779  1.00  0.00     0.029 A 
ATOM     47  C   UNL A   1      41.149  24.469  27.966  1.00  0.00     0.049 A 
ATOM     48  H   UNL A   1      41.354  25.644  29.747  1.00  0.00     0.167 HD
ATOM     49  C   UNL A   1      42.840  29.749  31.515  1.00  0.00     0.034 A 
ATOM     50  C   UNL A   1      41.926  23.297  28.103  1.00  0.00     0.034 A 
ATOM     51  C   UNL A   1      43.733  28.665  31.819  1.00  0.00     0.049 A 
ATOM     52  C   UNL A   1      43.086  23.724  28.899  1.00  0.00     0.074 A 
ATOM     53  C   UNL A   1      43.589  27.587  32.679  1.00  0.00     0.029 A 
ATOM     54  N   UNL A   1      44.551  28.249  30.789  1.00  0.00    -0.354 N 
ATOM     55  N   UNL A   1      44.055  24.394  28.347  1.00  0.00    -0.248 NA
ATOM     56  C   UNL A   1      43.343  23.260  30.258  1.00  0.00     0.031 C 
ATOM     57  C   UNL A   1      43.785  26.468  31.842  1.00  0.00     0.029 A 
ATOM     58  C   UNL A   1      44.469  26.873  30.704  1.00  0.00     0.049 A 
ATOM     59  H   UNL A   1      45.098  28.832  30.216  1.00  0.00     0.167 HD
ATOM     60  C   UNL A   1      44.721  24.889  29.422  1.00  0.00     0.074 A 
ATOM     61  C   UNL A   1      44.453  23.960  30.505  1.00  0.00     0.031 C 
ATOM     62  C   UNL A   1      44.856  26.234  29.472  1.00  0.00     0.034 A 
BRANCH  49  63
ATOM     63  C   UNL A   1      43.101  30.845  30.460  1.00  0.00     0.023 A 
ATOM     64  C   UNL A   1      44.209  30.639  29.622  1.00  0.00     0.012 A 
ATOM     65  C   UNL A   1      42.446  32.116  30.382  1.00  0.00     0.148 A 
ATOM     66  C   UNL A   1      44.680  31.663  28.789  1.00  0.00     0.002 A 
ATOM     67  C   UNL A   1      43.005  33.169  29.660  1.00  0.00     0.091 A 
ATOM     68  F   UNL A   1      41.250  32.297  30.962  1.00  0.00    -0.205 F 
ATOM     69  C   UNL A   1      44.111  32.935  28.842  1.00  0.00     0.022 A 
BRANCH  67  70
ATOM     70  S   UNL A   1      42.505  34.889  29.929  1.00  0.00     0.127 S 
ATOM     71  O   UNL A   1      43.546  35.635  29.210  1.00  0.00    -0.237 OA
ATOM     72  O   UNL A   1      41.187  34.960  29.311  1.00  0.00    -0.237 OA
ATOM     73  O   UNL A   1      42.542  35.108  31.372  1.00  0.00    -0.744 OA
ENDBRANCH  67  70
ENDBRANCH  49  63
BRANCH  50  74
ATOM     74  C   UNL A   1      42.335  21.842  27.554  1.00  0.00     0.023 A 
ATOM     75  C   UNL A   1      41.333  20.796  27.525  1.00  0.00     0.012 A 
ATOM     76  C   UNL A   1      43.403  21.617  26.645  1.00  0.00     0.148 A 
ATOM     77  C   UNL A   1      41.317  19.714  26.614  1.00  0.00     0.002 A 
ATOM     78  C   UNL A   1      43.405  20.498  25.754  1.00  0.00     0.091 A 
ATOM     79  F   UNL A   1      44.367  22.542  26.570  1.00  0.00    -0.205 F 
ATOM     80  C   UNL A   1      42.352  19.570  25.719  1.00  0.00     0.022 A 
BRANCH  78  81
ATOM     81  S   UNL A   1      44.687  20.184  24.510  1.00  0.00     0.127 S 
ATOM     82  O   UNL A   1      44.584  21.360  23.643  1.00  0.00    -0.237 OA
ATOM     83  O   UNL A   1      45.900  20.144  25.326  1.00  0.00    -0.237 OA
ATOM     84  O   UNL A   1      44.312  18.930  23.876  1.00  0.00    -0.744 OA
ENDBRANCH  78  81
ENDBRANCH  50  74
BRANCH  62  85
ATOM     85  C   UNL A   1      45.135  26.969  28.175  1.00  0.00     0.023 A 
ATOM     86  C   UNL A   1      44.173  27.682  27.424  1.00  0.00     0.012 A 
ATOM     87  C   UNL A   1      46.447  26.934  27.681  1.00  0.00     0.148 A 
ATOM     88  C   UNL A   1      44.505  28.309  26.216  1.00  0.00     0.002 A 
ATOM     89  C   UNL A   1      46.792  27.609  26.514  1.00  0.00     0.091 A 
ATOM     90  F   UNL A   1      47.354  26.227  28.371  1.00  0.00    -0.205 F 
ATOM     91  C   UNL A   1      45.822  28.289  25.768  1.00  0.00     0.022 A 
BRANCH  89  92
ATOM     92  S   UNL A   1      48.501  27.658  25.973  1.00  0.00     0.127 S 
ATOM     93  O   UNL A   1      48.881  26.248  26.036  1.00  0.00    -0.237 OA
ATOM     94  O   UNL A   1      48.418  28.207  24.623  1.00  0.00    -0.237 OA
ATOM     95  O   UNL A   1      49.181  28.528  26.930  1.00  0.00    -0.744 OA
ENDBRANCH  89  92
ENDBRANCH  62  85
ENDBRANCH  36  37
ENDBRANCH  29  31
ENDBRANCH  28  29
ENDBRANCH  27  28
ENDBRANCH  26  27
ENDBRANCH   1  26
TORSDOF 20
ENDMDL
MODEL 2
REMARK VINA RESULT:     -11.1      7.151     12.684
REMARK SMILES Cc1oc(C)c(S(=O)(=O)Nn2c(C)ccc2C)c1C(=O)OCCOCCOC(=O)c1ccc(-c2c3nc(c(-c4cccc(S(=O)(=O)[O-])c4F)c4ccc([nH]4)c(-c4cccc(S(=O)(=O)[O-])c4F)c4nc(c(-c5cccc(S(=O)(=O)[O-])c5F)c5ccc2[nH]5)C=C4)C=C3)cc1
REMARK SMILES IDX 24 1 23 2 22 3 21 4 19 5 20 6 18 7 1 8 2 9 3 10 4 11 6 12
REMARK SMILES IDX 5 13 7 14 8 15 9 16 10 17 11 19 12 20 16 21 13 22 14 23
REMARK SMILES IDX 15 24 17 25 25 26 26 27 27 28 28 29 29 30 30 31 31 32 92 33
REMARK SMILES IDX 32 34 91 35 33 36 34 37 35 38 85 39 36 40 90 41 84 42 86 43
REMARK SMILES IDX 37 44 89 45 83 46 82 47 38 49 70 50 50 51 69 52 51 53 54 54
REMARK SMILES IDX 68 55 87 56 52 57 53 58 67 60 88 61 55 62 39 63 40 64 48 65
REMARK SMILES IDX 41 66 43 67 49 68 42 69 44 70 45 71 46 72 47 73 71 74 72 75
REMARK SMILES IDX 80 76 73 77 75 78 81 79 74 80 76 81 77 82 78 83 79 84 56 85
REMARK SMILES IDX 57 86 65 87 58 88 60 89 66 90 59 91 61 92 62 93 63 94 64 95
REMARK H PARENT 10 18 86 48 54 59
REMARK Flexibility Score: inf
ROOT
ATOM      1  O   UNL A   1      35.109  31.404  28.747  1.00  0.00    -0.374 OA
ENDROOT
BRANCH   1   2
ATOM      2  C   UNL A   1      34.371  30.685  27.757  1.00  0.00     0.202 C 
BRANCH   2   3
ATOM      3  C   UNL A   1      35.153  29.667  26.877  1.00  0.00     0.261 C 
BRANCH   3   4
ATOM      4  O   UNL A   1      34.456  28.417  26.683  1.00  0.00    -0.460 OA
BRANCH   4   5
ATOM      5  C   UNL A   1      33.677  28.249  25.571  1.00  0.00     0.343 C 
ATOM      6  O   UNL A   1      33.751  28.935  24.540  1.00  0.00    -0.246 OA
BRANCH   5   7
ATOM      7  C   UNL A   1      32.691  27.197  25.748  1.00  0.00     0.122 A 
ATOM      8  C   UNL A   1      31.460  28.237  27.854  1.00  0.00     0.088 C 
ATOM      9  C   UNL A   1      31.770  27.253  26.793  1.00  0.00     0.117 A 
ATOM     10  O   UNL A   1      30.963  26.168  26.788  1.00  0.00    -0.464 OA
ATOM     11  C   UNL A   1      31.329  25.388  25.745  1.00  0.00     0.122 A 
ATOM     12  C   UNL A   1      32.373  25.976  25.041  1.00  0.00     0.145 A 
ATOM     13  C   UNL A   1      30.540  24.140  25.621  1.00  0.00     0.089 C 
BRANCH  12  14
ATOM     14  S   UNL A   1      32.987  25.209  23.625  1.00  0.00     0.279 S 
ATOM     15  O   UNL A   1      31.802  24.862  22.861  1.00  0.00    -0.200 OA
ATOM     16  O   UNL A   1      33.900  26.198  23.090  1.00  0.00    -0.200 OA
BRANCH  14  17
ATOM     17  N   UNL A   1      33.819  23.792  23.700  1.00  0.00    -0.216 N 
ATOM     18  H   UNL A   1      34.690  23.750  23.243  1.00  0.00     0.202 HD
BRANCH  17  19
ATOM     19  N   UNL A   1      33.388  22.659  24.352  1.00  0.00    -0.256 N 
ATOM     20  C   UNL A   1      32.603  21.628  23.905  1.00  0.00     0.038 A 
ATOM     21  C   UNL A   1      33.829  22.414  25.628  1.00  0.00     0.038 A 
ATOM     22  C   UNL A   1      32.100  21.390  22.523  1.00  0.00     0.067 C 
ATOM     23  C   UNL A   1      32.352  20.853  25.024  1.00  0.00     0.025 A 
ATOM     24  C   UNL A   1      33.054  21.389  26.120  1.00  0.00     0.025 A 
ATOM     25  C   UNL A   1      34.868  23.208  26.333  1.00  0.00     0.067 C 
ENDBRANCH  17  19
ENDBRANCH  14  17
ENDBRANCH  12  14
ENDBRANCH   5   7
ENDBRANCH   4   5
ENDBRANCH   3   4
ENDBRANCH   2   3
ENDBRANCH   1   2
BRANCH   1  26
ATOM     26  C   UNL A   1      36.497  31.632  28.467  1.00  0.00     0.202 C 
BRANCH  26  27
ATOM     27  C   UNL A   1      37.517  31.214  29.555  1.00  0.00     0.261 C 
BRANCH  27  28
ATOM     28  O   UNL A   1      38.298  32.278  30.197  1.00  0.00    -0.460 OA
BRANCH  28  29
ATOM     29  C   UNL A   1      39.605  31.962  30.442  1.00  0.00     0.338 C 
ATOM     30  O   UNL A   1      39.921  30.845  30.853  1.00  0.00    -0.246 OA
BRANCH  29  31
ATOM     31  C   UNL A   1      40.681  32.992  30.065  1.00  0.00     0.060 A 
ATOM     32  C   UNL A   1      40.178  34.243  29.810  1.00  0.00     0.016 A 
ATOM     33  C   UNL A   1      42.077  32.908  29.854  1.00  0.00     0.016 A 
ATOM     34  C   UNL A   1      41.017  35.319  29.401  1.00  0.00     0.010 A 
ATOM     35  C   UNL A   1      42.927  34.047  29.326  1.00  0.00     0.010 A 
ATOM     36  C   UNL A   1      42.421  35.329  29.045  1.00  0.00    -0.014 A 
BRANCH  36  37
ATOM     37  C   UNL A   1      43.022  36.743  28.277  1.00  0.00     0.031 A 
ATOM     38  C   UNL A   1      44.408  36.812  28.790  1.00  0.00     0.074 A 
ATOM     39  C   UNL A   1      42.794  37.970  27.602  1.00  0.00     0.049 A 
ATOM     40  N   UNL A   1      44.470  37.070  30.050  1.00  0.00    -0.248 NA
ATOM     41  C   UNL A   1      45.618  36.200  28.241  1.00  0.00     0.031 C 
ATOM     42  C   UNL A   1      41.531  38.604  27.180  1.00  0.00     0.029 A 
ATOM     43  N   UNL A   1      43.710  39.038  27.180  1.00  0.00    -0.354 N 
ATOM     44  C   UNL A   1      45.680  36.700  30.523  1.00  0.00     0.074 A 
ATOM     45  C   UNL A   1      46.378  36.159  29.354  1.00  0.00     0.031 C 
ATOM     46  C   UNL A   1      41.731  39.763  26.470  1.00  0.00     0.029 A 
ATOM     47  C   UNL A   1      43.153  40.127  26.381  1.00  0.00     0.049 A 
ATOM     48  H   UNL A   1      44.663  39.020  27.425  1.00  0.00     0.167 HD
ATOM     49  C   UNL A   1      46.053  37.398  31.623  1.00  0.00     0.034 A 
ATOM     50  C   UNL A   1      43.743  41.281  25.818  1.00  0.00     0.034 A 
ATOM     51  C   UNL A   1      46.821  38.534  31.191  1.00  0.00     0.049 A 
ATOM     52  C   UNL A   1      44.784  41.662  26.784  1.00  0.00     0.074 A 
ATOM     53  C   UNL A   1      47.765  38.658  30.184  1.00  0.00     0.029 A 
ATOM     54  N   UNL A   1      46.206  39.762  31.319  1.00  0.00    -0.354 N 
ATOM     55  N   UNL A   1      44.467  42.270  27.890  1.00  0.00    -0.248 NA
ATOM     56  C   UNL A   1      46.212  41.595  26.495  1.00  0.00     0.031 C 
ATOM     57  C   UNL A   1      47.252  39.697  29.377  1.00  0.00     0.029 A 
ATOM     58  C   UNL A   1      46.346  40.439  30.124  1.00  0.00     0.049 A 
ATOM     59  H   UNL A   1      45.747  40.097  32.122  1.00  0.00     0.167 HD
ATOM     60  C   UNL A   1      45.593  42.132  28.635  1.00  0.00     0.074 A 
ATOM     61  C   UNL A   1      46.678  42.001  27.678  1.00  0.00     0.031 C 
ATOM     62  C   UNL A   1      45.444  41.524  29.835  1.00  0.00     0.034 A 
BRANCH  49  63
ATOM     63  C   UNL A   1      44.962  37.426  32.714  1.00  0.00     0.023 A 
ATOM     64  C   UNL A   1      44.369  38.676  32.957  1.00  0.00     0.012 A 
ATOM     65  C   UNL A   1      44.640  36.360  33.615  1.00  0.00     0.148 A 
ATOM     66  C   UNL A   1      43.541  38.874  34.071  1.00  0.00     0.002 A 
ATOM     67  C   UNL A   1      43.935  36.603  34.792  1.00  0.00     0.091 A 
ATOM     68  F   UNL A   1      44.968  35.096  33.310  1.00  0.00    -0.205 F 
ATOM     69  C   UNL A   1      43.362  37.858  35.008  1.00  0.00     0.022 A 
BRANCH  67  70
ATOM     70  S   UNL A   1      43.936  35.429  36.172  1.00  0.00     0.127 S 
ATOM     71  O   UNL A   1      45.371  35.233  36.415  1.00  0.00    -0.237 OA
ATOM     72  O   UNL A   1      43.245  36.151  37.232  1.00  0.00    -0.237 OA
ATOM     73  O   UNL A   1      43.272  34.223  35.687  1.00  0.00    -0.744 OA
ENDBRANCH  67  70
ENDBRANCH  49  63
BRANCH  50  74
ATOM     74  C   UNL A   1      43.628  42.550  24.837  1.00  0.00     0.023 A 
ATOM     75  C   UNL A   1      44.623  43.599  24.927  1.00  0.00     0.012 A 
ATOM     76  C   UNL A   1      42.968  42.513  23.580  1.00  0.00     0.148 A 
ATOM     77  C   UNL A   1      45.015  44.438  23.858  1.00  0.00     0.002 A 
ATOM     78  C   UNL A   1      43.338  43.392  22.514  1.00  0.00     0.091 A 
ATOM     79  F   UNL A   1      42.051  41.559  23.381  1.00  0.00    -0.205 F 
ATOM     80  C   UNL A   1      44.377  44.327  22.643  1.00  0.00     0.022 A 
BRANCH  78  81
ATOM     81  S   UNL A   1      42.603  43.354  20.856  1.00  0.00     0.127 S 
ATOM     82  O   UNL A   1      42.781  41.956  20.459  1.00  0.00    -0.237 OA
ATOM     83  O   UNL A   1      41.215  43.728  21.129  1.00  0.00    -0.237 OA
ATOM     84  O   UNL A   1      43.369  44.310  20.071  1.00  0.00    -0.744 OA
ENDBRANCH  78  81
ENDBRANCH  50  74
BRANCH  62  85
ATOM     85  C   UNL A   1      44.199  41.842  30.641  1.00  0.00     0.023 A 
ATOM     86  C   UNL A   1      42.976  41.137  30.558  1.00  0.00     0.012 A 
ATOM     87  C   UNL A   1      44.264  42.921  31.534  1.00  0.00     0.148 A 
ATOM     88  C   UNL A   1      41.860  41.514  31.315  1.00  0.00     0.002 A 
ATOM     89  C   UNL A   1      43.177  43.258  32.334  1.00  0.00     0.091 A 
ATOM     90  F   UNL A   1      45.411  43.616  31.589  1.00  0.00    -0.205 F 
ATOM     91  C   UNL A   1      41.965  42.566  32.219  1.00  0.00     0.022 A 
BRANCH  89  92
ATOM     92  S   UNL A   1      43.327  44.558  33.560  1.00  0.00     0.127 S 
ATOM     93  O   UNL A   1      41.934  44.776  33.944  1.00  0.00    -0.237 OA
ATOM     94  O   UNL A   1      44.159  43.956  34.597  1.00  0.00    -0.237 OA
ATOM     95  O   UNL A   1      43.961  45.672  32.859  1.00  0.00    -0.744 OA
ENDBRANCH  89  92
ENDBRANCH  62  85
ENDBRANCH  36  37
ENDBRANCH  29  31
ENDBRANCH  28  29
ENDBRANCH  27  28
ENDBRANCH  26  27
ENDBRANCH   1  26
TORSDOF 20
ENDMDL
MODEL 3
REMARK VINA RESULT:     -10.9      3.108      5.663
REMARK SMILES Cc1oc(C)c(S(=O)(=O)Nn2c(C)ccc2C)c1C(=O)OCCOCCOC(=O)c1ccc(-c2c3nc(c(-c4cccc(S(=O)(=O)[O-])c4F)c4ccc([nH]4)c(-c4cccc(S(=O)(=O)[O-])c4F)c4nc(c(-c5cccc(S(=O)(=O)[O-])c5F)c5ccc2[nH]5)C=C4)C=C3)cc1
REMARK SMILES IDX 24 1 23 2 22 3 21 4 19 5 20 6 18 7 1 8 2 9 3 10 4 11 6 12
REMARK SMILES IDX 5 13 7 14 8 15 9 16 10 17 11 19 12 20 16 21 13 22 14 23
REMARK SMILES IDX 15 24 17 25 25 26 26 27 27 28 28 29 29 30 30 31 31 32 92 33
REMARK SMILES IDX 32 34 91 35 33 36 34 37 35 38 85 39 36 40 90 41 84 42 86 43
REMARK SMILES IDX 37 44 89 45 83 46 82 47 38 49 70 50 50 51 69 52 51 53 54 54
REMARK SMILES IDX 68 55 87 56 52 57 53 58 67 60 88 61 55 62 39 63 40 64 48 65
REMARK SMILES IDX 41 66 43 67 49 68 42 69 44 70 45 71 46 72 47 73 71 74 72 75
REMARK SMILES IDX 80 76 73 77 75 78 81 79 74 80 76 81 77 82 78 83 79 84 56 85
REMARK SMILES IDX 57 86 65 87 58 88 60 89 66 90 59 91 61 92 62 93 63 94 64 95
REMARK H PARENT 10 18 86 48 54 59
REMARK Flexibility Score: inf
ROOT
ATOM      1  O   UNL A   1      32.827  29.113  25.887  1.00  0.00    -0.374 OA
ENDROOT
BRANCH   1   2
ATOM      2  C   UNL A   1      32.829  27.796  26.441  1.00  0.00     0.202 C 
BRANCH   2   3
ATOM      3  C   UNL A   1      33.974  26.835  26.006  1.00  0.00     0.261 C 
BRANCH   3   4
ATOM      4  O   UNL A   1      33.555  25.459  25.880  1.00  0.00    -0.460 OA
BRANCH   4   5
ATOM      5  C   UNL A   1      34.462  24.515  25.482  1.00  0.00     0.343 C 
ATOM      6  O   UNL A   1      35.681  24.558  25.713  1.00  0.00    -0.246 OA
BRANCH   5   7
ATOM      7  C   UNL A   1      33.846  23.462  24.694  1.00  0.00     0.122 A 
ATOM      8  C   UNL A   1      35.394  21.472  25.515  1.00  0.00     0.088 C 
ATOM      9  C   UNL A   1      34.333  22.158  24.744  1.00  0.00     0.117 A 
ATOM     10  O   UNL A   1      33.633  21.345  23.920  1.00  0.00    -0.464 OA
ATOM     11  C   UNL A   1      32.676  22.092  23.323  1.00  0.00     0.122 A 
ATOM     12  C   UNL A   1      32.730  23.405  23.775  1.00  0.00     0.145 A 
ATOM     13  C   UNL A   1      31.832  21.336  22.367  1.00  0.00     0.089 C 
BRANCH  12  14
ATOM     14  S   UNL A   1      31.573  24.551  23.212  1.00  0.00     0.279 S 
ATOM     15  O   UNL A   1      32.098  24.994  21.934  1.00  0.00    -0.200 OA
ATOM     16  O   UNL A   1      30.334  23.800  23.237  1.00  0.00    -0.200 OA
BRANCH  14  17
ATOM     17  N   UNL A   1      31.287  25.958  24.015  1.00  0.00    -0.216 N 
ATOM     18  H   UNL A   1      31.383  25.952  24.995  1.00  0.00     0.202 HD
BRANCH  17  19
ATOM     19  N   UNL A   1      30.920  27.143  23.418  1.00  0.00    -0.256 N 
ATOM     20  C   UNL A   1      31.686  28.085  22.783  1.00  0.00     0.038 A 
ATOM     21  C   UNL A   1      29.588  27.468  23.339  1.00  0.00     0.038 A 
ATOM     22  C   UNL A   1      33.137  28.018  22.452  1.00  0.00     0.067 C 
ATOM     23  C   UNL A   1      30.825  29.140  22.529  1.00  0.00     0.025 A 
ATOM     24  C   UNL A   1      29.530  28.785  22.948  1.00  0.00     0.025 A 
ATOM     25  C   UNL A   1      28.472  26.566  23.723  1.00  0.00     0.067 C 
ENDBRANCH  17  19
ENDBRANCH  14  17
ENDBRANCH  12  14
ENDBRANCH   5   7
ENDBRANCH   4   5
ENDBRANCH   3   4
ENDBRANCH   2   3
ENDBRANCH   1   2
BRANCH   1  26
ATOM     26  C   UNL A   1      31.699  29.938  26.209  1.00  0.00     0.202 C 
BRANCH  26  27
ATOM     27  C   UNL A   1      31.981  31.267  26.953  1.00  0.00     0.261 C 
BRANCH  27  28
ATOM     28  O   UNL A   1      33.239  31.960  26.649  1.00  0.00    -0.460 OA
BRANCH  28  29
ATOM     29  C   UNL A   1      34.049  32.176  27.730  1.00  0.00     0.338 C 
ATOM     30  O   UNL A   1      33.866  33.137  28.476  1.00  0.00    -0.246 OA
BRANCH  29  31
ATOM     31  C   UNL A   1      35.110  31.115  28.062  1.00  0.00     0.060 A 
ATOM     32  C   UNL A   1      36.333  31.646  28.388  1.00  0.00     0.016 A 
ATOM     33  C   UNL A   1      35.115  29.702  28.034  1.00  0.00     0.016 A 
ATOM     34  C   UNL A   1      37.454  30.818  28.682  1.00  0.00     0.010 A 
ATOM     35  C   UNL A   1      36.350  28.851  28.258  1.00  0.00     0.010 A 
ATOM     36  C   UNL A   1      37.613  29.382  28.576  1.00  0.00    -0.014 A 
BRANCH  36  37
ATOM     37  C   UNL A   1      39.209  28.761  28.694  1.00  0.00     0.031 A 
ATOM     38  C   UNL A   1      39.302  28.408  30.128  1.00  0.00     0.074 A 
ATOM     39  C   UNL A   1      40.524  28.636  28.175  1.00  0.00     0.049 A 
ATOM     40  N   UNL A   1      39.290  29.435  30.904  1.00  0.00    -0.248 NA
ATOM     41  C   UNL A   1      38.942  27.152  30.786  1.00  0.00     0.031 C 
ATOM     42  C   UNL A   1      41.107  29.154  26.924  1.00  0.00     0.029 A 
ATOM     43  N   UNL A   1      41.741  28.032  28.734  1.00  0.00    -0.354 N 
ATOM     44  C   UNL A   1      38.948  29.048  32.153  1.00  0.00     0.074 A 
ATOM     45  C   UNL A   1      38.739  27.602  32.040  1.00  0.00     0.031 C 
ATOM     46  C   UNL A   1      42.405  28.745  26.734  1.00  0.00     0.029 A 
ATOM     47  C   UNL A   1      42.917  27.961  27.868  1.00  0.00     0.049 A 
ATOM     48  H   UNL A   1      41.765  27.690  29.656  1.00  0.00     0.167 HD
ATOM     49  C   UNL A   1      39.427  29.875  33.112  1.00  0.00     0.034 A 
ATOM     50  C   UNL A   1      44.216  27.448  28.083  1.00  0.00     0.034 A 
ATOM     51  C   UNL A   1      40.698  29.363  33.547  1.00  0.00     0.049 A 
ATOM     52  C   UNL A   1      44.482  27.722  29.503  1.00  0.00     0.074 A 
ATOM     53  C   UNL A   1      41.126  28.061  33.757  1.00  0.00     0.029 A 
ATOM     54  N   UNL A   1      41.805  30.092  33.165  1.00  0.00    -0.354 N 
ATOM     55  N   UNL A   1      44.806  28.918  29.896  1.00  0.00    -0.248 NA
ATOM     56  C   UNL A   1      44.618  26.675  30.511  1.00  0.00     0.031 C 
ATOM     57  C   UNL A   1      42.259  27.947  32.922  1.00  0.00     0.029 A 
ATOM     58  C   UNL A   1      42.732  29.220  32.631  1.00  0.00     0.049 A 
ATOM     59  H   UNL A   1      41.915  31.066  33.258  1.00  0.00     0.167 HD
ATOM     60  C   UNL A   1      44.622  28.848  31.239  1.00  0.00     0.074 A 
ATOM     61  C   UNL A   1      44.804  27.449  31.583  1.00  0.00     0.031 C 
ATOM     62  C   UNL A   1      43.761  29.746  31.771  1.00  0.00     0.034 A 
BRANCH  49  63
ATOM     63  C   UNL A   1      39.116  31.361  32.836  1.00  0.00     0.023 A 
ATOM     64  C   UNL A   1      40.187  32.254  33.002  1.00  0.00     0.012 A 
ATOM     65  C   UNL A   1      37.818  31.926  32.615  1.00  0.00     0.148 A 
ATOM     66  C   UNL A   1      39.973  33.639  33.006  1.00  0.00     0.002 A 
ATOM     67  C   UNL A   1      37.596  33.293  32.763  1.00  0.00     0.091 A 
ATOM     68  F   UNL A   1      36.803  31.148  32.208  1.00  0.00    -0.205 F 
ATOM     69  C   UNL A   1      38.680  34.155  32.934  1.00  0.00     0.022 A 
BRANCH  67  70
ATOM     70  S   UNL A   1      35.933  33.976  32.988  1.00  0.00     0.127 S 
ATOM     71  O   UNL A   1      35.402  33.154  34.083  1.00  0.00    -0.237 OA
ATOM     72  O   UNL A   1      36.183  35.365  33.352  1.00  0.00    -0.237 OA
ATOM     73  O   UNL A   1      35.228  33.767  31.727  1.00  0.00    -0.744 OA
ENDBRANCH  67  70
ENDBRANCH  49  63
BRANCH  50  74
ATOM     74  C   UNL A   1      45.648  27.026  27.485  1.00  0.00     0.023 A 
ATOM     75  C   UNL A   1      46.189  25.723  27.816  1.00  0.00     0.012 A 
ATOM     76  C   UNL A   1      46.191  27.569  26.291  1.00  0.00     0.148 A 
ATOM     77  C   UNL A   1      47.073  24.982  26.998  1.00  0.00     0.002 A 
ATOM     78  C   UNL A   1      47.118  26.833  25.487  1.00  0.00     0.091 A 
ATOM     79  F   UNL A   1      45.734  28.758  25.878  1.00  0.00    -0.205 F 
ATOM     80  C   UNL A   1      47.531  25.535  25.824  1.00  0.00     0.022 A 
BRANCH  78  81
ATOM     81  S   UNL A   1      47.795  27.422  23.911  1.00  0.00     0.127 S 
ATOM     82  O   UNL A   1      48.993  28.152  24.330  1.00  0.00    -0.237 OA
ATOM     83  O   UNL A   1      48.071  26.168  23.211  1.00  0.00    -0.237 OA
ATOM     84  O   UNL A   1      46.752  28.252  23.328  1.00  0.00    -0.744 OA
ENDBRANCH  78  81
ENDBRANCH  50  74
BRANCH  62  85
ATOM     85  C   UNL A   1      43.777  31.158  31.218  1.00  0.00     0.023 A 
ATOM     86  C   UNL A   1      42.950  31.630  30.172  1.00  0.00     0.012 A 
ATOM     87  C   UNL A   1      44.684  32.065  31.784  1.00  0.00     0.148 A 
ATOM     88  C   UNL A   1      43.048  32.943  29.697  1.00  0.00     0.002 A 
ATOM     89  C   UNL A   1      44.739  33.388  31.356  1.00  0.00     0.091 A 
ATOM     90  F   UNL A   1      45.496  31.611  32.751  1.00  0.00    -0.205 F 
ATOM     91  C   UNL A   1      43.932  33.831  30.301  1.00  0.00     0.022 A 
BRANCH  89  92
ATOM     92  S   UNL A   1      45.816  34.559  32.183  1.00  0.00     0.127 S 
ATOM     93  O   UNL A   1      47.140  34.015  31.890  1.00  0.00    -0.237 OA
ATOM     94  O   UNL A   1      45.516  35.826  31.522  1.00  0.00    -0.237 OA
ATOM     95  O   UNL A   1      45.422  34.513  33.589  1.00  0.00    -0.744 OA
ENDBRANCH  89  92
ENDBRANCH  62  85
ENDBRANCH  36  37
ENDBRANCH  29  31
ENDBRANCH  28  29
ENDBRANCH  27  28
ENDBRANCH  26  27
ENDBRANCH   1  26
TORSDOF 20
ENDMDL
