MODEL 1
REMARK VINA RESULT:     -12.9      0.000      0.000
REMARK SMILES COc1ccc2[nH]cc([C@H](C(=O)OCCOCCOC(=O)c3ccc(-c4c5nc(c(-c6cccc(S(=O)(=O)[O-])c6F)c6ccc([nH]6)c(-c6cccc(S(=O)(=O)[O-])c6F)c6nc(c(-c7cccc(S(=O)(=O)[O-])c7F)c7ccc4[nH]7)C=C6)C=C5)cc3)[NH+]3CC[NH+](Cc4cccc5ccccc45)CC3)c2c1
REMARK SMILES IDX 16 1 15 2 14 3 13 4 11 5 12 6 10 7 9 8 3 9 4 10 103 11 5 12
REMARK SMILES IDX 102 13 6 14 7 15 8 16 2 18 1 19 85 20 86 21 101 22 87 24
REMARK SMILES IDX 100 25 88 26 89 28 90 29 91 30 99 31 92 32 94 33 98 34 93 35
REMARK SMILES IDX 95 36 97 37 96 38 17 39 18 40 19 41 20 42 21 43 22 44 23 45
REMARK SMILES IDX 84 46 24 47 83 48 25 49 26 50 27 51 77 52 28 53 82 54 76 55
REMARK SMILES IDX 78 56 29 57 81 58 75 59 74 60 30 62 62 63 42 64 61 65 43 66
REMARK SMILES IDX 46 67 60 68 79 69 44 70 45 71 59 73 80 74 47 75 31 76 32 77
REMARK SMILES IDX 40 78 33 79 35 80 41 81 34 82 36 83 37 84 38 85 39 86 63 87
REMARK SMILES IDX 64 88 72 89 65 90 67 91 73 92 66 93 68 94 69 95 70 96 71 97
REMARK SMILES IDX 48 98 49 99 57 100 50 101 52 102 58 103 51 104 53 105 54 106
REMARK SMILES IDX 55 107 56 108
REMARK H PARENT 7 17 85 23 88 27 78 61 46 72
REMARK Flexibility Score: inf
ROOT
ATOM      1  O   UNL A   1      33.607  28.952  24.943  1.00  0.00    -0.374 OA
ENDROOT
BRANCH   1   2
ATOM      2  C   UNL A   1      34.257  28.579  23.738  1.00  0.00     0.202 C 
BRANCH   2   3
ATOM      3  C   UNL A   1      33.505  28.472  22.395  1.00  0.00     0.261 C 
BRANCH   3   4
ATOM      4  O   UNL A   1      33.529  27.191  21.760  1.00  0.00    -0.459 OA
BRANCH   4   5
ATOM      5  C   UNL A   1      32.335  26.553  21.910  1.00  0.00     0.370 C 
ATOM      6  O   UNL A   1      31.829  25.953  20.969  1.00  0.00    -0.245 OA
BRANCH   5   7
ATOM      7  C   UNL A   1      31.797  26.549  23.350  1.00  0.00     0.328 C 
BRANCH   7   8
ATOM      8  C   UNL A   1      30.290  26.725  23.495  1.00  0.00     0.046 A 
ATOM      9  C   UNL A   1      28.806  30.063  22.417  1.00  0.00     0.119 A 
ATOM     10  C   UNL A   1      27.504  29.823  22.837  1.00  0.00     0.048 A 
ATOM     11  C   UNL A   1      29.796  29.093  22.512  1.00  0.00     0.057 A 
ATOM     12  C   UNL A   1      27.159  28.576  23.366  1.00  0.00     0.030 A 
ATOM     13  C   UNL A   1      29.500  27.866  23.127  1.00  0.00     0.013 A 
ATOM     14  C   UNL A   1      28.178  27.619  23.498  1.00  0.00     0.046 A 
ATOM     15  N   UNL A   1      28.130  26.326  23.956  1.00  0.00    -0.361 N 
ATOM     16  C   UNL A   1      29.389  25.781  23.968  1.00  0.00     0.094 A 
ATOM     17  H   UNL A   1      27.311  25.856  24.235  1.00  0.00     0.166 HD
BRANCH   9  18
ATOM     18  O   UNL A   1      29.189  31.274  21.909  1.00  0.00    -0.497 OA
ATOM     19  C   UNL A   1      28.438  32.292  22.564  1.00  0.00     0.278 C 
ENDBRANCH   9  18
ENDBRANCH   7   8
BRANCH   7  20
ATOM     20  N   UNL A   1      32.203  25.339  24.103  1.00  0.00    -0.310 N 
ATOM     21  C   UNL A   1      33.099  24.437  23.372  1.00  0.00     0.325 C 
ATOM     22  C   UNL A   1      32.668  25.564  25.480  1.00  0.00     0.325 C 
ATOM     23  H   UNL A   1      31.310  24.855  24.198  1.00  0.00     0.349 HD
ATOM     24  C   UNL A   1      34.621  24.563  23.602  1.00  0.00     0.324 C 
ATOM     25  C   UNL A   1      34.202  25.607  25.769  1.00  0.00     0.324 C 
ATOM     26  N   UNL A   1      35.072  24.717  24.987  1.00  0.00    -0.322 N 
ATOM     27  H   UNL A   1      35.955  25.224  24.938  1.00  0.00     0.348 HD
BRANCH  26  28
ATOM     28  C   UNL A   1      35.524  23.485  25.642  1.00  0.00     0.300 C 
BRANCH  28  29
ATOM     29  C   UNL A   1      37.029  23.338  25.778  1.00  0.00     0.014 A 
ATOM     30  C   UNL A   1      37.716  24.387  26.419  1.00  0.00     0.010 A 
ATOM     31  C   UNL A   1      37.701  22.120  25.495  1.00  0.00    -0.010 A 
ATOM     32  C   UNL A   1      38.991  24.189  26.928  1.00  0.00     0.001 A 
ATOM     33  C   UNL A   1      38.946  21.893  26.124  1.00  0.00    -0.018 A 
ATOM     34  C   UNL A   1      37.165  21.080  24.694  1.00  0.00     0.009 A 
ATOM     35  C   UNL A   1      39.576  22.931  26.829  1.00  0.00     0.009 A 
ATOM     36  C   UNL A   1      39.516  20.609  26.085  1.00  0.00     0.009 A 
ATOM     37  C   UNL A   1      37.756  19.816  24.647  1.00  0.00     0.001 A 
ATOM     38  C   UNL A   1      38.911  19.571  25.375  1.00  0.00     0.001 A 
ENDBRANCH  28  29
ENDBRANCH  26  28
ENDBRANCH   7  20
ENDBRANCH   5   7
ENDBRANCH   4   5
ENDBRANCH   3   4
ENDBRANCH   2   3
ENDBRANCH   1   2
BRANCH   1  39
ATOM     39  C   UNL A   1      32.424  29.735  24.946  1.00  0.00     0.202 C 
BRANCH  39  40
ATOM     40  C   UNL A   1      31.893  30.410  26.218  1.00  0.00     0.261 C 
BRANCH  40  41
ATOM     41  O   UNL A   1      32.767  30.356  27.352  1.00  0.00    -0.460 OA
BRANCH  41  42
ATOM     42  C   UNL A   1      33.570  31.431  27.494  1.00  0.00     0.338 C 
ATOM     43  O   UNL A   1      33.215  32.611  27.543  1.00  0.00    -0.246 OA
BRANCH  42  44
ATOM     44  C   UNL A   1      34.953  31.028  27.776  1.00  0.00     0.060 A 
ATOM     45  C   UNL A   1      35.209  29.659  27.946  1.00  0.00     0.016 A 
ATOM     46  C   UNL A   1      35.955  31.972  28.001  1.00  0.00     0.016 A 
ATOM     47  C   UNL A   1      36.447  29.235  28.412  1.00  0.00     0.010 A 
ATOM     48  C   UNL A   1      37.192  31.545  28.489  1.00  0.00     0.010 A 
ATOM     49  C   UNL A   1      37.421  30.180  28.747  1.00  0.00    -0.014 A 
BRANCH  49  50
ATOM     50  C   UNL A   1      38.597  29.738  29.533  1.00  0.00     0.031 A 
ATOM     51  C   UNL A   1      38.749  30.227  30.941  1.00  0.00     0.074 A 
ATOM     52  C   UNL A   1      39.488  28.876  29.018  1.00  0.00     0.049 A 
ATOM     53  N   UNL A   1      39.665  29.921  31.819  1.00  0.00    -0.248 NA
ATOM     54  C   UNL A   1      37.731  31.172  31.429  1.00  0.00     0.031 C 
ATOM     55  C   UNL A   1      39.404  28.314  27.679  1.00  0.00     0.029 A 
ATOM     56  N   UNL A   1      40.636  28.335  29.533  1.00  0.00    -0.354 N 
ATOM     57  C   UNL A   1      39.345  30.640  32.960  1.00  0.00     0.074 A 
ATOM     58  C   UNL A   1      38.163  31.419  32.656  1.00  0.00     0.031 C 
ATOM     59  C   UNL A   1      40.483  27.553  27.444  1.00  0.00     0.029 A 
ATOM     60  C   UNL A   1      41.333  27.568  28.628  1.00  0.00     0.049 A 
ATOM     61  H   UNL A   1      40.933  28.481  30.461  1.00  0.00     0.167 HD
ATOM     62  C   UNL A   1      39.970  30.632  34.159  1.00  0.00     0.034 A 
ATOM     63  C   UNL A   1      42.524  26.951  28.742  1.00  0.00     0.034 A 
ATOM     64  C   UNL A   1      41.141  29.850  34.446  1.00  0.00     0.049 A 
ATOM     65  C   UNL A   1      43.219  26.987  30.074  1.00  0.00     0.074 A 
ATOM     66  C   UNL A   1      41.831  29.739  35.639  1.00  0.00     0.029 A 
ATOM     67  N   UNL A   1      41.810  29.059  33.521  1.00  0.00    -0.354 N 
ATOM     68  N   UNL A   1      42.838  27.575  31.182  1.00  0.00    -0.248 NA
ATOM     69  C   UNL A   1      44.470  26.229  30.194  1.00  0.00     0.031 C 
ATOM     70  C   UNL A   1      42.936  28.908  35.426  1.00  0.00     0.029 A 
ATOM     71  C   UNL A   1      42.913  28.469  34.112  1.00  0.00     0.049 A 
ATOM     72  H   UNL A   1      41.539  28.937  32.583  1.00  0.00     0.167 HD
ATOM     73  C   UNL A   1      43.774  27.221  32.144  1.00  0.00     0.074 A 
ATOM     74  C   UNL A   1      44.735  26.356  31.487  1.00  0.00     0.031 C 
ATOM     75  C   UNL A   1      43.835  27.580  33.450  1.00  0.00     0.034 A 
BRANCH  62  76
ATOM     76  C   UNL A   1      39.386  31.491  35.247  1.00  0.00     0.023 A 
ATOM     77  C   UNL A   1      38.419  30.955  36.122  1.00  0.00     0.012 A 
ATOM     78  C   UNL A   1      39.815  32.819  35.420  1.00  0.00     0.148 A 
ATOM     79  C   UNL A   1      37.863  31.740  37.131  1.00  0.00     0.002 A 
ATOM     80  C   UNL A   1      39.291  33.581  36.457  1.00  0.00     0.091 A 
ATOM     81  F   UNL A   1      40.714  33.318  34.559  1.00  0.00    -0.205 F 
ATOM     82  C   UNL A   1      38.307  33.048  37.305  1.00  0.00     0.022 A 
BRANCH  80  83
ATOM     83  S   UNL A   1      39.851  35.251  36.807  1.00  0.00     0.127 S 
ATOM     84  O   UNL A   1      39.276  35.996  35.686  1.00  0.00    -0.237 OA
ATOM     85  O   UNL A   1      39.226  35.518  38.102  1.00  0.00    -0.237 OA
ATOM     86  O   UNL A   1      41.306  35.191  36.834  1.00  0.00    -0.744 OA
ENDBRANCH  80  83
ENDBRANCH  62  76
BRANCH  63  87
ATOM     87  C   UNL A   1      43.095  26.209  27.584  1.00  0.00     0.023 A 
ATOM     88  C   UNL A   1      43.871  26.891  26.628  1.00  0.00     0.012 A 
ATOM     89  C   UNL A   1      42.895  24.821  27.443  1.00  0.00     0.148 A 
ATOM     90  C   UNL A   1      44.412  26.211  25.536  1.00  0.00     0.002 A 
ATOM     91  C   UNL A   1      43.478  24.141  26.379  1.00  0.00     0.091 A 
ATOM     92  F   UNL A   1      42.145  24.192  28.358  1.00  0.00    -0.205 F 
ATOM     93  C   UNL A   1      44.223  24.837  25.416  1.00  0.00     0.022 A 
BRANCH  91  94
ATOM     94  S   UNL A   1      43.386  22.354  26.217  1.00  0.00     0.127 S 
ATOM     95  O   UNL A   1      42.589  22.206  25.002  1.00  0.00    -0.237 OA
ATOM     96  O   UNL A   1      44.796  21.990  26.076  1.00  0.00    -0.237 OA
ATOM     97  O   UNL A   1      42.765  21.880  27.446  1.00  0.00    -0.744 OA
ENDBRANCH  91  94
ENDBRANCH  63  87
BRANCH  75  98
ATOM     98  C   UNL A   1      44.956  27.003  34.271  1.00  0.00     0.023 A 
ATOM     99  C   UNL A   1      46.219  27.628  34.283  1.00  0.00     0.012 A 
ATOM    100  C   UNL A   1      44.738  25.868  35.078  1.00  0.00     0.148 A 
ATOM    101  C   UNL A   1      47.258  27.110  35.053  1.00  0.00     0.002 A 
ATOM    102  C   UNL A   1      45.761  25.390  35.884  1.00  0.00     0.091 A 
ATOM    103  F   UNL A   1      43.536  25.275  35.036  1.00  0.00    -0.205 F 
ATOM    104  C   UNL A   1      47.026  26.000  35.862  1.00  0.00     0.022 A 
BRANCH 102 105
ATOM    105  S   UNL A   1      45.521  24.030  37.032  1.00  0.00     0.127 S 
ATOM    106  O   UNL A   1      45.160  22.938  36.128  1.00  0.00    -0.237 OA
ATOM    107  O   UNL A   1      46.843  23.902  37.644  1.00  0.00    -0.237 OA
ATOM    108  O   UNL A   1      44.472  24.458  37.947  1.00  0.00    -0.744 OA
ENDBRANCH 102 105
ENDBRANCH  75  98
ENDBRANCH  49  50
ENDBRANCH  42  44
ENDBRANCH  41  42
ENDBRANCH  40  41
ENDBRANCH  39  40
ENDBRANCH   1  39
TORSDOF 22
ENDMDL
MODEL 2
REMARK VINA RESULT:     -12.1      1.668      2.207
REMARK SMILES COc1ccc2[nH]cc([C@H](C(=O)OCCOCCOC(=O)c3ccc(-c4c5nc(c(-c6cccc(S(=O)(=O)[O-])c6F)c6ccc([nH]6)c(-c6cccc(S(=O)(=O)[O-])c6F)c6nc(c(-c7cccc(S(=O)(=O)[O-])c7F)c7ccc4[nH]7)C=C6)C=C5)cc3)[NH+]3CC[NH+](Cc4cccc5ccccc45)CC3)c2c1
REMARK SMILES IDX 16 1 15 2 14 3 13 4 11 5 12 6 10 7 9 8 3 9 4 10 103 11 5 12
REMARK SMILES IDX 102 13 6 14 7 15 8 16 2 18 1 19 85 20 86 21 101 22 87 24
REMARK SMILES IDX 100 25 88 26 89 28 90 29 91 30 99 31 92 32 94 33 98 34 93 35
REMARK SMILES IDX 95 36 97 37 96 38 17 39 18 40 19 41 20 42 21 43 22 44 23 45
REMARK SMILES IDX 84 46 24 47 83 48 25 49 26 50 27 51 77 52 28 53 82 54 76 55
REMARK SMILES IDX 78 56 29 57 81 58 75 59 74 60 30 62 62 63 42 64 61 65 43 66
REMARK SMILES IDX 46 67 60 68 79 69 44 70 45 71 59 73 80 74 47 75 31 76 32 77
REMARK SMILES IDX 40 78 33 79 35 80 41 81 34 82 36 83 37 84 38 85 39 86 63 87
REMARK SMILES IDX 64 88 72 89 65 90 67 91 73 92 66 93 68 94 69 95 70 96 71 97
REMARK SMILES IDX 48 98 49 99 57 100 50 101 52 102 58 103 51 104 53 105 54 106
REMARK SMILES IDX 55 107 56 108
REMARK H PARENT 7 17 85 23 88 27 78 61 46 72
REMARK Flexibility Score: inf
ROOT
ATOM      1  O   UNL A   1      33.389  28.893  25.550  1.00  0.00    -0.374 OA
ENDROOT
BRANCH   1   2
ATOM      2  C   UNL A   1      34.173  28.293  24.530  1.00  0.00     0.202 C 
BRANCH   2   3
ATOM      3  C   UNL A   1      33.612  28.003  23.122  1.00  0.00     0.261 C 
BRANCH   3   4
ATOM      4  O   UNL A   1      33.424  26.624  22.792  1.00  0.00    -0.459 OA
BRANCH   4   5
ATOM      5  C   UNL A   1      32.100  26.329  22.678  1.00  0.00     0.370 C 
ATOM      6  O   UNL A   1      31.650  25.887  21.627  1.00  0.00    -0.245 OA
BRANCH   5   7
ATOM      7  C   UNL A   1      31.307  26.469  23.988  1.00  0.00     0.328 C 
BRANCH   7   8
ATOM      8  C   UNL A   1      29.824  26.784  23.834  1.00  0.00     0.046 A 
ATOM      9  C   UNL A   1      28.897  30.221  22.479  1.00  0.00     0.119 A 
ATOM     10  C   UNL A   1      27.522  30.109  22.636  1.00  0.00     0.048 A 
ATOM     11  C   UNL A   1      29.754  29.166  22.768  1.00  0.00     0.057 A 
ATOM     12  C   UNL A   1      26.965  28.910  23.090  1.00  0.00     0.030 A 
ATOM     13  C   UNL A   1      29.231  27.985  23.315  1.00  0.00     0.013 A 
ATOM     14  C   UNL A   1      27.844  27.867  23.420  1.00  0.00     0.046 A 
ATOM     15  N   UNL A   1      27.588  26.593  23.863  1.00  0.00    -0.361 N 
ATOM     16  C   UNL A   1      28.763  25.936  24.122  1.00  0.00     0.094 A 
ATOM     17  H   UNL A   1      26.690  26.206  23.977  1.00  0.00     0.166 HD
BRANCH   9  18
ATOM     18  O   UNL A   1      29.483  31.381  22.053  1.00  0.00    -0.497 OA
ATOM     19  C   UNL A   1      28.467  32.368  21.907  1.00  0.00     0.278 C 
ENDBRANCH   9  18
ENDBRANCH   7   8
BRANCH   7  20
ATOM     20  N   UNL A   1      31.446  25.281  24.862  1.00  0.00    -0.310 N 
ATOM     21  C   UNL A   1      31.553  24.005  24.147  1.00  0.00     0.325 C 
ATOM     22  C   UNL A   1      32.447  25.385  25.934  1.00  0.00     0.325 C 
ATOM     23  H   UNL A   1      30.544  25.278  25.339  1.00  0.00     0.349 HD
ATOM     24  C   UNL A   1      32.959  23.429  23.872  1.00  0.00     0.324 C 
ATOM     25  C   UNL A   1      33.853  24.736  25.731  1.00  0.00     0.324 C 
ATOM     26  N   UNL A   1      33.924  23.478  24.973  1.00  0.00    -0.322 N 
ATOM     27  H   UNL A   1      34.844  23.509  24.537  1.00  0.00     0.348 HD
BRANCH  26  28
ATOM     28  C   UNL A   1      34.055  22.240  25.750  1.00  0.00     0.300 C 
BRANCH  28  29
ATOM     29  C   UNL A   1      34.926  21.169  25.119  1.00  0.00     0.014 A 
ATOM     30  C   UNL A   1      36.319  21.363  25.178  1.00  0.00     0.010 A 
ATOM     31  C   UNL A   1      34.401  19.919  24.694  1.00  0.00    -0.010 A 
ATOM     32  C   UNL A   1      37.189  20.300  24.987  1.00  0.00     0.001 A 
ATOM     33  C   UNL A   1      35.290  18.822  24.624  1.00  0.00    -0.018 A 
ATOM     34  C   UNL A   1      33.032  19.680  24.420  1.00  0.00     0.009 A 
ATOM     35  C   UNL A   1      36.672  19.028  24.768  1.00  0.00     0.009 A 
ATOM     36  C   UNL A   1      34.774  17.525  24.467  1.00  0.00     0.009 A 
ATOM     37  C   UNL A   1      32.537  18.386  24.243  1.00  0.00     0.001 A 
ATOM     38  C   UNL A   1      33.405  17.306  24.306  1.00  0.00     0.001 A 
ENDBRANCH  28  29
ENDBRANCH  26  28
ENDBRANCH   7  20
ENDBRANCH   5   7
ENDBRANCH   4   5
ENDBRANCH   3   4
ENDBRANCH   2   3
ENDBRANCH   1   2
BRANCH   1  39
ATOM     39  C   UNL A   1      32.478  29.945  25.274  1.00  0.00     0.202 C 
BRANCH  39  40
ATOM     40  C   UNL A   1      31.819  30.770  26.388  1.00  0.00     0.261 C 
BRANCH  40  41
ATOM     41  O   UNL A   1      32.564  30.856  27.610  1.00  0.00    -0.460 OA
BRANCH  41  42
ATOM     42  C   UNL A   1      33.444  31.877  27.660  1.00  0.00     0.338 C 
ATOM     43  O   UNL A   1      33.175  33.080  27.660  1.00  0.00    -0.246 OA
BRANCH  42  44
ATOM     44  C   UNL A   1      34.808  31.390  27.904  1.00  0.00     0.060 A 
ATOM     45  C   UNL A   1      34.974  30.022  28.164  1.00  0.00     0.016 A 
ATOM     46  C   UNL A   1      35.886  32.270  28.010  1.00  0.00     0.016 A 
ATOM     47  C   UNL A   1      36.201  29.539  28.600  1.00  0.00     0.010 A 
ATOM     48  C   UNL A   1      37.114  31.786  28.468  1.00  0.00     0.010 A 
ATOM     49  C   UNL A   1      37.257  30.429  28.815  1.00  0.00    -0.014 A 
BRANCH  49  50
ATOM     50  C   UNL A   1      38.438  29.957  29.574  1.00  0.00     0.031 A 
ATOM     51  C   UNL A   1      38.637  30.442  30.978  1.00  0.00     0.074 A 
ATOM     52  C   UNL A   1      39.294  29.070  29.040  1.00  0.00     0.049 A 
ATOM     53  N   UNL A   1      39.564  30.111  31.835  1.00  0.00    -0.248 NA
ATOM     54  C   UNL A   1      37.656  31.413  31.488  1.00  0.00     0.031 C 
ATOM     55  C   UNL A   1      39.164  28.510  27.704  1.00  0.00     0.029 A 
ATOM     56  N   UNL A   1      40.439  28.500  29.529  1.00  0.00    -0.354 N 
ATOM     57  C   UNL A   1      39.289  30.839  32.983  1.00  0.00     0.074 A 
ATOM     58  C   UNL A   1      38.122  31.649  32.705  1.00  0.00     0.031 C 
ATOM     59  C   UNL A   1      40.217  27.721  27.444  1.00  0.00     0.029 A 
ATOM     60  C   UNL A   1      41.094  27.714  28.609  1.00  0.00     0.049 A 
ATOM     61  H   UNL A   1      40.761  28.638  30.449  1.00  0.00     0.167 HD
ATOM     62  C   UNL A   1      39.941  30.815  34.167  1.00  0.00     0.034 A 
ATOM     63  C   UNL A   1      42.271  27.065  28.696  1.00  0.00     0.034 A 
ATOM     64  C   UNL A   1      41.098  30.002  34.427  1.00  0.00     0.049 A 
ATOM     65  C   UNL A   1      42.997  27.083  30.012  1.00  0.00     0.074 A 
ATOM     66  C   UNL A   1      41.811  29.873  35.604  1.00  0.00     0.029 A 
ATOM     67  N   UNL A   1      41.724  29.193  33.488  1.00  0.00    -0.354 N 
ATOM     68  N   UNL A   1      42.657  27.681  31.128  1.00  0.00    -0.248 NA
ATOM     69  C   UNL A   1      44.229  26.292  30.103  1.00  0.00     0.031 C 
ATOM     70  C   UNL A   1      42.889  29.012  35.367  1.00  0.00     0.029 A 
ATOM     71  C   UNL A   1      42.824  28.573  34.054  1.00  0.00     0.049 A 
ATOM     72  H   UNL A   1      41.428  29.078  32.556  1.00  0.00     0.167 HD
ATOM     73  C   UNL A   1      43.606  27.302  32.068  1.00  0.00     0.074 A 
ATOM     74  C   UNL A   1      44.527  26.412  31.390  1.00  0.00     0.031 C 
ATOM     75  C   UNL A   1      43.706  27.660  33.372  1.00  0.00     0.034 A 
BRANCH  62  76
ATOM     76  C   UNL A   1      39.406  31.689  35.267  1.00  0.00     0.023 A 
ATOM     77  C   UNL A   1      38.460  31.174  36.177  1.00  0.00     0.012 A 
ATOM     78  C   UNL A   1      39.859  33.013  35.416  1.00  0.00     0.148 A 
ATOM     79  C   UNL A   1      37.949  31.973  37.199  1.00  0.00     0.002 A 
ATOM     80  C   UNL A   1      39.381  33.789  36.464  1.00  0.00     0.091 A 
ATOM     81  F   UNL A   1      40.736  33.492  34.522  1.00  0.00    -0.205 F 
ATOM     82  C   UNL A   1      38.417  33.276  37.348  1.00  0.00     0.022 A 
BRANCH  80  83
ATOM     83  S   UNL A   1      39.975  35.453  36.783  1.00  0.00     0.127 S 
ATOM     84  O   UNL A   1      41.417  35.234  36.899  1.00  0.00    -0.237 OA
ATOM     85  O   UNL A   1      39.560  36.164  35.574  1.00  0.00    -0.237 OA
ATOM     86  O   UNL A   1      39.311  35.890  38.004  1.00  0.00    -0.744 OA
ENDBRANCH  80  83
ENDBRANCH  62  76
BRANCH  63  87
ATOM     87  C   UNL A   1      42.795  26.308  27.525  1.00  0.00     0.023 A 
ATOM     88  C   UNL A   1      43.679  26.932  26.625  1.00  0.00     0.012 A 
ATOM     89  C   UNL A   1      42.442  24.959  27.318  1.00  0.00     0.148 A 
ATOM     90  C   UNL A   1      44.177  26.237  25.522  1.00  0.00     0.002 A 
ATOM     91  C   UNL A   1      42.981  24.258  26.246  1.00  0.00     0.091 A 
ATOM     92  F   UNL A   1      41.591  24.386  28.181  1.00  0.00    -0.205 F 
ATOM     93  C   UNL A   1      43.837  24.899  25.338  1.00  0.00     0.022 A 
BRANCH  91  94
ATOM     94  S   UNL A   1      42.690  22.501  26.003  1.00  0.00     0.127 S 
ATOM     95  O   UNL A   1      43.253  21.934  27.226  1.00  0.00    -0.237 OA
ATOM     96  O   UNL A   1      41.231  22.446  25.914  1.00  0.00    -0.237 OA
ATOM     97  O   UNL A   1      43.379  22.157  24.767  1.00  0.00    -0.744 OA
ENDBRANCH  91  94
ENDBRANCH  63  87
BRANCH  75  98
ATOM     98  C   UNL A   1      44.830  27.053  34.167  1.00  0.00     0.023 A 
ATOM     99  C   UNL A   1      44.624  25.860  34.887  1.00  0.00     0.012 A 
ATOM    100  C   UNL A   1      46.111  27.641  34.152  1.00  0.00     0.148 A 
ATOM    101  C   UNL A   1      45.665  25.283  35.612  1.00  0.00     0.002 A 
ATOM    102  C   UNL A   1      47.156  27.031  34.833  1.00  0.00     0.091 A 
ATOM    103  F   UNL A   1      46.281  28.789  33.479  1.00  0.00    -0.205 F 
ATOM    104  C   UNL A   1      46.932  25.861  35.576  1.00  0.00     0.022 A 
BRANCH 102 105
ATOM    105  S   UNL A   1      48.840  27.650  34.756  1.00  0.00     0.127 S 
ATOM    106  O   UNL A   1      49.493  26.867  35.804  1.00  0.00    -0.237 OA
ATOM    107  O   UNL A   1      49.239  27.299  33.393  1.00  0.00    -0.237 OA
ATOM    108  O   UNL A   1      48.752  29.082  35.008  1.00  0.00    -0.744 OA
ENDBRANCH 102 105
ENDBRANCH  75  98
ENDBRANCH  49  50
ENDBRANCH  42  44
ENDBRANCH  41  42
ENDBRANCH  40  41
ENDBRANCH  39  40
ENDBRANCH   1  39
TORSDOF 22
ENDMDL
MODEL 3
REMARK VINA RESULT:     -11.9      1.483      7.454
REMARK SMILES COc1ccc2[nH]cc([C@H](C(=O)OCCOCCOC(=O)c3ccc(-c4c5nc(c(-c6cccc(S(=O)(=O)[O-])c6F)c6ccc([nH]6)c(-c6cccc(S(=O)(=O)[O-])c6F)c6nc(c(-c7cccc(S(=O)(=O)[O-])c7F)c7ccc4[nH]7)C=C6)C=C5)cc3)[NH+]3CC[NH+](Cc4cccc5ccccc45)CC3)c2c1
REMARK SMILES IDX 16 1 15 2 14 3 13 4 11 5 12 6 10 7 9 8 3 9 4 10 103 11 5 12
REMARK SMILES IDX 102 13 6 14 7 15 8 16 2 18 1 19 85 20 86 21 101 22 87 24
REMARK SMILES IDX 100 25 88 26 89 28 90 29 91 30 99 31 92 32 94 33 98 34 93 35
REMARK SMILES IDX 95 36 97 37 96 38 17 39 18 40 19 41 20 42 21 43 22 44 23 45
REMARK SMILES IDX 84 46 24 47 83 48 25 49 26 50 27 51 77 52 28 53 82 54 76 55
REMARK SMILES IDX 78 56 29 57 81 58 75 59 74 60 30 62 62 63 42 64 61 65 43 66
REMARK SMILES IDX 46 67 60 68 79 69 44 70 45 71 59 73 80 74 47 75 31 76 32 77
REMARK SMILES IDX 40 78 33 79 35 80 41 81 34 82 36 83 37 84 38 85 39 86 63 87
REMARK SMILES IDX 64 88 72 89 65 90 67 91 73 92 66 93 68 94 69 95 70 96 71 97
REMARK SMILES IDX 48 98 49 99 57 100 50 101 52 102 58 103 51 104 53 105 54 106
REMARK SMILES IDX 55 107 56 108
REMARK H PARENT 7 17 85 23 88 27 78 61 46 72
REMARK Flexibility Score: inf
ROOT
ATOM      1  O   UNL A   1      33.390  28.886  25.547  1.00  0.00    -0.374 OA
ENDROOT
BRANCH   1   2
ATOM      2  C   UNL A   1      34.190  28.242  24.567  1.00  0.00     0.202 C 
BRANCH   2   3
ATOM      3  C   UNL A   1      33.661  27.918  23.154  1.00  0.00     0.261 C 
BRANCH   3   4
ATOM      4  O   UNL A   1      33.442  26.534  22.866  1.00  0.00    -0.459 OA
BRANCH   4   5
ATOM      5  C   UNL A   1      32.113  26.272  22.734  1.00  0.00     0.370 C 
ATOM      6  O   UNL A   1      31.665  25.852  21.672  1.00  0.00    -0.245 OA
BRANCH   5   7
ATOM      7  C   UNL A   1      31.307  26.414  24.035  1.00  0.00     0.328 C 
BRANCH   7   8
ATOM      8  C   UNL A   1      29.825  26.730  23.866  1.00  0.00     0.046 A 
ATOM      9  C   UNL A   1      28.902  30.256  22.762  1.00  0.00     0.119 A 
ATOM     10  C   UNL A   1      27.525  30.122  22.872  1.00  0.00     0.048 A 
ATOM     11  C   UNL A   1      29.761  29.188  22.990  1.00  0.00     0.057 A 
ATOM     12  C   UNL A   1      26.967  28.886  23.214  1.00  0.00     0.030 A 
ATOM     13  C   UNL A   1      29.235  27.963  23.428  1.00  0.00     0.013 A 
ATOM     14  C   UNL A   1      27.848  27.827  23.486  1.00  0.00     0.046 A 
ATOM     15  N   UNL A   1      27.591  26.520  23.819  1.00  0.00    -0.361 N 
ATOM     16  C   UNL A   1      28.766  25.854  24.058  1.00  0.00     0.094 A 
ATOM     17  H   UNL A   1      26.694  26.119  23.878  1.00  0.00     0.166 HD
BRANCH   9  18
ATOM     18  O   UNL A   1      29.488  31.450  22.445  1.00  0.00    -0.497 OA
ATOM     19  C   UNL A   1      28.466  32.437  22.341  1.00  0.00     0.278 C 
ENDBRANCH   9  18
ENDBRANCH   7   8
BRANCH   7  20
ATOM     20  N   UNL A   1      31.437  25.228  24.914  1.00  0.00    -0.310 N 
ATOM     21  C   UNL A   1      31.509  23.947  24.204  1.00  0.00     0.325 C 
ATOM     22  C   UNL A   1      32.456  25.319  25.970  1.00  0.00     0.325 C 
ATOM     23  H   UNL A   1      30.542  25.244  25.404  1.00  0.00     0.349 HD
ATOM     24  C   UNL A   1      32.901  23.344  23.910  1.00  0.00     0.324 C 
ATOM     25  C   UNL A   1      33.846  24.643  25.750  1.00  0.00     0.324 C 
ATOM     26  N   UNL A   1      33.883  23.380  24.997  1.00  0.00    -0.322 N 
ATOM     27  H   UNL A   1      34.797  23.393  24.546  1.00  0.00     0.348 HD
BRANCH  26  28
ATOM     28  C   UNL A   1      34.003  22.144  25.778  1.00  0.00     0.300 C 
BRANCH  28  29
ATOM     29  C   UNL A   1      34.843  21.054  25.139  1.00  0.00     0.014 A 
ATOM     30  C   UNL A   1      36.242  21.196  25.222  1.00  0.00     0.010 A 
ATOM     31  C   UNL A   1      34.280  19.832  24.683  1.00  0.00    -0.010 A 
ATOM     32  C   UNL A   1      37.075  20.106  25.023  1.00  0.00     0.001 A 
ATOM     33  C   UNL A   1      35.129  18.705  24.605  1.00  0.00    -0.018 A 
ATOM     34  C   UNL A   1      32.907  19.648  24.385  1.00  0.00     0.009 A 
ATOM     35  C   UNL A   1      36.515  18.857  24.773  1.00  0.00     0.009 A 
ATOM     36  C   UNL A   1      34.569  17.430  24.417  1.00  0.00     0.009 A 
ATOM     37  C   UNL A   1      32.369  18.376  24.177  1.00  0.00     0.001 A 
ATOM     38  C   UNL A   1      33.196  17.264  24.232  1.00  0.00     0.001 A 
ENDBRANCH  28  29
ENDBRANCH  26  28
ENDBRANCH   7  20
ENDBRANCH   5   7
ENDBRANCH   4   5
ENDBRANCH   3   4
ENDBRANCH   2   3
ENDBRANCH   1   2
BRANCH   1  39
ATOM     39  C   UNL A   1      32.479  29.920  25.209  1.00  0.00     0.202 C 
BRANCH  39  40
ATOM     40  C   UNL A   1      31.761  30.758  26.277  1.00  0.00     0.261 C 
BRANCH  40  41
ATOM     41  O   UNL A   1      32.480  30.936  27.503  1.00  0.00    -0.460 OA
BRANCH  41  42
ATOM     42  C   UNL A   1      33.300  32.007  27.524  1.00  0.00     0.338 C 
ATOM     43  O   UNL A   1      32.963  33.191  27.456  1.00  0.00    -0.246 OA
BRANCH  42  44
ATOM     44  C   UNL A   1      34.681  31.613  27.828  1.00  0.00     0.060 A 
ATOM     45  C   UNL A   1      34.921  30.266  28.136  1.00  0.00     0.016 A 
ATOM     46  C   UNL A   1      35.700  32.560  27.943  1.00  0.00     0.016 A 
ATOM     47  C   UNL A   1      36.158  29.871  28.627  1.00  0.00     0.010 A 
ATOM     48  C   UNL A   1      36.938  32.166  28.456  1.00  0.00     0.010 A 
ATOM     49  C   UNL A   1      37.151  30.831  28.850  1.00  0.00    -0.014 A 
BRANCH  49  50
ATOM     50  C   UNL A   1      38.331  30.454  29.662  1.00  0.00     0.031 A 
ATOM     51  C   UNL A   1      39.333  29.502  29.084  1.00  0.00     0.074 A 
ATOM     52  C   UNL A   1      38.534  30.990  30.877  1.00  0.00     0.049 A 
ATOM     53  N   UNL A   1      40.459  29.087  29.597  1.00  0.00    -0.248 NA
ATOM     54  C   UNL A   1      39.036  28.958  27.748  1.00  0.00     0.031 C 
ATOM     55  C   UNL A   1      37.642  31.952  31.506  1.00  0.00     0.029 A 
ATOM     56  N   UNL A   1      39.524  30.800  31.803  1.00  0.00    -0.354 N 
ATOM     57  C   UNL A   1      41.003  28.225  28.656  1.00  0.00     0.074 A 
ATOM     58  C   UNL A   1      40.072  28.157  27.551  1.00  0.00     0.031 C 
ATOM     59  C   UNL A   1      38.083  32.230  32.742  1.00  0.00     0.029 A 
ATOM     60  C   UNL A   1      39.300  31.467  32.986  1.00  0.00     0.049 A 
ATOM     61  H   UNL A   1      40.317  30.240  31.639  1.00  0.00     0.167 HD
ATOM     62  C   UNL A   1      42.185  27.569  28.705  1.00  0.00     0.034 A 
ATOM     63  C   UNL A   1      39.999  31.459  34.138  1.00  0.00     0.034 A 
ATOM     64  C   UNL A   1      43.101  27.651  29.810  1.00  0.00     0.049 A 
ATOM     65  C   UNL A   1      41.291  30.692  34.180  1.00  0.00     0.074 A 
ATOM     66  C   UNL A   1      44.342  27.058  29.944  1.00  0.00     0.029 A 
ATOM     67  N   UNL A   1      42.865  28.357  30.982  1.00  0.00    -0.354 N 
ATOM     68  N   UNL A   1      41.852  29.977  33.235  1.00  0.00    -0.248 NA
ATOM     69  C   UNL A   1      42.075  30.777  35.418  1.00  0.00     0.031 C 
ATOM     70  C   UNL A   1      44.841  27.377  31.211  1.00  0.00     0.029 A 
ATOM     71  C   UNL A   1      43.930  28.202  31.851  1.00  0.00     0.049 A 
ATOM     72  H   UNL A   1      42.057  28.888  31.168  1.00  0.00     0.167 HD
ATOM     73  C   UNL A   1      43.076  29.566  33.744  1.00  0.00     0.074 A 
ATOM     74  C   UNL A   1      43.178  30.123  35.078  1.00  0.00     0.031 C 
ATOM     75  C   UNL A   1      44.028  28.797  33.161  1.00  0.00     0.034 A 
BRANCH  62  76
ATOM     76  C   UNL A   1      42.549  26.717  27.522  1.00  0.00     0.023 A 
ATOM     77  C   UNL A   1      43.317  27.262  26.472  1.00  0.00     0.012 A 
ATOM     78  C   UNL A   1      42.154  25.368  27.461  1.00  0.00     0.148 A 
ATOM     79  C   UNL A   1      43.659  26.487  25.365  1.00  0.00     0.002 A 
ATOM     80  C   UNL A   1      42.537  24.588  26.376  1.00  0.00     0.091 A 
ATOM     81  F   UNL A   1      41.399  24.877  28.454  1.00  0.00    -0.205 F 
ATOM     82  C   UNL A   1      43.277  25.148  25.322  1.00  0.00     0.022 A 
BRANCH  80  83
ATOM     83  S   UNL A   1      42.157  22.837  26.264  1.00  0.00     0.127 S 
ATOM     84  O   UNL A   1      42.839  22.310  27.446  1.00  0.00    -0.237 OA
ATOM     85  O   UNL A   1      40.696  22.834  26.350  1.00  0.00    -0.237 OA
ATOM     86  O   UNL A   1      42.692  22.390  24.985  1.00  0.00    -0.744 OA
ENDBRANCH  80  83
ENDBRANCH  62  76
BRANCH  63  87
ATOM     87  C   UNL A   1      39.517  32.242  35.309  1.00  0.00     0.023 A 
ATOM     88  C   UNL A   1      38.650  31.644  36.244  1.00  0.00     0.012 A 
ATOM     89  C   UNL A   1      39.939  33.571  35.516  1.00  0.00     0.148 A 
ATOM     90  C   UNL A   1      38.188  32.365  37.346  1.00  0.00     0.002 A 
ATOM     91  C   UNL A   1      39.514  34.266  36.642  1.00  0.00     0.091 A 
ATOM     92  F   UNL A   1      40.756  34.125  34.609  1.00  0.00    -0.205 F 
ATOM     93  C   UNL A   1      38.627  33.671  37.550  1.00  0.00     0.022 A 
BRANCH  91  94
ATOM     94  S   UNL A   1      40.125  35.908  37.043  1.00  0.00     0.127 S 
ATOM     95  O   UNL A   1      41.565  35.678  37.127  1.00  0.00    -0.237 OA
ATOM     96  O   UNL A   1      39.692  36.684  35.881  1.00  0.00    -0.237 OA
ATOM     97  O   UNL A   1      39.466  36.277  38.289  1.00  0.00    -0.744 OA
ENDBRANCH  91  94
ENDBRANCH  63  87
BRANCH  75  98
ATOM     98  C   UNL A   1      45.287  28.545  33.947  1.00  0.00     0.023 A 
ATOM     99  C   UNL A   1      46.420  29.358  33.747  1.00  0.00     0.012 A 
ATOM    100  C   UNL A   1      45.323  27.534  34.928  1.00  0.00     0.148 A 
ATOM    101  C   UNL A   1      47.584  29.141  34.484  1.00  0.00     0.002 A 
ATOM    102  C   UNL A   1      46.467  27.360  35.695  1.00  0.00     0.091 A 
ATOM    103  F   UNL A   1      44.241  26.757  35.087  1.00  0.00    -0.205 F 
ATOM    104  C   UNL A   1      47.603  28.152  35.464  1.00  0.00     0.022 A 
BRANCH 102 105
ATOM    105  S   UNL A   1      46.544  26.180  37.046  1.00  0.00     0.127 S 
ATOM    106  O   UNL A   1      47.982  26.124  37.310  1.00  0.00    -0.237 OA
ATOM    107  O   UNL A   1      45.758  26.845  38.085  1.00  0.00    -0.237 OA
ATOM    108  O   UNL A   1      45.953  24.950  36.538  1.00  0.00    -0.744 OA
ENDBRANCH 102 105
ENDBRANCH  75  98
ENDBRANCH  49  50
ENDBRANCH  42  44
ENDBRANCH  41  42
ENDBRANCH  40  41
ENDBRANCH  39  40
ENDBRANCH   1  39
TORSDOF 22
ENDMDL
