MODEL 1
REMARK VINA RESULT:     -10.8      0.000      0.000
REMARK SMILES COc1cccc(NC(=O)COc2csc(C(=O)OCCOCCOC(=O)c3ccc(-c4c5nc(c(-c6cccc(S(=O)(=O)[O-])c6F)c6ccc([nH]6)c(-c6cccc(S(=O)(=O)[O-])c6F)c6nc(c(-c7cccc(S(=O)(=O)[O-])c7F)c7ccc4[nH]7)C=C6)C=C5)cc3)c2)c1
REMARK SMILES IDX 21 1 20 2 19 3 17 4 18 5 16 6 13 7 14 8 91 9 15 10 12 11
REMARK SMILES IDX 11 12 9 13 8 14 10 16 7 17 3 18 4 19 92 20 5 21 6 22 2 23
REMARK SMILES IDX 1 24 22 25 23 26 24 27 25 28 26 29 27 30 28 31 29 32 90 33
REMARK SMILES IDX 30 34 89 35 31 36 32 37 33 38 83 39 34 40 88 41 82 42 84 43
REMARK SMILES IDX 35 44 87 45 81 46 80 47 36 49 68 50 48 51 67 52 49 53 52 54
REMARK SMILES IDX 66 55 85 56 50 57 51 58 65 60 86 61 53 62 37 63 38 64 46 65
REMARK SMILES IDX 39 66 41 67 47 68 40 69 42 70 43 71 44 72 45 73 69 74 70 75
REMARK SMILES IDX 78 76 71 77 73 78 79 79 72 80 74 81 75 82 76 83 77 84 54 85
REMARK SMILES IDX 55 86 63 87 56 88 58 89 64 90 57 91 59 92 60 93 61 94 62 95
REMARK H PARENT 8 15 84 48 52 59
REMARK Flexibility Score: inf
ROOT
ATOM      1  C   UNL A   1      31.370  29.497  25.008  1.00  0.00     0.202 C 
ENDROOT
BRANCH   1   2
ATOM      2  C   UNL A   1      31.876  28.918  23.682  1.00  0.00     0.261 C 
BRANCH   2   3
ATOM      3  O   UNL A   1      32.538  27.664  23.917  1.00  0.00    -0.459 OA
BRANCH   3   4
ATOM      4  C   UNL A   1      33.417  27.261  22.955  1.00  0.00     0.348 C 
ATOM      5  O   UNL A   1      34.144  28.014  22.318  1.00  0.00    -0.245 OA
BRANCH   4   6
ATOM      6  C   UNL A   1      33.444  25.812  22.908  1.00  0.00     0.116 A 
ATOM      7  C   UNL A   1      33.958  23.555  23.260  1.00  0.00     0.131 A 
ATOM      8  C   UNL A   1      33.174  23.482  22.132  1.00  0.00     0.112 A 
ATOM      9  C   UNL A   1      34.126  24.903  23.697  1.00  0.00     0.074 A 
ATOM     10  S   UNL A   1      32.583  25.017  21.657  1.00  0.00    -0.133 S 
BRANCH   7  11
ATOM     11  O   UNL A   1      34.507  22.527  23.953  1.00  0.00    -0.483 OA
BRANCH  11  12
ATOM     12  C   UNL A   1      34.182  22.408  25.322  1.00  0.00     0.329 C 
BRANCH  12  13
ATOM     13  C   UNL A   1      32.758  22.102  25.800  1.00  0.00     0.262 C 
ATOM     14  N   UNL A   1      32.109  20.930  25.569  1.00  0.00    -0.323 N 
ATOM     15  H   UNL A   1      31.239  20.880  26.027  1.00  0.00     0.170 HD
ATOM     16  O   UNL A   1      32.146  22.950  26.465  1.00  0.00    -0.271 OA
BRANCH  14  17
ATOM     17  C   UNL A   1      32.397  19.774  24.825  1.00  0.00     0.044 A 
ATOM     18  C   UNL A   1      33.129  17.449  24.930  1.00  0.00     0.120 A 
ATOM     19  C   UNL A   1      33.083  17.375  23.542  1.00  0.00     0.046 A 
ATOM     20  C   UNL A   1      32.796  18.648  25.566  1.00  0.00     0.072 A 
ATOM     21  C   UNL A   1      32.651  18.472  22.801  1.00  0.00     0.006 A 
ATOM     22  C   UNL A   1      32.294  19.663  23.442  1.00  0.00     0.026 A 
BRANCH  18  23
ATOM     23  O   UNL A   1      33.559  16.318  25.569  1.00  0.00    -0.497 OA
ATOM     24  C   UNL A   1      32.649  15.223  25.543  1.00  0.00     0.278 C 
ENDBRANCH  18  23
ENDBRANCH  14  17
ENDBRANCH  12  13
ENDBRANCH  11  12
ENDBRANCH   7  11
ENDBRANCH   4   6
ENDBRANCH   3   4
ENDBRANCH   2   3
ENDBRANCH   1   2
BRANCH   1  25
ATOM     25  O   UNL A   1      31.673  28.689  26.148  1.00  0.00    -0.374 OA
BRANCH  25  26
ATOM     26  C   UNL A   1      32.535  29.283  27.123  1.00  0.00     0.202 C 
BRANCH  26  27
ATOM     27  C   UNL A   1      32.863  30.759  26.878  1.00  0.00     0.261 C 
BRANCH  27  28
ATOM     28  O   UNL A   1      33.329  31.386  28.086  1.00  0.00    -0.460 OA
BRANCH  28  29
ATOM     29  C   UNL A   1      34.304  32.310  27.912  1.00  0.00     0.338 C 
ATOM     30  O   UNL A   1      34.157  33.486  27.623  1.00  0.00    -0.246 OA
BRANCH  29  31
ATOM     31  C   UNL A   1      35.612  31.737  28.292  1.00  0.00     0.060 A 
ATOM     32  C   UNL A   1      35.654  30.365  28.573  1.00  0.00     0.016 A 
ATOM     33  C   UNL A   1      36.764  32.519  28.417  1.00  0.00     0.016 A 
ATOM     34  C   UNL A   1      36.830  29.782  29.038  1.00  0.00     0.010 A 
ATOM     35  C   UNL A   1      37.944  31.931  28.887  1.00  0.00     0.010 A 
ATOM     36  C   UNL A   1      37.971  30.570  29.237  1.00  0.00    -0.014 A 
BRANCH  36  37
ATOM     37  C   UNL A   1      39.136  29.998  29.954  1.00  0.00     0.031 A 
ATOM     38  C   UNL A   1      39.458  30.499  31.335  1.00  0.00     0.074 A 
ATOM     39  C   UNL A   1      39.882  29.029  29.395  1.00  0.00     0.049 A 
ATOM     40  N   UNL A   1      40.409  30.125  32.150  1.00  0.00    -0.248 NA
ATOM     41  C   UNL A   1      38.593  31.565  31.867  1.00  0.00     0.031 C 
ATOM     42  C   UNL A   1      39.666  28.456  28.068  1.00  0.00     0.029 A 
ATOM     43  N   UNL A   1      40.982  28.365  29.875  1.00  0.00    -0.354 N 
ATOM     44  C   UNL A   1      40.269  30.916  33.284  1.00  0.00     0.074 A 
ATOM     45  C   UNL A   1      39.155  31.808  33.042  1.00  0.00     0.031 C 
ATOM     46  C   UNL A   1      40.615  27.532  27.833  1.00  0.00     0.029 A 
ATOM     47  C   UNL A   1      41.512  27.461  28.984  1.00  0.00     0.049 A 
ATOM     48  H   UNL A   1      41.358  28.521  30.771  1.00  0.00     0.167 HD
ATOM     49  C   UNL A   1      40.983  30.888  34.434  1.00  0.00     0.034 A 
ATOM     50  C   UNL A   1      42.599  26.670  29.090  1.00  0.00     0.034 A 
ATOM     51  C   UNL A   1      42.079  29.992  34.682  1.00  0.00     0.049 A 
ATOM     52  C   UNL A   1      43.399  26.682  30.366  1.00  0.00     0.074 A 
ATOM     53  C   UNL A   1      42.847  29.865  35.826  1.00  0.00     0.029 A 
ATOM     54  N   UNL A   1      42.569  29.073  33.768  1.00  0.00    -0.354 N 
ATOM     55  N   UNL A   1      43.182  27.352  31.472  1.00  0.00    -0.248 NA
ATOM     56  C   UNL A   1      44.577  25.802  30.419  1.00  0.00     0.031 C 
ATOM     57  C   UNL A   1      43.812  28.878  35.597  1.00  0.00     0.029 A 
ATOM     58  C   UNL A   1      43.634  28.379  34.316  1.00  0.00     0.049 A 
ATOM     59  H   UNL A   1      42.213  28.934  32.860  1.00  0.00     0.167 HD
ATOM     60  C   UNL A   1      44.167  26.945  32.366  1.00  0.00     0.074 A 
ATOM     61  C   UNL A   1      44.975  25.961  31.675  1.00  0.00     0.031 C 
ATOM     62  C   UNL A   1      44.392  27.359  33.637  1.00  0.00     0.034 A 
BRANCH  49  63
ATOM     63  C   UNL A   1      40.565  31.834  35.528  1.00  0.00     0.023 A 
ATOM     64  C   UNL A   1      41.336  32.988  35.776  1.00  0.00     0.012 A 
ATOM     65  C   UNL A   1      39.404  31.602  36.289  1.00  0.00     0.148 A 
ATOM     66  C   UNL A   1      40.980  33.878  36.788  1.00  0.00     0.002 A 
ATOM     67  C   UNL A   1      39.032  32.516  37.270  1.00  0.00     0.091 A 
ATOM     68  F   UNL A   1      38.698  30.486  36.061  1.00  0.00    -0.205 F 
ATOM     69  C   UNL A   1      39.823  33.647  37.528  1.00  0.00     0.022 A 
BRANCH  67  70
ATOM     70  S   UNL A   1      37.522  32.332  38.227  1.00  0.00     0.127 S 
ATOM     71  O   UNL A   1      36.530  32.925  37.332  1.00  0.00    -0.237 OA
ATOM     72  O   UNL A   1      37.419  30.879  38.374  1.00  0.00    -0.237 OA
ATOM     73  O   UNL A   1      37.757  33.047  39.475  1.00  0.00    -0.744 OA
ENDBRANCH  67  70
ENDBRANCH  49  63
BRANCH  50  74
ATOM     74  C   UNL A   1      42.956  25.749  27.975  1.00  0.00     0.023 A 
ATOM     75  C   UNL A   1      43.990  26.108  27.089  1.00  0.00     0.012 A 
ATOM     76  C   UNL A   1      42.301  24.515  27.802  1.00  0.00     0.148 A 
ATOM     77  C   UNL A   1      44.348  25.266  26.035  1.00  0.00     0.002 A 
ATOM     78  C   UNL A   1      42.697  23.657  26.781  1.00  0.00     0.091 A 
ATOM     79  F   UNL A   1      41.306  24.200  28.644  1.00  0.00    -0.205 F 
ATOM     80  C   UNL A   1      43.711  24.037  25.887  1.00  0.00     0.022 A 
BRANCH  78  81
ATOM     81  S   UNL A   1      42.015  22.006  26.590  1.00  0.00     0.127 S 
ATOM     82  O   UNL A   1      42.339  21.397  27.878  1.00  0.00    -0.237 OA
ATOM     83  O   UNL A   1      40.594  22.290  26.383  1.00  0.00    -0.237 OA
ATOM     84  O   UNL A   1      42.686  21.435  25.432  1.00  0.00    -0.744 OA
ENDBRANCH  78  81
ENDBRANCH  50  74
BRANCH  62  85
ATOM     85  C   UNL A   1      45.536  26.728  34.388  1.00  0.00     0.023 A 
ATOM     86  C   UNL A   1      46.804  27.343  34.373  1.00  0.00     0.012 A 
ATOM     87  C   UNL A   1      45.338  25.573  35.169  1.00  0.00     0.148 A 
ATOM     88  C   UNL A   1      47.863  26.802  35.101  1.00  0.00     0.002 A 
ATOM     89  C   UNL A   1      46.386  25.063  35.927  1.00  0.00     0.091 A 
ATOM     90  F   UNL A   1      44.131  24.989  35.155  1.00  0.00    -0.205 F 
ATOM     91  C   UNL A   1      47.652  25.670  35.886  1.00  0.00     0.022 A 
BRANCH  89  92
ATOM     92  S   UNL A   1      46.176  23.666  37.038  1.00  0.00     0.127 S 
ATOM     93  O   UNL A   1      45.199  22.855  36.314  1.00  0.00    -0.237 OA
ATOM     94  O   UNL A   1      47.523  23.098  37.087  1.00  0.00    -0.237 OA
ATOM     95  O   UNL A   1      45.715  24.230  38.300  1.00  0.00    -0.744 OA
ENDBRANCH  89  92
ENDBRANCH  62  85
ENDBRANCH  36  37
ENDBRANCH  29  31
ENDBRANCH  28  29
ENDBRANCH  27  28
ENDBRANCH  26  27
ENDBRANCH  25  26
ENDBRANCH   1  25
TORSDOF 22
ENDMDL
MODEL 2
REMARK VINA RESULT:     -10.6      2.506      3.094
REMARK SMILES COc1cccc(NC(=O)COc2csc(C(=O)OCCOCCOC(=O)c3ccc(-c4c5nc(c(-c6cccc(S(=O)(=O)[O-])c6F)c6ccc([nH]6)c(-c6cccc(S(=O)(=O)[O-])c6F)c6nc(c(-c7cccc(S(=O)(=O)[O-])c7F)c7ccc4[nH]7)C=C6)C=C5)cc3)c2)c1
REMARK SMILES IDX 21 1 20 2 19 3 17 4 18 5 16 6 13 7 14 8 91 9 15 10 12 11
REMARK SMILES IDX 11 12 9 13 8 14 10 16 7 17 3 18 4 19 92 20 5 21 6 22 2 23
REMARK SMILES IDX 1 24 22 25 23 26 24 27 25 28 26 29 27 30 28 31 29 32 90 33
REMARK SMILES IDX 30 34 89 35 31 36 32 37 33 38 83 39 34 40 88 41 82 42 84 43
REMARK SMILES IDX 35 44 87 45 81 46 80 47 36 49 68 50 48 51 67 52 49 53 52 54
REMARK SMILES IDX 66 55 85 56 50 57 51 58 65 60 86 61 53 62 37 63 38 64 46 65
REMARK SMILES IDX 39 66 41 67 47 68 40 69 42 70 43 71 44 72 45 73 69 74 70 75
REMARK SMILES IDX 78 76 71 77 73 78 79 79 72 80 74 81 75 82 76 83 77 84 54 85
REMARK SMILES IDX 55 86 63 87 56 88 58 89 64 90 57 91 59 92 60 93 61 94 62 95
REMARK H PARENT 8 15 84 48 52 59
REMARK Flexibility Score: inf
ROOT
ATOM      1  C   UNL A   1      31.203  29.462  23.961  1.00  0.00     0.202 C 
ENDROOT
BRANCH   1   2
ATOM      2  C   UNL A   1      31.398  28.798  22.594  1.00  0.00     0.261 C 
BRANCH   2   3
ATOM      3  O   UNL A   1      31.658  27.394  22.765  1.00  0.00    -0.459 OA
BRANCH   3   4
ATOM      4  C   UNL A   1      32.889  26.960  22.369  1.00  0.00     0.348 C 
ATOM      5  O   UNL A   1      33.798  27.692  21.998  1.00  0.00    -0.245 OA
BRANCH   4   6
ATOM      6  C   UNL A   1      32.986  25.530  22.587  1.00  0.00     0.116 A 
ATOM      7  C   UNL A   1      33.768  23.341  22.870  1.00  0.00     0.131 A 
ATOM      8  C   UNL A   1      32.419  23.128  22.697  1.00  0.00     0.112 A 
ATOM      9  C   UNL A   1      34.094  24.727  22.790  1.00  0.00     0.074 A 
ATOM     10  S   UNL A   1      31.551  24.592  22.523  1.00  0.00    -0.133 S 
BRANCH   7  11
ATOM     11  O   UNL A   1      34.725  22.416  23.126  1.00  0.00    -0.483 OA
BRANCH  11  12
ATOM     12  C   UNL A   1      36.003  22.879  23.507  1.00  0.00     0.329 C 
BRANCH  12  13
ATOM     13  C   UNL A   1      36.508  22.785  24.951  1.00  0.00     0.262 C 
ATOM     14  N   UNL A   1      35.797  23.189  26.038  1.00  0.00    -0.323 N 
ATOM     15  H   UNL A   1      36.243  22.970  26.888  1.00  0.00     0.170 HD
ATOM     16  O   UNL A   1      37.622  22.290  25.174  1.00  0.00    -0.271 OA
BRANCH  14  17
ATOM     17  C   UNL A   1      34.571  23.848  26.224  1.00  0.00     0.044 A 
ATOM     18  C   UNL A   1      32.263  23.618  26.979  1.00  0.00     0.120 A 
ATOM     19  C   UNL A   1      32.018  24.940  26.622  1.00  0.00     0.046 A 
ATOM     20  C   UNL A   1      33.533  23.074  26.771  1.00  0.00     0.072 A 
ATOM     21  C   UNL A   1      33.049  25.727  26.117  1.00  0.00     0.006 A 
ATOM     22  C   UNL A   1      34.326  25.187  25.934  1.00  0.00     0.026 A 
BRANCH  18  23
ATOM     23  O   UNL A   1      31.188  22.930  27.474  1.00  0.00    -0.497 OA
ATOM     24  C   UNL A   1      30.126  22.718  26.550  1.00  0.00     0.278 C 
ENDBRANCH  18  23
ENDBRANCH  14  17
ENDBRANCH  12  13
ENDBRANCH  11  12
ENDBRANCH   7  11
ENDBRANCH   4   6
ENDBRANCH   3   4
ENDBRANCH   2   3
ENDBRANCH   1   2
BRANCH   1  25
ATOM     25  O   UNL A   1      31.359  28.570  25.068  1.00  0.00    -0.374 OA
BRANCH  25  26
ATOM     26  C   UNL A   1      31.971  29.126  26.236  1.00  0.00     0.202 C 
BRANCH  26  27
ATOM     27  C   UNL A   1      32.150  30.646  26.207  1.00  0.00     0.261 C 
BRANCH  27  28
ATOM     28  O   UNL A   1      32.463  31.148  27.519  1.00  0.00    -0.460 OA
BRANCH  28  29
ATOM     29  C   UNL A   1      33.345  32.175  27.543  1.00  0.00     0.338 C 
ATOM     30  O   UNL A   1      33.096  33.361  27.404  1.00  0.00    -0.246 OA
BRANCH  29  31
ATOM     31  C   UNL A   1      34.681  31.680  27.939  1.00  0.00     0.060 A 
ATOM     32  C   UNL A   1      34.792  30.320  28.255  1.00  0.00     0.016 A 
ATOM     33  C   UNL A   1      35.791  32.524  28.044  1.00  0.00     0.016 A 
ATOM     34  C   UNL A   1      35.995  29.811  28.736  1.00  0.00     0.010 A 
ATOM     35  C   UNL A   1      36.998  32.010  28.530  1.00  0.00     0.010 A 
ATOM     36  C   UNL A   1      37.094  30.661  28.916  1.00  0.00    -0.014 A 
BRANCH  36  37
ATOM     37  C   UNL A   1      38.285  30.168  29.648  1.00  0.00     0.031 A 
ATOM     38  C   UNL A   1      38.521  30.642  31.057  1.00  0.00     0.074 A 
ATOM     39  C   UNL A   1      39.132  29.294  29.078  1.00  0.00     0.049 A 
ATOM     40  N   UNL A   1      39.478  30.323  31.887  1.00  0.00    -0.248 NA
ATOM     41  C   UNL A   1      37.547  31.603  31.599  1.00  0.00     0.031 C 
ATOM     42  C   UNL A   1      39.008  28.756  27.725  1.00  0.00     0.029 A 
ATOM     43  N   UNL A   1      40.275  28.713  29.568  1.00  0.00    -0.354 N 
ATOM     44  C   UNL A   1      39.234  31.052  33.044  1.00  0.00     0.074 A 
ATOM     45  C   UNL A   1      38.051  31.850  32.799  1.00  0.00     0.031 C 
ATOM     46  C   UNL A   1      40.044  27.932  27.487  1.00  0.00     0.029 A 
ATOM     47  C   UNL A   1      40.910  27.896  28.663  1.00  0.00     0.049 A 
ATOM     48  H   UNL A   1      40.608  28.867  30.482  1.00  0.00     0.167 HD
ATOM     49  C   UNL A   1      39.914  31.044  34.215  1.00  0.00     0.034 A 
ATOM     50  C   UNL A   1      42.061  27.203  28.774  1.00  0.00     0.034 A 
ATOM     51  C   UNL A   1      41.080  30.241  34.465  1.00  0.00     0.049 A 
ATOM     52  C   UNL A   1      42.820  27.236  30.074  1.00  0.00     0.074 A 
ATOM     53  C   UNL A   1      41.823  30.139  35.627  1.00  0.00     0.029 A 
ATOM     54  N   UNL A   1      41.678  29.407  33.534  1.00  0.00    -0.354 N 
ATOM     55  N   UNL A   1      42.511  27.840  31.197  1.00  0.00    -0.248 NA
ATOM     56  C   UNL A   1      44.071  26.465  30.134  1.00  0.00     0.031 C 
ATOM     57  C   UNL A   1      42.880  29.253  35.394  1.00  0.00     0.029 A 
ATOM     58  C   UNL A   1      42.786  28.790  34.090  1.00  0.00     0.049 A 
ATOM     59  H   UNL A   1      41.362  29.272  32.611  1.00  0.00     0.167 HD
ATOM     60  C   UNL A   1      43.503  27.488  32.107  1.00  0.00     0.074 A 
ATOM     61  C   UNL A   1      44.417  26.609  31.406  1.00  0.00     0.031 C 
ATOM     62  C   UNL A   1      43.653  27.870  33.399  1.00  0.00     0.034 A 
BRANCH  49  63
ATOM     63  C   UNL A   1      39.381  31.905  35.329  1.00  0.00     0.023 A 
ATOM     64  C   UNL A   1      38.396  31.385  36.194  1.00  0.00     0.012 A 
ATOM     65  C   UNL A   1      39.867  33.209  35.539  1.00  0.00     0.148 A 
ATOM     66  C   UNL A   1      37.877  32.162  37.228  1.00  0.00     0.002 A 
ATOM     67  C   UNL A   1      39.372  33.964  36.598  1.00  0.00     0.091 A 
ATOM     68  F   UNL A   1      40.781  33.699  34.690  1.00  0.00    -0.205 F 
ATOM     69  C   UNL A   1      38.372  33.446  37.436  1.00  0.00     0.022 A 
BRANCH  67  70
ATOM     70  S   UNL A   1      39.999  35.604  36.980  1.00  0.00     0.127 S 
ATOM     71  O   UNL A   1      39.273  35.920  38.208  1.00  0.00    -0.237 OA
ATOM     72  O   UNL A   1      41.431  35.356  37.165  1.00  0.00    -0.237 OA
ATOM     73  O   UNL A   1      39.677  36.428  35.823  1.00  0.00    -0.744 OA
ENDBRANCH  67  70
ENDBRANCH  49  63
BRANCH  50  74
ATOM     74  C   UNL A   1      42.533  26.362  27.638  1.00  0.00     0.023 A 
ATOM     75  C   UNL A   1      43.431  26.910  26.702  1.00  0.00     0.012 A 
ATOM     76  C   UNL A   1      42.121  25.024  27.493  1.00  0.00     0.148 A 
ATOM     77  C   UNL A   1      43.891  26.148  25.627  1.00  0.00     0.002 A 
ATOM     78  C   UNL A   1      42.623  24.254  26.450  1.00  0.00     0.091 A 
ATOM     79  F   UNL A   1      41.250  24.527  28.383  1.00  0.00    -0.205 F 
ATOM     80  C   UNL A   1      43.497  24.818  25.507  1.00  0.00     0.022 A 
BRANCH  78  81
ATOM     81  S   UNL A   1      42.264  22.501  26.286  1.00  0.00     0.127 S 
ATOM     82  O   UNL A   1      40.804  22.497  26.244  1.00  0.00    -0.237 OA
ATOM     83  O   UNL A   1      42.919  22.176  25.018  1.00  0.00    -0.237 OA
ATOM     84  O   UNL A   1      42.866  21.867  27.450  1.00  0.00    -0.744 OA
ENDBRANCH  78  81
ENDBRANCH  50  74
BRANCH  62  85
ATOM     85  C   UNL A   1      44.828  27.317  34.163  1.00  0.00     0.023 A 
ATOM     86  C   UNL A   1      44.695  26.102  34.864  1.00  0.00     0.012 A 
ATOM     87  C   UNL A   1      46.082  27.957  34.123  1.00  0.00     0.148 A 
ATOM     88  C   UNL A   1      45.783  25.548  35.536  1.00  0.00     0.002 A 
ATOM     89  C   UNL A   1      47.174  27.378  34.759  1.00  0.00     0.091 A 
ATOM     90  F   UNL A   1      46.185  29.123  33.469  1.00  0.00    -0.205 F 
ATOM     91  C   UNL A   1      47.025  26.179  35.475  1.00  0.00     0.022 A 
BRANCH  89  92
ATOM     92  S   UNL A   1      48.827  28.074  34.650  1.00  0.00     0.127 S 
ATOM     93  O   UNL A   1      49.572  27.220  35.573  1.00  0.00    -0.237 OA
ATOM     94  O   UNL A   1      49.158  27.881  33.239  1.00  0.00    -0.237 OA
ATOM     95  O   UNL A   1      48.696  29.469  35.050  1.00  0.00    -0.744 OA
ENDBRANCH  89  92
ENDBRANCH  62  85
ENDBRANCH  36  37
ENDBRANCH  29  31
ENDBRANCH  28  29
ENDBRANCH  27  28
ENDBRANCH  26  27
ENDBRANCH  25  26
ENDBRANCH   1  25
TORSDOF 22
ENDMDL
MODEL 3
REMARK VINA RESULT:      -9.9      2.166      2.569
REMARK SMILES COc1cccc(NC(=O)COc2csc(C(=O)OCCOCCOC(=O)c3ccc(-c4c5nc(c(-c6cccc(S(=O)(=O)[O-])c6F)c6ccc([nH]6)c(-c6cccc(S(=O)(=O)[O-])c6F)c6nc(c(-c7cccc(S(=O)(=O)[O-])c7F)c7ccc4[nH]7)C=C6)C=C5)cc3)c2)c1
REMARK SMILES IDX 21 1 20 2 19 3 17 4 18 5 16 6 13 7 14 8 91 9 15 10 12 11
REMARK SMILES IDX 11 12 9 13 8 14 10 16 7 17 3 18 4 19 92 20 5 21 6 22 2 23
REMARK SMILES IDX 1 24 22 25 23 26 24 27 25 28 26 29 27 30 28 31 29 32 90 33
REMARK SMILES IDX 30 34 89 35 31 36 32 37 33 38 83 39 34 40 88 41 82 42 84 43
REMARK SMILES IDX 35 44 87 45 81 46 80 47 36 49 68 50 48 51 67 52 49 53 52 54
REMARK SMILES IDX 66 55 85 56 50 57 51 58 65 60 86 61 53 62 37 63 38 64 46 65
REMARK SMILES IDX 39 66 41 67 47 68 40 69 42 70 43 71 44 72 45 73 69 74 70 75
REMARK SMILES IDX 78 76 71 77 73 78 79 79 72 80 74 81 75 82 76 83 77 84 54 85
REMARK SMILES IDX 55 86 63 87 56 88 58 89 64 90 57 91 59 92 60 93 61 94 62 95
REMARK H PARENT 8 15 84 48 52 59
REMARK Flexibility Score: inf
ROOT
ATOM      1  C   UNL A   1      30.743  29.602  24.300  1.00  0.00     0.202 C 
ENDROOT
BRANCH   1   2
ATOM      2  C   UNL A   1      30.954  29.274  22.818  1.00  0.00     0.261 C 
BRANCH   2   3
ATOM      3  O   UNL A   1      31.453  27.932  22.681  1.00  0.00    -0.459 OA
BRANCH   3   4
ATOM      4  C   UNL A   1      32.807  27.804  22.581  1.00  0.00     0.348 C 
ATOM      5  O   UNL A   1      33.594  28.742  22.536  1.00  0.00    -0.245 OA
BRANCH   4   6
ATOM      6  C   UNL A   1      33.163  26.401  22.673  1.00  0.00     0.116 A 
ATOM      7  C   UNL A   1      34.162  24.362  23.247  1.00  0.00     0.131 A 
ATOM      8  C   UNL A   1      33.454  24.011  22.120  1.00  0.00     0.112 A 
ATOM      9  C   UNL A   1      34.005  25.747  23.555  1.00  0.00     0.074 A 
ATOM     10  S   UNL A   1      32.548  25.320  21.493  1.00  0.00    -0.133 S 
BRANCH   7  11
ATOM     11  O   UNL A   1      34.905  23.554  24.042  1.00  0.00    -0.483 OA
BRANCH  11  12
ATOM     12  C   UNL A   1      35.461  24.113  25.214  1.00  0.00     0.329 C 
BRANCH  12  13
ATOM     13  C   UNL A   1      36.735  23.556  25.859  1.00  0.00     0.262 C 
ATOM     14  N   UNL A   1      37.081  22.241  25.857  1.00  0.00    -0.323 N 
ATOM     15  H   UNL A   1      37.975  22.082  26.240  1.00  0.00     0.170 HD
ATOM     16  O   UNL A   1      37.531  24.335  26.402  1.00  0.00    -0.271 OA
BRANCH  14  17
ATOM     17  C   UNL A   1      36.455  21.058  25.434  1.00  0.00     0.044 A 
ATOM     18  C   UNL A   1      34.318  19.937  25.071  1.00  0.00     0.120 A 
ATOM     19  C   UNL A   1      34.993  18.780  24.692  1.00  0.00     0.046 A 
ATOM     20  C   UNL A   1      35.049  21.066  25.449  1.00  0.00     0.072 A 
ATOM     21  C   UNL A   1      36.384  18.774  24.636  1.00  0.00     0.006 A 
ATOM     22  C   UNL A   1      37.112  19.914  24.991  1.00  0.00     0.026 A 
BRANCH  18  23
ATOM     23  O   UNL A   1      32.953  19.846  25.088  1.00  0.00    -0.497 OA
ATOM     24  C   UNL A   1      32.422  18.597  24.657  1.00  0.00     0.278 C 
ENDBRANCH  18  23
ENDBRANCH  14  17
ENDBRANCH  12  13
ENDBRANCH  11  12
ENDBRANCH   7  11
ENDBRANCH   4   6
ENDBRANCH   3   4
ENDBRANCH   2   3
ENDBRANCH   1   2
BRANCH   1  25
ATOM     25  O   UNL A   1      31.060  28.524  25.185  1.00  0.00    -0.374 OA
BRANCH  25  26
ATOM     26  C   UNL A   1      31.934  28.846  26.272  1.00  0.00     0.202 C 
BRANCH  26  27
ATOM     27  C   UNL A   1      32.331  30.322  26.363  1.00  0.00     0.261 C 
BRANCH  27  28
ATOM     28  O   UNL A   1      33.064  30.579  27.574  1.00  0.00    -0.460 OA
BRANCH  28  29
ATOM     29  C   UNL A   1      33.940  31.610  27.504  1.00  0.00     0.338 C 
ATOM     30  O   UNL A   1      33.692  32.766  27.204  1.00  0.00    -0.246 OA
BRANCH  29  31
ATOM     31  C   UNL A   1      35.260  31.183  28.017  1.00  0.00     0.060 A 
ATOM     32  C   UNL A   1      35.402  29.836  28.375  1.00  0.00     0.016 A 
ATOM     33  C   UNL A   1      36.321  32.077  28.189  1.00  0.00     0.016 A 
ATOM     34  C   UNL A   1      36.584  29.391  28.963  1.00  0.00     0.010 A 
ATOM     35  C   UNL A   1      37.506  31.627  28.782  1.00  0.00     0.010 A 
ATOM     36  C   UNL A   1      37.627  30.292  29.208  1.00  0.00    -0.014 A 
BRANCH  36  37
ATOM     37  C   UNL A   1      38.775  29.868  30.045  1.00  0.00     0.031 A 
ATOM     38  C   UNL A   1      38.936  30.466  31.417  1.00  0.00     0.074 A 
ATOM     39  C   UNL A   1      39.649  28.948  29.602  1.00  0.00     0.049 A 
ATOM     40  N   UNL A   1      39.845  30.223  32.323  1.00  0.00    -0.248 NA
ATOM     41  C   UNL A   1      37.937  31.470  31.818  1.00  0.00     0.031 C 
ATOM     42  C   UNL A   1      39.597  28.292  28.297  1.00  0.00     0.029 A 
ATOM     43  N   UNL A   1      40.761  28.415  30.203  1.00  0.00    -0.354 N 
ATOM     44  C   UNL A   1      39.540  31.052  33.396  1.00  0.00     0.074 A 
ATOM     45  C   UNL A   1      38.375  31.822  33.018  1.00  0.00     0.031 C 
ATOM     46  C   UNL A   1      40.641  27.452  28.190  1.00  0.00     0.029 A 
ATOM     47  C   UNL A   1      41.442  27.522  29.410  1.00  0.00     0.049 A 
ATOM     48  H   UNL A   1      41.045  28.650  31.116  1.00  0.00     0.167 HD
ATOM     49  C   UNL A   1      40.156  31.148  34.598  1.00  0.00     0.034 A 
ATOM     50  C   UNL A   1      42.583  26.843  29.644  1.00  0.00     0.034 A 
ATOM     51  C   UNL A   1      41.305  30.373  34.982  1.00  0.00     0.049 A 
ATOM     52  C   UNL A   1      43.271  26.993  30.976  1.00  0.00     0.074 A 
ATOM     53  C   UNL A   1      41.983  30.375  36.187  1.00  0.00     0.029 A 
ATOM     54  N   UNL A   1      41.949  29.460  34.162  1.00  0.00    -0.354 N 
ATOM     55  N   UNL A   1      42.903  27.693  32.023  1.00  0.00    -0.248 NA
ATOM     56  C   UNL A   1      44.514  26.232  31.172  1.00  0.00     0.031 C 
ATOM     57  C   UNL A   1      43.048  29.474  36.091  1.00  0.00     0.029 A 
ATOM     58  C   UNL A   1      43.023  28.897  34.831  1.00  0.00     0.049 A 
ATOM     59  H   UNL A   1      41.683  29.244  33.239  1.00  0.00     0.167 HD
ATOM     60  C   UNL A   1      43.843  27.426  33.012  1.00  0.00     0.074 A 
ATOM     61  C   UNL A   1      44.791  26.490  32.443  1.00  0.00     0.031 C 
ATOM     62  C   UNL A   1      43.924  27.921  34.272  1.00  0.00     0.034 A 
BRANCH  49  63
ATOM     63  C   UNL A   1      39.566  32.104  35.601  1.00  0.00     0.023 A 
ATOM     64  C   UNL A   1      38.481  31.686  36.398  1.00  0.00     0.012 A 
ATOM     65  C   UNL A   1      40.095  33.397  35.776  1.00  0.00     0.148 A 
ATOM     66  C   UNL A   1      37.907  32.552  37.328  1.00  0.00     0.002 A 
ATOM     67  C   UNL A   1      39.543  34.241  36.734  1.00  0.00     0.091 A 
ATOM     68  F   UNL A   1      41.107  33.788  34.990  1.00  0.00    -0.205 F 
ATOM     69  C   UNL A   1      38.445  33.824  37.503  1.00  0.00     0.022 A 
BRANCH  67  70
ATOM     70  S   UNL A   1      40.213  35.873  37.072  1.00  0.00     0.127 S 
ATOM     71  O   UNL A   1      39.686  36.648  35.951  1.00  0.00    -0.237 OA
ATOM     72  O   UNL A   1      39.616  36.194  38.370  1.00  0.00    -0.237 OA
ATOM     73  O   UNL A   1      41.661  35.706  37.101  1.00  0.00    -0.744 OA
ENDBRANCH  67  70
ENDBRANCH  49  63
BRANCH  50  74
ATOM     74  C   UNL A   1      43.114  25.906  28.615  1.00  0.00     0.023 A 
ATOM     75  C   UNL A   1      42.551  24.621  28.498  1.00  0.00     0.012 A 
ATOM     76  C   UNL A   1      44.149  26.285  27.739  1.00  0.00     0.148 A 
ATOM     77  C   UNL A   1      43.026  23.720  27.543  1.00  0.00     0.002 A 
ATOM     78  C   UNL A   1      44.583  25.402  26.756  1.00  0.00     0.091 A 
ATOM     79  F   UNL A   1      44.685  27.506  27.879  1.00  0.00    -0.205 F 
ATOM     80  C   UNL A   1      44.033  24.113  26.666  1.00  0.00     0.022 A 
BRANCH  78  81
ATOM     81  S   UNL A   1      45.789  25.866  25.509  1.00  0.00     0.127 S 
ATOM     82  O   UNL A   1      45.722  24.732  24.591  1.00  0.00    -0.237 OA
ATOM     83  O   UNL A   1      45.224  27.113  24.991  1.00  0.00    -0.237 OA
ATOM     84  O   UNL A   1      47.048  26.030  26.222  1.00  0.00    -0.744 OA
ENDBRANCH  78  81
ENDBRANCH  50  74
BRANCH  62  85
ATOM     85  C   UNL A   1      45.054  27.439  35.145  1.00  0.00     0.023 A 
ATOM     86  C   UNL A   1      46.263  28.161  35.182  1.00  0.00     0.012 A 
ATOM     87  C   UNL A   1      44.891  26.319  35.983  1.00  0.00     0.148 A 
ATOM     88  C   UNL A   1      47.303  27.759  36.020  1.00  0.00     0.002 A 
ATOM     89  C   UNL A   1      45.915  25.949  36.847  1.00  0.00     0.091 A 
ATOM     90  F   UNL A   1      43.742  25.631  35.918  1.00  0.00    -0.205 F 
ATOM     91  C   UNL A   1      47.125  26.661  36.860  1.00  0.00     0.022 A 
BRANCH  89  92
ATOM     92  S   UNL A   1      45.734  24.606  38.028  1.00  0.00     0.127 S 
ATOM     93  O   UNL A   1      45.830  23.433  37.162  1.00  0.00    -0.237 OA
ATOM     94  O   UNL A   1      46.884  24.807  38.911  1.00  0.00    -0.237 OA
ATOM     95  O   UNL A   1      44.442  24.813  38.669  1.00  0.00    -0.744 OA
ENDBRANCH  89  92
ENDBRANCH  62  85
ENDBRANCH  36  37
ENDBRANCH  29  31
ENDBRANCH  28  29
ENDBRANCH  27  28
ENDBRANCH  26  27
ENDBRANCH  25  26
ENDBRANCH   1  25
TORSDOF 22
ENDMDL
