MODEL 1
REMARK VINA RESULT:     -11.8      0.000      0.000
REMARK SMILES Cc1c(Cl)cc2c(c1C)O[C@H](C(F)(F)F)C(C(=O)OCCOCCOC(=O)c1ccc(-c3c4nc(c(-c5cccc(S(=O)(=O)[O-])c5F)c5ccc([nH]5)c(-c5cccc(S(=O)(=O)[O-])c5F)c5nc(c(-c6cccc(S(=O)(=O)[O-])c6F)c6ccc3[nH]6)C=C5)C=C4)cc1)=C2
REMARK SMILES IDX 23 1 22 2 21 3 20 4 19 5 17 6 18 7 16 8 1 9 2 10 3 11 8 12
REMARK SMILES IDX 4 13 5 14 7 15 9 16 6 17 10 18 91 19 11 20 12 21 13 22 14 23
REMARK SMILES IDX 15 24 24 25 25 26 26 27 27 28 28 29 29 30 90 31 30 32 89 33
REMARK SMILES IDX 31 34 32 35 33 36 83 37 34 38 88 39 82 40 84 41 35 42 87 43
REMARK SMILES IDX 81 44 80 45 36 47 68 48 48 49 67 50 49 51 52 52 66 53 85 54
REMARK SMILES IDX 50 55 51 56 65 58 86 59 53 60 37 61 38 62 46 63 39 64 41 65
REMARK SMILES IDX 47 66 40 67 42 68 43 69 44 70 45 71 69 72 70 73 78 74 71 75
REMARK SMILES IDX 73 76 79 77 72 78 74 79 75 80 76 81 77 82 54 83 55 84 63 85
REMARK SMILES IDX 56 86 58 87 64 88 57 89 59 90 60 91 61 92 62 93
REMARK H PARENT 84 46 52 57
REMARK Flexibility Score: inf
ROOT
ATOM      1  C   UNL A   1      36.309  19.802  24.991  1.00  0.00     0.202 C 
ENDROOT
BRANCH   1   2
ATOM      2  O   UNL A   1      35.663  21.072  25.097  1.00  0.00    -0.374 OA
BRANCH   2   3
ATOM      3  C   UNL A   1      34.418  21.125  25.793  1.00  0.00     0.202 C 
BRANCH   3   4
ATOM      4  C   UNL A   1      33.170  21.394  24.947  1.00  0.00     0.261 C 
BRANCH   4   5
ATOM      5  O   UNL A   1      32.792  22.779  24.992  1.00  0.00    -0.460 OA
BRANCH   5   6
ATOM      6  C   UNL A   1      32.925  23.440  23.821  1.00  0.00     0.338 C 
ATOM      7  O   UNL A   1      33.048  22.946  22.709  1.00  0.00    -0.246 OA
BRANCH   6   8
ATOM      8  C   UNL A   1      32.759  24.889  24.038  1.00  0.00     0.087 C 
ATOM      9  C   UNL A   1      32.511  30.753  26.814  1.00  0.00     0.046 C 
ATOM     10  C   UNL A   1      32.876  29.417  26.218  1.00  0.00    -0.026 A 
ATOM     11  C   UNL A   1      34.000  28.701  26.673  1.00  0.00     0.045 A 
ATOM     12  C   UNL A   1      32.092  28.858  25.174  1.00  0.00    -0.004 A 
ATOM     13  Cl  UNL A   1      35.091  29.333  27.860  1.00  0.00    -0.084 Cl
ATOM     14  C   UNL A   1      34.279  27.422  26.190  1.00  0.00     0.032 A 
ATOM     15  C   UNL A   1      32.385  27.560  24.702  1.00  0.00     0.131 A 
ATOM     16  C   UNL A   1      30.905  29.580  24.579  1.00  0.00     0.049 C 
ATOM     17  C   UNL A   1      33.450  26.836  25.237  1.00  0.00     0.019 A 
ATOM     18  O   UNL A   1      31.591  27.063  23.703  1.00  0.00    -0.475 OA
ATOM     19  C   UNL A   1      33.655  25.452  24.859  1.00  0.00     0.027 C 
ATOM     20  C   UNL A   1      31.625  25.639  23.397  1.00  0.00     0.316 C 
BRANCH  20  21
ATOM     21  C   UNL A   1      30.252  25.037  23.729  1.00  0.00     0.430 C 
ATOM     22  F   UNL A   1      29.958  24.006  22.904  1.00  0.00    -0.167 F 
ATOM     23  F   UNL A   1      30.209  24.563  24.995  1.00  0.00    -0.167 F 
ATOM     24  F   UNL A   1      29.265  25.955  23.605  1.00  0.00    -0.167 F 
ENDBRANCH  20  21
ENDBRANCH   6   8
ENDBRANCH   5   6
ENDBRANCH   4   5
ENDBRANCH   3   4
ENDBRANCH   2   3
ENDBRANCH   1   2
BRANCH   1  25
ATOM     25  C   UNL A   1      37.841  19.792  24.947  1.00  0.00     0.261 C 
BRANCH  25  26
ATOM     26  O   UNL A   1      38.412  21.016  25.447  1.00  0.00    -0.460 OA
BRANCH  26  27
ATOM     27  C   UNL A   1      39.552  20.862  26.163  1.00  0.00     0.338 C 
ATOM     28  O   UNL A   1      40.262  19.867  26.215  1.00  0.00    -0.246 OA
BRANCH  27  29
ATOM     29  C   UNL A   1      39.951  22.153  26.752  1.00  0.00     0.060 A 
ATOM     30  C   UNL A   1      39.341  23.313  26.255  1.00  0.00     0.016 A 
ATOM     31  C   UNL A   1      40.951  22.235  27.722  1.00  0.00     0.016 A 
ATOM     32  C   UNL A   1      39.757  24.563  26.701  1.00  0.00     0.010 A 
ATOM     33  C   UNL A   1      41.373  23.494  28.161  1.00  0.00     0.010 A 
ATOM     34  C   UNL A   1      40.800  24.664  27.632  1.00  0.00    -0.014 A 
BRANCH  34  35
ATOM     35  C   UNL A   1      41.360  25.997  27.962  1.00  0.00     0.031 A 
ATOM     36  C   UNL A   1      42.771  26.324  27.555  1.00  0.00     0.074 A 
ATOM     37  C   UNL A   1      40.606  26.912  28.597  1.00  0.00     0.049 A 
ATOM     38  N   UNL A   1      43.443  27.431  27.730  1.00  0.00    -0.248 NA
ATOM     39  C   UNL A   1      43.522  25.267  26.856  1.00  0.00     0.031 C 
ATOM     40  C   UNL A   1      39.224  26.711  29.030  1.00  0.00     0.029 A 
ATOM     41  N   UNL A   1      40.901  28.192  28.996  1.00  0.00    -0.354 N 
ATOM     42  C   UNL A   1      44.696  27.205  27.172  1.00  0.00     0.074 A 
ATOM     43  C   UNL A   1      44.701  25.847  26.675  1.00  0.00     0.031 C 
ATOM     44  C   UNL A   1      38.792  27.827  29.642  1.00  0.00     0.029 A 
ATOM     45  C   UNL A   1      39.872  28.813  29.665  1.00  0.00     0.049 A 
ATOM     46  H   UNL A   1      41.767  28.625  28.821  1.00  0.00     0.167 HD
ATOM     47  C   UNL A   1      45.737  28.061  27.060  1.00  0.00     0.034 A 
ATOM     48  C   UNL A   1      39.810  30.034  30.233  1.00  0.00     0.034 A 
ATOM     49  C   UNL A   1      45.722  29.417  27.540  1.00  0.00     0.049 A 
ATOM     50  C   UNL A   1      41.003  30.951  30.133  1.00  0.00     0.074 A 
ATOM     51  C   UNL A   1      46.723  30.368  27.452  1.00  0.00     0.029 A 
ATOM     52  N   UNL A   1      44.658  30.013  28.197  1.00  0.00    -0.354 N 
ATOM     53  N   UNL A   1      42.142  30.759  29.512  1.00  0.00    -0.248 NA
ATOM     54  C   UNL A   1      40.892  32.266  30.784  1.00  0.00     0.031 C 
ATOM     55  C   UNL A   1      46.271  31.534  28.075  1.00  0.00     0.029 A 
ATOM     56  C   UNL A   1      44.979  31.318  28.528  1.00  0.00     0.049 A 
ATOM     57  H   UNL A   1      43.799  29.574  28.399  1.00  0.00     0.167 HD
ATOM     58  C   UNL A   1      42.865  31.937  29.665  1.00  0.00     0.074 A 
ATOM     59  C   UNL A   1      42.030  32.844  30.424  1.00  0.00     0.031 C 
ATOM     60  C   UNL A   1      44.115  32.233  29.229  1.00  0.00     0.034 A 
BRANCH  47  61
ATOM     61  C   UNL A   1      46.973  27.586  26.343  1.00  0.00     0.023 A 
ATOM     62  C   UNL A   1      47.876  26.737  27.017  1.00  0.00     0.012 A 
ATOM     63  C   UNL A   1      47.189  27.885  24.983  1.00  0.00     0.148 A 
ATOM     64  C   UNL A   1      48.981  26.207  26.354  1.00  0.00     0.002 A 
ATOM     65  C   UNL A   1      48.270  27.319  24.319  1.00  0.00     0.091 A 
ATOM     66  F   UNL A   1      46.328  28.709  24.368  1.00  0.00    -0.205 F 
ATOM     67  C   UNL A   1      49.170  26.486  25.004  1.00  0.00     0.022 A 
BRANCH  65  68
ATOM     68  S   UNL A   1      48.559  27.548  22.560  1.00  0.00     0.127 S 
ATOM     69  O   UNL A   1      48.591  26.167  22.084  1.00  0.00    -0.237 OA
ATOM     70  O   UNL A   1      47.377  28.307  22.150  1.00  0.00    -0.237 OA
ATOM     71  O   UNL A   1      49.818  28.272  22.449  1.00  0.00    -0.744 OA
ENDBRANCH  65  68
ENDBRANCH  47  61
BRANCH  48  72
ATOM     72  C   UNL A   1      38.551  30.484  30.891  1.00  0.00     0.023 A 
ATOM     73  C   UNL A   1      38.297  30.110  32.225  1.00  0.00     0.012 A 
ATOM     74  C   UNL A   1      37.622  31.306  30.222  1.00  0.00     0.148 A 
ATOM     75  C   UNL A   1      37.134  30.528  32.874  1.00  0.00     0.002 A 
ATOM     76  C   UNL A   1      36.494  31.764  30.892  1.00  0.00     0.091 A 
ATOM     77  F   UNL A   1      37.870  31.635  28.947  1.00  0.00    -0.205 F 
ATOM     78  C   UNL A   1      36.240  31.364  32.212  1.00  0.00     0.022 A 
BRANCH  76  79
ATOM     79  S   UNL A   1      35.358  32.952  30.165  1.00  0.00     0.127 S 
ATOM     80  O   UNL A   1      36.232  34.100  29.935  1.00  0.00    -0.237 OA
ATOM     81  O   UNL A   1      34.925  32.254  28.955  1.00  0.00    -0.237 OA
ATOM     82  O   UNL A   1      34.308  33.146  31.156  1.00  0.00    -0.744 OA
ENDBRANCH  76  79
ENDBRANCH  48  72
BRANCH  60  83
ATOM     83  C   UNL A   1      44.670  33.603  29.525  1.00  0.00     0.023 A 
ATOM     84  C   UNL A   1      45.360  33.827  30.732  1.00  0.00     0.012 A 
ATOM     85  C   UNL A   1      44.627  34.622  28.551  1.00  0.00     0.148 A 
ATOM     86  C   UNL A   1      45.987  35.049  30.972  1.00  0.00     0.002 A 
ATOM     87  C   UNL A   1      45.297  35.818  28.776  1.00  0.00     0.091 A 
ATOM     88  F   UNL A   1      43.954  34.391  27.414  1.00  0.00    -0.205 F 
ATOM     89  C   UNL A   1      45.969  36.037  29.989  1.00  0.00     0.022 A 
BRANCH  87  90
ATOM     90  S   UNL A   1      45.423  37.107  27.530  1.00  0.00     0.127 S 
ATOM     91  O   UNL A   1      45.861  36.348  26.360  1.00  0.00    -0.237 OA
ATOM     92  O   UNL A   1      44.047  37.601  27.457  1.00  0.00    -0.237 OA
ATOM     93  O   UNL A   1      46.387  38.071  28.043  1.00  0.00    -0.744 OA
ENDBRANCH  87  90
ENDBRANCH  60  83
ENDBRANCH  34  35
ENDBRANCH  27  29
ENDBRANCH  26  27
ENDBRANCH  25  26
ENDBRANCH   1  25
TORSDOF 18
ENDMDL
MODEL 2
REMARK VINA RESULT:     -11.7      1.500      2.037
REMARK SMILES Cc1c(Cl)cc2c(c1C)O[C@H](C(F)(F)F)C(C(=O)OCCOCCOC(=O)c1ccc(-c3c4nc(c(-c5cccc(S(=O)(=O)[O-])c5F)c5ccc([nH]5)c(-c5cccc(S(=O)(=O)[O-])c5F)c5nc(c(-c6cccc(S(=O)(=O)[O-])c6F)c6ccc3[nH]6)C=C5)C=C4)cc1)=C2
REMARK SMILES IDX 23 1 22 2 21 3 20 4 19 5 17 6 18 7 16 8 1 9 2 10 3 11 8 12
REMARK SMILES IDX 4 13 5 14 7 15 9 16 6 17 10 18 91 19 11 20 12 21 13 22 14 23
REMARK SMILES IDX 15 24 24 25 25 26 26 27 27 28 28 29 29 30 90 31 30 32 89 33
REMARK SMILES IDX 31 34 32 35 33 36 83 37 34 38 88 39 82 40 84 41 35 42 87 43
REMARK SMILES IDX 81 44 80 45 36 47 68 48 48 49 67 50 49 51 52 52 66 53 85 54
REMARK SMILES IDX 50 55 51 56 65 58 86 59 53 60 37 61 38 62 46 63 39 64 41 65
REMARK SMILES IDX 47 66 40 67 42 68 43 69 44 70 45 71 69 72 70 73 78 74 71 75
REMARK SMILES IDX 73 76 79 77 72 78 74 79 75 80 76 81 77 82 54 83 55 84 63 85
REMARK SMILES IDX 56 86 58 87 64 88 57 89 59 90 60 91 61 92 62 93
REMARK H PARENT 84 46 52 57
REMARK Flexibility Score: inf
ROOT
ATOM      1  C   UNL A   1      36.294  19.576  25.005  1.00  0.00     0.202 C 
ENDROOT
BRANCH   1   2
ATOM      2  O   UNL A   1      34.980  20.077  24.756  1.00  0.00    -0.374 OA
BRANCH   2   3
ATOM      3  C   UNL A   1      33.927  19.126  24.601  1.00  0.00     0.202 C 
BRANCH   3   4
ATOM      4  C   UNL A   1      32.504  19.630  24.855  1.00  0.00     0.261 C 
BRANCH   4   5
ATOM      5  O   UNL A   1      32.494  21.019  25.220  1.00  0.00    -0.460 OA
BRANCH   5   6
ATOM      6  C   UNL A   1      32.286  21.872  24.194  1.00  0.00     0.338 C 
ATOM      7  O   UNL A   1      32.110  21.579  23.019  1.00  0.00    -0.246 OA
BRANCH   6   8
ATOM      8  C   UNL A   1      32.153  23.250  24.702  1.00  0.00     0.087 C 
ATOM      9  C   UNL A   1      31.344  29.683  25.037  1.00  0.00     0.046 C 
ATOM     10  C   UNL A   1      31.231  28.188  24.877  1.00  0.00    -0.026 A 
ATOM     11  C   UNL A   1      30.324  27.623  23.959  1.00  0.00     0.045 A 
ATOM     12  C   UNL A   1      32.035  27.319  25.661  1.00  0.00    -0.004 A 
ATOM     13  Cl  UNL A   1      29.216  28.578  23.033  1.00  0.00    -0.084 Cl
ATOM     14  C   UNL A   1      30.291  26.245  23.741  1.00  0.00     0.032 A 
ATOM     15  C   UNL A   1      31.993  25.929  25.422  1.00  0.00     0.131 A 
ATOM     16  C   UNL A   1      32.990  27.831  26.713  1.00  0.00     0.049 C 
ATOM     17  C   UNL A   1      31.152  25.403  24.441  1.00  0.00     0.019 A 
ATOM     18  O   UNL A   1      32.798  25.136  26.197  1.00  0.00    -0.475 OA
ATOM     19  C   UNL A   1      31.222  23.997  24.096  1.00  0.00     0.027 C 
ATOM     20  C   UNL A   1      33.047  23.756  25.799  1.00  0.00     0.316 C 
BRANCH  20  21
ATOM     21  C   UNL A   1      34.539  23.609  25.465  1.00  0.00     0.430 C 
ATOM     22  F   UNL A   1      35.198  24.776  25.652  1.00  0.00    -0.167 F 
ATOM     23  F   UNL A   1      35.135  22.682  26.248  1.00  0.00    -0.167 F 
ATOM     24  F   UNL A   1      34.726  23.235  24.178  1.00  0.00    -0.167 F 
ENDBRANCH  20  21
ENDBRANCH   6   8
ENDBRANCH   5   6
ENDBRANCH   4   5
ENDBRANCH   3   4
ENDBRANCH   2   3
ENDBRANCH   1   2
BRANCH   1  25
ATOM     25  C   UNL A   1      37.475  20.490  24.657  1.00  0.00     0.261 C 
BRANCH  25  26
ATOM     26  O   UNL A   1      37.871  21.319  25.766  1.00  0.00    -0.460 OA
BRANCH  26  27
ATOM     27  C   UNL A   1      39.166  21.185  26.142  1.00  0.00     0.338 C 
ATOM     28  O   UNL A   1      39.912  20.246  25.900  1.00  0.00    -0.246 OA
BRANCH  27  29
ATOM     29  C   UNL A   1      39.643  22.441  26.747  1.00  0.00     0.060 A 
ATOM     30  C   UNL A   1      38.994  23.629  26.383  1.00  0.00     0.016 A 
ATOM     31  C   UNL A   1      40.748  22.467  27.601  1.00  0.00     0.016 A 
ATOM     32  C   UNL A   1      39.473  24.852  26.842  1.00  0.00     0.010 A 
ATOM     33  C   UNL A   1      41.232  23.700  28.053  1.00  0.00     0.010 A 
ATOM     34  C   UNL A   1      40.615  24.898  27.652  1.00  0.00    -0.014 A 
BRANCH  34  35
ATOM     35  C   UNL A   1      41.224  26.209  27.985  1.00  0.00     0.031 A 
ATOM     36  C   UNL A   1      42.647  26.484  27.581  1.00  0.00     0.074 A 
ATOM     37  C   UNL A   1      40.503  27.152  28.618  1.00  0.00     0.049 A 
ATOM     38  N   UNL A   1      43.360  27.564  27.758  1.00  0.00    -0.248 NA
ATOM     39  C   UNL A   1      43.359  25.399  26.884  1.00  0.00     0.031 C 
ATOM     40  C   UNL A   1      39.113  27.003  29.047  1.00  0.00     0.029 A 
ATOM     41  N   UNL A   1      40.845  28.420  29.018  1.00  0.00    -0.354 N 
ATOM     42  C   UNL A   1      44.605  27.291  27.203  1.00  0.00     0.074 A 
ATOM     43  C   UNL A   1      44.560  25.934  26.706  1.00  0.00     0.031 C 
ATOM     44  C   UNL A   1      38.722  28.134  29.659  1.00  0.00     0.029 A 
ATOM     45  C   UNL A   1      39.838  29.079  29.685  1.00  0.00     0.049 A 
ATOM     46  H   UNL A   1      41.727  28.820  28.845  1.00  0.00     0.167 HD
ATOM     47  C   UNL A   1      45.678  28.108  27.095  1.00  0.00     0.034 A 
ATOM     48  C   UNL A   1      39.821  30.301  30.253  1.00  0.00     0.034 A 
ATOM     49  C   UNL A   1      45.712  29.463  27.575  1.00  0.00     0.049 A 
ATOM     50  C   UNL A   1      41.047  31.173  30.157  1.00  0.00     0.074 A 
ATOM     51  C   UNL A   1      46.748  30.376  27.490  1.00  0.00     0.029 A 
ATOM     52  N   UNL A   1      44.669  30.099  28.229  1.00  0.00    -0.354 N 
ATOM     53  N   UNL A   1      42.180  30.938  29.539  1.00  0.00    -0.248 NA
ATOM     54  C   UNL A   1      40.984  32.491  30.808  1.00  0.00     0.031 C 
ATOM     55  C   UNL A   1      46.339  31.558  28.113  1.00  0.00     0.029 A 
ATOM     56  C   UNL A   1      45.039  31.390  28.562  1.00  0.00     0.049 A 
ATOM     57  H   UNL A   1      43.795  29.692  28.429  1.00  0.00     0.167 HD
ATOM     58  C   UNL A   1      42.947  32.088  29.693  1.00  0.00     0.074 A 
ATOM     59  C   UNL A   1      42.144  33.026  30.451  1.00  0.00     0.031 C 
ATOM     60  C   UNL A   1      44.208  32.337  29.261  1.00  0.00     0.034 A 
BRANCH  47  61
ATOM     61  C   UNL A   1      46.897  27.587  26.381  1.00  0.00     0.023 A 
ATOM     62  C   UNL A   1      47.760  26.698  27.053  1.00  0.00     0.012 A 
ATOM     63  C   UNL A   1      47.132  27.885  25.024  1.00  0.00     0.148 A 
ATOM     64  C   UNL A   1      48.846  26.127  26.393  1.00  0.00     0.002 A 
ATOM     65  C   UNL A   1      48.192  27.279  24.361  1.00  0.00     0.091 A 
ATOM     66  F   UNL A   1      46.309  28.748  24.409  1.00  0.00    -0.205 F 
ATOM     67  C   UNL A   1      49.054  26.406  25.045  1.00  0.00     0.022 A 
BRANCH  65  68
ATOM     68  S   UNL A   1      48.499  27.507  22.605  1.00  0.00     0.127 S 
ATOM     69  O   UNL A   1      47.319  28.267  22.195  1.00  0.00    -0.237 OA
ATOM     70  O   UNL A   1      49.746  28.273  22.608  1.00  0.00    -0.237 OA
ATOM     71  O   UNL A   1      48.604  26.171  22.037  1.00  0.00    -0.744 OA
ENDBRANCH  65  68
ENDBRANCH  47  61
BRANCH  48  72
ATOM     72  C   UNL A   1      38.577  30.798  30.908  1.00  0.00     0.023 A 
ATOM     73  C   UNL A   1      38.452  30.709  32.308  1.00  0.00     0.012 A 
ATOM     74  C   UNL A   1      37.537  31.389  30.163  1.00  0.00     0.148 A 
ATOM     75  C   UNL A   1      37.307  31.179  32.952  1.00  0.00     0.002 A 
ATOM     76  C   UNL A   1      36.425  31.906  30.817  1.00  0.00     0.091 A 
ATOM     77  F   UNL A   1      37.665  31.447  28.831  1.00  0.00    -0.205 F 
ATOM     78  C   UNL A   1      36.300  31.788  32.209  1.00  0.00     0.022 A 
BRANCH  76  79
ATOM     79  S   UNL A   1      35.144  32.826  29.957  1.00  0.00     0.127 S 
ATOM     80  O   UNL A   1      34.248  33.189  31.052  1.00  0.00    -0.237 OA
ATOM     81  O   UNL A   1      35.902  33.940  29.387  1.00  0.00    -0.237 OA
ATOM     82  O   UNL A   1      34.595  31.906  28.970  1.00  0.00    -0.744 OA
ENDBRANCH  76  79
ENDBRANCH  48  72
BRANCH  60  83
ATOM     83  C   UNL A   1      44.813  33.686  29.559  1.00  0.00     0.023 A 
ATOM     84  C   UNL A   1      45.594  33.855  30.718  1.00  0.00     0.012 A 
ATOM     85  C   UNL A   1      44.721  34.737  28.624  1.00  0.00     0.148 A 
ATOM     86  C   UNL A   1      46.265  35.056  30.950  1.00  0.00     0.002 A 
ATOM     87  C   UNL A   1      45.433  35.912  28.838  1.00  0.00     0.091 A 
ATOM     88  F   UNL A   1      43.961  34.558  27.534  1.00  0.00    -0.205 F 
ATOM     89  C   UNL A   1      46.196  36.076  30.004  1.00  0.00     0.022 A 
BRANCH  87  90
ATOM     90  S   UNL A   1      45.494  37.239  27.628  1.00  0.00     0.127 S 
ATOM     91  O   UNL A   1      44.074  37.495  27.395  1.00  0.00    -0.237 OA
ATOM     92  O   UNL A   1      46.193  38.295  28.362  1.00  0.00    -0.237 OA
ATOM     93  O   UNL A   1      46.226  36.710  26.485  1.00  0.00    -0.744 OA
ENDBRANCH  87  90
ENDBRANCH  60  83
ENDBRANCH  34  35
ENDBRANCH  27  29
ENDBRANCH  26  27
ENDBRANCH  25  26
ENDBRANCH   1  25
TORSDOF 18
ENDMDL
MODEL 3
REMARK VINA RESULT:     -11.6      4.883      7.976
REMARK SMILES Cc1c(Cl)cc2c(c1C)O[C@H](C(F)(F)F)C(C(=O)OCCOCCOC(=O)c1ccc(-c3c4nc(c(-c5cccc(S(=O)(=O)[O-])c5F)c5ccc([nH]5)c(-c5cccc(S(=O)(=O)[O-])c5F)c5nc(c(-c6cccc(S(=O)(=O)[O-])c6F)c6ccc3[nH]6)C=C5)C=C4)cc1)=C2
REMARK SMILES IDX 23 1 22 2 21 3 20 4 19 5 17 6 18 7 16 8 1 9 2 10 3 11 8 12
REMARK SMILES IDX 4 13 5 14 7 15 9 16 6 17 10 18 91 19 11 20 12 21 13 22 14 23
REMARK SMILES IDX 15 24 24 25 25 26 26 27 27 28 28 29 29 30 90 31 30 32 89 33
REMARK SMILES IDX 31 34 32 35 33 36 83 37 34 38 88 39 82 40 84 41 35 42 87 43
REMARK SMILES IDX 81 44 80 45 36 47 68 48 48 49 67 50 49 51 52 52 66 53 85 54
REMARK SMILES IDX 50 55 51 56 65 58 86 59 53 60 37 61 38 62 46 63 39 64 41 65
REMARK SMILES IDX 47 66 40 67 42 68 43 69 44 70 45 71 69 72 70 73 78 74 71 75
REMARK SMILES IDX 73 76 79 77 72 78 74 79 75 80 76 81 77 82 54 83 55 84 63 85
REMARK SMILES IDX 56 86 58 87 64 88 57 89 59 90 60 91 61 92 62 93
REMARK H PARENT 84 46 52 57
REMARK Flexibility Score: inf
ROOT
ATOM      1  C   UNL A   1      31.881  29.743  25.790  1.00  0.00     0.202 C 
ENDROOT
BRANCH   1   2
ATOM      2  O   UNL A   1      32.634  29.636  24.582  1.00  0.00    -0.374 OA
BRANCH   2   3
ATOM      3  C   UNL A   1      32.031  28.950  23.485  1.00  0.00     0.202 C 
BRANCH   3   4
ATOM      4  C   UNL A   1      31.491  27.546  23.766  1.00  0.00     0.261 C 
BRANCH   4   5
ATOM      5  O   UNL A   1      32.469  26.728  24.428  1.00  0.00    -0.460 OA
BRANCH   5   6
ATOM      6  C   UNL A   1      31.973  25.920  25.390  1.00  0.00     0.338 C 
ATOM      7  O   UNL A   1      30.964  26.104  26.057  1.00  0.00    -0.246 OA
BRANCH   6   8
ATOM      8  C   UNL A   1      32.750  24.668  25.447  1.00  0.00     0.087 C 
ATOM      9  C   UNL A   1      37.545  20.320  24.939  1.00  0.00     0.046 C 
ATOM     10  C   UNL A   1      36.612  21.454  25.280  1.00  0.00    -0.026 A 
ATOM     11  C   UNL A   1      37.107  22.682  25.761  1.00  0.00     0.045 A 
ATOM     12  C   UNL A   1      35.208  21.299  25.129  1.00  0.00    -0.004 A 
ATOM     13  Cl  UNL A   1      38.785  22.946  26.091  1.00  0.00    -0.084 Cl
ATOM     14  C   UNL A   1      36.251  23.762  25.981  1.00  0.00     0.032 A 
ATOM     15  C   UNL A   1      34.359  22.405  25.349  1.00  0.00     0.131 A 
ATOM     16  C   UNL A   1      34.582  20.000  24.678  1.00  0.00     0.049 C 
ATOM     17  C   UNL A   1      34.886  23.637  25.736  1.00  0.00     0.019 A 
ATOM     18  O   UNL A   1      33.014  22.206  25.178  1.00  0.00    -0.475 OA
ATOM     19  C   UNL A   1      34.030  24.805  25.816  1.00  0.00     0.027 C 
ATOM     20  C   UNL A   1      32.124  23.355  25.071  1.00  0.00     0.316 C 
BRANCH  20  21
ATOM     21  C   UNL A   1      31.515  23.368  23.662  1.00  0.00     0.430 C 
ATOM     22  F   UNL A   1      30.270  23.896  23.673  1.00  0.00    -0.167 F 
ATOM     23  F   UNL A   1      32.256  24.108  22.806  1.00  0.00    -0.167 F 
ATOM     24  F   UNL A   1      31.426  22.120  23.147  1.00  0.00    -0.167 F 
ENDBRANCH  20  21
ENDBRANCH   6   8
ENDBRANCH   5   6
ENDBRANCH   4   5
ENDBRANCH   3   4
ENDBRANCH   2   3
ENDBRANCH   1   2
BRANCH   1  25
ATOM     25  C   UNL A   1      32.666  29.869  27.102  1.00  0.00     0.261 C 
BRANCH  25  26
ATOM     26  O   UNL A   1      34.047  30.213  26.882  1.00  0.00    -0.460 OA
BRANCH  26  27
ATOM     27  C   UNL A   1      34.647  30.847  27.918  1.00  0.00     0.338 C 
ATOM     28  O   UNL A   1      34.168  31.724  28.624  1.00  0.00    -0.246 OA
BRANCH  27  29
ATOM     29  C   UNL A   1      35.936  30.200  28.222  1.00  0.00     0.060 A 
ATOM     30  C   UNL A   1      36.078  29.591  29.477  1.00  0.00     0.016 A 
ATOM     31  C   UNL A   1      37.006  30.247  27.327  1.00  0.00     0.016 A 
ATOM     32  C   UNL A   1      37.308  29.059  29.855  1.00  0.00     0.010 A 
ATOM     33  C   UNL A   1      38.243  29.719  27.715  1.00  0.00     0.010 A 
ATOM     34  C   UNL A   1      38.407  29.150  28.990  1.00  0.00    -0.014 A 
BRANCH  34  35
ATOM     35  C   UNL A   1      39.751  28.748  29.472  1.00  0.00     0.031 A 
ATOM     36  C   UNL A   1      40.426  27.553  28.856  1.00  0.00     0.074 A 
ATOM     37  C   UNL A   1      40.370  29.459  30.431  1.00  0.00     0.049 A 
ATOM     38  N   UNL A   1      41.601  27.045  29.116  1.00  0.00    -0.248 NA
ATOM     39  C   UNL A   1      39.680  26.838  27.806  1.00  0.00     0.031 C 
ATOM     40  C   UNL A   1      39.819  30.641  31.092  1.00  0.00     0.029 A 
ATOM     41  N   UNL A   1      41.597  29.284  31.022  1.00  0.00    -0.354 N 
ATOM     42  C   UNL A   1      41.736  25.949  28.272  1.00  0.00     0.074 A 
ATOM     43  C   UNL A   1      40.512  25.848  27.508  1.00  0.00     0.031 C 
ATOM     44  C   UNL A   1      40.702  31.082  32.004  1.00  0.00     0.029 A 
ATOM     45  C   UNL A   1      41.870  30.203  32.008  1.00  0.00     0.049 A 
ATOM     46  H   UNL A   1      42.222  28.569  30.764  1.00  0.00     0.167 HD
ATOM     47  C   UNL A   1      42.795  25.119  28.129  1.00  0.00     0.034 A 
ATOM     48  C   UNL A   1      42.938  30.318  32.823  1.00  0.00     0.034 A 
ATOM     49  C   UNL A   1      44.017  25.233  28.878  1.00  0.00     0.049 A 
ATOM     50  C   UNL A   1      44.084  29.350  32.672  1.00  0.00     0.074 A 
ATOM     51  C   UNL A   1      45.154  24.451  28.786  1.00  0.00     0.029 A 
ATOM     52  N   UNL A   1      44.261  26.184  29.856  1.00  0.00    -0.354 N 
ATOM     53  N   UNL A   1      44.239  28.384  31.799  1.00  0.00    -0.248 NA
ATOM     54  C   UNL A   1      45.219  29.507  33.596  1.00  0.00     0.031 C 
ATOM     55  C   UNL A   1      46.080  24.917  29.724  1.00  0.00     0.029 A 
ATOM     56  C   UNL A   1      45.528  26.005  30.382  1.00  0.00     0.049 A 
ATOM     57  H   UNL A   1      43.627  26.884  30.136  1.00  0.00     0.167 HD
ATOM     58  C   UNL A   1      45.497  27.844  32.043  1.00  0.00     0.074 A 
ATOM     59  C   UNL A   1      46.072  28.601  33.136  1.00  0.00     0.031 C 
ATOM     60  C   UNL A   1      46.114  26.805  31.427  1.00  0.00     0.034 A 
BRANCH  47  61
ATOM     61  C   UNL A   1      42.712  24.038  27.083  1.00  0.00     0.023 A 
ATOM     62  C   UNL A   1      43.293  24.260  25.818  1.00  0.00     0.012 A 
ATOM     63  C   UNL A   1      42.163  22.775  27.380  1.00  0.00     0.148 A 
ATOM     64  C   UNL A   1      43.314  23.249  24.859  1.00  0.00     0.002 A 
ATOM     65  C   UNL A   1      42.225  21.760  26.434  1.00  0.00     0.091 A 
ATOM     66  F   UNL A   1      41.600  22.592  28.583  1.00  0.00    -0.205 F 
ATOM     67  C   UNL A   1      42.793  21.997  25.171  1.00  0.00     0.022 A 
BRANCH  65  68
ATOM     68  S   UNL A   1      41.657  20.087  26.764  1.00  0.00     0.127 S 
ATOM     69  O   UNL A   1      42.581  19.663  27.814  1.00  0.00    -0.237 OA
ATOM     70  O   UNL A   1      40.283  20.312  27.214  1.00  0.00    -0.237 OA
ATOM     71  O   UNL A   1      41.777  19.365  25.505  1.00  0.00    -0.744 OA
ENDBRANCH  65  68
ENDBRANCH  47  61
BRANCH  48  72
ATOM     72  C   UNL A   1      43.001  31.432  33.812  1.00  0.00     0.023 A 
ATOM     73  C   UNL A   1      43.534  32.675  33.417  1.00  0.00     0.012 A 
ATOM     74  C   UNL A   1      42.507  31.284  35.123  1.00  0.00     0.148 A 
ATOM     75  C   UNL A   1      43.593  33.742  34.314  1.00  0.00     0.002 A 
ATOM     76  C   UNL A   1      42.517  32.367  35.993  1.00  0.00     0.091 A 
ATOM     77  F   UNL A   1      42.022  30.089  35.487  1.00  0.00    -0.205 F 
ATOM     78  C   UNL A   1      43.074  33.592  35.597  1.00  0.00     0.022 A 
BRANCH  76  79
ATOM     79  S   UNL A   1      41.748  32.306  37.617  1.00  0.00     0.127 S 
ATOM     80  O   UNL A   1      41.940  33.674  38.090  1.00  0.00    -0.237 OA
ATOM     81  O   UNL A   1      40.367  31.958  37.284  1.00  0.00    -0.237 OA
ATOM     82  O   UNL A   1      42.467  31.276  38.352  1.00  0.00    -0.744 OA
ENDBRANCH  76  79
ENDBRANCH  48  72
BRANCH  60  83
ATOM     83  C   UNL A   1      47.498  26.422  31.885  1.00  0.00     0.023 A 
ATOM     84  C   UNL A   1      48.615  27.101  31.361  1.00  0.00     0.012 A 
ATOM     85  C   UNL A   1      47.679  25.491  32.928  1.00  0.00     0.148 A 
ATOM     86  C   UNL A   1      49.893  26.849  31.859  1.00  0.00     0.002 A 
ATOM     87  C   UNL A   1      48.948  25.283  33.454  1.00  0.00     0.091 A 
ATOM     88  F   UNL A   1      46.602  24.847  33.403  1.00  0.00    -0.205 F 
ATOM     89  C   UNL A   1      50.057  25.954  32.914  1.00  0.00     0.022 A 
BRANCH  87  90
ATOM     90  S   UNL A   1      49.245  24.232  34.881  1.00  0.00     0.127 S 
ATOM     91  O   UNL A   1      48.402  24.864  35.895  1.00  0.00    -0.237 OA
ATOM     92  O   UNL A   1      48.766  22.932  34.413  1.00  0.00    -0.237 OA
ATOM     93  O   UNL A   1      50.678  24.295  35.137  1.00  0.00    -0.744 OA
ENDBRANCH  87  90
ENDBRANCH  60  83
ENDBRANCH  34  35
ENDBRANCH  27  29
ENDBRANCH  26  27
ENDBRANCH  25  26
ENDBRANCH   1  25
TORSDOF 18
ENDMDL
