MODEL 1
REMARK VINA RESULT:     -10.4      0.000      0.000
REMARK SMILES CCN(CC)c1ccc(NS(=O)(=O)c2ccc(Cl)s2)cc1C(=O)OCCOCCOC(=O)c1ccc(-c2c3nc(c(-c4cccc(S(=O)(=O)[O-])c4F)c4ccc([nH]4)c(-c4cccc(S(=O)(=O)[O-])c4F)c4nc(c(-c5cccc(S(=O)(=O)[O-])c5F)c5ccc2[nH]5)C=C4)C=C3)cc1
REMARK SMILES IDX 27 1 26 2 25 3 24 4 22 5 23 6 21 7 6 8 7 9 8 10 20 11 9 12
REMARK SMILES IDX 3 13 2 14 1 15 4 16 5 17 10 18 11 20 12 21 13 22 14 23 15 24
REMARK SMILES IDX 19 25 16 26 17 27 18 28 28 29 29 30 30 31 31 32 32 33 33 34
REMARK SMILES IDX 34 35 95 36 35 37 94 38 36 39 37 40 38 41 88 42 39 43 93 44
REMARK SMILES IDX 87 45 89 46 40 47 92 48 86 49 85 50 41 52 73 53 53 54 72 55
REMARK SMILES IDX 54 56 57 57 71 58 90 59 55 60 56 61 70 63 91 64 58 65 42 66
REMARK SMILES IDX 43 67 51 68 44 69 46 70 52 71 45 72 47 73 48 74 49 75 50 76
REMARK SMILES IDX 74 77 75 78 83 79 76 80 78 81 84 82 77 83 79 84 80 85 81 86
REMARK SMILES IDX 82 87 59 88 60 89 68 90 61 91 63 92 69 93 62 94 64 95 65 96
REMARK SMILES IDX 66 97 67 98
REMARK H PARENT 10 19 89 51 57 62
REMARK Flexibility Score: inf
ROOT
ATOM      1  O   UNL A   1      32.207  30.797  26.435  1.00  0.00    -0.374 OA
ENDROOT
BRANCH   1   2
ATOM      2  C   UNL A   1      31.927  29.535  25.829  1.00  0.00     0.202 C 
BRANCH   2   3
ATOM      3  C   UNL A   1      31.495  28.402  26.765  1.00  0.00     0.261 C 
BRANCH   3   4
ATOM      4  O   UNL A   1      32.157  27.164  26.445  1.00  0.00    -0.460 OA
BRANCH   4   5
ATOM      5  C   UNL A   1      33.438  27.294  26.016  1.00  0.00     0.340 C 
ATOM      6  O   UNL A   1      34.318  27.944  26.564  1.00  0.00    -0.246 OA
BRANCH   5   7
ATOM      7  C   UNL A   1      33.738  26.343  24.922  1.00  0.00     0.085 A 
ATOM      8  C   UNL A   1      33.239  26.447  23.607  1.00  0.00     0.051 A 
ATOM      9  C   UNL A   1      33.617  25.412  22.740  1.00  0.00     0.029 A 
ATOM     10  C   UNL A   1      34.356  24.305  23.148  1.00  0.00     0.029 A 
ATOM     11  C   UNL A   1      34.551  25.243  25.322  1.00  0.00     0.044 A 
ATOM     12  C   UNL A   1      34.867  24.224  24.428  1.00  0.00     0.050 A 
BRANCH   8  13
ATOM     13  N   UNL A   1      32.411  27.448  23.118  1.00  0.00    -0.371 N 
BRANCH  13  14
ATOM     14  C   UNL A   1      32.965  28.642  22.465  1.00  0.00     0.113 C 
ATOM     15  C   UNL A   1      34.437  28.843  22.785  1.00  0.00     0.027 C 
ENDBRANCH  13  14
BRANCH  13  16
ATOM     16  C   UNL A   1      30.968  27.188  22.923  1.00  0.00     0.113 C 
ATOM     17  C   UNL A   1      30.440  26.001  23.729  1.00  0.00     0.027 C 
ENDBRANCH  13  16
ENDBRANCH   8  13
BRANCH  12  18
ATOM     18  N   UNL A   1      35.547  23.036  24.857  1.00  0.00    -0.279 N 
ATOM     19  H   UNL A   1      36.506  22.921  24.666  1.00  0.00     0.180 HD
BRANCH  18  20
ATOM     20  S   UNL A   1      34.692  21.822  25.699  1.00  0.00     0.271 S 
ATOM     21  O   UNL A   1      34.912  20.571  24.997  1.00  0.00    -0.200 OA
ATOM     22  O   UNL A   1      35.070  21.960  27.086  1.00  0.00    -0.200 OA
BRANCH  20  23
ATOM     23  C   UNL A   1      32.939  22.147  25.687  1.00  0.00     0.141 A 
ATOM     24  C   UNL A   1      31.973  21.972  24.704  1.00  0.00     0.036 A 
ATOM     25  S   UNL A   1      32.238  22.705  27.151  1.00  0.00    -0.110 S 
ATOM     26  C   UNL A   1      30.651  22.160  25.209  1.00  0.00     0.034 A 
ATOM     27  C   UNL A   1      30.677  22.539  26.527  1.00  0.00     0.094 A 
ATOM     28  Cl  UNL A   1      29.320  22.824  27.538  1.00  0.00    -0.072 Cl
ENDBRANCH  20  23
ENDBRANCH  18  20
ENDBRANCH  12  18
ENDBRANCH   5   7
ENDBRANCH   4   5
ENDBRANCH   3   4
ENDBRANCH   2   3
ENDBRANCH   1   2
BRANCH   1  29
ATOM     29  C   UNL A   1      33.479  30.958  27.054  1.00  0.00     0.202 C 
BRANCH  29  30
ATOM     30  C   UNL A   1      33.653  32.113  28.055  1.00  0.00     0.261 C 
BRANCH  30  31
ATOM     31  O   UNL A   1      33.131  33.383  27.630  1.00  0.00    -0.460 OA
BRANCH  31  32
ATOM     32  C   UNL A   1      33.247  34.374  28.549  1.00  0.00     0.338 C 
ATOM     33  O   UNL A   1      32.494  35.320  28.715  1.00  0.00    -0.246 OA
BRANCH  32  34
ATOM     34  C   UNL A   1      34.404  34.141  29.431  1.00  0.00     0.060 A 
ATOM     35  C   UNL A   1      35.690  34.351  28.921  1.00  0.00     0.016 A 
ATOM     36  C   UNL A   1      34.225  33.543  30.679  1.00  0.00     0.016 A 
ATOM     37  C   UNL A   1      36.805  33.923  29.644  1.00  0.00     0.010 A 
ATOM     38  C   UNL A   1      35.345  33.117  31.403  1.00  0.00     0.010 A 
ATOM     39  C   UNL A   1      36.639  33.268  30.872  1.00  0.00    -0.014 A 
BRANCH  39  40
ATOM     40  C   UNL A   1      37.806  32.653  31.555  1.00  0.00     0.031 A 
ATOM     41  C   UNL A   1      38.522  31.492  30.919  1.00  0.00     0.074 A 
ATOM     42  C   UNL A   1      38.206  33.104  32.757  1.00  0.00     0.049 A 
ATOM     43  N   UNL A   1      39.525  30.787  31.375  1.00  0.00    -0.248 NA
ATOM     44  C   UNL A   1      38.037  31.063  29.597  1.00  0.00     0.031 C 
ATOM     45  C   UNL A   1      37.584  34.203  33.492  1.00  0.00     0.029 A 
ATOM     46  N   UNL A   1      39.209  32.665  33.586  1.00  0.00    -0.354 N 
ATOM     47  C   UNL A   1      39.772  29.810  30.418  1.00  0.00     0.074 A 
ATOM     48  C   UNL A   1      38.803  30.008  29.359  1.00  0.00     0.031 C 
ATOM     49  C   UNL A   1      38.191  34.325  34.684  1.00  0.00     0.029 A 
ATOM     50  C   UNL A   1      39.228  33.300  34.804  1.00  0.00     0.049 A 
ATOM     51  H   UNL A   1      39.852  31.964  33.333  1.00  0.00     0.167 HD
ATOM     52  C   UNL A   1      40.726  28.847  30.409  1.00  0.00     0.034 A 
ATOM     53  C   UNL A   1      39.972  33.067  35.903  1.00  0.00     0.034 A 
ATOM     54  C   UNL A   1      41.706  28.666  31.447  1.00  0.00     0.049 A 
ATOM     55  C   UNL A   1      41.030  31.997  35.873  1.00  0.00     0.074 A 
ATOM     56  C   UNL A   1      42.762  27.772  31.487  1.00  0.00     0.029 A 
ATOM     57  N   UNL A   1      41.742  29.378  32.636  1.00  0.00    -0.354 N 
ATOM     58  N   UNL A   1      41.350  31.181  34.898  1.00  0.00    -0.248 NA
ATOM     59  C   UNL A   1      41.855  31.840  37.081  1.00  0.00     0.031 C 
ATOM     60  C   UNL A   1      43.418  27.923  32.714  1.00  0.00     0.029 A 
ATOM     61  C   UNL A   1      42.788  28.931  33.427  1.00  0.00     0.049 A 
ATOM     62  H   UNL A   1      41.115  30.096  32.883  1.00  0.00     0.167 HD
ATOM     63  C   UNL A   1      42.427  30.434  35.361  1.00  0.00     0.074 A 
ATOM     64  C   UNL A   1      42.720  30.909  36.699  1.00  0.00     0.031 C 
ATOM     65  C   UNL A   1      43.103  29.435  34.740  1.00  0.00     0.034 A 
BRANCH  52  66
ATOM     66  C   UNL A   1      40.771  27.925  29.218  1.00  0.00     0.023 A 
ATOM     67  C   UNL A   1      39.908  26.811  29.165  1.00  0.00     0.012 A 
ATOM     68  C   UNL A   1      41.633  28.181  28.135  1.00  0.00     0.148 A 
ATOM     69  C   UNL A   1      39.933  25.944  28.073  1.00  0.00     0.002 A 
ATOM     70  C   UNL A   1      41.622  27.336  27.031  1.00  0.00     0.091 A 
ATOM     71  F   UNL A   1      42.465  29.230  28.212  1.00  0.00    -0.205 F 
ATOM     72  C   UNL A   1      40.782  26.212  27.002  1.00  0.00     0.022 A 
BRANCH  70  73
ATOM     73  S   UNL A   1      42.628  27.648  25.575  1.00  0.00     0.127 S 
ATOM     74  O   UNL A   1      43.977  27.620  26.136  1.00  0.00    -0.237 OA
ATOM     75  O   UNL A   1      42.299  26.508  24.718  1.00  0.00    -0.237 OA
ATOM     76  O   UNL A   1      42.186  28.936  25.057  1.00  0.00    -0.744 OA
ENDBRANCH  70  73
ENDBRANCH  52  66
BRANCH  53  77
ATOM     77  C   UNL A   1      39.746  33.893  37.121  1.00  0.00     0.023 A 
ATOM     78  C   UNL A   1      40.191  35.228  37.155  1.00  0.00     0.012 A 
ATOM     79  C   UNL A   1      39.031  33.376  38.219  1.00  0.00     0.148 A 
ATOM     80  C   UNL A   1      39.943  36.028  38.270  1.00  0.00     0.002 A 
ATOM     81  C   UNL A   1      38.736  34.195  39.300  1.00  0.00     0.091 A 
ATOM     82  F   UNL A   1      38.631  32.097  38.170  1.00  0.00    -0.205 F 
ATOM     83  C   UNL A   1      39.204  35.518  39.336  1.00  0.00     0.022 A 
BRANCH  81  84
ATOM     84  S   UNL A   1      37.667  33.668  40.645  1.00  0.00     0.127 S 
ATOM     85  O   UNL A   1      37.484  34.911  41.388  1.00  0.00    -0.237 OA
ATOM     86  O   UNL A   1      36.485  33.199  39.920  1.00  0.00    -0.237 OA
ATOM     87  O   UNL A   1      38.399  32.618  41.340  1.00  0.00    -0.744 OA
ENDBRANCH  81  84
ENDBRANCH  53  77
BRANCH  65  88
ATOM     88  C   UNL A   1      44.246  28.791  35.482  1.00  0.00     0.023 A 
ATOM     89  C   UNL A   1      45.558  29.274  35.304  1.00  0.00     0.012 A 
ATOM     90  C   UNL A   1      44.013  27.759  36.414  1.00  0.00     0.148 A 
ATOM     91  C   UNL A   1      46.622  28.722  36.017  1.00  0.00     0.002 A 
ATOM     92  C   UNL A   1      45.071  27.245  37.156  1.00  0.00     0.091 A 
ATOM     93  F   UNL A   1      42.761  27.297  36.558  1.00  0.00    -0.205 F 
ATOM     94  C   UNL A   1      46.377  27.717  36.950  1.00  0.00     0.022 A 
BRANCH  92  95
ATOM     95  S   UNL A   1      44.836  26.014  38.444  1.00  0.00     0.127 S 
ATOM     96  O   UNL A   1      46.215  25.692  38.804  1.00  0.00    -0.237 OA
ATOM     97  O   UNL A   1      44.100  26.765  39.462  1.00  0.00    -0.237 OA
ATOM     98  O   UNL A   1      44.079  24.932  37.830  1.00  0.00    -0.744 OA
ENDBRANCH  92  95
ENDBRANCH  65  88
ENDBRANCH  39  40
ENDBRANCH  32  34
ENDBRANCH  31  32
ENDBRANCH  30  31
ENDBRANCH  29  30
ENDBRANCH   1  29
TORSDOF 23
ENDMDL
MODEL 2
REMARK VINA RESULT:     -10.4      5.788     11.362
REMARK SMILES CCN(CC)c1ccc(NS(=O)(=O)c2ccc(Cl)s2)cc1C(=O)OCCOCCOC(=O)c1ccc(-c2c3nc(c(-c4cccc(S(=O)(=O)[O-])c4F)c4ccc([nH]4)c(-c4cccc(S(=O)(=O)[O-])c4F)c4nc(c(-c5cccc(S(=O)(=O)[O-])c5F)c5ccc2[nH]5)C=C4)C=C3)cc1
REMARK SMILES IDX 27 1 26 2 25 3 24 4 22 5 23 6 21 7 6 8 7 9 8 10 20 11 9 12
REMARK SMILES IDX 3 13 2 14 1 15 4 16 5 17 10 18 11 20 12 21 13 22 14 23 15 24
REMARK SMILES IDX 19 25 16 26 17 27 18 28 28 29 29 30 30 31 31 32 32 33 33 34
REMARK SMILES IDX 34 35 95 36 35 37 94 38 36 39 37 40 38 41 88 42 39 43 93 44
REMARK SMILES IDX 87 45 89 46 40 47 92 48 86 49 85 50 41 52 73 53 53 54 72 55
REMARK SMILES IDX 54 56 57 57 71 58 90 59 55 60 56 61 70 63 91 64 58 65 42 66
REMARK SMILES IDX 43 67 51 68 44 69 46 70 52 71 45 72 47 73 48 74 49 75 50 76
REMARK SMILES IDX 74 77 75 78 83 79 76 80 78 81 84 82 77 83 79 84 80 85 81 86
REMARK SMILES IDX 82 87 59 88 60 89 68 90 61 91 63 92 69 93 62 94 64 95 65 96
REMARK SMILES IDX 66 97 67 98
REMARK H PARENT 10 19 89 51 57 62
REMARK Flexibility Score: inf
ROOT
ATOM      1  O   UNL A   1      37.009  21.197  24.803  1.00  0.00    -0.374 OA
ENDROOT
BRANCH   1   2
ATOM      2  C   UNL A   1      36.793  22.342  25.629  1.00  0.00     0.202 C 
BRANCH   2   3
ATOM      3  C   UNL A   1      36.714  23.697  24.921  1.00  0.00     0.261 C 
BRANCH   3   4
ATOM      4  O   UNL A   1      35.391  24.261  24.994  1.00  0.00    -0.460 OA
BRANCH   4   5
ATOM      5  C   UNL A   1      34.616  24.046  23.900  1.00  0.00     0.340 C 
ATOM      6  O   UNL A   1      34.942  23.426  22.897  1.00  0.00    -0.246 OA
BRANCH   5   7
ATOM      7  C   UNL A   1      33.211  24.435  24.152  1.00  0.00     0.085 A 
ATOM      8  C   UNL A   1      32.320  23.734  24.991  1.00  0.00     0.051 A 
ATOM      9  C   UNL A   1      31.020  24.257  25.053  1.00  0.00     0.029 A 
ATOM     10  C   UNL A   1      30.592  25.335  24.283  1.00  0.00     0.029 A 
ATOM     11  C   UNL A   1      32.789  25.580  23.414  1.00  0.00     0.044 A 
ATOM     12  C   UNL A   1      31.476  26.036  23.488  1.00  0.00     0.050 A 
BRANCH   8  13
ATOM     13  N   UNL A   1      32.606  22.591  25.723  1.00  0.00    -0.371 N 
BRANCH  13  14
ATOM     14  C   UNL A   1      33.064  22.674  27.117  1.00  0.00     0.113 C 
ATOM     15  C   UNL A   1      33.872  21.454  27.532  1.00  0.00     0.027 C 
ENDBRANCH  13  14
BRANCH  13  16
ATOM     16  C   UNL A   1      32.134  21.271  25.253  1.00  0.00     0.113 C 
ATOM     17  C   UNL A   1      32.686  20.868  23.885  1.00  0.00     0.027 C 
ENDBRANCH  13  16
ENDBRANCH   8  13
BRANCH  12  18
ATOM     18  N   UNL A   1      30.999  27.084  22.632  1.00  0.00    -0.279 N 
ATOM     19  H   UNL A   1      30.247  26.916  22.019  1.00  0.00     0.180 HD
BRANCH  18  20
ATOM     20  S   UNL A   1      31.736  28.622  22.677  1.00  0.00     0.271 S 
ATOM     21  O   UNL A   1      32.981  28.529  21.938  1.00  0.00    -0.200 OA
ATOM     22  O   UNL A   1      30.716  29.563  22.278  1.00  0.00    -0.200 OA
BRANCH  20  23
ATOM     23  C   UNL A   1      32.136  29.093  24.350  1.00  0.00     0.141 A 
ATOM     24  C   UNL A   1      31.344  29.543  25.398  1.00  0.00     0.036 A 
ATOM     25  S   UNL A   1      33.769  28.903  24.846  1.00  0.00    -0.110 S 
ATOM     26  C   UNL A   1      32.060  29.590  26.633  1.00  0.00     0.034 A 
ATOM     27  C   UNL A   1      33.374  29.244  26.453  1.00  0.00     0.094 A 
ATOM     28  Cl  UNL A   1      34.578  29.121  27.670  1.00  0.00    -0.072 Cl
ENDBRANCH  20  23
ENDBRANCH  18  20
ENDBRANCH  12  18
ENDBRANCH   5   7
ENDBRANCH   4   5
ENDBRANCH   3   4
ENDBRANCH   2   3
ENDBRANCH   1   2
BRANCH   1  29
ATOM     29  C   UNL A   1      38.035  20.292  25.195  1.00  0.00     0.202 C 
BRANCH  29  30
ATOM     30  C   UNL A   1      39.422  20.872  25.522  1.00  0.00     0.261 C 
BRANCH  30  31
ATOM     31  O   UNL A   1      40.177  20.150  26.509  1.00  0.00    -0.460 OA
BRANCH  31  32
ATOM     32  C   UNL A   1      41.467  19.909  26.166  1.00  0.00     0.338 C 
ATOM     33  O   UNL A   1      41.914  18.910  25.626  1.00  0.00    -0.246 OA
BRANCH  32  34
ATOM     34  C   UNL A   1      42.316  21.076  26.462  1.00  0.00     0.060 A 
ATOM     35  C   UNL A   1      42.464  21.479  27.794  1.00  0.00     0.016 A 
ATOM     36  C   UNL A   1      42.803  21.871  25.423  1.00  0.00     0.016 A 
ATOM     37  C   UNL A   1      43.065  22.703  28.090  1.00  0.00     0.010 A 
ATOM     38  C   UNL A   1      43.407  23.097  25.722  1.00  0.00     0.010 A 
ATOM     39  C   UNL A   1      43.506  23.539  27.055  1.00  0.00    -0.014 A 
BRANCH  39  40
ATOM     40  C   UNL A   1      43.979  24.916  27.355  1.00  0.00     0.031 A 
ATOM     41  C   UNL A   1      43.015  25.941  27.887  1.00  0.00     0.074 A 
ATOM     42  C   UNL A   1      45.257  25.262  27.121  1.00  0.00     0.049 A 
ATOM     43  N   UNL A   1      43.217  27.204  28.163  1.00  0.00    -0.248 NA
ATOM     44  C   UNL A   1      41.637  25.485  28.132  1.00  0.00     0.031 C 
ATOM     45  C   UNL A   1      46.285  24.372  26.584  1.00  0.00     0.029 A 
ATOM     46  N   UNL A   1      45.897  26.468  27.270  1.00  0.00    -0.354 N 
ATOM     47  C   UNL A   1      41.990  27.705  28.580  1.00  0.00     0.074 A 
ATOM     48  C   UNL A   1      41.045  26.610  28.510  1.00  0.00     0.031 C 
ATOM     49  C   UNL A   1      47.416  25.073  26.407  1.00  0.00     0.029 A 
ATOM     50  C   UNL A   1      47.186  26.465  26.797  1.00  0.00     0.049 A 
ATOM     51  H   UNL A   1      45.472  27.258  27.677  1.00  0.00     0.167 HD
ATOM     52  C   UNL A   1      41.678  28.956  29.000  1.00  0.00     0.034 A 
ATOM     53  C   UNL A   1      48.073  27.470  26.663  1.00  0.00     0.034 A 
ATOM     54  C   UNL A   1      42.622  30.038  29.096  1.00  0.00     0.049 A 
ATOM     55  C   UNL A   1      47.711  28.851  27.139  1.00  0.00     0.074 A 
ATOM     56  C   UNL A   1      42.418  31.316  29.587  1.00  0.00     0.029 A 
ATOM     57  N   UNL A   1      43.942  29.979  28.676  1.00  0.00    -0.354 N 
ATOM     58  N   UNL A   1      46.591  29.272  27.674  1.00  0.00    -0.248 NA
ATOM     59  C   UNL A   1      48.749  29.888  27.029  1.00  0.00     0.031 C 
ATOM     60  C   UNL A   1      43.607  32.038  29.437  1.00  0.00     0.029 A 
ATOM     61  C   UNL A   1      44.560  31.202  28.878  1.00  0.00     0.049 A 
ATOM     62  H   UNL A   1      44.377  29.184  28.291  1.00  0.00     0.167 HD
ATOM     63  C   UNL A   1      46.794  30.611  27.988  1.00  0.00     0.074 A 
ATOM     64  C   UNL A   1      48.155  30.927  27.604  1.00  0.00     0.031 C 
ATOM     65  C   UNL A   1      45.927  31.501  28.533  1.00  0.00     0.034 A 
BRANCH  52  66
ATOM     66  C   UNL A   1      40.253  29.215  29.414  1.00  0.00     0.023 A 
ATOM     67  C   UNL A   1      39.302  29.597  28.445  1.00  0.00     0.012 A 
ATOM     68  C   UNL A   1      39.843  29.041  30.750  1.00  0.00     0.148 A 
ATOM     69  C   UNL A   1      37.978  29.841  28.805  1.00  0.00     0.002 A 
ATOM     70  C   UNL A   1      38.512  29.245  31.094  1.00  0.00     0.091 A 
ATOM     71  F   UNL A   1      40.764  28.701  31.663  1.00  0.00    -0.205 F 
ATOM     72  C   UNL A   1      37.580  29.656  30.127  1.00  0.00     0.022 A 
BRANCH  70  73
ATOM     73  S   UNL A   1      37.896  28.955  32.757  1.00  0.00     0.127 S 
ATOM     74  O   UNL A   1      36.523  29.446  32.654  1.00  0.00    -0.237 OA
ATOM     75  O   UNL A   1      38.017  27.502  32.887  1.00  0.00    -0.237 OA
ATOM     76  O   UNL A   1      38.772  29.713  33.640  1.00  0.00    -0.744 OA
ENDBRANCH  70  73
ENDBRANCH  52  66
BRANCH  53  77
ATOM     77  C   UNL A   1      49.407  27.186  26.065  1.00  0.00     0.023 A 
ATOM     78  C   UNL A   1      49.536  27.056  24.670  1.00  0.00     0.012 A 
ATOM     79  C   UNL A   1      50.558  27.111  26.875  1.00  0.00     0.148 A 
ATOM     80  C   UNL A   1      50.787  26.837  24.093  1.00  0.00     0.002 A 
ATOM     81  C   UNL A   1      51.806  26.954  26.289  1.00  0.00     0.091 A 
ATOM     82  F   UNL A   1      50.407  27.223  28.202  1.00  0.00    -0.205 F 
ATOM     83  C   UNL A   1      51.923  26.800  24.899  1.00  0.00     0.022 A 
BRANCH  81  84
ATOM     84  S   UNL A   1      53.331  27.043  27.235  1.00  0.00     0.127 S 
ATOM     85  O   UNL A   1      54.334  26.747  26.217  1.00  0.00    -0.237 OA
ATOM     86  O   UNL A   1      53.313  28.431  27.701  1.00  0.00    -0.237 OA
ATOM     87  O   UNL A   1      53.196  26.055  28.295  1.00  0.00    -0.744 OA
ENDBRANCH  81  84
ENDBRANCH  53  77
BRANCH  65  88
ATOM     88  C   UNL A   1      46.420  32.906  28.772  1.00  0.00     0.023 A 
ATOM     89  C   UNL A   1      47.288  33.170  29.851  1.00  0.00     0.012 A 
ATOM     90  C   UNL A   1      46.085  33.950  27.886  1.00  0.00     0.148 A 
ATOM     91  C   UNL A   1      47.791  34.454  30.061  1.00  0.00     0.002 A 
ATOM     92  C   UNL A   1      46.627  35.217  28.074  1.00  0.00     0.091 A 
ATOM     93  F   UNL A   1      45.242  33.686  26.876  1.00  0.00    -0.205 F 
ATOM     94  C   UNL A   1      47.470  35.474  29.166  1.00  0.00     0.022 A 
BRANCH  92  95
ATOM     95  S   UNL A   1      46.342  36.566  26.922  1.00  0.00     0.127 S 
ATOM     96  O   UNL A   1      47.147  37.635  27.510  1.00  0.00    -0.237 OA
ATOM     97  O   UNL A   1      46.872  36.024  25.669  1.00  0.00    -0.237 OA
ATOM     98  O   UNL A   1      44.904  36.794  26.919  1.00  0.00    -0.744 OA
ENDBRANCH  92  95
ENDBRANCH  65  88
ENDBRANCH  39  40
ENDBRANCH  32  34
ENDBRANCH  31  32
ENDBRANCH  30  31
ENDBRANCH  29  30
ENDBRANCH   1  29
TORSDOF 23
ENDMDL
MODEL 3
REMARK VINA RESULT:     -10.2      1.783      2.205
REMARK SMILES CCN(CC)c1ccc(NS(=O)(=O)c2ccc(Cl)s2)cc1C(=O)OCCOCCOC(=O)c1ccc(-c2c3nc(c(-c4cccc(S(=O)(=O)[O-])c4F)c4ccc([nH]4)c(-c4cccc(S(=O)(=O)[O-])c4F)c4nc(c(-c5cccc(S(=O)(=O)[O-])c5F)c5ccc2[nH]5)C=C4)C=C3)cc1
REMARK SMILES IDX 27 1 26 2 25 3 24 4 22 5 23 6 21 7 6 8 7 9 8 10 20 11 9 12
REMARK SMILES IDX 3 13 2 14 1 15 4 16 5 17 10 18 11 20 12 21 13 22 14 23 15 24
REMARK SMILES IDX 19 25 16 26 17 27 18 28 28 29 29 30 30 31 31 32 32 33 33 34
REMARK SMILES IDX 34 35 95 36 35 37 94 38 36 39 37 40 38 41 88 42 39 43 93 44
REMARK SMILES IDX 87 45 89 46 40 47 92 48 86 49 85 50 41 52 73 53 53 54 72 55
REMARK SMILES IDX 54 56 57 57 71 58 90 59 55 60 56 61 70 63 91 64 58 65 42 66
REMARK SMILES IDX 43 67 51 68 44 69 46 70 52 71 45 72 47 73 48 74 49 75 50 76
REMARK SMILES IDX 74 77 75 78 83 79 76 80 78 81 84 82 77 83 79 84 80 85 81 86
REMARK SMILES IDX 82 87 59 88 60 89 68 90 61 91 63 92 69 93 62 94 64 95 65 96
REMARK SMILES IDX 66 97 67 98
REMARK H PARENT 10 19 89 51 57 62
REMARK Flexibility Score: inf
ROOT
ATOM      1  O   UNL A   1      32.158  30.722  26.802  1.00  0.00    -0.374 OA
ENDROOT
BRANCH   1   2
ATOM      2  C   UNL A   1      31.771  29.401  26.424  1.00  0.00     0.202 C 
BRANCH   2   3
ATOM      3  C   UNL A   1      31.759  28.344  27.532  1.00  0.00     0.261 C 
BRANCH   3   4
ATOM      4  O   UNL A   1      32.388  27.120  27.108  1.00  0.00    -0.460 OA
BRANCH   4   5
ATOM      5  C   UNL A   1      33.482  27.281  26.321  1.00  0.00     0.340 C 
ATOM      6  O   UNL A   1      34.434  28.013  26.554  1.00  0.00    -0.246 OA
BRANCH   5   7
ATOM      7  C   UNL A   1      33.524  26.268  25.243  1.00  0.00     0.085 A 
ATOM      8  C   UNL A   1      32.995  26.449  23.949  1.00  0.00     0.051 A 
ATOM      9  C   UNL A   1      33.106  25.340  23.097  1.00  0.00     0.029 A 
ATOM     10  C   UNL A   1      33.616  24.111  23.505  1.00  0.00     0.029 A 
ATOM     11  C   UNL A   1      34.106  25.029  25.641  1.00  0.00     0.044 A 
ATOM     12  C   UNL A   1      34.160  23.949  24.764  1.00  0.00     0.050 A 
BRANCH   8  13
ATOM     13  N   UNL A   1      32.373  27.591  23.466  1.00  0.00    -0.371 N 
BRANCH  13  14
ATOM     14  C   UNL A   1      30.922  27.783  23.603  1.00  0.00     0.113 C 
ATOM     15  C   UNL A   1      30.227  27.902  22.256  1.00  0.00     0.027 C 
ENDBRANCH  13  14
BRANCH  13  16
ATOM     16  C   UNL A   1      33.175  28.785  23.124  1.00  0.00     0.113 C 
ATOM     17  C   UNL A   1      34.190  28.548  22.007  1.00  0.00     0.027 C 
ENDBRANCH  13  16
ENDBRANCH   8  13
BRANCH  12  18
ATOM     18  N   UNL A   1      34.595  22.653  25.197  1.00  0.00    -0.279 N 
ATOM     19  H   UNL A   1      35.526  22.369  25.044  1.00  0.00     0.180 HD
BRANCH  18  20
ATOM     20  S   UNL A   1      33.500  21.603  25.979  1.00  0.00     0.271 S 
ATOM     21  O   UNL A   1      34.121  21.170  27.216  1.00  0.00    -0.200 OA
ATOM     22  O   UNL A   1      32.232  22.295  25.999  1.00  0.00    -0.200 OA
BRANCH  20  23
ATOM     23  C   UNL A   1      33.190  20.150  24.993  1.00  0.00     0.141 A 
ATOM     24  C   UNL A   1      32.123  19.797  24.178  1.00  0.00     0.036 A 
ATOM     25  S   UNL A   1      34.434  18.969  24.931  1.00  0.00    -0.110 S 
ATOM     26  C   UNL A   1      32.401  18.630  23.402  1.00  0.00     0.034 A 
ATOM     27  C   UNL A   1      33.631  18.113  23.715  1.00  0.00     0.094 A 
ATOM     28  Cl  UNL A   1      34.383  16.749  22.994  1.00  0.00    -0.072 Cl
ENDBRANCH  20  23
ENDBRANCH  18  20
ENDBRANCH  12  18
ENDBRANCH   5   7
ENDBRANCH   4   5
ENDBRANCH   3   4
ENDBRANCH   2   3
ENDBRANCH   1   2
BRANCH   1  29
ATOM     29  C   UNL A   1      33.514  30.921  27.189  1.00  0.00     0.202 C 
BRANCH  29  30
ATOM     30  C   UNL A   1      33.842  32.143  28.063  1.00  0.00     0.261 C 
BRANCH  30  31
ATOM     31  O   UNL A   1      33.174  33.363  27.698  1.00  0.00    -0.460 OA
BRANCH  31  32
ATOM     32  C   UNL A   1      33.339  34.380  28.580  1.00  0.00     0.338 C 
ATOM     33  O   UNL A   1      32.629  35.364  28.715  1.00  0.00    -0.246 OA
BRANCH  32  34
ATOM     34  C   UNL A   1      34.492  34.129  29.462  1.00  0.00     0.060 A 
ATOM     35  C   UNL A   1      35.781  34.358  28.965  1.00  0.00     0.016 A 
ATOM     36  C   UNL A   1      34.309  33.498  30.693  1.00  0.00     0.016 A 
ATOM     37  C   UNL A   1      36.893  33.916  29.683  1.00  0.00     0.010 A 
ATOM     38  C   UNL A   1      35.426  33.059  31.412  1.00  0.00     0.010 A 
ATOM     39  C   UNL A   1      36.723  33.230  30.893  1.00  0.00    -0.014 A 
BRANCH  39  40
ATOM     40  C   UNL A   1      37.889  32.601  31.567  1.00  0.00     0.031 A 
ATOM     41  C   UNL A   1      38.590  31.437  30.922  1.00  0.00     0.074 A 
ATOM     42  C   UNL A   1      38.300  33.045  32.768  1.00  0.00     0.049 A 
ATOM     43  N   UNL A   1      39.590  30.721  31.370  1.00  0.00    -0.248 NA
ATOM     44  C   UNL A   1      38.094  31.016  29.602  1.00  0.00     0.031 C 
ATOM     45  C   UNL A   1      37.692  34.147  33.511  1.00  0.00     0.029 A 
ATOM     46  N   UNL A   1      39.304  32.595  33.589  1.00  0.00    -0.354 N 
ATOM     47  C   UNL A   1      39.822  29.745  30.408  1.00  0.00     0.074 A 
ATOM     48  C   UNL A   1      38.849  29.955  29.356  1.00  0.00     0.031 C 
ATOM     49  C   UNL A   1      38.307  34.260  34.699  1.00  0.00     0.029 A 
ATOM     50  C   UNL A   1      39.336  33.225  34.809  1.00  0.00     0.049 A 
ATOM     51  H   UNL A   1      39.939  31.889  33.329  1.00  0.00     0.167 HD
ATOM     52  C   UNL A   1      40.768  28.774  30.390  1.00  0.00     0.034 A 
ATOM     53  C   UNL A   1      40.085  32.982  35.903  1.00  0.00     0.034 A 
ATOM     54  C   UNL A   1      41.752  28.581  31.421  1.00  0.00     0.049 A 
ATOM     55  C   UNL A   1      41.133  31.903  35.862  1.00  0.00     0.074 A 
ATOM     56  C   UNL A   1      42.801  27.678  31.452  1.00  0.00     0.029 A 
ATOM     57  N   UNL A   1      41.802  29.288  32.613  1.00  0.00    -0.354 N 
ATOM     58  N   UNL A   1      41.440  31.088  34.883  1.00  0.00    -0.248 NA
ATOM     59  C   UNL A   1      41.964  31.734  37.064  1.00  0.00     0.031 C 
ATOM     60  C   UNL A   1      43.466  27.819  32.675  1.00  0.00     0.029 A 
ATOM     61  C   UNL A   1      42.849  28.830  33.395  1.00  0.00     0.049 A 
ATOM     62  H   UNL A   1      41.183  30.011  32.866  1.00  0.00     0.167 HD
ATOM     63  C   UNL A   1      42.514  30.329  35.337  1.00  0.00     0.074 A 
ATOM     64  C   UNL A   1      42.819  30.797  36.674  1.00  0.00     0.031 C 
ATOM     65  C   UNL A   1      43.177  29.326  34.708  1.00  0.00     0.034 A 
BRANCH  52  66
ATOM     66  C   UNL A   1      40.797  27.856  29.196  1.00  0.00     0.023 A 
ATOM     67  C   UNL A   1      39.905  26.766  29.131  1.00  0.00     0.012 A 
ATOM     68  C   UNL A   1      41.676  28.092  28.121  1.00  0.00     0.148 A 
ATOM     69  C   UNL A   1      39.915  25.904  28.036  1.00  0.00     0.002 A 
ATOM     70  C   UNL A   1      41.650  27.252  27.013  1.00  0.00     0.091 A 
ATOM     71  F   UNL A   1      42.535  29.117  28.210  1.00  0.00    -0.205 F 
ATOM     72  C   UNL A   1      40.780  26.151  26.973  1.00  0.00     0.022 A 
BRANCH  70  73
ATOM     73  S   UNL A   1      42.677  27.542  25.567  1.00  0.00     0.127 S 
ATOM     74  O   UNL A   1      42.136  28.806  25.069  1.00  0.00    -0.237 OA
ATOM     75  O   UNL A   1      44.017  27.639  26.149  1.00  0.00    -0.237 OA
ATOM     76  O   UNL A   1      42.479  26.386  24.703  1.00  0.00    -0.744 OA
ENDBRANCH  70  73
ENDBRANCH  52  66
BRANCH  53  77
ATOM     77  C   UNL A   1      39.874  33.806  37.125  1.00  0.00     0.023 A 
ATOM     78  C   UNL A   1      38.882  33.441  38.053  1.00  0.00     0.012 A 
ATOM     79  C   UNL A   1      40.701  34.913  37.398  1.00  0.00     0.148 A 
ATOM     80  C   UNL A   1      38.705  34.175  39.226  1.00  0.00     0.002 A 
ATOM     81  C   UNL A   1      40.559  35.603  38.594  1.00  0.00     0.091 A 
ATOM     82  F   UNL A   1      41.628  35.251  36.491  1.00  0.00    -0.205 F 
ATOM     83  C   UNL A   1      39.552  35.247  39.504  1.00  0.00     0.022 A 
BRANCH  81  84
ATOM     84  S   UNL A   1      41.698  36.898  39.099  1.00  0.00     0.127 S 
ATOM     85  O   UNL A   1      40.784  37.968  39.486  1.00  0.00    -0.237 OA
ATOM     86  O   UNL A   1      42.406  36.258  40.209  1.00  0.00    -0.237 OA
ATOM     87  O   UNL A   1      42.530  37.167  37.934  1.00  0.00    -0.744 OA
ENDBRANCH  81  84
ENDBRANCH  53  77
BRANCH  65  88
ATOM     88  C   UNL A   1      44.319  28.670  35.441  1.00  0.00     0.023 A 
ATOM     89  C   UNL A   1      45.635  29.137  35.251  1.00  0.00     0.012 A 
ATOM     90  C   UNL A   1      44.082  27.642  36.376  1.00  0.00     0.148 A 
ATOM     91  C   UNL A   1      46.698  28.574  35.955  1.00  0.00     0.002 A 
ATOM     92  C   UNL A   1      45.140  27.116  37.109  1.00  0.00     0.091 A 
ATOM     93  F   UNL A   1      42.826  27.195  36.531  1.00  0.00    -0.205 F 
ATOM     94  C   UNL A   1      46.450  27.573  36.892  1.00  0.00     0.022 A 
BRANCH  92  95
ATOM     95  S   UNL A   1      44.902  25.889  38.401  1.00  0.00     0.127 S 
ATOM     96  O   UNL A   1      46.231  25.832  39.006  1.00  0.00    -0.237 OA
ATOM     97  O   UNL A   1      43.877  26.514  39.238  1.00  0.00    -0.237 OA
ATOM     98  O   UNL A   1      44.469  24.675  37.724  1.00  0.00    -0.744 OA
ENDBRANCH  92  95
ENDBRANCH  65  88
ENDBRANCH  39  40
ENDBRANCH  32  34
ENDBRANCH  31  32
ENDBRANCH  30  31
ENDBRANCH  29  30
ENDBRANCH   1  29
TORSDOF 23
ENDMDL
