MODEL 1
REMARK VINA RESULT:     -10.8      0.000      0.000
REMARK SMILES CCn1ccc([C@@H](C)NC(=O)c2cnn([C@H](C)C(=O)OCCOCCOC(=O)c3ccc(-c4c5nc(c(-c6cccc(S(=O)(=O)[O-])c6F)c6ccc([nH]6)c(-c6cccc(S(=O)(=O)[O-])c6F)c6nc(c(-c7cccc(S(=O)(=O)[O-])c7F)c7ccc4[nH]7)C=C6)C=C5)cc3)c2)n1
REMARK SMILES IDX 22 1 21 2 20 3 18 4 19 5 16 6 17 7 15 8 12 9 13 10 92 11
REMARK SMILES IDX 14 12 10 13 9 14 11 16 7 17 8 18 6 19 3 20 4 21 93 22 5 23
REMARK SMILES IDX 2 24 1 25 23 26 24 27 25 28 26 29 27 30 28 31 29 32 30 33
REMARK SMILES IDX 91 34 31 35 90 36 32 37 33 38 34 39 84 40 35 41 89 42 83 43
REMARK SMILES IDX 85 44 36 45 88 46 82 47 81 48 37 50 69 51 49 52 68 53 50 54
REMARK SMILES IDX 53 55 67 56 86 57 51 58 52 59 66 61 87 62 54 63 38 64 39 65
REMARK SMILES IDX 47 66 40 67 42 68 48 69 41 70 43 71 44 72 45 73 46 74 70 75
REMARK SMILES IDX 71 76 79 77 72 78 74 79 80 80 73 81 75 82 76 83 77 84 78 85
REMARK SMILES IDX 55 86 56 87 64 88 57 89 59 90 65 91 58 92 60 93 61 94 62 95
REMARK SMILES IDX 63 96
REMARK H PARENT 9 15 85 49 53 60
REMARK Flexibility Score: inf
ROOT
ATOM      1  C   UNL A   1      36.578  21.434  25.053  1.00  0.00     0.202 C 
ENDROOT
BRANCH   1   2
ATOM      2  C   UNL A   1      35.517  20.335  25.016  1.00  0.00     0.261 C 
BRANCH   2   3
ATOM      3  O   UNL A   1      34.306  20.748  25.662  1.00  0.00    -0.462 OA
BRANCH   3   4
ATOM      4  C   UNL A   1      33.154  20.454  25.004  1.00  0.00     0.330 C 
ATOM      5  O   UNL A   1      32.377  19.561  25.331  1.00  0.00    -0.250 OA
BRANCH   4   6
ATOM      6  C   UNL A   1      32.872  21.389  23.844  1.00  0.00     0.213 C 
ATOM      7  C   UNL A   1      32.141  20.822  22.630  1.00  0.00     0.046 C 
BRANCH   6   8
ATOM      8  N   UNL A   1      32.240  22.587  24.360  1.00  0.00    -0.258 N 
ATOM      9  C   UNL A   1      31.929  24.658  24.991  1.00  0.00     0.077 A 
ATOM     10  C   UNL A   1      31.033  23.765  25.619  1.00  0.00     0.149 A 
ATOM     11  C   UNL A   1      32.633  23.868  24.108  1.00  0.00     0.123 A 
ATOM     12  N   UNL A   1      31.217  22.501  25.232  1.00  0.00    -0.180 NA
BRANCH   9  13
ATOM     13  C   UNL A   1      32.132  26.069  25.193  1.00  0.00     0.254 C 
ATOM     14  N   UNL A   1      31.644  26.931  24.250  1.00  0.00    -0.344 N 
ATOM     15  H   UNL A   1      31.911  27.873  24.351  1.00  0.00     0.164 HD
ATOM     16  O   UNL A   1      32.679  26.522  26.196  1.00  0.00    -0.269 OA
BRANCH  14  17
ATOM     17  C   UNL A   1      30.779  26.634  23.111  1.00  0.00     0.130 C 
ATOM     18  C   UNL A   1      31.619  26.494  21.847  1.00  0.00     0.038 C 
BRANCH  17  19
ATOM     19  C   UNL A   1      29.734  27.714  22.991  1.00  0.00     0.084 A 
ATOM     20  N   UNL A   1      28.925  29.626  22.539  1.00  0.00    -0.273 N 
ATOM     21  C   UNL A   1      27.873  28.916  23.046  1.00  0.00     0.109 A 
ATOM     22  N   UNL A   1      30.065  28.918  22.503  1.00  0.00    -0.176 NA
ATOM     23  C   UNL A   1      28.364  27.668  23.350  1.00  0.00     0.047 A 
BRANCH  20  24
ATOM     24  C   UNL A   1      28.875  31.004  22.086  1.00  0.00     0.141 C 
ATOM     25  C   UNL A   1      28.674  32.054  23.170  1.00  0.00     0.029 C 
ENDBRANCH  20  24
ENDBRANCH  17  19
ENDBRANCH  14  17
ENDBRANCH   9  13
ENDBRANCH   6   8
ENDBRANCH   4   6
ENDBRANCH   3   4
ENDBRANCH   2   3
ENDBRANCH   1   2
BRANCH   1  26
ATOM     26  O   UNL A   1      37.950  21.042  25.098  1.00  0.00    -0.374 OA
BRANCH  26  27
ATOM     27  C   UNL A   1      38.314  19.670  24.967  1.00  0.00     0.202 C 
BRANCH  27  28
ATOM     28  C   UNL A   1      39.463  19.138  25.811  1.00  0.00     0.261 C 
BRANCH  28  29
ATOM     29  O   UNL A   1      40.716  19.377  25.195  1.00  0.00    -0.460 OA
BRANCH  29  30
ATOM     30  C   UNL A   1      41.662  19.840  26.044  1.00  0.00     0.338 C 
ATOM     31  O   UNL A   1      42.647  19.247  26.440  1.00  0.00    -0.246 OA
BRANCH  30  32
ATOM     32  C   UNL A   1      41.230  21.144  26.553  1.00  0.00     0.060 A 
ATOM     33  C   UNL A   1      41.669  22.242  25.815  1.00  0.00     0.016 A 
ATOM     34  C   UNL A   1      40.776  21.255  27.876  1.00  0.00     0.016 A 
ATOM     35  C   UNL A   1      41.935  23.400  26.499  1.00  0.00     0.010 A 
ATOM     36  C   UNL A   1      41.059  22.407  28.561  1.00  0.00     0.010 A 
ATOM     37  C   UNL A   1      41.730  23.417  27.882  1.00  0.00    -0.014 A 
BRANCH  37  38
ATOM     38  C   UNL A   1      42.134  24.601  28.596  1.00  0.00     0.031 A 
ATOM     39  C   UNL A   1      41.226  25.726  28.300  1.00  0.00     0.074 A 
ATOM     40  C   UNL A   1      43.169  24.604  29.456  1.00  0.00     0.049 A 
ATOM     41  N   UNL A   1      41.459  26.736  27.529  1.00  0.00    -0.248 NA
ATOM     42  C   UNL A   1      39.812  25.569  28.679  1.00  0.00     0.031 C 
ATOM     43  C   UNL A   1      43.902  23.453  29.994  1.00  0.00     0.029 A 
ATOM     44  N   UNL A   1      43.697  25.648  30.144  1.00  0.00    -0.354 N 
ATOM     45  C   UNL A   1      40.287  27.483  27.574  1.00  0.00     0.074 A 
ATOM     46  C   UNL A   1      39.258  26.592  28.030  1.00  0.00     0.031 C 
ATOM     47  C   UNL A   1      44.577  23.841  31.101  1.00  0.00     0.029 A 
ATOM     48  C   UNL A   1      44.426  25.276  31.269  1.00  0.00     0.049 A 
ATOM     49  H   UNL A   1      43.575  26.586  29.871  1.00  0.00     0.167 HD
ATOM     50  C   UNL A   1      40.342  28.841  27.591  1.00  0.00     0.034 A 
ATOM     51  C   UNL A   1      44.772  26.089  32.299  1.00  0.00     0.034 A 
ATOM     52  C   UNL A   1      41.625  29.310  27.128  1.00  0.00     0.049 A 
ATOM     53  C   UNL A   1      44.644  27.487  31.816  1.00  0.00     0.074 A 
ATOM     54  C   UNL A   1      42.360  29.175  25.967  1.00  0.00     0.029 A 
ATOM     55  N   UNL A   1      42.512  29.707  28.101  1.00  0.00    -0.354 N 
ATOM     56  N   UNL A   1      45.405  28.001  30.892  1.00  0.00    -0.248 NA
ATOM     57  C   UNL A   1      43.375  28.163  32.032  1.00  0.00     0.031 C 
ATOM     58  C   UNL A   1      43.716  29.076  26.396  1.00  0.00     0.029 A 
ATOM     59  C   UNL A   1      43.750  29.224  27.783  1.00  0.00     0.049 A 
ATOM     60  H   UNL A   1      42.291  30.249  28.892  1.00  0.00     0.167 HD
ATOM     61  C   UNL A   1      44.534  28.747  30.108  1.00  0.00     0.074 A 
ATOM     62  C   UNL A   1      43.328  28.900  30.920  1.00  0.00     0.031 C 
ATOM     63  C   UNL A   1      44.759  28.902  28.770  1.00  0.00     0.034 A 
BRANCH  50  64
ATOM     64  C   UNL A   1      39.440  29.713  28.443  1.00  0.00     0.023 A 
ATOM     65  C   UNL A   1      39.798  29.851  29.801  1.00  0.00     0.012 A 
ATOM     66  C   UNL A   1      38.144  30.155  28.081  1.00  0.00     0.148 A 
ATOM     67  C   UNL A   1      38.893  30.326  30.755  1.00  0.00     0.002 A 
ATOM     68  C   UNL A   1      37.274  30.699  29.018  1.00  0.00     0.091 A 
ATOM     69  F   UNL A   1      37.667  29.940  26.855  1.00  0.00    -0.205 F 
ATOM     70  C   UNL A   1      37.631  30.754  30.364  1.00  0.00     0.022 A 
BRANCH  68  71
ATOM     71  S   UNL A   1      35.644  31.301  28.552  1.00  0.00     0.127 S 
ATOM     72  O   UNL A   1      35.125  31.756  29.838  1.00  0.00    -0.237 OA
ATOM     73  O   UNL A   1      35.983  32.364  27.605  1.00  0.00    -0.237 OA
ATOM     74  O   UNL A   1      34.956  30.166  27.951  1.00  0.00    -0.744 OA
ENDBRANCH  68  71
ENDBRANCH  50  64
BRANCH  51  75
ATOM     75  C   UNL A   1      44.881  25.789  33.748  1.00  0.00     0.023 A 
ATOM     76  C   UNL A   1      46.156  25.647  34.336  1.00  0.00     0.012 A 
ATOM     77  C   UNL A   1      43.767  25.937  34.604  1.00  0.00     0.148 A 
ATOM     78  C   UNL A   1      46.319  25.688  35.728  1.00  0.00     0.002 A 
ATOM     79  C   UNL A   1      43.935  25.971  35.986  1.00  0.00     0.091 A 
ATOM     80  F   UNL A   1      42.561  26.142  34.064  1.00  0.00    -0.205 F 
ATOM     81  C   UNL A   1      45.210  25.859  36.552  1.00  0.00     0.022 A 
BRANCH  79  82
ATOM     82  S   UNL A   1      42.554  26.221  37.112  1.00  0.00     0.127 S 
ATOM     83  O   UNL A   1      43.228  26.256  38.410  1.00  0.00    -0.237 OA
ATOM     84  O   UNL A   1      42.026  27.506  36.661  1.00  0.00    -0.237 OA
ATOM     85  O   UNL A   1      41.673  25.076  36.924  1.00  0.00    -0.744 OA
ENDBRANCH  79  82
ENDBRANCH  51  75
BRANCH  63  86
ATOM     86  C   UNL A   1      46.110  28.503  28.233  1.00  0.00     0.023 A 
ATOM     87  C   UNL A   1      47.253  29.325  28.335  1.00  0.00     0.012 A 
ATOM     88  C   UNL A   1      46.257  27.190  27.760  1.00  0.00     0.148 A 
ATOM     89  C   UNL A   1      48.512  28.847  27.955  1.00  0.00     0.002 A 
ATOM     90  C   UNL A   1      47.513  26.703  27.431  1.00  0.00     0.091 A 
ATOM     91  F   UNL A   1      45.158  26.425  27.669  1.00  0.00    -0.205 F 
ATOM     92  C   UNL A   1      48.643  27.531  27.518  1.00  0.00     0.022 A 
BRANCH  90  93
ATOM     93  S   UNL A   1      47.758  24.984  26.985  1.00  0.00     0.127 S 
ATOM     94  O   UNL A   1      49.180  24.795  27.265  1.00  0.00    -0.237 OA
ATOM     95  O   UNL A   1      46.854  24.290  27.905  1.00  0.00    -0.237 OA
ATOM     96  O   UNL A   1      47.375  24.874  25.583  1.00  0.00    -0.744 OA
ENDBRANCH  90  93
ENDBRANCH  63  86
ENDBRANCH  37  38
ENDBRANCH  30  32
ENDBRANCH  29  30
ENDBRANCH  28  29
ENDBRANCH  27  28
ENDBRANCH  26  27
ENDBRANCH   1  26
TORSDOF 22
ENDMDL
MODEL 2
REMARK VINA RESULT:     -10.8      2.474      3.274
REMARK SMILES CCn1ccc([C@@H](C)NC(=O)c2cnn([C@H](C)C(=O)OCCOCCOC(=O)c3ccc(-c4c5nc(c(-c6cccc(S(=O)(=O)[O-])c6F)c6ccc([nH]6)c(-c6cccc(S(=O)(=O)[O-])c6F)c6nc(c(-c7cccc(S(=O)(=O)[O-])c7F)c7ccc4[nH]7)C=C6)C=C5)cc3)c2)n1
REMARK SMILES IDX 22 1 21 2 20 3 18 4 19 5 16 6 17 7 15 8 12 9 13 10 92 11
REMARK SMILES IDX 14 12 10 13 9 14 11 16 7 17 8 18 6 19 3 20 4 21 93 22 5 23
REMARK SMILES IDX 2 24 1 25 23 26 24 27 25 28 26 29 27 30 28 31 29 32 30 33
REMARK SMILES IDX 91 34 31 35 90 36 32 37 33 38 34 39 84 40 35 41 89 42 83 43
REMARK SMILES IDX 85 44 36 45 88 46 82 47 81 48 37 50 69 51 49 52 68 53 50 54
REMARK SMILES IDX 53 55 67 56 86 57 51 58 52 59 66 61 87 62 54 63 38 64 39 65
REMARK SMILES IDX 47 66 40 67 42 68 48 69 41 70 43 71 44 72 45 73 46 74 70 75
REMARK SMILES IDX 71 76 79 77 72 78 74 79 80 80 73 81 75 82 76 83 77 84 78 85
REMARK SMILES IDX 55 86 56 87 64 88 57 89 59 90 65 91 58 92 60 93 61 94 62 95
REMARK SMILES IDX 63 96
REMARK H PARENT 9 15 85 49 53 60
REMARK Flexibility Score: inf
ROOT
ATOM      1  C   UNL A   1      37.053  22.706  24.774  1.00  0.00     0.202 C 
ENDROOT
BRANCH   1   2
ATOM      2  C   UNL A   1      35.849  23.112  25.623  1.00  0.00     0.261 C 
BRANCH   2   3
ATOM      3  O   UNL A   1      34.689  22.334  25.300  1.00  0.00    -0.462 OA
BRANCH   3   4
ATOM      4  C   UNL A   1      33.951  22.780  24.250  1.00  0.00     0.330 C 
ATOM      5  O   UNL A   1      34.127  22.436  23.084  1.00  0.00    -0.250 OA
BRANCH   4   6
ATOM      6  C   UNL A   1      32.824  23.706  24.661  1.00  0.00     0.213 C 
ATOM      7  C   UNL A   1      32.830  24.251  26.088  1.00  0.00     0.046 C 
BRANCH   6   8
ATOM      8  N   UNL A   1      32.705  24.757  23.670  1.00  0.00    -0.258 N 
ATOM      9  C   UNL A   1      32.886  26.695  22.673  1.00  0.00     0.077 A 
ATOM     10  C   UNL A   1      31.797  25.940  22.185  1.00  0.00     0.149 A 
ATOM     11  C   UNL A   1      33.509  25.854  23.569  1.00  0.00     0.123 A 
ATOM     12  N   UNL A   1      31.688  24.754  22.787  1.00  0.00    -0.180 NA
BRANCH   9  13
ATOM     13  C   UNL A   1      33.295  28.042  22.371  1.00  0.00     0.254 C 
ATOM     14  N   UNL A   1      32.634  29.069  22.987  1.00  0.00    -0.344 N 
ATOM     15  H   UNL A   1      32.849  29.974  22.664  1.00  0.00     0.164 HD
ATOM     16  O   UNL A   1      34.238  28.296  21.626  1.00  0.00    -0.269 OA
BRANCH  14  17
ATOM     17  C   UNL A   1      31.649  28.997  24.063  1.00  0.00     0.130 C 
ATOM     18  C   UNL A   1      30.394  29.767  23.668  1.00  0.00     0.038 C 
BRANCH  17  19
ATOM     19  C   UNL A   1      32.268  29.520  25.334  1.00  0.00     0.084 A 
ATOM     20  N   UNL A   1      33.654  29.643  26.940  1.00  0.00    -0.273 N 
ATOM     21  C   UNL A   1      32.743  30.630  27.192  1.00  0.00     0.109 A 
ATOM     22  N   UNL A   1      33.382  28.953  25.821  1.00  0.00    -0.176 NA
ATOM     23  C   UNL A   1      31.829  30.578  26.168  1.00  0.00     0.047 A 
BRANCH  20  24
ATOM     24  C   UNL A   1      34.804  29.322  27.766  1.00  0.00     0.141 C 
ATOM     25  C   UNL A   1      36.110  30.006  27.382  1.00  0.00     0.029 C 
ENDBRANCH  20  24
ENDBRANCH  17  19
ENDBRANCH  14  17
ENDBRANCH   9  13
ENDBRANCH   6   8
ENDBRANCH   4   6
ENDBRANCH   3   4
ENDBRANCH   2   3
ENDBRANCH   1   2
BRANCH   1  26
ATOM     26  O   UNL A   1      37.065  21.395  24.208  1.00  0.00    -0.374 OA
BRANCH  26  27
ATOM     27  C   UNL A   1      37.307  20.256  25.029  1.00  0.00     0.202 C 
BRANCH  27  28
ATOM     28  C   UNL A   1      38.615  19.499  24.857  1.00  0.00     0.261 C 
BRANCH  28  29
ATOM     29  O   UNL A   1      39.430  19.599  26.012  1.00  0.00    -0.460 OA
BRANCH  29  30
ATOM     30  C   UNL A   1      40.699  19.988  25.751  1.00  0.00     0.338 C 
ATOM     31  O   UNL A   1      41.647  19.274  25.486  1.00  0.00    -0.246 OA
BRANCH  30  32
ATOM     32  C   UNL A   1      40.802  21.429  25.995  1.00  0.00     0.060 A 
ATOM     33  C   UNL A   1      42.072  21.973  25.799  1.00  0.00     0.016 A 
ATOM     34  C   UNL A   1      39.810  22.078  26.744  1.00  0.00     0.016 A 
ATOM     35  C   UNL A   1      42.442  23.020  26.602  1.00  0.00     0.010 A 
ATOM     36  C   UNL A   1      40.187  23.113  27.557  1.00  0.00     0.010 A 
ATOM     37  C   UNL A   1      41.525  23.492  27.545  1.00  0.00    -0.014 A 
BRANCH  37  38
ATOM     38  C   UNL A   1      41.979  24.508  28.460  1.00  0.00     0.031 A 
ATOM     39  C   UNL A   1      41.111  25.700  28.391  1.00  0.00     0.074 A 
ATOM     40  C   UNL A   1      43.021  24.316  29.288  1.00  0.00     0.049 A 
ATOM     41  N   UNL A   1      41.374  26.827  27.817  1.00  0.00    -0.248 NA
ATOM     42  C   UNL A   1      39.696  25.525  28.757  1.00  0.00     0.031 C 
ATOM     43  C   UNL A   1      43.716  23.060  29.592  1.00  0.00     0.029 A 
ATOM     44  N   UNL A   1      43.594  25.195  30.150  1.00  0.00    -0.354 N 
ATOM     45  C   UNL A   1      40.232  27.593  28.018  1.00  0.00     0.074 A 
ATOM     46  C   UNL A   1      39.175  26.669  28.318  1.00  0.00     0.031 C 
ATOM     47  C   UNL A   1      44.415  23.212  30.741  1.00  0.00     0.029 A 
ATOM     48  C   UNL A   1      44.319  24.595  31.174  1.00  0.00     0.049 A 
ATOM     49  H   UNL A   1      43.504  26.171  30.057  1.00  0.00     0.167 HD
ATOM     50  C   UNL A   1      40.337  28.922  28.285  1.00  0.00     0.034 A 
ATOM     51  C   UNL A   1      44.705  25.190  32.331  1.00  0.00     0.034 A 
ATOM     52  C   UNL A   1      41.633  29.423  27.897  1.00  0.00     0.049 A 
ATOM     53  C   UNL A   1      44.624  26.657  32.118  1.00  0.00     0.074 A 
ATOM     54  C   UNL A   1      42.351  29.480  26.720  1.00  0.00     0.029 A 
ATOM     55  N   UNL A   1      42.542  29.601  28.912  1.00  0.00    -0.354 N 
ATOM     56  N   UNL A   1      45.396  27.307  31.293  1.00  0.00    -0.248 NA
ATOM     57  C   UNL A   1      43.384  27.325  32.476  1.00  0.00     0.031 C 
ATOM     58  C   UNL A   1      43.707  29.256  27.101  1.00  0.00     0.029 A 
ATOM     59  C   UNL A   1      43.759  29.143  28.491  1.00  0.00     0.049 A 
ATOM     60  H   UNL A   1      42.349  29.994  29.793  1.00  0.00     0.167 HD
ATOM     61  C   UNL A   1      44.546  28.215  30.675  1.00  0.00     0.074 A 
ATOM     62  C   UNL A   1      43.354  28.257  31.520  1.00  0.00     0.031 C 
ATOM     63  C   UNL A   1      44.764  28.608  29.385  1.00  0.00     0.034 A 
BRANCH  50  64
ATOM     64  C   UNL A   1      39.477  29.651  29.298  1.00  0.00     0.023 A 
ATOM     65  C   UNL A   1      39.079  30.962  28.959  1.00  0.00     0.012 A 
ATOM     66  C   UNL A   1      39.284  29.259  30.646  1.00  0.00     0.148 A 
ATOM     67  C   UNL A   1      38.591  31.854  29.918  1.00  0.00     0.002 A 
ATOM     68  C   UNL A   1      38.726  30.123  31.580  1.00  0.00     0.091 A 
ATOM     69  F   UNL A   1      39.753  28.094  31.092  1.00  0.00    -0.205 F 
ATOM     70  C   UNL A   1      38.411  31.434  31.230  1.00  0.00     0.022 A 
BRANCH  68  71
ATOM     71  S   UNL A   1      38.440  29.612  33.281  1.00  0.00     0.127 S 
ATOM     72  O   UNL A   1      37.395  28.606  33.110  1.00  0.00    -0.237 OA
ATOM     73  O   UNL A   1      39.754  29.088  33.656  1.00  0.00    -0.237 OA
ATOM     74  O   UNL A   1      38.053  30.818  34.001  1.00  0.00    -0.744 OA
ENDBRANCH  68  71
ENDBRANCH  50  64
BRANCH  51  75
ATOM     75  C   UNL A   1      44.815  24.622  33.698  1.00  0.00     0.023 A 
ATOM     76  C   UNL A   1      43.648  24.221  34.382  1.00  0.00     0.012 A 
ATOM     77  C   UNL A   1      46.063  24.198  34.207  1.00  0.00     0.148 A 
ATOM     78  C   UNL A   1      43.721  23.396  35.513  1.00  0.00     0.002 A 
ATOM     79  C   UNL A   1      46.129  23.384  35.335  1.00  0.00     0.091 A 
ATOM     80  F   UNL A   1      47.175  24.511  33.532  1.00  0.00    -0.205 F 
ATOM     81  C   UNL A   1      44.960  22.970  35.983  1.00  0.00     0.022 A 
BRANCH  79  82
ATOM     82  S   UNL A   1      47.691  22.768  35.981  1.00  0.00     0.127 S 
ATOM     83  O   UNL A   1      48.245  22.075  34.817  1.00  0.00    -0.237 OA
ATOM     84  O   UNL A   1      48.378  24.005  36.342  1.00  0.00    -0.237 OA
ATOM     85  O   UNL A   1      47.345  21.891  37.092  1.00  0.00    -0.744 OA
ENDBRANCH  79  82
ENDBRANCH  51  75
BRANCH  63  86
ATOM     86  C   UNL A   1      46.095  28.269  28.761  1.00  0.00     0.023 A 
ATOM     87  C   UNL A   1      47.264  29.028  28.981  1.00  0.00     0.012 A 
ATOM     88  C   UNL A   1      46.194  27.052  28.069  1.00  0.00     0.148 A 
ATOM     89  C   UNL A   1      48.502  28.587  28.501  1.00  0.00     0.002 A 
ATOM     90  C   UNL A   1      47.429  26.593  27.638  1.00  0.00     0.091 A 
ATOM     91  F   UNL A   1      45.070  26.346  27.870  1.00  0.00    -0.205 F 
ATOM     92  C   UNL A   1      48.586  27.362  27.843  1.00  0.00     0.022 A 
BRANCH  90  93
ATOM     93  S   UNL A   1      47.613  24.970  26.901  1.00  0.00     0.127 S 
ATOM     94  O   UNL A   1      49.050  24.734  27.036  1.00  0.00    -0.237 OA
ATOM     95  O   UNL A   1      46.771  24.137  27.761  1.00  0.00    -0.237 OA
ATOM     96  O   UNL A   1      47.125  25.092  25.532  1.00  0.00    -0.744 OA
ENDBRANCH  90  93
ENDBRANCH  63  86
ENDBRANCH  37  38
ENDBRANCH  30  32
ENDBRANCH  29  30
ENDBRANCH  28  29
ENDBRANCH  27  28
ENDBRANCH  26  27
ENDBRANCH   1  26
TORSDOF 22
ENDMDL
MODEL 3
REMARK VINA RESULT:     -10.5      1.835      2.167
REMARK SMILES CCn1ccc([C@@H](C)NC(=O)c2cnn([C@H](C)C(=O)OCCOCCOC(=O)c3ccc(-c4c5nc(c(-c6cccc(S(=O)(=O)[O-])c6F)c6ccc([nH]6)c(-c6cccc(S(=O)(=O)[O-])c6F)c6nc(c(-c7cccc(S(=O)(=O)[O-])c7F)c7ccc4[nH]7)C=C6)C=C5)cc3)c2)n1
REMARK SMILES IDX 22 1 21 2 20 3 18 4 19 5 16 6 17 7 15 8 12 9 13 10 92 11
REMARK SMILES IDX 14 12 10 13 9 14 11 16 7 17 8 18 6 19 3 20 4 21 93 22 5 23
REMARK SMILES IDX 2 24 1 25 23 26 24 27 25 28 26 29 27 30 28 31 29 32 30 33
REMARK SMILES IDX 91 34 31 35 90 36 32 37 33 38 34 39 84 40 35 41 89 42 83 43
REMARK SMILES IDX 85 44 36 45 88 46 82 47 81 48 37 50 69 51 49 52 68 53 50 54
REMARK SMILES IDX 53 55 67 56 86 57 51 58 52 59 66 61 87 62 54 63 38 64 39 65
REMARK SMILES IDX 47 66 40 67 42 68 48 69 41 70 43 71 44 72 45 73 46 74 70 75
REMARK SMILES IDX 71 76 79 77 72 78 74 79 80 80 73 81 75 82 76 83 77 84 78 85
REMARK SMILES IDX 55 86 56 87 64 88 57 89 59 90 65 91 58 92 60 93 61 94 62 95
REMARK SMILES IDX 63 96
REMARK H PARENT 9 15 85 49 53 60
REMARK Flexibility Score: inf
ROOT
ATOM      1  C   UNL A   1      36.750  21.409  25.037  1.00  0.00     0.202 C 
ENDROOT
BRANCH   1   2
ATOM      2  C   UNL A   1      35.727  20.279  25.130  1.00  0.00     0.261 C 
BRANCH   2   3
ATOM      3  O   UNL A   1      34.500  20.724  25.721  1.00  0.00    -0.462 OA
BRANCH   3   4
ATOM      4  C   UNL A   1      33.361  20.284  25.124  1.00  0.00     0.330 C 
ATOM      5  O   UNL A   1      32.676  19.353  25.540  1.00  0.00    -0.250 OA
BRANCH   4   6
ATOM      6  C   UNL A   1      32.966  21.104  23.912  1.00  0.00     0.213 C 
ATOM      7  C   UNL A   1      32.151  20.417  22.819  1.00  0.00     0.046 C 
BRANCH   6   8
ATOM      8  N   UNL A   1      32.351  22.335  24.368  1.00  0.00    -0.258 N 
ATOM      9  C   UNL A   1      32.086  24.427  24.949  1.00  0.00     0.077 A 
ATOM     10  C   UNL A   1      31.114  23.582  25.527  1.00  0.00     0.149 A 
ATOM     11  C   UNL A   1      32.813  23.595  24.126  1.00  0.00     0.123 A 
ATOM     12  N   UNL A   1      31.270  22.305  25.170  1.00  0.00    -0.180 NA
BRANCH   9  13
ATOM     13  C   UNL A   1      32.334  25.832  25.145  1.00  0.00     0.254 C 
ATOM     14  N   UNL A   1      31.839  26.709  24.219  1.00  0.00    -0.344 N 
ATOM     15  H   UNL A   1      32.134  27.643  24.312  1.00  0.00     0.164 HD
ATOM     16  O   UNL A   1      32.925  26.268  26.130  1.00  0.00    -0.269 OA
BRANCH  14  17
ATOM     17  C   UNL A   1      30.930  26.437  23.109  1.00  0.00     0.130 C 
ATOM     18  C   UNL A   1      31.717  26.338  21.808  1.00  0.00     0.038 C 
BRANCH  17  19
ATOM     19  C   UNL A   1      29.874  27.513  23.062  1.00  0.00     0.084 A 
ATOM     20  N   UNL A   1      29.053  29.449  22.765  1.00  0.00    -0.273 N 
ATOM     21  C   UNL A   1      27.998  28.686  23.181  1.00  0.00     0.109 A 
ATOM     22  N   UNL A   1      30.202  28.759  22.692  1.00  0.00    -0.176 NA
ATOM     23  C   UNL A   1      28.497  27.421  23.383  1.00  0.00     0.047 A 
BRANCH  20  24
ATOM     24  C   UNL A   1      28.996  30.862  22.437  1.00  0.00     0.141 C 
ATOM     25  C   UNL A   1      28.112  31.719  23.333  1.00  0.00     0.029 C 
ENDBRANCH  20  24
ENDBRANCH  17  19
ENDBRANCH  14  17
ENDBRANCH   9  13
ENDBRANCH   6   8
ENDBRANCH   4   6
ENDBRANCH   3   4
ENDBRANCH   2   3
ENDBRANCH   1   2
BRANCH   1  26
ATOM     26  O   UNL A   1      38.133  21.059  24.952  1.00  0.00    -0.374 OA
BRANCH  26  27
ATOM     27  C   UNL A   1      38.534  19.691  24.972  1.00  0.00     0.202 C 
BRANCH  27  28
ATOM     28  C   UNL A   1      39.606  19.261  25.961  1.00  0.00     0.261 C 
BRANCH  28  29
ATOM     29  O   UNL A   1      40.842  19.009  25.315  1.00  0.00    -0.460 OA
BRANCH  29  30
ATOM     30  C   UNL A   1      41.887  19.674  25.858  1.00  0.00     0.338 C 
ATOM     31  O   UNL A   1      43.005  19.243  26.062  1.00  0.00    -0.246 OA
BRANCH  30  32
ATOM     32  C   UNL A   1      41.416  20.982  26.321  1.00  0.00     0.060 A 
ATOM     33  C   UNL A   1      41.991  22.078  25.680  1.00  0.00     0.016 A 
ATOM     34  C   UNL A   1      40.767  21.086  27.560  1.00  0.00     0.016 A 
ATOM     35  C   UNL A   1      42.179  23.217  26.419  1.00  0.00     0.010 A 
ATOM     36  C   UNL A   1      40.970  22.218  28.303  1.00  0.00     0.010 A 
ATOM     37  C   UNL A   1      41.764  23.219  27.754  1.00  0.00    -0.014 A 
BRANCH  37  38
ATOM     38  C   UNL A   1      42.083  24.380  28.545  1.00  0.00     0.031 A 
ATOM     39  C   UNL A   1      41.073  25.438  28.354  1.00  0.00     0.074 A 
ATOM     40  C   UNL A   1      43.139  24.414  29.379  1.00  0.00     0.049 A 
ATOM     41  N   UNL A   1      41.193  26.517  27.654  1.00  0.00    -0.248 NA
ATOM     42  C   UNL A   1      39.690  25.128  28.752  1.00  0.00     0.031 C 
ATOM     43  C   UNL A   1      43.986  23.298  29.813  1.00  0.00     0.029 A 
ATOM     44  N   UNL A   1      43.594  25.449  30.131  1.00  0.00    -0.354 N 
ATOM     45  C   UNL A   1      39.963  27.151  27.781  1.00  0.00     0.074 A 
ATOM     46  C   UNL A   1      39.030  26.142  28.194  1.00  0.00     0.031 C 
ATOM     47  C   UNL A   1      44.656  23.664  30.930  1.00  0.00     0.029 A 
ATOM     48  C   UNL A   1      44.385  25.063  31.207  1.00  0.00     0.049 A 
ATOM     49  H   UNL A   1      43.382  26.389  29.930  1.00  0.00     0.167 HD
ATOM     50  C   UNL A   1      39.899  28.505  27.898  1.00  0.00     0.034 A 
ATOM     51  C   UNL A   1      44.689  25.828  32.286  1.00  0.00     0.034 A 
ATOM     52  C   UNL A   1      41.122  29.118  27.442  1.00  0.00     0.049 A 
ATOM     53  C   UNL A   1      44.425  27.240  31.912  1.00  0.00     0.074 A 
ATOM     54  C   UNL A   1      41.831  29.133  26.258  1.00  0.00     0.029 A 
ATOM     55  N   UNL A   1      41.999  29.522  28.421  1.00  0.00    -0.354 N 
ATOM     56  N   UNL A   1      45.111  27.885  31.012  1.00  0.00    -0.248 NA
ATOM     57  C   UNL A   1      43.109  27.783  32.207  1.00  0.00     0.031 C 
ATOM     58  C   UNL A   1      43.203  29.125  26.647  1.00  0.00     0.029 A 
ATOM     59  C   UNL A   1      43.265  29.176  28.041  1.00  0.00     0.049 A 
ATOM     60  H   UNL A   1      41.754  29.984  29.255  1.00  0.00     0.167 HD
ATOM     61  C   UNL A   1      44.155  28.605  30.305  1.00  0.00     0.074 A 
ATOM     62  C   UNL A   1      42.965  28.590  31.153  1.00  0.00     0.031 C 
ATOM     63  C   UNL A   1      44.326  28.875  28.977  1.00  0.00     0.034 A 
BRANCH  50  64
ATOM     64  C   UNL A   1      38.950  29.229  28.833  1.00  0.00     0.023 A 
ATOM     65  C   UNL A   1      38.292  30.363  28.309  1.00  0.00     0.012 A 
ATOM     66  C   UNL A   1      38.886  29.052  30.237  1.00  0.00     0.148 A 
ATOM     67  C   UNL A   1      37.675  31.303  29.138  1.00  0.00     0.002 A 
ATOM     68  C   UNL A   1      38.205  29.948  31.051  1.00  0.00     0.091 A 
ATOM     69  F   UNL A   1      39.589  28.092  30.837  1.00  0.00    -0.205 F 
ATOM     70  C   UNL A   1      37.628  31.096  30.511  1.00  0.00     0.022 A 
BRANCH  68  71
ATOM     71  S   UNL A   1      38.085  29.701  32.829  1.00  0.00     0.127 S 
ATOM     72  O   UNL A   1      37.218  30.809  33.218  1.00  0.00    -0.237 OA
ATOM     73  O   UNL A   1      37.472  28.374  32.901  1.00  0.00    -0.237 OA
ATOM     74  O   UNL A   1      39.452  29.753  33.333  1.00  0.00    -0.744 OA
ENDBRANCH  68  71
ENDBRANCH  50  64
BRANCH  51  75
ATOM     75  C   UNL A   1      44.866  25.435  33.706  1.00  0.00     0.023 A 
ATOM     76  C   UNL A   1      43.740  25.359  34.554  1.00  0.00     0.012 A 
ATOM     77  C   UNL A   1      46.072  24.850  34.151  1.00  0.00     0.148 A 
ATOM     78  C   UNL A   1      43.805  24.693  35.785  1.00  0.00     0.002 A 
ATOM     79  C   UNL A   1      46.133  24.195  35.378  1.00  0.00     0.091 A 
ATOM     80  F   UNL A   1      47.130  24.852  33.332  1.00  0.00    -0.205 F 
ATOM     81  C   UNL A   1      44.999  24.102  36.193  1.00  0.00     0.022 A 
BRANCH  79  82
ATOM     82  S   UNL A   1      47.630  23.381  35.956  1.00  0.00     0.127 S 
ATOM     83  O   UNL A   1      48.566  24.502  36.045  1.00  0.00    -0.237 OA
ATOM     84  O   UNL A   1      47.201  22.838  37.242  1.00  0.00    -0.237 OA
ATOM     85  O   UNL A   1      47.969  22.397  34.936  1.00  0.00    -0.744 OA
ENDBRANCH  79  82
ENDBRANCH  51  75
BRANCH  63  86
ATOM     86  C   UNL A   1      45.691  28.638  28.381  1.00  0.00     0.023 A 
ATOM     87  C   UNL A   1      46.755  29.557  28.504  1.00  0.00     0.012 A 
ATOM     88  C   UNL A   1      45.944  27.375  27.825  1.00  0.00     0.148 A 
ATOM     89  C   UNL A   1      48.040  29.223  28.063  1.00  0.00     0.002 A 
ATOM     90  C   UNL A   1      47.229  27.029  27.433  1.00  0.00     0.091 A 
ATOM     91  F   UNL A   1      44.918  26.516  27.715  1.00  0.00    -0.205 F 
ATOM     92  C   UNL A   1      48.279  27.954  27.541  1.00  0.00     0.022 A 
BRANCH  90  93
ATOM     93  S   UNL A   1      47.617  25.370  26.876  1.00  0.00     0.127 S 
ATOM     94  O   UNL A   1      47.141  24.554  27.991  1.00  0.00    -0.237 OA
ATOM     95  O   UNL A   1      46.824  25.257  25.650  1.00  0.00    -0.237 OA
ATOM     96  O   UNL A   1      49.058  25.348  26.653  1.00  0.00    -0.744 OA
ENDBRANCH  90  93
ENDBRANCH  63  86
ENDBRANCH  37  38
ENDBRANCH  30  32
ENDBRANCH  29  30
ENDBRANCH  28  29
ENDBRANCH  27  28
ENDBRANCH  26  27
ENDBRANCH   1  26
TORSDOF 22
ENDMDL
