MODEL 1
REMARK VINA RESULT:     -11.4      0.000      0.000
REMARK SMILES Cc1ccc(NC(=O)C[C@H]2SC[C@H](C(=O)OCCOCCOC(=O)c3ccc(-c4c5nc(c(-c6cccc(S(=O)(=O)[O-])c6F)c6ccc([nH]6)c(-c6cccc(S(=O)(=O)[O-])c6F)c6nc(c(-c7cccc(S(=O)(=O)[O-])c7F)c7ccc4[nH]7)C=C6)C=C5)cc3)NC2=O)cc1
REMARK SMILES IDX 19 1 18 2 17 3 16 4 14 5 15 6 13 7 10 8 11 9 89 10 12 11
REMARK SMILES IDX 88 12 90 13 9 15 7 16 6 17 8 19 5 20 1 21 2 22 3 23 92 24
REMARK SMILES IDX 4 25 91 26 20 27 21 28 22 29 23 30 24 31 25 32 26 33 87 34
REMARK SMILES IDX 27 35 86 36 28 37 29 38 30 39 80 40 31 41 85 42 79 43 81 44
REMARK SMILES IDX 32 45 84 46 78 47 77 48 33 50 65 51 45 52 64 53 46 54 49 55
REMARK SMILES IDX 63 56 82 57 47 58 48 59 62 61 83 62 50 63 34 64 35 65 43 66
REMARK SMILES IDX 36 67 38 68 44 69 37 70 39 71 40 72 41 73 42 74 66 75 67 76
REMARK SMILES IDX 75 77 68 78 70 79 76 80 69 81 71 82 72 83 73 84 74 85 51 86
REMARK SMILES IDX 52 87 60 88 53 89 55 90 61 91 54 92 56 93 57 94 58 95 59 96
REMARK H PARENT 88 14 6 18 81 49 49 60
REMARK Flexibility Score: inf
ROOT
ATOM      1  O   UNL A   1      33.446  30.013  26.807  1.00  0.00    -0.374 OA
ENDROOT
BRANCH   1   2
ATOM      2  C   UNL A   1      32.047  30.255  26.839  1.00  0.00     0.202 C 
BRANCH   2   3
ATOM      3  C   UNL A   1      31.621  30.346  25.396  1.00  0.00     0.261 C 
BRANCH   3   4
ATOM      4  O   UNL A   1      31.212  29.037  24.940  1.00  0.00    -0.462 OA
BRANCH   4   5
ATOM      5  C   UNL A   1      31.333  28.752  23.607  1.00  0.00     0.329 C 
ATOM      6  O   UNL A   1      30.621  29.169  22.708  1.00  0.00    -0.250 OA
BRANCH   5   7
ATOM      7  C   UNL A   1      32.444  27.762  23.356  1.00  0.00     0.202 C 
ATOM      8  C   UNL A   1      33.089  24.887  22.943  1.00  0.00     0.145 C 
ATOM      9  S   UNL A   1      33.979  25.678  24.342  1.00  0.00    -0.145 SA
ATOM     10  C   UNL A   1      32.898  25.899  21.804  1.00  0.00     0.234 C 
ATOM     11  C   UNL A   1      32.741  26.968  24.629  1.00  0.00     0.107 C 
ATOM     12  N   UNL A   1      32.178  27.017  22.134  1.00  0.00    -0.341 N 
ATOM     13  O   UNL A   1      33.261  25.736  20.645  1.00  0.00    -0.274 OA
ATOM     14  H   UNL A   1      31.464  27.324  21.531  1.00  0.00     0.164 HD
BRANCH   8  15
ATOM     15  C   UNL A   1      33.733  23.549  22.605  1.00  0.00     0.124 C 
BRANCH  15  16
ATOM     16  C   UNL A   1      33.279  22.362  23.420  1.00  0.00     0.226 C 
ATOM     17  N   UNL A   1      34.024  21.820  24.421  1.00  0.00    -0.326 N 
ATOM     18  H   UNL A   1      33.507  21.212  24.997  1.00  0.00     0.169 HD
ATOM     19  O   UNL A   1      32.173  21.860  23.184  1.00  0.00    -0.275 OA
BRANCH  17  20
ATOM     20  C   UNL A   1      35.365  21.935  24.815  1.00  0.00     0.041 A 
ATOM     21  C   UNL A   1      39.367  22.471  26.351  1.00  0.00     0.044 C 
ATOM     22  C   UNL A   1      37.984  22.304  25.798  1.00  0.00    -0.051 A 
ATOM     23  C   UNL A   1      37.646  21.156  25.074  1.00  0.00     0.005 A 
ATOM     24  C   UNL A   1      37.005  23.275  26.016  1.00  0.00     0.005 A 
ATOM     25  C   UNL A   1      36.341  20.967  24.595  1.00  0.00     0.026 A 
ATOM     26  C   UNL A   1      35.707  23.087  25.534  1.00  0.00     0.026 A 
ENDBRANCH  17  20
ENDBRANCH  15  16
ENDBRANCH   8  15
ENDBRANCH   5   7
ENDBRANCH   4   5
ENDBRANCH   3   4
ENDBRANCH   2   3
ENDBRANCH   1   2
BRANCH   1  27
ATOM     27  C   UNL A   1      34.271  30.843  27.593  1.00  0.00     0.202 C 
BRANCH  27  28
ATOM     28  C   UNL A   1      33.813  32.301  27.624  1.00  0.00     0.261 C 
BRANCH  28  29
ATOM     29  O   UNL A   1      34.083  32.858  28.925  1.00  0.00    -0.460 OA
BRANCH  29  30
ATOM     30  C   UNL A   1      34.928  33.928  28.931  1.00  0.00     0.338 C 
ATOM     31  O   UNL A   1      34.746  34.940  28.268  1.00  0.00    -0.246 OA
BRANCH  30  32
ATOM     32  C   UNL A   1      36.185  33.579  29.654  1.00  0.00     0.060 A 
ATOM     33  C   UNL A   1      37.435  33.876  29.082  1.00  0.00     0.016 A 
ATOM     34  C   UNL A   1      36.118  32.719  30.750  1.00  0.00     0.016 A 
ATOM     35  C   UNL A   1      38.588  33.195  29.501  1.00  0.00     0.010 A 
ATOM     36  C   UNL A   1      37.243  31.996  31.106  1.00  0.00     0.010 A 
ATOM     37  C   UNL A   1      38.474  32.190  30.453  1.00  0.00    -0.014 A 
BRANCH  37  38
ATOM     38  C   UNL A   1      39.539  31.273  30.871  1.00  0.00     0.031 A 
ATOM     39  C   UNL A   1      39.570  29.935  30.246  1.00  0.00     0.074 A 
ATOM     40  C   UNL A   1      40.642  31.699  31.538  1.00  0.00     0.049 A 
ATOM     41  N   UNL A   1      40.423  29.019  30.553  1.00  0.00    -0.248 NA
ATOM     42  C   UNL A   1      38.589  29.490  29.258  1.00  0.00     0.031 C 
ATOM     43  C   UNL A   1      42.012  31.206  31.357  1.00  0.00     0.029 A 
ATOM     44  N   UNL A   1      40.800  32.720  32.478  1.00  0.00    -0.354 N 
ATOM     45  C   UNL A   1      40.353  28.066  29.569  1.00  0.00     0.074 A 
ATOM     46  C   UNL A   1      39.085  28.294  28.929  1.00  0.00     0.031 C 
ATOM     47  C   UNL A   1      42.821  31.767  32.270  1.00  0.00     0.029 A 
ATOM     48  C   UNL A   1      41.980  32.497  33.200  1.00  0.00     0.049 A 
ATOM     49  H   UNL A   1      40.182  33.474  32.611  1.00  0.00     0.167 HD
ATOM     50  C   UNL A   1      41.467  27.329  29.308  1.00  0.00     0.034 A 
ATOM     51  C   UNL A   1      41.968  32.386  34.556  1.00  0.00     0.034 A 
ATOM     52  C   UNL A   1      42.498  27.544  30.350  1.00  0.00     0.049 A 
ATOM     53  C   UNL A   1      42.393  31.002  34.969  1.00  0.00     0.074 A 
ATOM     54  C   UNL A   1      43.741  28.155  30.357  1.00  0.00     0.029 A 
ATOM     55  N   UNL A   1      42.176  27.321  31.695  1.00  0.00    -0.354 N 
ATOM     56  N   UNL A   1      42.581  30.048  34.101  1.00  0.00    -0.248 NA
ATOM     57  C   UNL A   1      42.685  30.564  36.327  1.00  0.00     0.031 C 
ATOM     58  C   UNL A   1      44.119  28.376  31.716  1.00  0.00     0.029 A 
ATOM     59  C   UNL A   1      43.135  27.857  32.544  1.00  0.00     0.049 A 
ATOM     60  H   UNL A   1      41.371  26.844  32.000  1.00  0.00     0.167 HD
ATOM     61  C   UNL A   1      42.912  28.889  34.718  1.00  0.00     0.074 A 
ATOM     62  C   UNL A   1      43.016  29.274  36.118  1.00  0.00     0.031 C 
ATOM     63  C   UNL A   1      43.017  27.727  34.004  1.00  0.00     0.034 A 
BRANCH  50  64
ATOM     64  C   UNL A   1      41.728  26.559  28.013  1.00  0.00     0.023 A 
ATOM     65  C   UNL A   1      41.348  27.186  26.805  1.00  0.00     0.012 A 
ATOM     66  C   UNL A   1      42.244  25.241  27.874  1.00  0.00     0.148 A 
ATOM     67  C   UNL A   1      41.468  26.560  25.555  1.00  0.00     0.002 A 
ATOM     68  C   UNL A   1      42.434  24.643  26.624  1.00  0.00     0.091 A 
ATOM     69  F   UNL A   1      42.485  24.491  28.948  1.00  0.00    -0.205 F 
ATOM     70  C   UNL A   1      42.030  25.295  25.460  1.00  0.00     0.022 A 
BRANCH  68  71
ATOM     71  S   UNL A   1      43.207  23.022  26.426  1.00  0.00     0.127 S 
ATOM     72  O   UNL A   1      42.856  22.676  25.049  1.00  0.00    -0.237 OA
ATOM     73  O   UNL A   1      44.623  23.327  26.632  1.00  0.00    -0.237 OA
ATOM     74  O   UNL A   1      42.624  22.155  27.442  1.00  0.00    -0.744 OA
ENDBRANCH  68  71
ENDBRANCH  50  64
BRANCH  51  75
ATOM     75  C   UNL A   1      40.978  33.301  35.199  1.00  0.00     0.023 A 
ATOM     76  C   UNL A   1      41.301  34.684  35.180  1.00  0.00     0.012 A 
ATOM     77  C   UNL A   1      39.629  32.927  35.354  1.00  0.00     0.148 A 
ATOM     78  C   UNL A   1      40.305  35.664  35.220  1.00  0.00     0.002 A 
ATOM     79  C   UNL A   1      38.638  33.911  35.326  1.00  0.00     0.091 A 
ATOM     80  F   UNL A   1      39.333  31.624  35.436  1.00  0.00    -0.205 F 
ATOM     81  C   UNL A   1      38.973  35.275  35.252  1.00  0.00     0.022 A 
BRANCH  79  82
ATOM     82  S   UNL A   1      36.891  33.516  35.146  1.00  0.00     0.127 S 
ATOM     83  O   UNL A   1      36.426  34.610  34.297  1.00  0.00    -0.237 OA
ATOM     84  O   UNL A   1      36.947  32.209  34.485  1.00  0.00    -0.237 OA
ATOM     85  O   UNL A   1      36.351  33.485  36.496  1.00  0.00    -0.744 OA
ENDBRANCH  79  82
ENDBRANCH  51  75
BRANCH  63  86
ATOM     86  C   UNL A   1      43.027  26.355  34.634  1.00  0.00     0.023 A 
ATOM     87  C   UNL A   1      41.925  25.857  35.357  1.00  0.00     0.012 A 
ATOM     88  C   UNL A   1      44.085  25.449  34.377  1.00  0.00     0.148 A 
ATOM     89  C   UNL A   1      41.899  24.556  35.864  1.00  0.00     0.002 A 
ATOM     90  C   UNL A   1      43.995  24.120  34.767  1.00  0.00     0.091 A 
ATOM     91  F   UNL A   1      45.198  25.874  33.763  1.00  0.00    -0.205 F 
ATOM     92  C   UNL A   1      42.923  23.677  35.546  1.00  0.00     0.022 A 
BRANCH  90  93
ATOM     93  S   UNL A   1      45.144  22.888  34.146  1.00  0.00     0.127 S 
ATOM     94  O   UNL A   1      44.663  21.672  34.801  1.00  0.00    -0.237 OA
ATOM     95  O   UNL A   1      44.902  22.941  32.703  1.00  0.00    -0.237 OA
ATOM     96  O   UNL A   1      46.465  23.352  34.548  1.00  0.00    -0.744 OA
ENDBRANCH  90  93
ENDBRANCH  63  86
ENDBRANCH  37  38
ENDBRANCH  30  32
ENDBRANCH  29  30
ENDBRANCH  28  29
ENDBRANCH  27  28
ENDBRANCH   1  27
TORSDOF 20
ENDMDL
MODEL 2
REMARK VINA RESULT:     -11.3      4.412     10.524
REMARK SMILES Cc1ccc(NC(=O)C[C@H]2SC[C@H](C(=O)OCCOCCOC(=O)c3ccc(-c4c5nc(c(-c6cccc(S(=O)(=O)[O-])c6F)c6ccc([nH]6)c(-c6cccc(S(=O)(=O)[O-])c6F)c6nc(c(-c7cccc(S(=O)(=O)[O-])c7F)c7ccc4[nH]7)C=C6)C=C5)cc3)NC2=O)cc1
REMARK SMILES IDX 19 1 18 2 17 3 16 4 14 5 15 6 13 7 10 8 11 9 89 10 12 11
REMARK SMILES IDX 88 12 90 13 9 15 7 16 6 17 8 19 5 20 1 21 2 22 3 23 92 24
REMARK SMILES IDX 4 25 91 26 20 27 21 28 22 29 23 30 24 31 25 32 26 33 87 34
REMARK SMILES IDX 27 35 86 36 28 37 29 38 30 39 80 40 31 41 85 42 79 43 81 44
REMARK SMILES IDX 32 45 84 46 78 47 77 48 33 50 65 51 45 52 64 53 46 54 49 55
REMARK SMILES IDX 63 56 82 57 47 58 48 59 62 61 83 62 50 63 34 64 35 65 43 66
REMARK SMILES IDX 36 67 38 68 44 69 37 70 39 71 40 72 41 73 42 74 66 75 67 76
REMARK SMILES IDX 75 77 68 78 70 79 76 80 69 81 71 82 72 83 73 84 74 85 51 86
REMARK SMILES IDX 52 87 60 88 53 89 55 90 61 91 54 92 56 93 57 94 58 95 59 96
REMARK H PARENT 88 14 6 18 81 49 49 60
REMARK Flexibility Score: inf
ROOT
ATOM      1  O   UNL A   1      39.032  22.521  26.159  1.00  0.00    -0.374 OA
ENDROOT
BRANCH   1   2
ATOM      2  C   UNL A   1      38.022  23.475  26.457  1.00  0.00     0.202 C 
BRANCH   2   3
ATOM      3  C   UNL A   1      37.590  24.034  25.125  1.00  0.00     0.261 C 
BRANCH   3   4
ATOM      4  O   UNL A   1      36.200  23.709  24.905  1.00  0.00    -0.462 OA
BRANCH   4   5
ATOM      5  C   UNL A   1      35.866  23.060  23.746  1.00  0.00     0.329 C 
ATOM      6  O   UNL A   1      36.536  23.002  22.728  1.00  0.00    -0.250 OA
BRANCH   5   7
ATOM      7  C   UNL A   1      34.485  22.459  23.833  1.00  0.00     0.202 C 
ATOM      8  C   UNL A   1      31.848  22.616  25.201  1.00  0.00     0.145 C 
ATOM      9  S   UNL A   1      32.673  20.979  25.316  1.00  0.00    -0.145 SA
ATOM     10  C   UNL A   1      32.153  23.263  23.843  1.00  0.00     0.234 C 
ATOM     11  C   UNL A   1      34.354  21.616  25.103  1.00  0.00     0.107 C 
ATOM     12  N   UNL A   1      33.481  23.485  23.589  1.00  0.00    -0.341 N 
ATOM     13  O   UNL A   1      31.312  23.656  23.042  1.00  0.00    -0.274 OA
ATOM     14  H   UNL A   1      33.763  24.358  23.233  1.00  0.00     0.164 HD
BRANCH   8  15
ATOM     15  C   UNL A   1      30.387  22.495  25.620  1.00  0.00     0.124 C 
BRANCH  15  16
ATOM     16  C   UNL A   1      29.956  23.335  26.797  1.00  0.00     0.226 C 
ATOM     17  N   UNL A   1      29.781  24.683  26.722  1.00  0.00    -0.326 N 
ATOM     18  H   UNL A   1      29.288  25.047  27.493  1.00  0.00     0.169 HD
ATOM     19  O   UNL A   1      29.736  22.782  27.881  1.00  0.00    -0.275 OA
BRANCH  17  20
ATOM     20  C   UNL A   1      30.146  25.667  25.793  1.00  0.00     0.041 A 
ATOM     21  C   UNL A   1      31.639  28.575  22.968  1.00  0.00     0.044 C 
ATOM     22  C   UNL A   1      31.116  27.586  23.967  1.00  0.00    -0.051 A 
ATOM     23  C   UNL A   1      29.858  27.000  23.789  1.00  0.00     0.005 A 
ATOM     24  C   UNL A   1      31.881  27.216  25.074  1.00  0.00     0.005 A 
ATOM     25  C   UNL A   1      29.382  26.037  24.690  1.00  0.00     0.026 A 
ATOM     26  C   UNL A   1      31.401  26.260  25.973  1.00  0.00     0.026 A 
ENDBRANCH  17  20
ENDBRANCH  15  16
ENDBRANCH   8  15
ENDBRANCH   5   7
ENDBRANCH   4   5
ENDBRANCH   3   4
ENDBRANCH   2   3
ENDBRANCH   1   2
BRANCH   1  27
ATOM     27  C   UNL A   1      38.618  21.239  25.744  1.00  0.00     0.202 C 
BRANCH  27  28
ATOM     28  C   UNL A   1      39.700  20.171  25.905  1.00  0.00     0.261 C 
BRANCH  28  29
ATOM     29  O   UNL A   1      40.701  20.641  26.828  1.00  0.00    -0.460 OA
BRANCH  29  30
ATOM     30  C   UNL A   1      41.944  20.810  26.293  1.00  0.00     0.338 C 
ATOM     31  O   UNL A   1      42.486  19.992  25.563  1.00  0.00    -0.246 OA
BRANCH  30  32
ATOM     32  C   UNL A   1      42.610  21.990  26.918  1.00  0.00     0.060 A 
ATOM     33  C   UNL A   1      42.369  22.305  28.267  1.00  0.00     0.016 A 
ATOM     34  C   UNL A   1      43.239  22.925  26.096  1.00  0.00     0.016 A 
ATOM     35  C   UNL A   1      42.610  23.602  28.748  1.00  0.00     0.010 A 
ATOM     36  C   UNL A   1      43.403  24.220  26.555  1.00  0.00     0.010 A 
ATOM     37  C   UNL A   1      43.044  24.583  27.866  1.00  0.00    -0.014 A 
BRANCH  37  38
ATOM     38  C   UNL A   1      43.177  26.012  28.164  1.00  0.00     0.031 A 
ATOM     39  C   UNL A   1      41.938  26.815  28.215  1.00  0.00     0.074 A 
ATOM     40  C   UNL A   1      44.309  26.540  28.693  1.00  0.00     0.049 A 
ATOM     41  N   UNL A   1      41.915  28.087  28.422  1.00  0.00    -0.248 NA
ATOM     42  C   UNL A   1      40.610  26.255  27.968  1.00  0.00     0.031 C 
ATOM     43  C   UNL A   1      44.385  27.608  29.695  1.00  0.00     0.029 A 
ATOM     44  N   UNL A   1      45.649  26.192  28.507  1.00  0.00    -0.354 N 
ATOM     45  C   UNL A   1      40.617  28.417  28.718  1.00  0.00     0.074 A 
ATOM     46  C   UNL A   1      39.837  27.315  28.222  1.00  0.00     0.031 C 
ATOM     47  C   UNL A   1      45.667  27.958  29.890  1.00  0.00     0.029 A 
ATOM     48  C   UNL A   1      46.458  27.270  28.888  1.00  0.00     0.049 A 
ATOM     49  H   UNL A   1      45.972  25.328  28.163  1.00  0.00     0.167 HD
ATOM     50  C   UNL A   1      40.395  29.498  29.515  1.00  0.00     0.034 A 
ATOM     51  C   UNL A   1      47.347  27.827  28.021  1.00  0.00     0.034 A 
ATOM     52  C   UNL A   1      41.641  30.278  29.705  1.00  0.00     0.049 A 
ATOM     53  C   UNL A   1      46.961  29.251  27.722  1.00  0.00     0.074 A 
ATOM     54  C   UNL A   1      42.469  30.511  30.791  1.00  0.00     0.029 A 
ATOM     55  N   UNL A   1      42.341  30.742  28.585  1.00  0.00    -0.354 N 
ATOM     56  N   UNL A   1      45.839  29.766  28.139  1.00  0.00    -0.248 NA
ATOM     57  C   UNL A   1      47.767  30.223  26.994  1.00  0.00     0.031 C 
ATOM     58  C   UNL A   1      43.703  31.035  30.301  1.00  0.00     0.029 A 
ATOM     59  C   UNL A   1      43.617  31.172  28.924  1.00  0.00     0.049 A 
ATOM     60  H   UNL A   1      41.975  30.761  27.671  1.00  0.00     0.167 HD
ATOM     61  C   UNL A   1      45.699  31.040  27.703  1.00  0.00     0.074 A 
ATOM     62  C   UNL A   1      46.962  31.303  27.027  1.00  0.00     0.031 C 
ATOM     63  C   UNL A   1      44.530  31.721  27.910  1.00  0.00     0.034 A 
BRANCH  50  64
ATOM     64  C   UNL A   1      39.108  29.765  30.297  1.00  0.00     0.023 A 
ATOM     65  C   UNL A   1      38.804  28.878  31.354  1.00  0.00     0.012 A 
ATOM     66  C   UNL A   1      38.127  30.763  30.042  1.00  0.00     0.148 A 
ATOM     67  C   UNL A   1      37.621  28.969  32.103  1.00  0.00     0.002 A 
ATOM     68  C   UNL A   1      36.983  30.901  30.835  1.00  0.00     0.091 A 
ATOM     69  F   UNL A   1      38.225  31.552  28.975  1.00  0.00    -0.205 F 
ATOM     70  C   UNL A   1      36.718  29.993  31.859  1.00  0.00     0.022 A 
BRANCH  68  71
ATOM     71  S   UNL A   1      35.795  32.243  30.604  1.00  0.00     0.127 S 
ATOM     72  O   UNL A   1      34.900  32.066  31.748  1.00  0.00    -0.237 OA
ATOM     73  O   UNL A   1      36.648  33.429  30.678  1.00  0.00    -0.237 OA
ATOM     74  O   UNL A   1      35.172  32.030  29.303  1.00  0.00    -0.744 OA
ENDBRANCH  68  71
ENDBRANCH  50  64
BRANCH  51  75
ATOM     75  C   UNL A   1      47.993  26.816  27.132  1.00  0.00     0.023 A 
ATOM     76  C   UNL A   1      47.333  26.554  25.901  1.00  0.00     0.012 A 
ATOM     77  C   UNL A   1      49.366  26.520  27.235  1.00  0.00     0.148 A 
ATOM     78  C   UNL A   1      48.037  26.101  24.781  1.00  0.00     0.002 A 
ATOM     79  C   UNL A   1      50.071  26.132  26.094  1.00  0.00     0.091 A 
ATOM     80  F   UNL A   1      49.972  26.707  28.414  1.00  0.00    -0.205 F 
ATOM     81  C   UNL A   1      49.412  25.930  24.868  1.00  0.00     0.022 A 
BRANCH  79  82
ATOM     82  S   UNL A   1      51.870  26.091  26.038  1.00  0.00     0.127 S 
ATOM     83  O   UNL A   1      52.116  25.772  24.635  1.00  0.00    -0.237 OA
ATOM     84  O   UNL A   1      52.212  27.463  26.423  1.00  0.00    -0.237 OA
ATOM     85  O   UNL A   1      52.273  25.078  27.000  1.00  0.00    -0.744 OA
ENDBRANCH  79  82
ENDBRANCH  51  75
BRANCH  63  86
ATOM     86  C   UNL A   1      44.153  32.982  27.170  1.00  0.00     0.023 A 
ATOM     87  C   UNL A   1      44.025  33.015  25.768  1.00  0.00     0.012 A 
ATOM     88  C   UNL A   1      43.748  34.140  27.877  1.00  0.00     0.148 A 
ATOM     89  C   UNL A   1      43.590  34.156  25.091  1.00  0.00     0.002 A 
ATOM     90  C   UNL A   1      43.191  35.223  27.209  1.00  0.00     0.091 A 
ATOM     91  F   UNL A   1      43.914  34.209  29.205  1.00  0.00    -0.205 F 
ATOM     92  C   UNL A   1      43.146  35.253  25.814  1.00  0.00     0.022 A 
BRANCH  90  93
ATOM     93  S   UNL A   1      42.351  36.535  28.102  1.00  0.00     0.127 S 
ATOM     94  O   UNL A   1      41.326  35.791  28.833  1.00  0.00    -0.237 OA
ATOM     95  O   UNL A   1      43.426  37.075  28.937  1.00  0.00    -0.237 OA
ATOM     96  O   UNL A   1      41.870  37.454  27.081  1.00  0.00    -0.744 OA
ENDBRANCH  90  93
ENDBRANCH  63  86
ENDBRANCH  37  38
ENDBRANCH  30  32
ENDBRANCH  29  30
ENDBRANCH  28  29
ENDBRANCH  27  28
ENDBRANCH   1  27
TORSDOF 20
ENDMDL
MODEL 3
REMARK VINA RESULT:     -11.2      4.296     10.220
REMARK SMILES Cc1ccc(NC(=O)C[C@H]2SC[C@H](C(=O)OCCOCCOC(=O)c3ccc(-c4c5nc(c(-c6cccc(S(=O)(=O)[O-])c6F)c6ccc([nH]6)c(-c6cccc(S(=O)(=O)[O-])c6F)c6nc(c(-c7cccc(S(=O)(=O)[O-])c7F)c7ccc4[nH]7)C=C6)C=C5)cc3)NC2=O)cc1
REMARK SMILES IDX 19 1 18 2 17 3 16 4 14 5 15 6 13 7 10 8 11 9 89 10 12 11
REMARK SMILES IDX 88 12 90 13 9 15 7 16 6 17 8 19 5 20 1 21 2 22 3 23 92 24
REMARK SMILES IDX 4 25 91 26 20 27 21 28 22 29 23 30 24 31 25 32 26 33 87 34
REMARK SMILES IDX 27 35 86 36 28 37 29 38 30 39 80 40 31 41 85 42 79 43 81 44
REMARK SMILES IDX 32 45 84 46 78 47 77 48 33 50 65 51 45 52 64 53 46 54 49 55
REMARK SMILES IDX 63 56 82 57 47 58 48 59 62 61 83 62 50 63 34 64 35 65 43 66
REMARK SMILES IDX 36 67 38 68 44 69 37 70 39 71 40 72 41 73 42 74 66 75 67 76
REMARK SMILES IDX 75 77 68 78 70 79 76 80 69 81 71 82 72 83 73 84 74 85 51 86
REMARK SMILES IDX 52 87 60 88 53 89 55 90 61 91 54 92 56 93 57 94 58 95 59 96
REMARK H PARENT 88 14 6 18 81 49 49 60
REMARK Flexibility Score: inf
ROOT
ATOM      1  O   UNL A   1      41.303  19.782  26.767  1.00  0.00    -0.374 OA
ENDROOT
BRANCH   1   2
ATOM      2  C   UNL A   1      40.024  19.909  26.161  1.00  0.00     0.202 C 
BRANCH   2   3
ATOM      3  C   UNL A   1      39.894  21.365  25.796  1.00  0.00     0.261 C 
BRANCH   3   4
ATOM      4  O   UNL A   1      38.500  21.743  25.849  1.00  0.00    -0.462 OA
BRANCH   4   5
ATOM      5  C   UNL A   1      38.194  23.031  26.198  1.00  0.00     0.329 C 
ATOM      6  O   UNL A   1      38.972  23.874  26.615  1.00  0.00    -0.250 OA
BRANCH   5   7
ATOM      7  C   UNL A   1      36.713  23.293  26.082  1.00  0.00     0.202 C 
ATOM      8  C   UNL A   1      34.151  22.296  24.945  1.00  0.00     0.145 C 
ATOM      9  S   UNL A   1      34.591  24.010  24.452  1.00  0.00    -0.145 SA
ATOM     10  C   UNL A   1      34.617  22.028  26.383  1.00  0.00     0.234 C 
ATOM     11  C   UNL A   1      36.376  23.804  24.680  1.00  0.00     0.107 C 
ATOM     12  N   UNL A   1      35.965  22.152  26.590  1.00  0.00    -0.341 N 
ATOM     13  O   UNL A   1      33.899  21.642  27.299  1.00  0.00    -0.274 OA
ATOM     14  H   UNL A   1      36.441  21.453  27.094  1.00  0.00     0.164 HD
BRANCH   8  15
ATOM     15  C   UNL A   1      32.692  22.014  24.605  1.00  0.00     0.124 C 
BRANCH  15  16
ATOM     16  C   UNL A   1      32.417  21.494  23.215  1.00  0.00     0.226 C 
ATOM     17  N   UNL A   1      32.260  20.172  22.936  1.00  0.00    -0.326 N 
ATOM     18  H   UNL A   1      31.867  20.013  22.047  1.00  0.00     0.169 HD
ATOM     19  O   UNL A   1      32.313  22.300  22.282  1.00  0.00    -0.275 OA
BRANCH  17  20
ATOM     20  C   UNL A   1      32.533  18.986  23.631  1.00  0.00     0.041 A 
ATOM     21  C   UNL A   1      33.669  15.272  25.524  1.00  0.00     0.044 C 
ATOM     22  C   UNL A   1      33.252  16.549  24.857  1.00  0.00    -0.051 A 
ATOM     23  C   UNL A   1      32.754  17.613  25.616  1.00  0.00     0.005 A 
ATOM     24  C   UNL A   1      33.375  16.707  23.476  1.00  0.00     0.005 A 
ATOM     25  C   UNL A   1      32.408  18.828  25.009  1.00  0.00     0.026 A 
ATOM     26  C   UNL A   1      33.025  17.917  22.872  1.00  0.00     0.026 A 
ENDBRANCH  17  20
ENDBRANCH  15  16
ENDBRANCH   8  15
ENDBRANCH   5   7
ENDBRANCH   4   5
ENDBRANCH   3   4
ENDBRANCH   2   3
ENDBRANCH   1   2
BRANCH   1  27
ATOM     27  C   UNL A   1      42.268  18.999  26.101  1.00  0.00     0.202 C 
BRANCH  27  28
ATOM     28  C   UNL A   1      43.435  19.816  25.547  1.00  0.00     0.261 C 
BRANCH  28  29
ATOM     29  O   UNL A   1      43.341  21.170  26.030  1.00  0.00    -0.460 OA
BRANCH  29  30
ATOM     30  C   UNL A   1      43.458  22.133  25.072  1.00  0.00     0.338 C 
ATOM     31  O   UNL A   1      44.039  21.967  24.009  1.00  0.00    -0.246 OA
BRANCH  30  32
ATOM     32  C   UNL A   1      42.995  23.445  25.612  1.00  0.00     0.060 A 
ATOM     33  C   UNL A   1      43.262  24.632  24.907  1.00  0.00     0.016 A 
ATOM     34  C   UNL A   1      42.554  23.515  26.933  1.00  0.00     0.016 A 
ATOM     35  C   UNL A   1      43.241  25.871  25.568  1.00  0.00     0.010 A 
ATOM     36  C   UNL A   1      42.608  24.728  27.597  1.00  0.00     0.010 A 
ATOM     37  C   UNL A   1      43.000  25.907  26.935  1.00  0.00    -0.014 A 
BRANCH  37  38
ATOM     38  C   UNL A   1      43.111  27.085  27.800  1.00  0.00     0.031 A 
ATOM     39  C   UNL A   1      41.956  28.005  27.850  1.00  0.00     0.074 A 
ATOM     40  C   UNL A   1      44.060  27.189  28.765  1.00  0.00     0.049 A 
ATOM     41  N   UNL A   1      41.937  29.097  28.533  1.00  0.00    -0.248 NA
ATOM     42  C   UNL A   1      40.735  27.800  27.071  1.00  0.00     0.031 C 
ATOM     43  C   UNL A   1      43.888  27.787  30.093  1.00  0.00     0.029 A 
ATOM     44  N   UNL A   1      45.375  26.719  28.803  1.00  0.00    -0.354 N 
ATOM     45  C   UNL A   1      40.629  29.504  28.596  1.00  0.00     0.074 A 
ATOM     46  C   UNL A   1      39.977  28.804  27.521  1.00  0.00     0.031 C 
ATOM     47  C   UNL A   1      45.069  27.827  30.730  1.00  0.00     0.029 A 
ATOM     48  C   UNL A   1      46.087  27.435  29.774  1.00  0.00     0.049 A 
ATOM     49  H   UNL A   1      45.741  26.001  28.238  1.00  0.00     0.167 HD
ATOM     50  C   UNL A   1      40.235  30.238  29.672  1.00  0.00     0.034 A 
ATOM     51  C   UNL A   1      47.222  28.116  29.458  1.00  0.00     0.034 A 
ATOM     52  C   UNL A   1      41.406  30.678  30.467  1.00  0.00     0.049 A 
ATOM     53  C   UNL A   1      47.016  29.593  29.663  1.00  0.00     0.074 A 
ATOM     54  C   UNL A   1      41.883  30.359  31.727  1.00  0.00     0.029 A 
ATOM     55  N   UNL A   1      42.431  31.399  29.843  1.00  0.00    -0.354 N 
ATOM     56  N   UNL A   1      45.848  30.097  29.951  1.00  0.00    -0.248 NA
ATOM     57  C   UNL A   1      48.050  30.619  29.613  1.00  0.00     0.031 C 
ATOM     58  C   UNL A   1      43.232  30.816  31.819  1.00  0.00     0.029 A 
ATOM     59  C   UNL A   1      43.568  31.460  30.637  1.00  0.00     0.049 A 
ATOM     60  H   UNL A   1      42.356  31.812  28.952  1.00  0.00     0.167 HD
ATOM     61  C   UNL A   1      45.909  31.446  30.038  1.00  0.00     0.074 A 
ATOM     62  C   UNL A   1      47.328  31.728  29.868  1.00  0.00     0.031 C 
ATOM     63  C   UNL A   1      44.769  32.185  30.195  1.00  0.00     0.034 A 
BRANCH  50  64
ATOM     64  C   UNL A   1      38.789  30.406  30.140  1.00  0.00     0.023 A 
ATOM     65  C   UNL A   1      38.134  29.254  30.629  1.00  0.00     0.012 A 
ATOM     66  C   UNL A   1      37.984  31.577  30.074  1.00  0.00     0.148 A 
ATOM     67  C   UNL A   1      36.788  29.257  31.024  1.00  0.00     0.002 A 
ATOM     68  C   UNL A   1      36.664  31.601  30.535  1.00  0.00     0.091 A 
ATOM     69  F   UNL A   1      38.440  32.680  29.483  1.00  0.00    -0.205 F 
ATOM     70  C   UNL A   1      36.056  30.435  30.997  1.00  0.00     0.022 A 
BRANCH  68  71
ATOM     71  S   UNL A   1      35.674  33.111  30.577  1.00  0.00     0.127 S 
ATOM     72  O   UNL A   1      35.520  33.421  29.155  1.00  0.00    -0.237 OA
ATOM     73  O   UNL A   1      34.448  32.661  31.236  1.00  0.00    -0.237 OA
ATOM     74  O   UNL A   1      36.440  34.092  31.336  1.00  0.00    -0.744 OA
ENDBRANCH  68  71
ENDBRANCH  50  64
BRANCH  51  75
ATOM     75  C   UNL A   1      48.051  27.411  28.436  1.00  0.00     0.023 A 
ATOM     76  C   UNL A   1      48.582  26.152  28.822  1.00  0.00     0.012 A 
ATOM     77  C   UNL A   1      47.912  27.689  27.063  1.00  0.00     0.148 A 
ATOM     78  C   UNL A   1      48.878  25.166  27.876  1.00  0.00     0.002 A 
ATOM     79  C   UNL A   1      48.148  26.676  26.131  1.00  0.00     0.091 A 
ATOM     80  F   UNL A   1      47.472  28.900  26.698  1.00  0.00    -0.205 F 
ATOM     81  C   UNL A   1      48.622  25.416  26.535  1.00  0.00     0.022 A 
BRANCH  79  82
ATOM     82  S   UNL A   1      47.650  26.816  24.406  1.00  0.00     0.127 S 
ATOM     83  O   UNL A   1      46.232  27.139  24.533  1.00  0.00    -0.237 OA
ATOM     84  O   UNL A   1      48.491  27.923  23.942  1.00  0.00    -0.237 OA
ATOM     85  O   UNL A   1      47.958  25.531  23.800  1.00  0.00    -0.744 OA
ENDBRANCH  79  82
ENDBRANCH  51  75
BRANCH  63  86
ATOM     86  C   UNL A   1      44.694  33.673  29.949  1.00  0.00     0.023 A 
ATOM     87  C   UNL A   1      45.134  34.611  30.902  1.00  0.00     0.012 A 
ATOM     88  C   UNL A   1      44.331  34.177  28.676  1.00  0.00     0.148 A 
ATOM     89  C   UNL A   1      45.148  35.982  30.641  1.00  0.00     0.002 A 
ATOM     90  C   UNL A   1      44.473  35.526  28.378  1.00  0.00     0.091 A 
ATOM     91  F   UNL A   1      43.829  33.353  27.745  1.00  0.00    -0.205 F 
ATOM     92  C   UNL A   1      44.842  36.439  29.368  1.00  0.00     0.022 A 
BRANCH  90  93
ATOM     93  S   UNL A   1      44.364  36.121  26.687  1.00  0.00     0.127 S 
ATOM     94  O   UNL A   1      44.667  37.542  26.851  1.00  0.00    -0.237 OA
ATOM     95  O   UNL A   1      45.411  35.345  26.020  1.00  0.00    -0.237 OA
ATOM     96  O   UNL A   1      43.013  35.801  26.249  1.00  0.00    -0.744 OA
ENDBRANCH  90  93
ENDBRANCH  63  86
ENDBRANCH  37  38
ENDBRANCH  30  32
ENDBRANCH  29  30
ENDBRANCH  28  29
ENDBRANCH  27  28
ENDBRANCH   1  27
TORSDOF 20
ENDMDL
