MODEL 1
REMARK VINA RESULT:     -11.3      0.000      0.000
REMARK SMILES CCc1nc(C(=O)N2CC[NH+]([C@H](C)C(=O)OCCOCCOC(=O)c3ccc(-c4c5nc(c(-c6cccc(S(=O)(=O)[O-])c6F)c6ccc([nH]6)c(-c6cccc(S(=O)(=O)[O-])c6F)c6nc(c(-c7cccc(S(=O)(=O)[O-])c7F)c7ccc4[nH]7)C=C6)C=C5)cc3)CC2)n[nH]1
REMARK SMILES IDX 19 1 18 2 17 3 16 4 14 5 15 6 12 7 13 8 11 9 6 10 7 11 8 12
REMARK SMILES IDX 9 13 89 14 10 15 88 16 5 18 3 19 4 20 91 21 90 22 2 24 1 25
REMARK SMILES IDX 20 26 21 27 22 28 23 29 24 30 25 31 26 32 87 33 27 34 86 35
REMARK SMILES IDX 28 36 29 37 30 38 80 39 31 40 85 41 79 42 81 43 32 44 84 45
REMARK SMILES IDX 78 46 77 47 33 49 65 50 45 51 64 52 46 53 49 54 63 55 82 56
REMARK SMILES IDX 47 57 48 58 62 60 83 61 50 62 34 63 35 64 43 65 36 66 38 67
REMARK SMILES IDX 44 68 37 69 39 70 40 71 41 72 42 73 66 74 67 75 75 76 68 77
REMARK SMILES IDX 70 78 76 79 69 80 71 81 72 82 73 83 74 84 51 85 52 86 60 87
REMARK SMILES IDX 53 88 55 89 61 90 54 91 56 92 57 93 58 94 59 95
REMARK H PARENT 11 17 91 23 81 48 49 59
REMARK Flexibility Score: inf
ROOT
ATOM      1  O   UNL A   1      32.198  29.109  24.358  1.00  0.00    -0.374 OA
ENDROOT
BRANCH   1   2
ATOM      2  C   UNL A   1      30.805  29.411  24.249  1.00  0.00     0.202 C 
BRANCH   2   3
ATOM      3  C   UNL A   1      29.935  28.353  23.566  1.00  0.00     0.261 C 
BRANCH   3   4
ATOM      4  O   UNL A   1      30.532  27.049  23.675  1.00  0.00    -0.459 OA
BRANCH   4   5
ATOM      5  C   UNL A   1      31.178  26.578  22.571  1.00  0.00     0.364 C 
ATOM      6  O   UNL A   1      30.925  26.910  21.418  1.00  0.00    -0.245 OA
BRANCH   5   7
ATOM      7  C   UNL A   1      32.290  25.572  22.938  1.00  0.00     0.292 C 
ATOM      8  C   UNL A   1      33.701  26.178  22.911  1.00  0.00     0.088 C 
BRANCH   7   9
ATOM      9  N   UNL A   1      31.918  24.846  24.174  1.00  0.00    -0.321 N 
ATOM     10  C   UNL A   1      32.967  21.847  26.783  1.00  0.00     0.293 C 
ATOM     11  O   UNL A   1      33.398  21.967  27.932  1.00  0.00    -0.265 OA
ATOM     12  N   UNL A   1      32.169  22.842  26.224  1.00  0.00    -0.325 N 
ATOM     13  C   UNL A   1      32.455  24.234  26.546  1.00  0.00     0.181 C 
ATOM     14  C   UNL A   1      31.193  22.657  25.158  1.00  0.00     0.181 C 
ATOM     15  C   UNL A   1      32.918  24.963  25.263  1.00  0.00     0.284 C 
ATOM     16  C   UNL A   1      31.603  23.426  23.894  1.00  0.00     0.284 C 
ATOM     17  H   UNL A   1      31.075  25.306  24.516  1.00  0.00     0.348 HD
BRANCH  10  18
ATOM     18  C   UNL A   1      33.373  20.713  25.913  1.00  0.00     0.239 A 
ATOM     19  C   UNL A   1      33.175  19.053  24.582  1.00  0.00     0.124 A 
ATOM     20  N   UNL A   1      32.525  19.673  25.542  1.00  0.00    -0.208 NA
ATOM     21  N   UNL A   1      34.385  19.659  24.413  1.00  0.00    -0.263 N 
ATOM     22  N   UNL A   1      34.555  20.671  25.268  1.00  0.00    -0.148 NA
ATOM     23  H   UNL A   1      35.051  19.385  23.743  1.00  0.00     0.192 HD
BRANCH  19  24
ATOM     24  C   UNL A   1      32.733  17.908  23.744  1.00  0.00     0.073 C 
ATOM     25  C   UNL A   1      33.880  16.989  23.354  1.00  0.00     0.012 C 
ENDBRANCH  19  24
ENDBRANCH  10  18
ENDBRANCH   7   9
ENDBRANCH   5   7
ENDBRANCH   4   5
ENDBRANCH   3   4
ENDBRANCH   2   3
ENDBRANCH   1   2
BRANCH   1  26
ATOM     26  C   UNL A   1      32.890  29.602  25.503  1.00  0.00     0.202 C 
BRANCH  26  27
ATOM     27  C   UNL A   1      32.218  30.743  26.276  1.00  0.00     0.261 C 
BRANCH  27  28
ATOM     28  O   UNL A   1      32.753  30.912  27.600  1.00  0.00    -0.460 OA
BRANCH  28  29
ATOM     29  C   UNL A   1      33.622  31.947  27.725  1.00  0.00     0.338 C 
ATOM     30  O   UNL A   1      33.342  33.138  27.763  1.00  0.00    -0.246 OA
BRANCH  29  31
ATOM     31  C   UNL A   1      34.988  31.457  27.978  1.00  0.00     0.060 A 
ATOM     32  C   UNL A   1      35.146  30.082  28.191  1.00  0.00     0.016 A 
ATOM     33  C   UNL A   1      36.071  32.326  28.122  1.00  0.00     0.016 A 
ATOM     34  C   UNL A   1      36.373  29.577  28.616  1.00  0.00     0.010 A 
ATOM     35  C   UNL A   1      37.301  31.819  28.554  1.00  0.00     0.010 A 
ATOM     36  C   UNL A   1      37.443  30.450  28.849  1.00  0.00    -0.014 A 
BRANCH  36  37
ATOM     37  C   UNL A   1      38.643  29.949  29.562  1.00  0.00     0.031 A 
ATOM     38  C   UNL A   1      38.937  30.462  30.946  1.00  0.00     0.074 A 
ATOM     39  C   UNL A   1      39.445  29.025  29.001  1.00  0.00     0.049 A 
ATOM     40  N   UNL A   1      39.910  30.142  31.759  1.00  0.00    -0.248 NA
ATOM     41  C   UNL A   1      38.009  31.469  31.485  1.00  0.00     0.031 C 
ATOM     42  C   UNL A   1      39.263  28.444  27.674  1.00  0.00     0.029 A 
ATOM     43  N   UNL A   1      40.583  28.428  29.480  1.00  0.00    -0.354 N 
ATOM     44  C   UNL A   1      39.727  30.922  32.895  1.00  0.00     0.074 A 
ATOM     45  C   UNL A   1      38.560  31.746  32.657  1.00  0.00     0.031 C 
ATOM     46  C   UNL A   1      40.263  27.578  27.438  1.00  0.00     0.029 A 
ATOM     47  C   UNL A   1      41.164  27.558  28.588  1.00  0.00     0.049 A 
ATOM     48  H   UNL A   1      40.947  28.603  30.378  1.00  0.00     0.167 HD
ATOM     49  C   UNL A   1      40.447  30.939  34.041  1.00  0.00     0.034 A 
ATOM     50  C   UNL A   1      42.298  26.836  28.689  1.00  0.00     0.034 A 
ATOM     51  C   UNL A   1      41.592  30.107  34.287  1.00  0.00     0.049 A 
ATOM     52  C   UNL A   1      43.102  26.894  29.962  1.00  0.00     0.074 A 
ATOM     53  C   UNL A   1      42.364  30.019  35.432  1.00  0.00     0.029 A 
ATOM     54  N   UNL A   1      42.140  29.223  33.368  1.00  0.00    -0.354 N 
ATOM     55  N   UNL A   1      42.849  27.548  31.071  1.00  0.00    -0.248 NA
ATOM     56  C   UNL A   1      44.331  26.087  30.008  1.00  0.00     0.031 C 
ATOM     57  C   UNL A   1      43.390  29.095  35.198  1.00  0.00     0.029 A 
ATOM     58  C   UNL A   1      43.245  28.595  33.914  1.00  0.00     0.049 A 
ATOM     59  H   UNL A   1      41.792  29.067  32.460  1.00  0.00     0.167 HD
ATOM     60  C   UNL A   1      43.863  27.203  31.958  1.00  0.00     0.074 A 
ATOM     61  C   UNL A   1      44.727  26.271  31.261  1.00  0.00     0.031 C 
ATOM     62  C   UNL A   1      44.065  27.626  33.230  1.00  0.00     0.034 A 
BRANCH  49  63
ATOM     63  C   UNL A   1      39.989  31.874  35.129  1.00  0.00     0.023 A 
ATOM     64  C   UNL A   1      40.445  33.209  35.135  1.00  0.00     0.012 A 
ATOM     65  C   UNL A   1      39.096  31.446  36.130  1.00  0.00     0.148 A 
ATOM     66  C   UNL A   1      40.051  34.091  36.141  1.00  0.00     0.002 A 
ATOM     67  C   UNL A   1      38.677  32.341  37.107  1.00  0.00     0.091 A 
ATOM     68  F   UNL A   1      38.696  30.165  36.127  1.00  0.00    -0.205 F 
ATOM     69  C   UNL A   1      39.161  33.659  37.121  1.00  0.00     0.022 A 
BRANCH  67  70
ATOM     70  S   UNL A   1      37.479  31.888  38.367  1.00  0.00     0.127 S 
ATOM     71  O   UNL A   1      36.411  32.855  38.122  1.00  0.00    -0.237 OA
ATOM     72  O   UNL A   1      37.147  30.509  38.004  1.00  0.00    -0.237 OA
ATOM     73  O   UNL A   1      38.176  32.023  39.639  1.00  0.00    -0.744 OA
ENDBRANCH  67  70
ENDBRANCH  49  63
BRANCH  50  74
ATOM     74  C   UNL A   1      42.706  25.943  27.569  1.00  0.00     0.023 A 
ATOM     75  C   UNL A   1      43.638  26.407  26.621  1.00  0.00     0.012 A 
ATOM     76  C   UNL A   1      42.203  24.632  27.458  1.00  0.00     0.148 A 
ATOM     77  C   UNL A   1      44.051  25.587  25.570  1.00  0.00     0.002 A 
ATOM     78  C   UNL A   1      42.656  23.805  26.436  1.00  0.00     0.091 A 
ATOM     79  F   UNL A   1      41.306  24.219  28.363  1.00  0.00    -0.205 F 
ATOM     80  C   UNL A   1      43.568  24.284  25.484  1.00  0.00     0.022 A 
BRANCH  78  81
ATOM     81  S   UNL A   1      42.182  22.078  26.310  1.00  0.00     0.127 S 
ATOM     82  O   UNL A   1      42.594  21.560  27.613  1.00  0.00    -0.237 OA
ATOM     83  O   UNL A   1      40.735  22.181  26.115  1.00  0.00    -0.237 OA
ATOM     84  O   UNL A   1      42.912  21.554  25.164  1.00  0.00    -0.744 OA
ENDBRANCH  78  81
ENDBRANCH  50  74
BRANCH  62  85
ATOM     85  C   UNL A   1      45.249  27.066  33.977  1.00  0.00     0.023 A 
ATOM     86  C   UNL A   1      46.473  27.763  33.969  1.00  0.00     0.012 A 
ATOM     87  C   UNL A   1      45.124  25.895  34.750  1.00  0.00     0.148 A 
ATOM     88  C   UNL A   1      47.563  27.286  34.698  1.00  0.00     0.002 A 
ATOM     89  C   UNL A   1      46.201  25.451  35.509  1.00  0.00     0.091 A 
ATOM     90  F   UNL A   1      43.956  25.235  34.728  1.00  0.00    -0.205 F 
ATOM     91  C   UNL A   1      47.424  26.139  35.476  1.00  0.00     0.022 A 
BRANCH  89  92
ATOM     92  S   UNL A   1      46.078  24.038  36.613  1.00  0.00     0.127 S 
ATOM     93  O   UNL A   1      45.870  22.940  35.671  1.00  0.00    -0.237 OA
ATOM     94  O   UNL A   1      47.386  24.039  37.269  1.00  0.00    -0.237 OA
ATOM     95  O   UNL A   1      44.960  24.324  37.503  1.00  0.00    -0.744 OA
ENDBRANCH  89  92
ENDBRANCH  62  85
ENDBRANCH  36  37
ENDBRANCH  29  31
ENDBRANCH  28  29
ENDBRANCH  27  28
ENDBRANCH  26  27
ENDBRANCH   1  26
TORSDOF 20
ENDMDL
MODEL 2
REMARK VINA RESULT:     -11.1      2.529      8.815
REMARK SMILES CCc1nc(C(=O)N2CC[NH+]([C@H](C)C(=O)OCCOCCOC(=O)c3ccc(-c4c5nc(c(-c6cccc(S(=O)(=O)[O-])c6F)c6ccc([nH]6)c(-c6cccc(S(=O)(=O)[O-])c6F)c6nc(c(-c7cccc(S(=O)(=O)[O-])c7F)c7ccc4[nH]7)C=C6)C=C5)cc3)CC2)n[nH]1
REMARK SMILES IDX 19 1 18 2 17 3 16 4 14 5 15 6 12 7 13 8 11 9 6 10 7 11 8 12
REMARK SMILES IDX 9 13 89 14 10 15 88 16 5 18 3 19 4 20 91 21 90 22 2 24 1 25
REMARK SMILES IDX 20 26 21 27 22 28 23 29 24 30 25 31 26 32 87 33 27 34 86 35
REMARK SMILES IDX 28 36 29 37 30 38 80 39 31 40 85 41 79 42 81 43 32 44 84 45
REMARK SMILES IDX 78 46 77 47 33 49 65 50 45 51 64 52 46 53 49 54 63 55 82 56
REMARK SMILES IDX 47 57 48 58 62 60 83 61 50 62 34 63 35 64 43 65 36 66 38 67
REMARK SMILES IDX 44 68 37 69 39 70 40 71 41 72 42 73 66 74 67 75 75 76 68 77
REMARK SMILES IDX 70 78 76 79 69 80 71 81 72 82 73 83 74 84 51 85 52 86 60 87
REMARK SMILES IDX 53 88 55 89 61 90 54 91 56 92 57 93 58 94 59 95
REMARK H PARENT 11 17 91 23 81 48 49 59
REMARK Flexibility Score: inf
ROOT
ATOM      1  O   UNL A   1      41.769  20.621  27.077  1.00  0.00    -0.374 OA
ENDROOT
BRANCH   1   2
ATOM      2  C   UNL A   1      40.595  21.429  27.178  1.00  0.00     0.202 C 
BRANCH   2   3
ATOM      3  C   UNL A   1      39.835  21.684  25.873  1.00  0.00     0.261 C 
BRANCH   3   4
ATOM      4  O   UNL A   1      38.427  21.844  26.122  1.00  0.00    -0.459 OA
BRANCH   4   5
ATOM      5  C   UNL A   1      37.905  23.084  25.906  1.00  0.00     0.364 C 
ATOM      6  O   UNL A   1      38.353  24.124  26.380  1.00  0.00    -0.245 OA
BRANCH   5   7
ATOM      7  C   UNL A   1      36.676  23.039  24.974  1.00  0.00     0.292 C 
ATOM      8  C   UNL A   1      36.970  22.424  23.597  1.00  0.00     0.088 C 
BRANCH   7   9
ATOM      9  N   UNL A   1      35.517  22.475  25.703  1.00  0.00    -0.321 N 
ATOM     10  C   UNL A   1      31.417  22.392  25.996  1.00  0.00     0.293 C 
ATOM     11  O   UNL A   1      30.660  21.470  25.687  1.00  0.00    -0.265 OA
ATOM     12  N   UNL A   1      32.736  22.129  26.357  1.00  0.00    -0.325 N 
ATOM     13  C   UNL A   1      33.449  21.057  25.675  1.00  0.00     0.181 C 
ATOM     14  C   UNL A   1      33.573  22.964  27.209  1.00  0.00     0.181 C 
ATOM     15  C   UNL A   1      34.610  21.666  24.853  1.00  0.00     0.284 C 
ATOM     16  C   UNL A   1      34.767  23.528  26.427  1.00  0.00     0.284 C 
ATOM     17  H   UNL A   1      35.913  21.830  26.385  1.00  0.00     0.348 HD
BRANCH  10  18
ATOM     18  C   UNL A   1      31.001  23.814  25.881  1.00  0.00     0.239 A 
ATOM     19  C   UNL A   1      30.162  25.581  25.019  1.00  0.00     0.124 A 
ATOM     20  N   UNL A   1      30.746  24.456  24.671  1.00  0.00    -0.208 NA
ATOM     21  N   UNL A   1      30.110  25.642  26.381  1.00  0.00    -0.263 N 
ATOM     22  N   UNL A   1      30.674  24.571  26.946  1.00  0.00    -0.148 NA
ATOM     23  H   UNL A   1      29.707  26.384  26.885  1.00  0.00     0.192 HD
BRANCH  19  24
ATOM     24  C   UNL A   1      29.590  26.643  24.151  1.00  0.00     0.073 C 
ATOM     25  C   UNL A   1      30.656  27.528  23.526  1.00  0.00     0.012 C 
ENDBRANCH  19  24
ENDBRANCH  10  18
ENDBRANCH   7   9
ENDBRANCH   5   7
ENDBRANCH   4   5
ENDBRANCH   3   4
ENDBRANCH   2   3
ENDBRANCH   1   2
BRANCH   1  26
ATOM     26  C   UNL A   1      42.587  20.792  25.922  1.00  0.00     0.202 C 
BRANCH  26  27
ATOM     27  C   UNL A   1      43.509  22.017  25.904  1.00  0.00     0.261 C 
BRANCH  27  28
ATOM     28  O   UNL A   1      43.013  23.079  25.070  1.00  0.00    -0.460 OA
BRANCH  28  29
ATOM     29  C   UNL A   1      43.689  24.248  25.190  1.00  0.00     0.338 C 
ATOM     30  O   UNL A   1      44.698  24.578  24.579  1.00  0.00    -0.246 OA
BRANCH  29  31
ATOM     31  C   UNL A   1      42.963  25.187  26.062  1.00  0.00     0.060 A 
ATOM     32  C   UNL A   1      43.542  26.445  26.271  1.00  0.00     0.016 A 
ATOM     33  C   UNL A   1      41.810  24.812  26.755  1.00  0.00     0.016 A 
ATOM     34  C   UNL A   1      43.008  27.309  27.225  1.00  0.00     0.010 A 
ATOM     35  C   UNL A   1      41.279  25.679  27.717  1.00  0.00     0.010 A 
ATOM     36  C   UNL A   1      41.905  26.910  27.989  1.00  0.00    -0.014 A 
BRANCH  36  37
ATOM     37  C   UNL A   1      41.522  27.708  29.179  1.00  0.00     0.031 A 
ATOM     38  C   UNL A   1      40.300  28.583  29.109  1.00  0.00     0.074 A 
ATOM     39  C   UNL A   1      42.232  27.633  30.320  1.00  0.00     0.049 A 
ATOM     40  N   UNL A   1      39.768  29.340  30.032  1.00  0.00    -0.248 NA
ATOM     41  C   UNL A   1      39.581  28.606  27.825  1.00  0.00     0.031 C 
ATOM     42  C   UNL A   1      43.426  26.816  30.518  1.00  0.00     0.029 A 
ATOM     43  N   UNL A   1      42.051  28.267  31.522  1.00  0.00    -0.354 N 
ATOM     44  C   UNL A   1      38.668  29.947  29.438  1.00  0.00     0.074 A 
ATOM     45  C   UNL A   1      38.620  29.485  28.067  1.00  0.00     0.031 C 
ATOM     46  C   UNL A   1      43.881  27.008  31.768  1.00  0.00     0.029 A 
ATOM     47  C   UNL A   1      43.021  27.973  32.450  1.00  0.00     0.049 A 
ATOM     48  H   UNL A   1      41.298  28.874  31.704  1.00  0.00     0.167 HD
ATOM     49  C   UNL A   1      37.765  30.794  29.985  1.00  0.00     0.034 A 
ATOM     50  C   UNL A   1      43.196  28.436  33.704  1.00  0.00     0.034 A 
ATOM     51  C   UNL A   1      37.798  31.238  31.352  1.00  0.00     0.049 A 
ATOM     52  C   UNL A   1      42.197  29.403  34.282  1.00  0.00     0.074 A 
ATOM     53  C   UNL A   1      36.904  32.062  32.013  1.00  0.00     0.029 A 
ATOM     54  N   UNL A   1      38.783  30.902  32.268  1.00  0.00    -0.354 N 
ATOM     55  N   UNL A   1      41.097  29.875  33.746  1.00  0.00    -0.248 NA
ATOM     56  C   UNL A   1      42.447  29.875  35.653  1.00  0.00     0.031 C 
ATOM     57  C   UNL A   1      37.361  32.239  33.325  1.00  0.00     0.029 A 
ATOM     58  C   UNL A   1      38.528  31.510  33.485  1.00  0.00     0.049 A 
ATOM     59  H   UNL A   1      39.553  30.316  32.080  1.00  0.00     0.167 HD
ATOM     60  C   UNL A   1      40.504  30.667  34.723  1.00  0.00     0.074 A 
ATOM     61  C   UNL A   1      41.361  30.601  35.890  1.00  0.00     0.031 C 
ATOM     62  C   UNL A   1      39.359  31.391  34.657  1.00  0.00     0.034 A 
BRANCH  49  63
ATOM     63  C   UNL A   1      36.643  31.271  29.100  1.00  0.00     0.023 A 
ATOM     64  C   UNL A   1      36.532  32.645  28.800  1.00  0.00     0.012 A 
ATOM     65  C   UNL A   1      35.714  30.367  28.550  1.00  0.00     0.148 A 
ATOM     66  C   UNL A   1      35.493  33.116  27.998  1.00  0.00     0.002 A 
ATOM     67  C   UNL A   1      34.704  30.839  27.720  1.00  0.00     0.091 A 
ATOM     68  F   UNL A   1      35.816  29.069  28.870  1.00  0.00    -0.205 F 
ATOM     69  C   UNL A   1      34.585  32.213  27.452  1.00  0.00     0.022 A 
BRANCH  67  70
ATOM     70  S   UNL A   1      33.533  29.737  26.919  1.00  0.00     0.127 S 
ATOM     71  O   UNL A   1      32.664  30.683  26.223  1.00  0.00    -0.237 OA
ATOM     72  O   UNL A   1      34.396  28.945  26.041  1.00  0.00    -0.237 OA
ATOM     73  O   UNL A   1      32.910  28.977  27.994  1.00  0.00    -0.744 OA
ENDBRANCH  67  70
ENDBRANCH  49  63
BRANCH  50  74
ATOM     74  C   UNL A   1      44.338  27.938  34.522  1.00  0.00     0.023 A 
ATOM     75  C   UNL A   1      45.521  28.698  34.591  1.00  0.00     0.012 A 
ATOM     76  C   UNL A   1      44.245  26.739  35.254  1.00  0.00     0.148 A 
ATOM     77  C   UNL A   1      46.601  28.264  35.361  1.00  0.00     0.002 A 
ATOM     78  C   UNL A   1      45.305  26.338  36.058  1.00  0.00     0.091 A 
ATOM     79  F   UNL A   1      43.114  26.026  35.160  1.00  0.00    -0.205 F 
ATOM     80  C   UNL A   1      46.488  27.091  36.103  1.00  0.00     0.022 A 
BRANCH  78  81
ATOM     81  S   UNL A   1      45.213  24.906  37.137  1.00  0.00     0.127 S 
ATOM     82  O   UNL A   1      46.512  24.953  37.805  1.00  0.00    -0.237 OA
ATOM     83  O   UNL A   1      44.070  25.247  37.985  1.00  0.00    -0.237 OA
ATOM     84  O   UNL A   1      44.997  23.765  36.259  1.00  0.00    -0.744 OA
ENDBRANCH  78  81
ENDBRANCH  50  74
BRANCH  62  85
ATOM     85  C   UNL A   1      38.936  32.150  35.889  1.00  0.00     0.023 A 
ATOM     86  C   UNL A   1      38.053  31.552  36.809  1.00  0.00     0.012 A 
ATOM     87  C   UNL A   1      39.477  33.420  36.173  1.00  0.00     0.148 A 
ATOM     88  C   UNL A   1      37.693  32.219  37.980  1.00  0.00     0.002 A 
ATOM     89  C   UNL A   1      39.148  34.059  37.363  1.00  0.00     0.091 A 
ATOM     90  F   UNL A   1      40.300  33.981  35.275  1.00  0.00    -0.205 F 
ATOM     91  C   UNL A   1      38.249  33.465  38.264  1.00  0.00     0.022 A 
BRANCH  89  92
ATOM     92  S   UNL A   1      39.893  35.620  37.850  1.00  0.00     0.127 S 
ATOM     93  O   UNL A   1      39.182  35.915  39.094  1.00  0.00    -0.237 OA
ATOM     94  O   UNL A   1      41.300  35.255  38.025  1.00  0.00    -0.237 OA
ATOM     95  O   UNL A   1      39.644  36.541  36.750  1.00  0.00    -0.744 OA
ENDBRANCH  89  92
ENDBRANCH  62  85
ENDBRANCH  36  37
ENDBRANCH  29  31
ENDBRANCH  28  29
ENDBRANCH  27  28
ENDBRANCH  26  27
ENDBRANCH   1  26
TORSDOF 20
ENDMDL
MODEL 3
REMARK VINA RESULT:     -11.1      2.563      8.955
REMARK SMILES CCc1nc(C(=O)N2CC[NH+]([C@H](C)C(=O)OCCOCCOC(=O)c3ccc(-c4c5nc(c(-c6cccc(S(=O)(=O)[O-])c6F)c6ccc([nH]6)c(-c6cccc(S(=O)(=O)[O-])c6F)c6nc(c(-c7cccc(S(=O)(=O)[O-])c7F)c7ccc4[nH]7)C=C6)C=C5)cc3)CC2)n[nH]1
REMARK SMILES IDX 19 1 18 2 17 3 16 4 14 5 15 6 12 7 13 8 11 9 6 10 7 11 8 12
REMARK SMILES IDX 9 13 89 14 10 15 88 16 5 18 3 19 4 20 91 21 90 22 2 24 1 25
REMARK SMILES IDX 20 26 21 27 22 28 23 29 24 30 25 31 26 32 87 33 27 34 86 35
REMARK SMILES IDX 28 36 29 37 30 38 80 39 31 40 85 41 79 42 81 43 32 44 84 45
REMARK SMILES IDX 78 46 77 47 33 49 65 50 45 51 64 52 46 53 49 54 63 55 82 56
REMARK SMILES IDX 47 57 48 58 62 60 83 61 50 62 34 63 35 64 43 65 36 66 38 67
REMARK SMILES IDX 44 68 37 69 39 70 40 71 41 72 42 73 66 74 67 75 75 76 68 77
REMARK SMILES IDX 70 78 76 79 69 80 71 81 72 82 73 83 74 84 51 85 52 86 60 87
REMARK SMILES IDX 53 88 55 89 61 90 54 91 56 92 57 93 58 94 59 95
REMARK H PARENT 11 17 91 23 81 48 49 59
REMARK Flexibility Score: inf
ROOT
ATOM      1  O   UNL A   1      42.197  21.009  25.749  1.00  0.00    -0.374 OA
ENDROOT
BRANCH   1   2
ATOM      2  C   UNL A   1      41.509  19.757  25.806  1.00  0.00     0.202 C 
BRANCH   2   3
ATOM      3  C   UNL A   1      40.050  19.807  26.269  1.00  0.00     0.261 C 
BRANCH   3   4
ATOM      4  O   UNL A   1      39.464  21.088  25.977  1.00  0.00    -0.459 OA
BRANCH   4   5
ATOM      5  C   UNL A   1      38.194  21.081  25.482  1.00  0.00     0.364 C 
ATOM      6  O   UNL A   1      37.717  20.183  24.795  1.00  0.00    -0.245 OA
BRANCH   5   7
ATOM      7  C   UNL A   1      37.406  22.342  25.895  1.00  0.00     0.292 C 
ATOM      8  C   UNL A   1      38.272  23.608  25.979  1.00  0.00     0.088 C 
BRANCH   7   9
ATOM      9  N   UNL A   1      36.174  22.450  25.080  1.00  0.00    -0.321 N 
ATOM     10  C   UNL A   1      33.632  25.011  23.111  1.00  0.00     0.293 C 
ATOM     11  O   UNL A   1      33.498  25.149  21.894  1.00  0.00    -0.265 OA
ATOM     12  N   UNL A   1      34.085  23.804  23.637  1.00  0.00    -0.325 N 
ATOM     13  C   UNL A   1      35.091  23.052  22.899  1.00  0.00     0.181 C 
ATOM     14  C   UNL A   1      33.819  23.302  24.979  1.00  0.00     0.181 C 
ATOM     15  C   UNL A   1      36.398  23.013  23.726  1.00  0.00     0.284 C 
ATOM     16  C   UNL A   1      35.114  23.196  25.796  1.00  0.00     0.284 C 
ATOM     17  H   UNL A   1      35.858  21.491  24.937  1.00  0.00     0.348 HD
BRANCH  10  18
ATOM     18  C   UNL A   1      33.438  26.147  24.050  1.00  0.00     0.239 A 
ATOM     19  C   UNL A   1      32.423  27.506  25.350  1.00  0.00     0.124 A 
ATOM     20  N   UNL A   1      32.210  26.759  24.289  1.00  0.00    -0.208 NA
ATOM     21  N   UNL A   1      33.735  27.392  25.707  1.00  0.00    -0.263 N 
ATOM     22  N   UNL A   1      34.405  26.586  24.880  1.00  0.00    -0.148 NA
ATOM     23  H   UNL A   1      34.138  27.848  26.481  1.00  0.00     0.192 HD
BRANCH  19  24
ATOM     24  C   UNL A   1      31.457  28.334  26.118  1.00  0.00     0.073 C 
ATOM     25  C   UNL A   1      31.471  28.024  27.607  1.00  0.00     0.012 C 
ENDBRANCH  19  24
ENDBRANCH  10  18
ENDBRANCH   7   9
ENDBRANCH   5   7
ENDBRANCH   4   5
ENDBRANCH   3   4
ENDBRANCH   2   3
ENDBRANCH   1   2
BRANCH   1  26
ATOM     26  C   UNL A   1      43.596  20.977  25.475  1.00  0.00     0.202 C 
BRANCH  26  27
ATOM     27  C   UNL A   1      44.208  22.244  24.864  1.00  0.00     0.261 C 
BRANCH  27  28
ATOM     28  O   UNL A   1      43.286  23.347  24.822  1.00  0.00    -0.460 OA
BRANCH  28  29
ATOM     29  C   UNL A   1      43.848  24.556  25.069  1.00  0.00     0.338 C 
ATOM     30  O   UNL A   1      44.835  25.032  24.522  1.00  0.00    -0.246 OA
BRANCH  29  31
ATOM     31  C   UNL A   1      43.019  25.339  26.001  1.00  0.00     0.060 A 
ATOM     32  C   UNL A   1      43.225  26.725  26.032  1.00  0.00     0.016 A 
ATOM     33  C   UNL A   1      42.146  24.732  26.906  1.00  0.00     0.016 A 
ATOM     34  C   UNL A   1      42.612  27.500  27.014  1.00  0.00     0.010 A 
ATOM     35  C   UNL A   1      41.535  25.511  27.895  1.00  0.00     0.010 A 
ATOM     36  C   UNL A   1      41.804  26.889  27.982  1.00  0.00    -0.014 A 
BRANCH  36  37
ATOM     37  C   UNL A   1      41.389  27.669  29.173  1.00  0.00     0.031 A 
ATOM     38  C   UNL A   1      40.088  28.424  29.133  1.00  0.00     0.074 A 
ATOM     39  C   UNL A   1      42.141  27.681  30.289  1.00  0.00     0.049 A 
ATOM     40  N   UNL A   1      39.518  29.144  30.064  1.00  0.00    -0.248 NA
ATOM     41  C   UNL A   1      39.327  28.357  27.875  1.00  0.00     0.031 C 
ATOM     42  C   UNL A   1      43.413  26.984  30.456  1.00  0.00     0.029 A 
ATOM     43  N   UNL A   1      41.942  28.317  31.487  1.00  0.00    -0.354 N 
ATOM     44  C   UNL A   1      38.346  29.634  29.501  1.00  0.00     0.074 A 
ATOM     45  C   UNL A   1      38.295  29.146  28.139  1.00  0.00     0.031 C 
ATOM     46  C   UNL A   1      43.890  27.240  31.686  1.00  0.00     0.029 A 
ATOM     47  C   UNL A   1      42.967  28.131  32.385  1.00  0.00     0.049 A 
ATOM     48  H   UNL A   1      41.141  28.854  31.687  1.00  0.00     0.167 HD
ATOM     49  C   UNL A   1      37.386  30.402  30.067  1.00  0.00     0.034 A 
ATOM     50  C   UNL A   1      43.140  28.631  33.625  1.00  0.00     0.034 A 
ATOM     51  C   UNL A   1      37.424  30.871  31.425  1.00  0.00     0.049 A 
ATOM     52  C   UNL A   1      42.073  29.510  34.224  1.00  0.00     0.074 A 
ATOM     53  C   UNL A   1      36.479  31.619  32.106  1.00  0.00     0.029 A 
ATOM     54  N   UNL A   1      38.467  30.646  32.311  1.00  0.00    -0.354 N 
ATOM     55  N   UNL A   1      40.916  29.867  33.720  1.00  0.00    -0.248 NA
ATOM     56  C   UNL A   1      42.324  30.028  35.578  1.00  0.00     0.031 C 
ATOM     57  C   UNL A   1      36.961  31.862  33.398  1.00  0.00     0.029 A 
ATOM     58  C   UNL A   1      38.197  31.249  33.527  1.00  0.00     0.049 A 
ATOM     59  H   UNL A   1      39.282  30.132  32.104  1.00  0.00     0.167 HD
ATOM     60  C   UNL A   1      40.285  30.617  34.706  1.00  0.00     0.074 A 
ATOM     61  C   UNL A   1      41.183  30.652  35.843  1.00  0.00     0.031 C 
ATOM     62  C   UNL A   1      39.075  31.229  34.670  1.00  0.00     0.034 A 
BRANCH  49  63
ATOM     63  C   UNL A   1      36.194  30.756  29.216  1.00  0.00     0.023 A 
ATOM     64  C   UNL A   1      35.508  29.737  28.524  1.00  0.00     0.012 A 
ATOM     65  C   UNL A   1      35.740  32.085  29.116  1.00  0.00     0.148 A 
ATOM     66  C   UNL A   1      34.413  30.039  27.716  1.00  0.00     0.002 A 
ATOM     67  C   UNL A   1      34.624  32.374  28.339  1.00  0.00     0.091 A 
ATOM     68  F   UNL A   1      36.422  33.046  29.756  1.00  0.00    -0.205 F 
ATOM     69  C   UNL A   1      33.967  31.355  27.630  1.00  0.00     0.022 A 
BRANCH  67  70
ATOM     70  S   UNL A   1      33.941  34.031  28.228  1.00  0.00     0.127 S 
ATOM     71  O   UNL A   1      34.841  34.659  27.263  1.00  0.00    -0.237 OA
ATOM     72  O   UNL A   1      32.588  33.781  27.726  1.00  0.00    -0.237 OA
ATOM     73  O   UNL A   1      33.989  34.568  29.581  1.00  0.00    -0.744 OA
ENDBRANCH  67  70
ENDBRANCH  49  63
BRANCH  50  74
ATOM     74  C   UNL A   1      44.350  28.257  34.408  1.00  0.00     0.023 A 
ATOM     75  C   UNL A   1      45.494  29.077  34.346  1.00  0.00     0.012 A 
ATOM     76  C   UNL A   1      44.362  27.119  35.237  1.00  0.00     0.148 A 
ATOM     77  C   UNL A   1      46.636  28.760  35.081  1.00  0.00     0.002 A 
ATOM     78  C   UNL A   1      45.486  26.836  36.004  1.00  0.00     0.091 A 
ATOM     79  F   UNL A   1      43.268  26.346  35.268  1.00  0.00    -0.205 F 
ATOM     80  C   UNL A   1      46.628  27.647  35.918  1.00  0.00     0.022 A 
BRANCH  78  81
ATOM     81  S   UNL A   1      45.531  25.494  37.196  1.00  0.00     0.127 S 
ATOM     82  O   UNL A   1      46.966  25.354  37.431  1.00  0.00    -0.237 OA
ATOM     83  O   UNL A   1      44.775  26.064  38.312  1.00  0.00    -0.237 OA
ATOM     84  O   UNL A   1      44.887  24.365  36.540  1.00  0.00    -0.744 OA
ENDBRANCH  78  81
ENDBRANCH  50  74
BRANCH  62  85
ATOM     85  C   UNL A   1      38.624  31.967  35.905  1.00  0.00     0.023 A 
ATOM     86  C   UNL A   1      38.793  33.363  35.986  1.00  0.00     0.012 A 
ATOM     87  C   UNL A   1      37.962  31.289  36.947  1.00  0.00     0.148 A 
ATOM     88  C   UNL A   1      38.335  34.069  37.099  1.00  0.00     0.002 A 
ATOM     89  C   UNL A   1      37.467  32.005  38.032  1.00  0.00     0.091 A 
ATOM     90  F   UNL A   1      37.828  29.957  36.861  1.00  0.00    -0.205 F 
ATOM     91  C   UNL A   1      37.662  33.393  38.114  1.00  0.00     0.022 A 
BRANCH  89  92
ATOM     92  S   UNL A   1      36.505  31.227  39.335  1.00  0.00     0.127 S 
ATOM     93  O   UNL A   1      37.498  31.095  40.401  1.00  0.00    -0.237 OA
ATOM     94  O   UNL A   1      35.464  32.224  39.594  1.00  0.00    -0.237 OA
ATOM     95  O   UNL A   1      36.013  29.976  38.775  1.00  0.00    -0.744 OA
ENDBRANCH  89  92
ENDBRANCH  62  85
ENDBRANCH  36  37
ENDBRANCH  29  31
ENDBRANCH  28  29
ENDBRANCH  27  28
ENDBRANCH  26  27
ENDBRANCH   1  26
TORSDOF 20
ENDMDL
