MODEL 1
REMARK VINA RESULT:      -9.2      0.000      0.000
REMARK SMILES CCC(CC)[C@@H](C)[NH2+]CC(C)(C)C(=O)OCCOCCOC(=O)c1ccc(-c2c3nc(c(-c4cccc(S(=O)(=O)[O-])c4F)c4ccc([nH]4)c(-c4cccc(S(=O)(=O)[O-])c4F)c4nc(c(-c5cccc(S(=O)(=O)[O-])c5F)c5ccc2[nH]5)C=C4)C=C3)cc1
REMARK SMILES IDX 17 1 16 2 15 3 13 4 14 5 10 6 11 7 12 8 9 9 8 10 6 13 7 14
REMARK SMILES IDX 3 15 2 16 1 17 4 18 5 19 18 20 19 21 20 22 21 23 22 24 23 25
REMARK SMILES IDX 24 26 25 27 86 28 26 29 85 30 27 31 28 32 29 33 79 34 30 35
REMARK SMILES IDX 84 36 78 37 80 38 31 39 83 40 77 41 76 42 32 44 64 45 44 46
REMARK SMILES IDX 63 47 45 48 48 49 62 50 81 51 46 52 47 53 61 55 82 56 49 57
REMARK SMILES IDX 33 58 34 59 42 60 35 61 37 62 43 63 36 64 38 65 39 66 40 67
REMARK SMILES IDX 41 68 65 69 66 70 74 71 67 72 69 73 75 74 68 75 70 76 71 77
REMARK SMILES IDX 72 78 73 79 50 80 51 81 59 82 52 83 54 84 60 85 53 86 55 87
REMARK SMILES IDX 56 88 57 89 58 90
REMARK H PARENT 8 11 8 12 80 43 48 54
REMARK Flexibility Score: inf
ROOT
ATOM      1  C   UNL A   1      33.104  29.451  25.042  1.00  0.00     0.202 C 
ENDROOT
BRANCH   1   2
ATOM      2  C   UNL A   1      33.541  28.014  25.440  1.00  0.00     0.261 C 
BRANCH   2   3
ATOM      3  O   UNL A   1      32.571  26.957  25.550  1.00  0.00    -0.463 OA
BRANCH   3   4
ATOM      4  C   UNL A   1      32.115  26.593  24.330  1.00  0.00     0.317 C 
ATOM      5  O   UNL A   1      32.533  27.144  23.322  1.00  0.00    -0.251 OA
BRANCH   4   6
ATOM      6  C   UNL A   1      31.149  25.421  24.270  1.00  0.00     0.111 C 
ATOM      7  C   UNL A   1      31.106  24.687  22.922  1.00  0.00     0.029 C 
ATOM      8  C   UNL A   1      29.748  26.036  24.492  1.00  0.00     0.029 C 
BRANCH   6   9
ATOM      9  C   UNL A   1      31.508  24.439  25.460  1.00  0.00     0.279 C 
BRANCH   9  10
ATOM     10  N   UNL A   1      31.761  22.969  25.274  1.00  0.00    -0.343 N 
ATOM     11  H   UNL A   1      31.002  22.459  25.725  1.00  0.00     0.346 HD
ATOM     12  H   UNL A   1      31.810  22.814  24.268  1.00  0.00     0.346 HD
BRANCH  10  13
ATOM     13  C   UNL A   1      33.042  22.478  25.835  1.00  0.00     0.182 C 
ATOM     14  C   UNL A   1      33.858  23.689  26.341  1.00  0.00     0.075 C 
BRANCH  13  15
ATOM     15  C   UNL A   1      33.982  21.604  24.937  1.00  0.00     0.046 C 
BRANCH  15  16
ATOM     16  C   UNL A   1      35.282  21.275  25.746  1.00  0.00     0.006 C 
ATOM     17  C   UNL A   1      36.344  20.532  24.960  1.00  0.00     0.004 C 
ENDBRANCH  15  16
BRANCH  15  18
ATOM     18  C   UNL A   1      33.311  20.315  24.405  1.00  0.00     0.006 C 
ATOM     19  C   UNL A   1      32.878  19.292  25.452  1.00  0.00     0.004 C 
ENDBRANCH  15  18
ENDBRANCH  13  15
ENDBRANCH  10  13
ENDBRANCH   9  10
ENDBRANCH   6   9
ENDBRANCH   4   6
ENDBRANCH   3   4
ENDBRANCH   2   3
ENDBRANCH   1   2
BRANCH   1  20
ATOM     20  O   UNL A   1      31.988  30.143  25.590  1.00  0.00    -0.374 OA
BRANCH  20  21
ATOM     21  C   UNL A   1      32.072  30.711  26.896  1.00  0.00     0.202 C 
BRANCH  21  22
ATOM     22  C   UNL A   1      32.028  32.228  27.019  1.00  0.00     0.261 C 
BRANCH  22  23
ATOM     23  O   UNL A   1      33.332  32.745  27.302  1.00  0.00    -0.460 OA
BRANCH  23  24
ATOM     24  C   UNL A   1      33.325  33.832  28.112  1.00  0.00     0.338 C 
ATOM     25  O   UNL A   1      32.514  34.734  28.123  1.00  0.00    -0.246 OA
BRANCH  24  26
ATOM     26  C   UNL A   1      34.335  33.648  29.172  1.00  0.00     0.060 A 
ATOM     27  C   UNL A   1      35.634  34.095  28.889  1.00  0.00     0.016 A 
ATOM     28  C   UNL A   1      34.034  33.039  30.391  1.00  0.00     0.016 A 
ATOM     29  C   UNL A   1      36.662  33.846  29.785  1.00  0.00     0.010 A 
ATOM     30  C   UNL A   1      35.070  32.769  31.283  1.00  0.00     0.010 A 
ATOM     31  C   UNL A   1      36.391  33.118  30.946  1.00  0.00    -0.014 A 
BRANCH  31  32
ATOM     32  C   UNL A   1      37.526  32.513  31.669  1.00  0.00     0.031 A 
ATOM     33  C   UNL A   1      38.263  31.385  31.001  1.00  0.00     0.074 A 
ATOM     34  C   UNL A   1      37.916  32.993  32.859  1.00  0.00     0.049 A 
ATOM     35  N   UNL A   1      39.284  30.695  31.431  1.00  0.00    -0.248 NA
ATOM     36  C   UNL A   1      37.784  30.982  29.665  1.00  0.00     0.031 C 
ATOM     37  C   UNL A   1      37.285  34.104  33.568  1.00  0.00     0.029 A 
ATOM     38  N   UNL A   1      38.932  32.592  33.685  1.00  0.00    -0.354 N 
ATOM     39  C   UNL A   1      39.550  29.759  30.439  1.00  0.00     0.074 A 
ATOM     40  C   UNL A   1      38.577  29.959  29.389  1.00  0.00     0.031 C 
ATOM     41  C   UNL A   1      37.913  34.278  34.744  1.00  0.00     0.029 A 
ATOM     42  C   UNL A   1      38.968  33.275  34.875  1.00  0.00     0.049 A 
ATOM     43  H   UNL A   1      39.573  31.883  33.448  1.00  0.00     0.167 HD
ATOM     44  C   UNL A   1      40.527  28.825  30.403  1.00  0.00     0.034 A 
ATOM     45  C   UNL A   1      39.750  33.086  35.955  1.00  0.00     0.034 A 
ATOM     46  C   UNL A   1      41.495  28.649  31.448  1.00  0.00     0.049 A 
ATOM     47  C   UNL A   1      40.807  32.014  35.905  1.00  0.00     0.074 A 
ATOM     48  C   UNL A   1      42.551  27.758  31.503  1.00  0.00     0.029 A 
ATOM     49  N   UNL A   1      41.518  29.373  32.632  1.00  0.00    -0.354 N 
ATOM     50  N   UNL A   1      41.111  31.198  34.923  1.00  0.00    -0.248 NA
ATOM     51  C   UNL A   1      41.650  31.858  37.098  1.00  0.00     0.031 C 
ATOM     52  C   UNL A   1      43.191  27.920  32.736  1.00  0.00     0.029 A 
ATOM     53  C   UNL A   1      42.560  28.939  33.432  1.00  0.00     0.049 A 
ATOM     54  H   UNL A   1      40.886  30.090  32.867  1.00  0.00     0.167 HD
ATOM     55  C   UNL A   1      42.203  30.459  35.364  1.00  0.00     0.074 A 
ATOM     56  C   UNL A   1      42.517  30.938  36.695  1.00  0.00     0.031 C 
ATOM     57  C   UNL A   1      42.880  29.467  34.734  1.00  0.00     0.034 A 
BRANCH  44  58
ATOM     58  C   UNL A   1      40.593  27.929  29.195  1.00  0.00     0.023 A 
ATOM     59  C   UNL A   1      39.722  26.826  29.089  1.00  0.00     0.012 A 
ATOM     60  C   UNL A   1      41.492  28.204  28.147  1.00  0.00     0.148 A 
ATOM     61  C   UNL A   1      39.767  25.991  27.971  1.00  0.00     0.002 A 
ATOM     62  C   UNL A   1      41.498  27.397  27.016  1.00  0.00     0.091 A 
ATOM     63  F   UNL A   1      42.331  29.240  28.280  1.00  0.00    -0.205 F 
ATOM     64  C   UNL A   1      40.646  26.283  26.931  1.00  0.00     0.022 A 
BRANCH  62  65
ATOM     65  S   UNL A   1      42.539  27.735  25.592  1.00  0.00     0.127 S 
ATOM     66  O   UNL A   1      42.310  26.547  24.771  1.00  0.00    -0.237 OA
ATOM     67  O   UNL A   1      41.947  28.964  25.065  1.00  0.00    -0.237 OA
ATOM     68  O   UNL A   1      43.892  27.885  26.109  1.00  0.00    -0.744 OA
ENDBRANCH  62  65
ENDBRANCH  44  58
BRANCH  45  69
ATOM     69  C   UNL A   1      39.576  33.945  37.157  1.00  0.00     0.023 A 
ATOM     70  C   UNL A   1      40.030  35.277  37.135  1.00  0.00     0.012 A 
ATOM     71  C   UNL A   1      38.937  33.455  38.313  1.00  0.00     0.148 A 
ATOM     72  C   UNL A   1      39.880  36.097  38.255  1.00  0.00     0.002 A 
ATOM     73  C   UNL A   1      38.739  34.293  39.403  1.00  0.00     0.091 A 
ATOM     74  F   UNL A   1      38.524  32.180  38.318  1.00  0.00    -0.205 F 
ATOM     75  C   UNL A   1      39.226  35.609  39.383  1.00  0.00     0.022 A 
BRANCH  73  76
ATOM     76  S   UNL A   1      37.793  33.791  40.845  1.00  0.00     0.127 S 
ATOM     77  O   UNL A   1      37.607  35.063  41.538  1.00  0.00    -0.237 OA
ATOM     78  O   UNL A   1      36.585  33.237  40.234  1.00  0.00    -0.237 OA
ATOM     79  O   UNL A   1      38.619  32.811  41.536  1.00  0.00    -0.744 OA
ENDBRANCH  73  76
ENDBRANCH  45  69
BRANCH  57  80
ATOM     80  C   UNL A   1      44.055  28.858  35.454  1.00  0.00     0.023 A 
ATOM     81  C   UNL A   1      45.347  29.389  35.271  1.00  0.00     0.012 A 
ATOM     82  C   UNL A   1      43.861  27.806  36.372  1.00  0.00     0.148 A 
ATOM     83  C   UNL A   1      46.434  28.857  35.963  1.00  0.00     0.002 A 
ATOM     84  C   UNL A   1      44.940  27.318  37.097  1.00  0.00     0.091 A 
ATOM     85  F   UNL A   1      42.626  27.305  36.521  1.00  0.00    -0.205 F 
ATOM     86  C   UNL A   1      46.230  27.832  36.883  1.00  0.00     0.022 A 
BRANCH  84  87
ATOM     87  S   UNL A   1      44.755  26.070  38.376  1.00  0.00     0.127 S 
ATOM     88  O   UNL A   1      44.049  26.815  39.417  1.00  0.00    -0.237 OA
ATOM     89  O   UNL A   1      43.949  25.052  37.701  1.00  0.00    -0.237 OA
ATOM     90  O   UNL A   1      46.104  25.643  38.719  1.00  0.00    -0.744 OA
ENDBRANCH  84  87
ENDBRANCH  57  80
ENDBRANCH  31  32
ENDBRANCH  24  26
ENDBRANCH  23  24
ENDBRANCH  22  23
ENDBRANCH  21  22
ENDBRANCH  20  21
ENDBRANCH   1  20
TORSDOF 23
ENDMDL
MODEL 2
REMARK VINA RESULT:      -9.0      3.727      8.762
REMARK SMILES CCC(CC)[C@@H](C)[NH2+]CC(C)(C)C(=O)OCCOCCOC(=O)c1ccc(-c2c3nc(c(-c4cccc(S(=O)(=O)[O-])c4F)c4ccc([nH]4)c(-c4cccc(S(=O)(=O)[O-])c4F)c4nc(c(-c5cccc(S(=O)(=O)[O-])c5F)c5ccc2[nH]5)C=C4)C=C3)cc1
REMARK SMILES IDX 17 1 16 2 15 3 13 4 14 5 10 6 11 7 12 8 9 9 8 10 6 13 7 14
REMARK SMILES IDX 3 15 2 16 1 17 4 18 5 19 18 20 19 21 20 22 21 23 22 24 23 25
REMARK SMILES IDX 24 26 25 27 86 28 26 29 85 30 27 31 28 32 29 33 79 34 30 35
REMARK SMILES IDX 84 36 78 37 80 38 31 39 83 40 77 41 76 42 32 44 64 45 44 46
REMARK SMILES IDX 63 47 45 48 48 49 62 50 81 51 46 52 47 53 61 55 82 56 49 57
REMARK SMILES IDX 33 58 34 59 42 60 35 61 37 62 43 63 36 64 38 65 39 66 40 67
REMARK SMILES IDX 41 68 65 69 66 70 74 71 67 72 69 73 75 74 68 75 70 76 71 77
REMARK SMILES IDX 72 78 73 79 50 80 51 81 59 82 52 83 54 84 60 85 53 86 55 87
REMARK SMILES IDX 56 88 57 89 58 90
REMARK H PARENT 8 11 8 12 80 43 48 54
REMARK Flexibility Score: inf
ROOT
ATOM      1  C   UNL A   1      31.734  29.207  25.497  1.00  0.00     0.202 C 
ENDROOT
BRANCH   1   2
ATOM      2  C   UNL A   1      31.089  27.818  25.756  1.00  0.00     0.261 C 
BRANCH   2   3
ATOM      3  O   UNL A   1      31.733  26.615  25.303  1.00  0.00    -0.463 OA
BRANCH   3   4
ATOM      4  C   UNL A   1      31.249  25.534  25.957  1.00  0.00     0.317 C 
ATOM      5  O   UNL A   1      30.159  25.580  26.507  1.00  0.00    -0.251 OA
BRANCH   4   6
ATOM      6  C   UNL A   1      32.069  24.256  25.890  1.00  0.00     0.111 C 
ATOM      7  C   UNL A   1      32.021  23.390  27.157  1.00  0.00     0.029 C 
ATOM      8  C   UNL A   1      33.534  24.720  25.717  1.00  0.00     0.029 C 
BRANCH   6   9
ATOM      9  C   UNL A   1      31.599  23.448  24.611  1.00  0.00     0.279 C 
BRANCH   9  10
ATOM     10  N   UNL A   1      32.411  23.345  23.350  1.00  0.00    -0.343 N 
ATOM     11  H   UNL A   1      31.788  23.502  22.559  1.00  0.00     0.346 HD
ATOM     12  H   UNL A   1      33.149  24.045  23.429  1.00  0.00     0.346 HD
BRANCH  10  13
ATOM     13  C   UNL A   1      33.093  22.044  23.148  1.00  0.00     0.182 C 
ATOM     14  C   UNL A   1      32.140  21.100  22.381  1.00  0.00     0.075 C 
BRANCH  13  15
ATOM     15  C   UNL A   1      33.641  21.269  24.394  1.00  0.00     0.046 C 
BRANCH  15  16
ATOM     16  C   UNL A   1      33.279  19.753  24.238  1.00  0.00     0.006 C 
ATOM     17  C   UNL A   1      32.905  19.056  25.531  1.00  0.00     0.004 C 
ENDBRANCH  15  16
BRANCH  15  18
ATOM     18  C   UNL A   1      35.158  21.462  24.628  1.00  0.00     0.006 C 
ATOM     19  C   UNL A   1      35.852  22.511  23.763  1.00  0.00     0.004 C 
ENDBRANCH  15  18
ENDBRANCH  13  15
ENDBRANCH  10  13
ENDBRANCH   9  10
ENDBRANCH   6   9
ENDBRANCH   4   6
ENDBRANCH   3   4
ENDBRANCH   2   3
ENDBRANCH   1   2
BRANCH   1  20
ATOM     20  O   UNL A   1      31.130  30.457  25.812  1.00  0.00    -0.374 OA
BRANCH  20  21
ATOM     21  C   UNL A   1      31.945  31.587  26.114  1.00  0.00     0.202 C 
BRANCH  21  22
ATOM     22  C   UNL A   1      32.629  31.630  27.475  1.00  0.00     0.261 C 
BRANCH  22  23
ATOM     23  O   UNL A   1      33.890  30.954  27.422  1.00  0.00    -0.460 OA
BRANCH  23  24
ATOM     24  C   UNL A   1      34.851  31.532  28.182  1.00  0.00     0.338 C 
ATOM     25  O   UNL A   1      34.771  32.570  28.805  1.00  0.00    -0.246 OA
BRANCH  24  26
ATOM     26  C   UNL A   1      35.969  30.582  28.349  1.00  0.00     0.060 A 
ATOM     27  C   UNL A   1      35.940  29.769  29.491  1.00  0.00     0.016 A 
ATOM     28  C   UNL A   1      37.022  30.504  27.437  1.00  0.00     0.016 A 
ATOM     29  C   UNL A   1      37.014  28.942  29.780  1.00  0.00     0.010 A 
ATOM     30  C   UNL A   1      38.112  29.688  27.737  1.00  0.00     0.010 A 
ATOM     31  C   UNL A   1      38.130  28.959  28.940  1.00  0.00    -0.014 A 
BRANCH  31  32
ATOM     32  C   UNL A   1      39.398  28.412  29.457  1.00  0.00     0.031 A 
ATOM     33  C   UNL A   1      39.981  29.036  30.695  1.00  0.00     0.074 A 
ATOM     34  C   UNL A   1      39.981  27.356  28.869  1.00  0.00     0.049 A 
ATOM     35  N   UNL A   1      41.077  28.736  31.335  1.00  0.00    -0.248 NA
ATOM     36  C   UNL A   1      39.222  30.151  31.292  1.00  0.00     0.031 C 
ATOM     37  C   UNL A   1      39.473  26.663  27.687  1.00  0.00     0.029 A 
ATOM     38  N   UNL A   1      41.137  26.694  29.184  1.00  0.00    -0.354 N 
ATOM     39  C   UNL A   1      41.158  29.639  32.388  1.00  0.00     0.074 A 
ATOM     40  C   UNL A   1      40.006  30.507  32.296  1.00  0.00     0.031 C 
ATOM     41  C   UNL A   1      40.335  25.686  27.356  1.00  0.00     0.029 A 
ATOM     42  C   UNL A   1      41.461  25.706  28.288  1.00  0.00     0.049 A 
ATOM     43  H   UNL A   1      41.683  26.906  29.976  1.00  0.00     0.167 HD
ATOM     44  C   UNL A   1      42.102  29.726  33.353  1.00  0.00     0.034 A 
ATOM     45  C   UNL A   1      42.559  24.929  28.219  1.00  0.00     0.034 A 
ATOM     46  C   UNL A   1      43.232  28.845  33.439  1.00  0.00     0.049 A 
ATOM     47  C   UNL A   1      43.614  25.071  29.284  1.00  0.00     0.074 A 
ATOM     48  C   UNL A   1      44.233  28.820  34.393  1.00  0.00     0.029 A 
ATOM     49  N   UNL A   1      43.519  27.840  32.527  1.00  0.00    -0.354 N 
ATOM     50  N   UNL A   1      43.633  25.865  30.329  1.00  0.00    -0.248 NA
ATOM     51  C   UNL A   1      44.784  24.189  29.179  1.00  0.00     0.031 C 
ATOM     52  C   UNL A   1      45.144  27.820  34.037  1.00  0.00     0.029 A 
ATOM     53  C   UNL A   1      44.689  27.196  32.885  1.00  0.00     0.049 A 
ATOM     54  H   UNL A   1      42.970  27.617  31.741  1.00  0.00     0.167 HD
ATOM     55  C   UNL A   1      44.794  25.552  31.027  1.00  0.00     0.074 A 
ATOM     56  C   UNL A   1      45.442  24.484  30.293  1.00  0.00     0.031 C 
ATOM     57  C   UNL A   1      45.288  26.102  32.163  1.00  0.00     0.034 A 
BRANCH  44  58
ATOM     58  C   UNL A   1      41.946  30.809  34.387  1.00  0.00     0.023 A 
ATOM     59  C   UNL A   1      41.289  30.531  35.603  1.00  0.00     0.012 A 
ATOM     60  C   UNL A   1      42.484  32.092  34.169  1.00  0.00     0.148 A 
ATOM     61  C   UNL A   1      41.144  31.523  36.574  1.00  0.00     0.002 A 
ATOM     62  C   UNL A   1      42.377  33.060  35.160  1.00  0.00     0.091 A 
ATOM     63  F   UNL A   1      43.079  32.344  32.995  1.00  0.00    -0.205 F 
ATOM     64  C   UNL A   1      41.697  32.782  36.357  1.00  0.00     0.022 A 
BRANCH  62  65
ATOM     65  S   UNL A   1      43.123  34.687  35.007  1.00  0.00     0.127 S 
ATOM     66  O   UNL A   1      42.594  35.134  33.719  1.00  0.00    -0.237 OA
ATOM     67  O   UNL A   1      42.572  35.387  36.168  1.00  0.00    -0.237 OA
ATOM     68  O   UNL A   1      44.562  34.476  35.051  1.00  0.00    -0.744 OA
ENDBRANCH  62  65
ENDBRANCH  44  58
BRANCH  45  69
ATOM     69  C   UNL A   1      42.699  23.938  27.118  1.00  0.00     0.023 A 
ATOM     70  C   UNL A   1      43.427  24.277  25.962  1.00  0.00     0.012 A 
ATOM     71  C   UNL A   1      42.135  22.651  27.223  1.00  0.00     0.148 A 
ATOM     72  C   UNL A   1      43.565  23.362  24.916  1.00  0.00     0.002 A 
ATOM     73  C   UNL A   1      42.325  21.727  26.205  1.00  0.00     0.091 A 
ATOM     74  F   UNL A   1      41.435  22.354  28.327  1.00  0.00    -0.205 F 
ATOM     75  C   UNL A   1      43.024  22.085  25.042  1.00  0.00     0.022 A 
BRANCH  73  76
ATOM     76  S   UNL A   1      41.778  20.021  26.338  1.00  0.00     0.127 S 
ATOM     77  O   UNL A   1      40.330  20.160  26.219  1.00  0.00    -0.237 OA
ATOM     78  O   UNL A   1      42.436  19.403  25.186  1.00  0.00    -0.237 OA
ATOM     79  O   UNL A   1      42.264  19.551  27.628  1.00  0.00    -0.744 OA
ENDBRANCH  73  76
ENDBRANCH  45  69
BRANCH  57  80
ATOM     80  C   UNL A   1      46.571  25.535  32.712  1.00  0.00     0.023 A 
ATOM     81  C   UNL A   1      47.808  26.090  32.330  1.00  0.00     0.012 A 
ATOM     82  C   UNL A   1      46.542  24.497  33.665  1.00  0.00     0.148 A 
ATOM     83  C   UNL A   1      48.999  25.597  32.862  1.00  0.00     0.002 A 
ATOM     84  C   UNL A   1      47.728  24.048  34.230  1.00  0.00     0.091 A 
ATOM     85  F   UNL A   1      45.355  23.972  34.003  1.00  0.00    -0.205 F 
ATOM     86  C   UNL A   1      48.959  24.587  33.819  1.00  0.00     0.022 A 
BRANCH  84  87
ATOM     87  S   UNL A   1      47.766  22.822  35.543  1.00  0.00     0.127 S 
ATOM     88  O   UNL A   1      46.937  23.458  36.566  1.00  0.00    -0.237 OA
ATOM     89  O   UNL A   1      47.154  21.659  34.898  1.00  0.00    -0.237 OA
ATOM     90  O   UNL A   1      49.169  22.651  35.893  1.00  0.00    -0.744 OA
ENDBRANCH  84  87
ENDBRANCH  57  80
ENDBRANCH  31  32
ENDBRANCH  24  26
ENDBRANCH  23  24
ENDBRANCH  22  23
ENDBRANCH  21  22
ENDBRANCH  20  21
ENDBRANCH   1  20
TORSDOF 23
ENDMDL
MODEL 3
REMARK VINA RESULT:      -8.8      1.699      7.931
REMARK SMILES CCC(CC)[C@@H](C)[NH2+]CC(C)(C)C(=O)OCCOCCOC(=O)c1ccc(-c2c3nc(c(-c4cccc(S(=O)(=O)[O-])c4F)c4ccc([nH]4)c(-c4cccc(S(=O)(=O)[O-])c4F)c4nc(c(-c5cccc(S(=O)(=O)[O-])c5F)c5ccc2[nH]5)C=C4)C=C3)cc1
REMARK SMILES IDX 17 1 16 2 15 3 13 4 14 5 10 6 11 7 12 8 9 9 8 10 6 13 7 14
REMARK SMILES IDX 3 15 2 16 1 17 4 18 5 19 18 20 19 21 20 22 21 23 22 24 23 25
REMARK SMILES IDX 24 26 25 27 86 28 26 29 85 30 27 31 28 32 29 33 79 34 30 35
REMARK SMILES IDX 84 36 78 37 80 38 31 39 83 40 77 41 76 42 32 44 64 45 44 46
REMARK SMILES IDX 63 47 45 48 48 49 62 50 81 51 46 52 47 53 61 55 82 56 49 57
REMARK SMILES IDX 33 58 34 59 42 60 35 61 37 62 43 63 36 64 38 65 39 66 40 67
REMARK SMILES IDX 41 68 65 69 66 70 74 71 67 72 69 73 75 74 68 75 70 76 71 77
REMARK SMILES IDX 72 78 73 79 50 80 51 81 59 82 52 83 54 84 60 85 53 86 55 87
REMARK SMILES IDX 56 88 57 89 58 90
REMARK H PARENT 8 11 8 12 80 43 48 54
REMARK Flexibility Score: inf
ROOT
ATOM      1  C   UNL A   1      32.616  30.023  25.695  1.00  0.00     0.202 C 
ENDROOT
BRANCH   1   2
ATOM      2  C   UNL A   1      31.926  29.089  24.663  1.00  0.00     0.261 C 
BRANCH   2   3
ATOM      3  O   UNL A   1      31.500  27.768  25.040  1.00  0.00    -0.463 OA
BRANCH   3   4
ATOM      4  C   UNL A   1      32.416  26.844  24.672  1.00  0.00     0.317 C 
ATOM      5  O   UNL A   1      33.306  26.513  25.441  1.00  0.00    -0.251 OA
BRANCH   4   6
ATOM      6  C   UNL A   1      32.229  26.179  23.318  1.00  0.00     0.111 C 
ATOM      7  C   UNL A   1      32.954  26.869  22.153  1.00  0.00     0.029 C 
ATOM      8  C   UNL A   1      30.714  26.273  23.024  1.00  0.00     0.029 C 
BRANCH   6   9
ATOM      9  C   UNL A   1      32.664  24.662  23.461  1.00  0.00     0.279 C 
BRANCH   9  10
ATOM     10  N   UNL A   1      31.691  23.517  23.449  1.00  0.00    -0.343 N 
ATOM     11  H   UNL A   1      30.751  23.901  23.358  1.00  0.00     0.346 HD
ATOM     12  H   UNL A   1      31.962  22.922  22.666  1.00  0.00     0.346 HD
BRANCH  10  13
ATOM     13  C   UNL A   1      31.722  22.656  24.656  1.00  0.00     0.182 C 
ATOM     14  C   UNL A   1      31.017  23.400  25.813  1.00  0.00     0.075 C 
BRANCH  13  15
ATOM     15  C   UNL A   1      33.100  22.134  25.186  1.00  0.00     0.046 C 
BRANCH  15  16
ATOM     16  C   UNL A   1      32.993  21.923  26.734  1.00  0.00     0.006 C 
ATOM     17  C   UNL A   1      34.143  22.505  27.531  1.00  0.00     0.004 C 
ENDBRANCH  15  16
BRANCH  15  18
ATOM     18  C   UNL A   1      33.592  20.849  24.477  1.00  0.00     0.006 C 
ATOM     19  C   UNL A   1      32.515  19.949  23.876  1.00  0.00     0.004 C 
ENDBRANCH  15  18
ENDBRANCH  13  15
ENDBRANCH  10  13
ENDBRANCH   9  10
ENDBRANCH   6   9
ENDBRANCH   4   6
ENDBRANCH   3   4
ENDBRANCH   2   3
ENDBRANCH   1   2
BRANCH   1  20
ATOM     20  O   UNL A   1      31.955  30.676  26.772  1.00  0.00    -0.374 OA
BRANCH  20  21
ATOM     21  C   UNL A   1      31.180  31.847  26.527  1.00  0.00     0.202 C 
BRANCH  21  22
ATOM     22  C   UNL A   1      31.784  33.194  26.902  1.00  0.00     0.261 C 
BRANCH  22  23
ATOM     23  O   UNL A   1      33.047  33.012  27.552  1.00  0.00    -0.460 OA
BRANCH  23  24
ATOM     24  C   UNL A   1      33.418  34.060  28.327  1.00  0.00     0.338 C 
ATOM     25  O   UNL A   1      32.863  35.134  28.427  1.00  0.00    -0.246 OA
BRANCH  24  26
ATOM     26  C   UNL A   1      34.493  33.625  29.241  1.00  0.00     0.060 A 
ATOM     27  C   UNL A   1      35.775  34.136  28.995  1.00  0.00     0.016 A 
ATOM     28  C   UNL A   1      34.263  32.730  30.287  1.00  0.00     0.016 A 
ATOM     29  C   UNL A   1      36.855  33.679  29.733  1.00  0.00     0.010 A 
ATOM     30  C   UNL A   1      35.352  32.253  31.015  1.00  0.00     0.010 A 
ATOM     31  C   UNL A   1      36.651  32.683  30.692  1.00  0.00    -0.014 A 
BRANCH  31  32
ATOM     32  C   UNL A   1      37.824  31.924  31.167  1.00  0.00     0.031 A 
ATOM     33  C   UNL A   1      38.364  32.247  32.532  1.00  0.00     0.074 A 
ATOM     34  C   UNL A   1      38.354  30.943  30.422  1.00  0.00     0.049 A 
ATOM     35  N   UNL A   1      39.379  31.725  33.165  1.00  0.00    -0.248 NA
ATOM     36  C   UNL A   1      37.663  33.302  33.289  1.00  0.00     0.031 C 
ATOM     37  C   UNL A   1      37.878  30.535  29.102  1.00  0.00     0.029 A 
ATOM     38  N   UNL A   1      39.421  30.122  30.670  1.00  0.00    -0.354 N 
ATOM     39  C   UNL A   1      39.459  32.405  34.375  1.00  0.00     0.074 A 
ATOM     40  C   UNL A   1      38.398  33.386  34.385  1.00  0.00     0.031 C 
ATOM     41  C   UNL A   1      38.673  29.555  28.640  1.00  0.00     0.029 A 
ATOM     42  C   UNL A   1      39.724  29.290  29.621  1.00  0.00     0.049 A 
ATOM     43  H   UNL A   1      39.923  30.128  31.518  1.00  0.00     0.167 HD
ATOM     44  C   UNL A   1      40.332  32.216  35.390  1.00  0.00     0.034 A 
ATOM     45  C   UNL A   1      40.752  28.433  29.467  1.00  0.00     0.034 A 
ATOM     46  C   UNL A   1      41.371  31.226  35.371  1.00  0.00     0.049 A 
ATOM     47  C   UNL A   1      41.732  28.269  30.598  1.00  0.00     0.074 A 
ATOM     48  C   UNL A   1      42.291  30.924  36.358  1.00  0.00     0.029 A 
ATOM     49  N   UNL A   1      41.636  30.383  34.301  1.00  0.00    -0.354 N 
ATOM     50  N   UNL A   1      41.742  28.849  31.775  1.00  0.00    -0.248 NA
ATOM     51  C   UNL A   1      42.825  27.309  30.394  1.00  0.00     0.031 C 
ATOM     52  C   UNL A   1      43.135  29.921  35.870  1.00  0.00     0.029 A 
ATOM     53  C   UNL A   1      42.716  29.571  34.595  1.00  0.00     0.049 A 
ATOM     54  H   UNL A   1      41.130  30.367  33.457  1.00  0.00     0.167 HD
ATOM     55  C   UNL A   1      42.816  28.297  32.465  1.00  0.00     0.074 A 
ATOM     56  C   UNL A   1      43.421  27.324  31.579  1.00  0.00     0.031 C 
ATOM     57  C   UNL A   1      43.269  28.575  33.713  1.00  0.00     0.034 A 
BRANCH  44  58
ATOM     58  C   UNL A   1      40.194  33.099  36.603  1.00  0.00     0.023 A 
ATOM     59  C   UNL A   1      40.876  34.331  36.657  1.00  0.00     0.012 A 
ATOM     60  C   UNL A   1      39.356  32.724  37.671  1.00  0.00     0.148 A 
ATOM     61  C   UNL A   1      40.752  35.163  37.771  1.00  0.00     0.002 A 
ATOM     62  C   UNL A   1      39.200  33.579  38.755  1.00  0.00     0.091 A 
ATOM     63  F   UNL A   1      38.739  31.536  37.612  1.00  0.00    -0.205 F 
ATOM     64  C   UNL A   1      39.906  34.792  38.813  1.00  0.00     0.022 A 
BRANCH  62  65
ATOM     65  S   UNL A   1      38.075  33.226  40.110  1.00  0.00     0.127 S 
ATOM     66  O   UNL A   1      38.679  32.028  40.690  1.00  0.00    -0.237 OA
ATOM     67  O   UNL A   1      38.200  34.430  40.932  1.00  0.00    -0.237 OA
ATOM     68  O   UNL A   1      36.765  33.035  39.506  1.00  0.00    -0.744 OA
ENDBRANCH  62  65
ENDBRANCH  44  58
BRANCH  45  69
ATOM     69  C   UNL A   1      40.887  27.654  28.206  1.00  0.00     0.023 A 
ATOM     70  C   UNL A   1      41.545  28.224  27.101  1.00  0.00     0.012 A 
ATOM     71  C   UNL A   1      40.388  26.340  28.108  1.00  0.00     0.148 A 
ATOM     72  C   UNL A   1      41.677  27.511  25.908  1.00  0.00     0.002 A 
ATOM     73  C   UNL A   1      40.573  25.615  26.938  1.00  0.00     0.091 A 
ATOM     74  F   UNL A   1      39.752  25.822  29.167  1.00  0.00    -0.205 F 
ATOM     75  C   UNL A   1      41.202  26.205  25.830  1.00  0.00     0.022 A 
BRANCH  73  76
ATOM     76  S   UNL A   1      40.111  23.886  26.793  1.00  0.00     0.127 S 
ATOM     77  O   UNL A   1      40.067  23.469  28.191  1.00  0.00    -0.237 OA
ATOM     78  O   UNL A   1      38.808  23.976  26.133  1.00  0.00    -0.237 OA
ATOM     79  O   UNL A   1      41.151  23.267  25.982  1.00  0.00    -0.744 OA
ENDBRANCH  73  76
ENDBRANCH  45  69
BRANCH  57  80
ATOM     80  C   UNL A   1      44.452  27.790  34.215  1.00  0.00     0.023 A 
ATOM     81  C   UNL A   1      45.757  28.295  34.045  1.00  0.00     0.012 A 
ATOM     82  C   UNL A   1      44.262  26.585  34.921  1.00  0.00     0.148 A 
ATOM     83  C   UNL A   1      46.856  27.594  34.541  1.00  0.00     0.002 A 
ATOM     84  C   UNL A   1      45.356  25.921  35.458  1.00  0.00     0.091 A 
ATOM     85  F   UNL A   1      43.013  26.114  35.058  1.00  0.00    -0.205 F 
ATOM     86  C   UNL A   1      46.656  26.416  35.257  1.00  0.00     0.022 A 
BRANCH  84  87
ATOM     87  S   UNL A   1      45.186  24.454  36.480  1.00  0.00     0.127 S 
ATOM     88  O   UNL A   1      44.607  23.500  35.535  1.00  0.00    -0.237 OA
ATOM     89  O   UNL A   1      46.573  24.175  36.855  1.00  0.00    -0.237 OA
ATOM     90  O   UNL A   1      44.324  24.835  37.590  1.00  0.00    -0.744 OA
ENDBRANCH  84  87
ENDBRANCH  57  80
ENDBRANCH  31  32
ENDBRANCH  24  26
ENDBRANCH  23  24
ENDBRANCH  22  23
ENDBRANCH  21  22
ENDBRANCH  20  21
ENDBRANCH   1  20
TORSDOF 23
ENDMDL
