MODEL 1
REMARK VINA RESULT:      -7.0      0.000      0.000
REMARK SMILES COc1ccc([C@H]2CC(c3ccc(S(C)(=O)=O)cc3)=NN2c2ccc(C(=O)OCCOCCOC(=O)c3ccc(-c4c5nc(c(-c6cccc(S(=O)(=O)[O-])c6F)c6ccc([nH]6)c(-c6cccc(S(=O)(=O)[O-])c6F)c6nc(c(-c7cccc(S(=O)(=O)[O-])c7F)c7ccc4[nH]7)C=C6)C=C5)cc3)cc2)cc1OC
REMARK SMILES IDX 31 1 30 2 29 3 28 4 26 5 27 6 25 7 22 8 23 9 101 10 24 11
REMARK SMILES IDX 100 12 21 13 7 14 8 15 9 16 20 17 6 18 3 19 4 20 103 21 5 22
REMARK SMILES IDX 102 23 2 24 1 25 104 26 105 27 10 28 11 29 19 30 12 31 18 32
REMARK SMILES IDX 13 33 14 34 15 35 16 36 17 37 32 38 33 39 34 40 35 41 36 42
REMARK SMILES IDX 37 43 38 44 99 45 39 46 98 47 40 48 41 49 42 50 92 51 43 52
REMARK SMILES IDX 97 53 91 54 93 55 44 56 96 57 90 58 89 59 45 61 77 62 57 63
REMARK SMILES IDX 76 64 58 65 61 66 75 67 94 68 59 69 60 70 74 72 95 73 62 74
REMARK SMILES IDX 46 75 47 76 55 77 48 78 50 79 56 80 49 81 51 82 52 83 53 84
REMARK SMILES IDX 54 85 78 86 79 87 87 88 80 89 82 90 88 91 81 92 83 93 84 94
REMARK SMILES IDX 85 95 86 96 63 97 64 98 72 99 65 100 67 101 73 102 66 103
REMARK SMILES IDX 68 104 69 105 70 106 71 107
REMARK H PARENT 93 60 61 71
REMARK Flexibility Score: inf
ROOT
ATOM      1  O   UNL A   1      39.938  36.283  36.709  1.00  0.00    -0.374 OA
ENDROOT
BRANCH   1   2
ATOM      2  C   UNL A   1      39.639  35.297  35.721  1.00  0.00     0.202 C 
BRANCH   2   3
ATOM      3  C   UNL A   1      40.225  35.518  34.322  1.00  0.00     0.261 C 
BRANCH   3   4
ATOM      4  O   UNL A   1      41.150  34.485  33.955  1.00  0.00    -0.460 OA
BRANCH   4   5
ATOM      5  C   UNL A   1      42.235  34.913  33.264  1.00  0.00     0.338 C 
ATOM      6  O   UNL A   1      42.915  35.898  33.506  1.00  0.00    -0.246 OA
BRANCH   5   7
ATOM      7  C   UNL A   1      42.608  33.923  32.229  1.00  0.00     0.060 A 
ATOM      8  C   UNL A   1      43.519  32.196  30.209  1.00  0.00     0.060 A 
ATOM      9  C   UNL A   1      44.332  32.493  31.308  1.00  0.00     0.029 A 
ATOM     10  C   UNL A   1      42.211  32.705  30.186  1.00  0.00     0.029 A 
ATOM     11  C   UNL A   1      43.894  33.375  32.296  1.00  0.00     0.018 A 
ATOM     12  C   UNL A   1      41.745  33.552  31.198  1.00  0.00     0.018 A 
BRANCH   8  13
ATOM     13  N   UNL A   1      44.031  31.498  29.118  1.00  0.00    -0.257 N 
ATOM     14  C   UNL A   1      43.957  32.047  27.760  1.00  0.00     0.144 C 
ATOM     15  C   UNL A   1      44.822  31.070  26.959  1.00  0.00     0.091 C 
ATOM     16  C   UNL A   1      45.360  30.215  28.071  1.00  0.00     0.071 C 
ATOM     17  N   UNL A   1      44.931  30.486  29.264  1.00  0.00    -0.176 NA
BRANCH  14  18
ATOM     18  C   UNL A   1      44.469  33.482  27.669  1.00  0.00    -0.019 A 
ATOM     19  C   UNL A   1      45.435  36.130  27.508  1.00  0.00     0.160 A 
ATOM     20  C   UNL A   1      46.291  35.076  27.858  1.00  0.00     0.051 A 
ATOM     21  C   UNL A   1      44.101  35.866  27.182  1.00  0.00     0.161 A 
ATOM     22  C   UNL A   1      45.812  33.767  27.948  1.00  0.00     0.010 A 
ATOM     23  C   UNL A   1      43.636  34.545  27.272  1.00  0.00     0.056 A 
BRANCH  19  24
ATOM     24  O   UNL A   1      45.969  37.387  27.404  1.00  0.00    -0.493 OA
ATOM     25  C   UNL A   1      45.947  38.090  28.646  1.00  0.00     0.278 C 
ENDBRANCH  19  24
BRANCH  21  26
ATOM     26  O   UNL A   1      43.130  36.739  26.770  1.00  0.00    -0.493 OA
ATOM     27  C   UNL A   1      42.432  37.493  27.749  1.00  0.00     0.278 C 
ENDBRANCH  21  26
ENDBRANCH  14  18
BRANCH  16  28
ATOM     28  C   UNL A   1      46.258  29.092  27.772  1.00  0.00    -0.002 A 
ATOM     29  C   UNL A   1      46.044  28.363  26.598  1.00  0.00     0.011 A 
ATOM     30  C   UNL A   1      47.332  28.795  28.615  1.00  0.00     0.011 A 
ATOM     31  C   UNL A   1      46.926  27.340  26.248  1.00  0.00     0.021 A 
ATOM     32  C   UNL A   1      48.202  27.754  28.279  1.00  0.00     0.021 A 
ATOM     33  C   UNL A   1      47.996  27.034  27.097  1.00  0.00     0.067 A 
BRANCH  33  34
ATOM     34  S   UNL A   1      49.122  25.736  26.640  1.00  0.00     0.175 S 
ATOM     35  C   UNL A   1      50.730  26.455  26.845  1.00  0.00     0.163 C 
ATOM     36  O   UNL A   1      48.965  24.677  27.618  1.00  0.00    -0.224 OA
ATOM     37  O   UNL A   1      48.941  25.474  25.224  1.00  0.00    -0.224 OA
ENDBRANCH  33  34
ENDBRANCH  16  28
ENDBRANCH   8  13
ENDBRANCH   5   7
ENDBRANCH   4   5
ENDBRANCH   3   4
ENDBRANCH   2   3
ENDBRANCH   1   2
BRANCH   1  38
ATOM     38  C   UNL A   1      41.139  36.109  37.461  1.00  0.00     0.202 C 
BRANCH  38  39
ATOM     39  C   UNL A   1      41.021  35.344  38.786  1.00  0.00     0.261 C 
BRANCH  39  40
ATOM     40  O   UNL A   1      41.488  33.988  38.677  1.00  0.00    -0.460 OA
BRANCH  40  41
ATOM     41  C   UNL A   1      42.823  33.860  38.476  1.00  0.00     0.338 C 
ATOM     42  O   UNL A   1      43.717  34.377  39.122  1.00  0.00    -0.246 OA
BRANCH  41  43
ATOM     43  C   UNL A   1      43.079  32.841  37.440  1.00  0.00     0.060 A 
ATOM     44  C   UNL A   1      43.760  33.250  36.286  1.00  0.00     0.016 A 
ATOM     45  C   UNL A   1      42.604  31.534  37.558  1.00  0.00     0.016 A 
ATOM     46  C   UNL A   1      43.925  32.366  35.221  1.00  0.00     0.010 A 
ATOM     47  C   UNL A   1      42.764  30.650  36.485  1.00  0.00     0.010 A 
ATOM     48  C   UNL A   1      43.393  31.072  35.300  1.00  0.00    -0.014 A 
BRANCH  48  49
ATOM     49  C   UNL A   1      43.380  30.207  34.096  1.00  0.00     0.031 A 
ATOM     50  C   UNL A   1      42.147  30.168  33.234  1.00  0.00     0.074 A 
ATOM     51  C   UNL A   1      44.454  29.463  33.776  1.00  0.00     0.049 A 
ATOM     52  N   UNL A   1      41.914  29.463  32.157  1.00  0.00    -0.248 NA
ATOM     53  C   UNL A   1      41.029  31.034  33.641  1.00  0.00     0.031 C 
ATOM     54  C   UNL A   1      45.704  29.417  34.533  1.00  0.00     0.029 A 
ATOM     55  N   UNL A   1      44.653  28.582  32.742  1.00  0.00    -0.354 N 
ATOM     56  C   UNL A   1      40.615  29.777  31.774  1.00  0.00     0.074 A 
ATOM     57  C   UNL A   1      40.107  30.727  32.739  1.00  0.00     0.031 C 
ATOM     58  C   UNL A   1      46.530  28.528  33.954  1.00  0.00     0.029 A 
ATOM     59  C   UNL A   1      45.860  27.927  32.802  1.00  0.00     0.049 A 
ATOM     60  H   UNL A   1      43.993  28.433  32.027  1.00  0.00     0.167 HD
ATOM     61  C   UNL A   1      39.915  29.328  30.706  1.00  0.00     0.034 A 
ATOM     62  C   UNL A   1      46.357  26.943  32.029  1.00  0.00     0.034 A 
ATOM     63  C   UNL A   1      40.429  28.401  29.734  1.00  0.00     0.049 A 
ATOM     64  C   UNL A   1      45.551  26.448  30.856  1.00  0.00     0.074 A 
ATOM     65  C   UNL A   1      39.816  27.928  28.588  1.00  0.00     0.029 A 
ATOM     66  N   UNL A   1      41.675  27.798  29.800  1.00  0.00    -0.354 N 
ATOM     67  N   UNL A   1      44.376  26.850  30.434  1.00  0.00    -0.248 NA
ATOM     68  C   UNL A   1      46.153  25.389  30.032  1.00  0.00     0.031 C 
ATOM     69  C   UNL A   1      40.683  27.018  27.973  1.00  0.00     0.029 A 
ATOM     70  C   UNL A   1      41.845  26.946  28.722  1.00  0.00     0.049 A 
ATOM     71  H   UNL A   1      42.342  27.952  30.508  1.00  0.00     0.167 HD
ATOM     72  C   UNL A   1      44.115  26.120  29.279  1.00  0.00     0.074 A 
ATOM     73  C   UNL A   1      45.264  25.267  29.056  1.00  0.00     0.031 C 
ATOM     74  C   UNL A   1      43.017  26.143  28.481  1.00  0.00     0.034 A 
BRANCH  61  75
ATOM     75  C   UNL A   1      38.518  29.857  30.512  1.00  0.00     0.023 A 
ATOM     76  C   UNL A   1      37.414  29.038  30.826  1.00  0.00     0.012 A 
ATOM     77  C   UNL A   1      38.298  31.178  30.077  1.00  0.00     0.148 A 
ATOM     78  C   UNL A   1      36.112  29.517  30.685  1.00  0.00     0.002 A 
ATOM     79  C   UNL A   1      36.999  31.662  29.977  1.00  0.00     0.091 A 
ATOM     80  F   UNL A   1      39.360  31.933  29.760  1.00  0.00    -0.205 F 
ATOM     81  C   UNL A   1      35.905  30.830  30.272  1.00  0.00     0.022 A 
BRANCH  79  82
ATOM     82  S   UNL A   1      36.631  33.361  29.526  1.00  0.00     0.127 S 
ATOM     83  O   UNL A   1      35.188  33.301  29.302  1.00  0.00    -0.237 OA
ATOM     84  O   UNL A   1      37.032  34.094  30.729  1.00  0.00    -0.237 OA
ATOM     85  O   UNL A   1      37.435  33.647  28.347  1.00  0.00    -0.744 OA
ENDBRANCH  79  82
ENDBRANCH  61  75
BRANCH  62  86
ATOM     86  C   UNL A   1      47.707  26.380  32.318  1.00  0.00     0.023 A 
ATOM     87  C   UNL A   1      48.850  27.006  31.785  1.00  0.00     0.012 A 
ATOM     88  C   UNL A   1      47.865  25.240  33.129  1.00  0.00     0.148 A 
ATOM     89  C   UNL A   1      50.123  26.490  32.030  1.00  0.00     0.002 A 
ATOM     90  C   UNL A   1      49.139  24.763  33.415  1.00  0.00     0.091 A 
ATOM     91  F   UNL A   1      46.763  24.645  33.611  1.00  0.00    -0.205 F 
ATOM     92  C   UNL A   1      50.269  25.376  32.853  1.00  0.00     0.022 A 
BRANCH  90  93
ATOM     93  S   UNL A   1      49.424  23.415  34.568  1.00  0.00     0.127 S 
ATOM     94  O   UNL A   1      48.071  22.914  34.784  1.00  0.00    -0.237 OA
ATOM     95  O   UNL A   1      50.294  22.531  33.791  1.00  0.00    -0.237 OA
ATOM     96  O   UNL A   1      50.070  24.019  35.727  1.00  0.00    -0.744 OA
ENDBRANCH  90  93
ENDBRANCH  62  86
BRANCH  74  97
ATOM     97  C   UNL A   1      43.011  25.248  27.268  1.00  0.00     0.023 A 
ATOM     98  C   UNL A   1      43.591  25.695  26.065  1.00  0.00     0.012 A 
ATOM     99  C   UNL A   1      42.504  23.935  27.346  1.00  0.00     0.148 A 
ATOM    100  C   UNL A   1      43.638  24.861  24.948  1.00  0.00     0.002 A 
ATOM    101  C   UNL A   1      42.598  23.094  26.244  1.00  0.00     0.091 A 
ATOM    102  F   UNL A   1      41.941  23.534  28.495  1.00  0.00    -0.205 F 
ATOM    103  C   UNL A   1      43.154  23.558  25.041  1.00  0.00     0.022 A 
BRANCH 101 104
ATOM    104  S   UNL A   1      42.089  21.372  26.301  1.00  0.00     0.127 S 
ATOM    105  O   UNL A   1      43.036  20.750  25.378  1.00  0.00    -0.237 OA
ATOM    106  O   UNL A   1      42.297  21.031  27.709  1.00  0.00    -0.237 OA
ATOM    107  O   UNL A   1      40.695  21.352  25.876  1.00  0.00    -0.744 OA
ENDBRANCH 101 104
ENDBRANCH  74  97
ENDBRANCH  48  49
ENDBRANCH  41  43
ENDBRANCH  40  41
ENDBRANCH  39  40
ENDBRANCH  38  39
ENDBRANCH   1  38
TORSDOF 23
ENDMDL
MODEL 2
REMARK VINA RESULT:      -6.8      2.962     11.272
REMARK SMILES COc1ccc([C@H]2CC(c3ccc(S(C)(=O)=O)cc3)=NN2c2ccc(C(=O)OCCOCCOC(=O)c3ccc(-c4c5nc(c(-c6cccc(S(=O)(=O)[O-])c6F)c6ccc([nH]6)c(-c6cccc(S(=O)(=O)[O-])c6F)c6nc(c(-c7cccc(S(=O)(=O)[O-])c7F)c7ccc4[nH]7)C=C6)C=C5)cc3)cc2)cc1OC
REMARK SMILES IDX 31 1 30 2 29 3 28 4 26 5 27 6 25 7 22 8 23 9 101 10 24 11
REMARK SMILES IDX 100 12 21 13 7 14 8 15 9 16 20 17 6 18 3 19 4 20 103 21 5 22
REMARK SMILES IDX 102 23 2 24 1 25 104 26 105 27 10 28 11 29 19 30 12 31 18 32
REMARK SMILES IDX 13 33 14 34 15 35 16 36 17 37 32 38 33 39 34 40 35 41 36 42
REMARK SMILES IDX 37 43 38 44 99 45 39 46 98 47 40 48 41 49 42 50 92 51 43 52
REMARK SMILES IDX 97 53 91 54 93 55 44 56 96 57 90 58 89 59 45 61 77 62 57 63
REMARK SMILES IDX 76 64 58 65 61 66 75 67 94 68 59 69 60 70 74 72 95 73 62 74
REMARK SMILES IDX 46 75 47 76 55 77 48 78 50 79 56 80 49 81 51 82 52 83 53 84
REMARK SMILES IDX 54 85 78 86 79 87 87 88 80 89 82 90 88 91 81 92 83 93 84 94
REMARK SMILES IDX 85 95 86 96 63 97 64 98 72 99 65 100 67 101 73 102 66 103
REMARK SMILES IDX 68 104 69 105 70 106 71 107
REMARK H PARENT 93 60 61 71
REMARK Flexibility Score: inf
ROOT
ATOM      1  O   UNL A   1      54.086  28.423  30.433  1.00  0.00    -0.374 OA
ENDROOT
BRANCH   1   2
ATOM      2  C   UNL A   1      52.923  28.091  31.189  1.00  0.00     0.202 C 
BRANCH   2   3
ATOM      3  C   UNL A   1      51.808  27.341  30.452  1.00  0.00     0.261 C 
BRANCH   3   4
ATOM      4  O   UNL A   1      50.513  27.625  31.000  1.00  0.00    -0.460 OA
BRANCH   4   5
ATOM      5  C   UNL A   1      49.730  26.536  31.202  1.00  0.00     0.338 C 
ATOM      6  O   UNL A   1      50.059  25.366  31.084  1.00  0.00    -0.246 OA
BRANCH   5   7
ATOM      7  C   UNL A   1      48.417  26.943  31.752  1.00  0.00     0.060 A 
ATOM      8  C   UNL A   1      45.821  27.632  32.574  1.00  0.00     0.060 A 
ATOM      9  C   UNL A   1      46.129  26.310  32.235  1.00  0.00     0.029 A 
ATOM     10  C   UNL A   1      46.855  28.582  32.581  1.00  0.00     0.029 A 
ATOM     11  C   UNL A   1      47.410  25.972  31.797  1.00  0.00     0.018 A 
ATOM     12  C   UNL A   1      48.155  28.240  32.191  1.00  0.00     0.018 A 
BRANCH   8  13
ATOM     13  N   UNL A   1      44.500  28.015  32.797  1.00  0.00    -0.257 N 
ATOM     14  C   UNL A   1      43.454  27.021  33.062  1.00  0.00     0.144 C 
ATOM     15  C   UNL A   1      42.260  27.894  33.458  1.00  0.00     0.091 C 
ATOM     16  C   UNL A   1      42.915  29.246  33.489  1.00  0.00     0.071 C 
ATOM     17  N   UNL A   1      44.164  29.288  33.146  1.00  0.00    -0.176 NA
BRANCH  14  18
ATOM     18  C   UNL A   1      43.837  26.032  34.159  1.00  0.00    -0.019 A 
ATOM     19  C   UNL A   1      44.538  24.184  36.175  1.00  0.00     0.160 A 
ATOM     20  C   UNL A   1      44.119  23.740  34.912  1.00  0.00     0.051 A 
ATOM     21  C   UNL A   1      44.663  25.554  36.427  1.00  0.00     0.161 A 
ATOM     22  C   UNL A   1      43.762  24.653  33.917  1.00  0.00     0.010 A 
ATOM     23  C   UNL A   1      44.306  26.458  35.415  1.00  0.00     0.056 A 
BRANCH  19  24
ATOM     24  O   UNL A   1      44.907  23.243  37.099  1.00  0.00    -0.493 OA
ATOM     25  C   UNL A   1      46.255  22.806  36.922  1.00  0.00     0.278 C 
ENDBRANCH  19  24
BRANCH  21  26
ATOM     26  O   UNL A   1      45.100  26.180  37.564  1.00  0.00    -0.493 OA
ATOM     27  C   UNL A   1      46.457  26.588  37.636  1.00  0.00     0.278 C 
ENDBRANCH  21  26
ENDBRANCH  14  18
BRANCH  16  28
ATOM     28  C   UNL A   1      42.128  30.441  33.817  1.00  0.00    -0.002 A 
ATOM     29  C   UNL A   1      42.635  31.693  33.455  1.00  0.00     0.011 A 
ATOM     30  C   UNL A   1      40.877  30.325  34.429  1.00  0.00     0.011 A 
ATOM     31  C   UNL A   1      41.876  32.841  33.683  1.00  0.00     0.021 A 
ATOM     32  C   UNL A   1      40.126  31.476  34.683  1.00  0.00     0.021 A 
ATOM     33  C   UNL A   1      40.628  32.727  34.306  1.00  0.00     0.067 A 
BRANCH  33  34
ATOM     34  S   UNL A   1      39.661  34.192  34.586  1.00  0.00     0.175 S 
ATOM     35  C   UNL A   1      38.722  33.829  36.045  1.00  0.00     0.163 C 
ATOM     36  O   UNL A   1      40.592  35.261  34.893  1.00  0.00    -0.224 OA
ATOM     37  O   UNL A   1      38.722  34.317  33.486  1.00  0.00    -0.224 OA
ENDBRANCH  33  34
ENDBRANCH  16  28
ENDBRANCH   8  13
ENDBRANCH   5   7
ENDBRANCH   4   5
ENDBRANCH   3   4
ENDBRANCH   2   3
ENDBRANCH   1   2
BRANCH   1  38
ATOM     38  C   UNL A   1      54.176  29.754  29.924  1.00  0.00     0.202 C 
BRANCH  38  39
ATOM     39  C   UNL A   1      54.380  29.905  28.411  1.00  0.00     0.261 C 
BRANCH  39  40
ATOM     40  O   UNL A   1      53.141  29.838  27.683  1.00  0.00    -0.460 OA
BRANCH  40  41
ATOM     41  C   UNL A   1      52.440  30.998  27.648  1.00  0.00     0.338 C 
ATOM     42  O   UNL A   1      52.820  32.077  27.228  1.00  0.00    -0.246 OA
BRANCH  41  43
ATOM     43  C   UNL A   1      51.039  30.749  28.040  1.00  0.00     0.060 A 
ATOM     44  C   UNL A   1      50.088  30.653  27.015  1.00  0.00     0.016 A 
ATOM     45  C   UNL A   1      50.649  30.682  29.379  1.00  0.00     0.016 A 
ATOM     46  C   UNL A   1      48.734  30.540  27.326  1.00  0.00     0.010 A 
ATOM     47  C   UNL A   1      49.288  30.576  29.689  1.00  0.00     0.010 A 
ATOM     48  C   UNL A   1      48.324  30.541  28.666  1.00  0.00    -0.014 A 
BRANCH  48  49
ATOM     49  C   UNL A   1      46.881  30.635  28.993  1.00  0.00     0.031 A 
ATOM     50  C   UNL A   1      46.052  29.380  29.024  1.00  0.00     0.074 A 
ATOM     51  C   UNL A   1      46.314  31.827  29.256  1.00  0.00     0.049 A 
ATOM     52  N   UNL A   1      44.773  29.239  29.259  1.00  0.00    -0.248 NA
ATOM     53  C   UNL A   1      46.756  28.116  28.752  1.00  0.00     0.031 C 
ATOM     54  C   UNL A   1      47.013  33.111  29.255  1.00  0.00     0.029 A 
ATOM     55  N   UNL A   1      45.013  32.151  29.549  1.00  0.00    -0.354 N 
ATOM     56  C   UNL A   1      44.513  27.879  29.134  1.00  0.00     0.074 A 
ATOM     57  C   UNL A   1      45.764  27.238  28.792  1.00  0.00     0.031 C 
ATOM     58  C   UNL A   1      46.125  34.089  29.505  1.00  0.00     0.029 A 
ATOM     59  C   UNL A   1      44.795  33.503  29.660  1.00  0.00     0.049 A 
ATOM     60  H   UNL A   1      44.304  31.478  29.667  1.00  0.00     0.167 HD
ATOM     61  C   UNL A   1      43.343  27.221  29.306  1.00  0.00     0.034 A 
ATOM     62  C   UNL A   1      43.650  34.190  29.845  1.00  0.00     0.034 A 
ATOM     63  C   UNL A   1      42.104  27.857  29.668  1.00  0.00     0.049 A 
ATOM     64  C   UNL A   1      42.358  33.435  30.015  1.00  0.00     0.074 A 
ATOM     65  C   UNL A   1      40.877  27.268  29.918  1.00  0.00     0.029 A 
ATOM     66  N   UNL A   1      41.932  29.223  29.822  1.00  0.00    -0.354 N 
ATOM     67  N   UNL A   1      42.153  32.139  30.023  1.00  0.00    -0.248 NA
ATOM     68  C   UNL A   1      41.143  34.234  30.238  1.00  0.00     0.031 C 
ATOM     69  C   UNL A   1      39.956  28.284  30.198  1.00  0.00     0.029 A 
ATOM     70  C   UNL A   1      40.616  29.500  30.149  1.00  0.00     0.049 A 
ATOM     71  H   UNL A   1      42.641  29.898  29.714  1.00  0.00     0.167 HD
ATOM     72  C   UNL A   1      40.797  31.968  30.285  1.00  0.00     0.074 A 
ATOM     73  C   UNL A   1      40.234  33.292  30.452  1.00  0.00     0.031 C 
ATOM     74  C   UNL A   1      40.080  30.819  30.368  1.00  0.00     0.034 A 
BRANCH  61  75
ATOM     75  C   UNL A   1      43.348  25.725  29.132  1.00  0.00     0.023 A 
ATOM     76  C   UNL A   1      43.820  24.904  30.176  1.00  0.00     0.012 A 
ATOM     77  C   UNL A   1      42.831  25.130  27.964  1.00  0.00     0.148 A 
ATOM     78  C   UNL A   1      43.804  23.516  30.050  1.00  0.00     0.002 A 
ATOM     79  C   UNL A   1      42.781  23.745  27.862  1.00  0.00     0.091 A 
ATOM     80  F   UNL A   1      42.409  25.929  26.972  1.00  0.00    -0.205 F 
ATOM     81  C   UNL A   1      43.275  22.937  28.900  1.00  0.00     0.022 A 
BRANCH  79  82
ATOM     82  S   UNL A   1      42.050  22.905  26.453  1.00  0.00     0.127 S 
ATOM     83  O   UNL A   1      42.280  21.502  26.794  1.00  0.00    -0.237 OA
ATOM     84  O   UNL A   1      40.651  23.330  26.532  1.00  0.00    -0.237 OA
ATOM     85  O   UNL A   1      42.764  23.389  25.281  1.00  0.00    -0.744 OA
ENDBRANCH  79  82
ENDBRANCH  61  75
BRANCH  62  86
ATOM     86  C   UNL A   1      43.679  35.679  29.913  1.00  0.00     0.023 A 
ATOM     87  C   UNL A   1      43.942  36.313  31.142  1.00  0.00     0.012 A 
ATOM     88  C   UNL A   1      43.463  36.467  28.766  1.00  0.00     0.148 A 
ATOM     89  C   UNL A   1      43.959  37.705  31.234  1.00  0.00     0.002 A 
ATOM     90  C   UNL A   1      43.538  37.852  28.853  1.00  0.00     0.091 A 
ATOM     91  F   UNL A   1      43.195  35.845  27.609  1.00  0.00    -0.205 F 
ATOM     92  C   UNL A   1      43.769  38.474  30.089  1.00  0.00     0.022 A 
BRANCH  90  93
ATOM     93  S   UNL A   1      43.433  38.913  27.407  1.00  0.00     0.127 S 
ATOM     94  O   UNL A   1      44.551  38.433  26.601  1.00  0.00    -0.237 OA
ATOM     95  O   UNL A   1      42.107  38.582  26.883  1.00  0.00    -0.237 OA
ATOM     96  O   UNL A   1      43.553  40.276  27.910  1.00  0.00    -0.744 OA
ENDBRANCH  90  93
ENDBRANCH  62  86
BRANCH  74  97
ATOM     97  C   UNL A   1      38.611  30.930  30.686  1.00  0.00     0.023 A 
ATOM     98  C   UNL A   1      38.171  30.798  32.018  1.00  0.00     0.012 A 
ATOM     99  C   UNL A   1      37.678  31.246  29.678  1.00  0.00     0.148 A 
ATOM    100  C   UNL A   1      36.822  30.947  32.337  1.00  0.00     0.002 A 
ATOM    101  C   UNL A   1      36.342  31.440  30.011  1.00  0.00     0.091 A 
ATOM    102  F   UNL A   1      38.113  31.350  28.414  1.00  0.00    -0.205 F 
ATOM    103  C   UNL A   1      35.911  31.281  31.337  1.00  0.00     0.022 A 
BRANCH 101 104
ATOM    104  S   UNL A   1      35.117  31.964  28.807  1.00  0.00     0.127 S 
ATOM    105  O   UNL A   1      35.883  32.905  27.992  1.00  0.00    -0.237 OA
ATOM    106  O   UNL A   1      34.782  30.708  28.135  1.00  0.00    -0.237 OA
ATOM    107  O   UNL A   1      34.024  32.547  29.575  1.00  0.00    -0.744 OA
ENDBRANCH 101 104
ENDBRANCH  74  97
ENDBRANCH  48  49
ENDBRANCH  41  43
ENDBRANCH  40  41
ENDBRANCH  39  40
ENDBRANCH  38  39
ENDBRANCH   1  38
TORSDOF 23
ENDMDL
MODEL 3
REMARK VINA RESULT:      -6.6      6.034     12.731
REMARK SMILES COc1ccc([C@H]2CC(c3ccc(S(C)(=O)=O)cc3)=NN2c2ccc(C(=O)OCCOCCOC(=O)c3ccc(-c4c5nc(c(-c6cccc(S(=O)(=O)[O-])c6F)c6ccc([nH]6)c(-c6cccc(S(=O)(=O)[O-])c6F)c6nc(c(-c7cccc(S(=O)(=O)[O-])c7F)c7ccc4[nH]7)C=C6)C=C5)cc3)cc2)cc1OC
REMARK SMILES IDX 31 1 30 2 29 3 28 4 26 5 27 6 25 7 22 8 23 9 101 10 24 11
REMARK SMILES IDX 100 12 21 13 7 14 8 15 9 16 20 17 6 18 3 19 4 20 103 21 5 22
REMARK SMILES IDX 102 23 2 24 1 25 104 26 105 27 10 28 11 29 19 30 12 31 18 32
REMARK SMILES IDX 13 33 14 34 15 35 16 36 17 37 32 38 33 39 34 40 35 41 36 42
REMARK SMILES IDX 37 43 38 44 99 45 39 46 98 47 40 48 41 49 42 50 92 51 43 52
REMARK SMILES IDX 97 53 91 54 93 55 44 56 96 57 90 58 89 59 45 61 77 62 57 63
REMARK SMILES IDX 76 64 58 65 61 66 75 67 94 68 59 69 60 70 74 72 95 73 62 74
REMARK SMILES IDX 46 75 47 76 55 77 48 78 50 79 56 80 49 81 51 82 52 83 53 84
REMARK SMILES IDX 54 85 78 86 79 87 87 88 80 89 82 90 88 91 81 92 83 93 84 94
REMARK SMILES IDX 85 95 86 96 63 97 64 98 72 99 65 100 67 101 73 102 66 103
REMARK SMILES IDX 68 104 69 105 70 106 71 107
REMARK H PARENT 93 60 61 71
REMARK Flexibility Score: inf
ROOT
ATOM      1  O   UNL A   1      43.078  42.255  22.540  1.00  0.00    -0.374 OA
ENDROOT
BRANCH   1   2
ATOM      2  C   UNL A   1      42.395  42.865  21.445  1.00  0.00     0.202 C 
BRANCH   2   3
ATOM      3  C   UNL A   1      43.263  43.562  20.390  1.00  0.00     0.261 C 
BRANCH   3   4
ATOM      4  O   UNL A   1      44.656  43.534  20.732  1.00  0.00    -0.460 OA
BRANCH   4   5
ATOM      5  C   UNL A   1      45.154  44.712  21.183  1.00  0.00     0.338 C 
ATOM      6  O   UNL A   1      45.195  45.770  20.575  1.00  0.00    -0.246 OA
BRANCH   5   7
ATOM      7  C   UNL A   1      45.523  44.600  22.612  1.00  0.00     0.060 A 
ATOM      8  C   UNL A   1      46.151  44.139  25.311  1.00  0.00     0.060 A 
ATOM      9  C   UNL A   1      46.785  43.407  24.301  1.00  0.00     0.029 A 
ATOM     10  C   UNL A   1      45.267  45.165  24.942  1.00  0.00     0.029 A 
ATOM     11  C   UNL A   1      46.451  43.613  22.962  1.00  0.00     0.018 A 
ATOM     12  C   UNL A   1      44.964  45.412  23.599  1.00  0.00     0.018 A 
BRANCH   8  13
ATOM     13  N   UNL A   1      46.316  43.786  26.649  1.00  0.00    -0.257 N 
ATOM     14  C   UNL A   1      47.636  43.820  27.287  1.00  0.00     0.144 C 
ATOM     15  C   UNL A   1      47.298  43.585  28.762  1.00  0.00     0.091 C 
ATOM     16  C   UNL A   1      45.797  43.614  28.700  1.00  0.00     0.071 C 
ATOM     17  N   UNL A   1      45.272  43.754  27.523  1.00  0.00    -0.176 NA
BRANCH  14  18
ATOM     18  C   UNL A   1      48.372  45.138  27.065  1.00  0.00    -0.019 A 
ATOM     19  C   UNL A   1      49.749  47.567  26.643  1.00  0.00     0.160 A 
ATOM     20  C   UNL A   1      50.180  46.384  26.026  1.00  0.00     0.051 A 
ATOM     21  C   UNL A   1      48.596  47.561  27.435  1.00  0.00     0.161 A 
ATOM     22  C   UNL A   1      49.505  45.179  26.242  1.00  0.00     0.010 A 
ATOM     23  C   UNL A   1      47.927  46.344  27.637  1.00  0.00     0.056 A 
BRANCH  19  24
ATOM     24  O   UNL A   1      50.430  48.722  26.368  1.00  0.00    -0.493 OA
ATOM     25  C   UNL A   1      51.163  48.643  25.146  1.00  0.00     0.278 C 
ENDBRANCH  19  24
BRANCH  21  26
ATOM     26  O   UNL A   1      47.990  48.609  28.074  1.00  0.00    -0.493 OA
ATOM     27  C   UNL A   1      48.660  49.221  29.165  1.00  0.00     0.278 C 
ENDBRANCH  21  26
ENDBRANCH  14  18
BRANCH  16  28
ATOM     28  C   UNL A   1      45.003  43.409  29.918  1.00  0.00    -0.002 A 
ATOM     29  C   UNL A   1      44.892  42.113  30.432  1.00  0.00     0.011 A 
ATOM     30  C   UNL A   1      44.417  44.493  30.577  1.00  0.00     0.011 A 
ATOM     31  C   UNL A   1      44.209  41.898  31.629  1.00  0.00     0.021 A 
ATOM     32  C   UNL A   1      43.709  44.276  31.763  1.00  0.00     0.021 A 
ATOM     33  C   UNL A   1      43.612  42.981  32.284  1.00  0.00     0.067 A 
BRANCH  33  34
ATOM     34  S   UNL A   1      42.751  42.702  33.814  1.00  0.00     0.175 S 
ATOM     35  C   UNL A   1      41.893  44.224  34.121  1.00  0.00     0.163 C 
ATOM     36  O   UNL A   1      41.770  41.664  33.564  1.00  0.00    -0.224 OA
ATOM     37  O   UNL A   1      43.748  42.549  34.858  1.00  0.00    -0.224 OA
ENDBRANCH  33  34
ENDBRANCH  16  28
ENDBRANCH   8  13
ENDBRANCH   5   7
ENDBRANCH   4   5
ENDBRANCH   3   4
ENDBRANCH   2   3
ENDBRANCH   1   2
BRANCH   1  38
ATOM     38  C   UNL A   1      42.761  42.728  23.850  1.00  0.00     0.202 C 
BRANCH  38  39
ATOM     39  C   UNL A   1      43.078  41.788  25.021  1.00  0.00     0.261 C 
BRANCH  39  40
ATOM     40  O   UNL A   1      42.210  40.642  25.052  1.00  0.00    -0.460 OA
BRANCH  40  41
ATOM     41  C   UNL A   1      41.519  40.484  26.208  1.00  0.00     0.338 C 
ATOM     42  O   UNL A   1      40.547  41.118  26.578  1.00  0.00    -0.246 OA
BRANCH  41  43
ATOM     43  C   UNL A   1      42.003  39.286  26.921  1.00  0.00     0.060 A 
ATOM     44  C   UNL A   1      41.998  38.073  26.221  1.00  0.00     0.016 A 
ATOM     45  C   UNL A   1      42.384  39.330  28.263  1.00  0.00     0.016 A 
ATOM     46  C   UNL A   1      42.328  36.887  26.875  1.00  0.00     0.010 A 
ATOM     47  C   UNL A   1      42.707  38.138  28.920  1.00  0.00     0.010 A 
ATOM     48  C   UNL A   1      42.646  36.908  28.239  1.00  0.00    -0.014 A 
BRANCH  48  49
ATOM     49  C   UNL A   1      42.787  35.633  28.982  1.00  0.00     0.031 A 
ATOM     50  C   UNL A   1      44.150  35.010  29.119  1.00  0.00     0.074 A 
ATOM     51  C   UNL A   1      41.711  35.034  29.526  1.00  0.00     0.049 A 
ATOM     52  N   UNL A   1      44.493  33.890  29.700  1.00  0.00    -0.248 NA
ATOM     53  C   UNL A   1      45.275  35.746  28.518  1.00  0.00     0.031 C 
ATOM     54  C   UNL A   1      40.341  35.539  29.460  1.00  0.00     0.029 A 
ATOM     55  N   UNL A   1      41.604  33.854  30.219  1.00  0.00    -0.354 N 
ATOM     56  C   UNL A   1      45.864  33.771  29.511  1.00  0.00     0.074 A 
ATOM     57  C   UNL A   1      46.290  34.926  28.752  1.00  0.00     0.031 C 
ATOM     58  C   UNL A   1      39.524  34.658  30.062  1.00  0.00     0.029 A 
ATOM     59  C   UNL A   1      40.308  33.519  30.534  1.00  0.00     0.049 A 
ATOM     60  H   UNL A   1      42.379  33.301  30.466  1.00  0.00     0.167 HD
ATOM     61  C   UNL A   1      46.698  32.796  29.945  1.00  0.00     0.034 A 
ATOM     62  C   UNL A   1      39.812  32.411  31.118  1.00  0.00     0.034 A 
ATOM     63  C   UNL A   1      46.277  31.659  30.720  1.00  0.00     0.049 A 
ATOM     64  C   UNL A   1      40.758  31.332  31.576  1.00  0.00     0.074 A 
ATOM     65  C   UNL A   1      47.055  30.646  31.252  1.00  0.00     0.029 A 
ATOM     66  N   UNL A   1      44.965  31.379  31.063  1.00  0.00    -0.354 N 
ATOM     67  N   UNL A   1      42.068  31.297  31.504  1.00  0.00    -0.248 NA
ATOM     68  C   UNL A   1      40.164  30.156  32.229  1.00  0.00     0.031 C 
ATOM     69  C   UNL A   1      46.208  29.739  31.897  1.00  0.00     0.029 A 
ATOM     70  C   UNL A   1      44.907  30.201  31.789  1.00  0.00     0.049 A 
ATOM     71  H   UNL A   1      44.187  31.934  30.827  1.00  0.00     0.167 HD
ATOM     72  C   UNL A   1      42.454  30.117  32.131  1.00  0.00     0.074 A 
ATOM     73  C   UNL A   1      41.241  29.476  32.596  1.00  0.00     0.031 C 
ATOM     74  C   UNL A   1      43.698  29.602  32.295  1.00  0.00     0.034 A 
BRANCH  61  75
ATOM     75  C   UNL A   1      48.162  32.928  29.617  1.00  0.00     0.023 A 
ATOM     76  C   UNL A   1      49.037  33.504  30.560  1.00  0.00     0.012 A 
ATOM     77  C   UNL A   1      48.680  32.430  28.406  1.00  0.00     0.148 A 
ATOM     78  C   UNL A   1      50.402  33.608  30.291  1.00  0.00     0.002 A 
ATOM     79  C   UNL A   1      50.047  32.499  28.162  1.00  0.00     0.091 A 
ATOM     80  F   UNL A   1      47.828  31.907  27.512  1.00  0.00    -0.205 F 
ATOM     81  C   UNL A   1      50.907  33.096  29.099  1.00  0.00     0.022 A 
BRANCH  79  82
ATOM     82  S   UNL A   1      50.804  31.801  26.690  1.00  0.00     0.127 S 
ATOM     83  O   UNL A   1      50.361  30.410  26.762  1.00  0.00    -0.237 OA
ATOM     84  O   UNL A   1      50.181  32.585  25.622  1.00  0.00    -0.237 OA
ATOM     85  O   UNL A   1      52.237  32.010  26.838  1.00  0.00    -0.744 OA
ENDBRANCH  79  82
ENDBRANCH  61  75
BRANCH  62  86
ATOM     86  C   UNL A   1      38.343  32.279  31.336  1.00  0.00     0.023 A 
ATOM     87  C   UNL A   1      37.599  31.389  30.538  1.00  0.00     0.012 A 
ATOM     88  C   UNL A   1      37.683  33.018  32.337  1.00  0.00     0.148 A 
ATOM     89  C   UNL A   1      36.221  31.259  30.713  1.00  0.00     0.002 A 
ATOM     90  C   UNL A   1      36.320  32.843  32.544  1.00  0.00     0.091 A 
ATOM     91  F   UNL A   1      38.405  33.876  33.074  1.00  0.00    -0.205 F 
ATOM     92  C   UNL A   1      35.583  31.977  31.722  1.00  0.00     0.022 A 
BRANCH  90  93
ATOM     93  S   UNL A   1      35.445  33.628  33.902  1.00  0.00     0.127 S 
ATOM     94  O   UNL A   1      35.642  35.044  33.607  1.00  0.00    -0.237 OA
ATOM     95  O   UNL A   1      34.079  33.140  33.706  1.00  0.00    -0.237 OA
ATOM     96  O   UNL A   1      36.085  33.138  35.117  1.00  0.00    -0.744 OA
ENDBRANCH  90  93
ENDBRANCH  62  86
BRANCH  74  97
ATOM     97  C   UNL A   1      43.827  28.297  33.039  1.00  0.00     0.023 A 
ATOM     98  C   UNL A   1      43.956  27.092  32.321  1.00  0.00     0.012 A 
ATOM     99  C   UNL A   1      43.902  28.276  34.446  1.00  0.00     0.148 A 
ATOM    100  C   UNL A   1      44.126  25.882  32.993  1.00  0.00     0.002 A 
ATOM    101  C   UNL A   1      44.120  27.072  35.107  1.00  0.00     0.091 A 
ATOM    102  F   UNL A   1      43.759  29.431  35.112  1.00  0.00    -0.205 F 
ATOM    103  C   UNL A   1      44.221  25.874  34.383  1.00  0.00     0.022 A 
BRANCH 101 104
ATOM    104  S   UNL A   1      44.350  26.979  36.886  1.00  0.00     0.127 S 
ATOM    105  O   UNL A   1      43.054  27.442  37.378  1.00  0.00    -0.237 OA
ATOM    106  O   UNL A   1      44.607  25.553  37.093  1.00  0.00    -0.237 OA
ATOM    107  O   UNL A   1      45.481  27.846  37.190  1.00  0.00    -0.744 OA
ENDBRANCH 101 104
ENDBRANCH  74  97
ENDBRANCH  48  49
ENDBRANCH  41  43
ENDBRANCH  40  41
ENDBRANCH  39  40
ENDBRANCH  38  39
ENDBRANCH   1  38
TORSDOF 23
ENDMDL
