MODEL 1
REMARK VINA RESULT:     -14.9      0.000      0.000
REMARK SMILES CCc1cccc(C)c1Nc1ccccc1CC(=O)OCCOCCOC(=O)c1ccc(-c2c3nc(c(-c4cccc(S(=O)(=O)[O-])c4F)c4ccc([nH]4)c(-c4cccc(S(=O)(=O)[O-])c4F)c4nc(c(-c5cccc(S(=O)(=O)[O-])c5F)c5ccc2[nH]5)C=C4)C=C3)cc1
REMARK SMILES IDX 22 1 21 2 20 3 18 4 19 5 17 6 16 7 11 8 12 9 13 10 15 11
REMARK SMILES IDX 14 12 10 13 9 15 3 16 4 17 5 18 7 19 6 20 8 21 2 22 1 23
REMARK SMILES IDX 23 24 24 25 25 26 26 27 27 28 28 29 29 30 30 31 91 32 31 33
REMARK SMILES IDX 90 34 32 35 33 36 34 37 84 38 35 39 89 40 83 41 85 42 36 43
REMARK SMILES IDX 88 44 82 45 81 46 37 48 69 49 49 50 68 51 50 52 53 53 67 54
REMARK SMILES IDX 86 55 51 56 52 57 66 59 87 60 54 61 38 62 39 63 47 64 40 65
REMARK SMILES IDX 42 66 48 67 41 68 43 69 44 70 45 71 46 72 70 73 71 74 79 75
REMARK SMILES IDX 72 76 74 77 80 78 73 79 75 80 76 81 77 82 78 83 55 84 56 85
REMARK SMILES IDX 64 86 57 87 59 88 65 89 58 90 60 91 61 92 62 93 63 94
REMARK H PARENT 10 14 85 47 53 58
REMARK Flexibility Score: inf
ROOT
ATOM      1  C   UNL A   1      36.482  20.450  25.089  1.00  0.00     0.202 C 
ENDROOT
BRANCH   1   2
ATOM      2  C   UNL A   1      35.555  18.731  24.729  1.00  0.00     0.261 C 
BRANCH   2   3
ATOM      3  O   UNL A   1      33.750  18.717  24.364  1.00  0.00    -0.463 OA
BRANCH   3   4
ATOM      4  C   UNL A   1      32.685  19.471  23.791  1.00  0.00     0.310 C 
ATOM      5  O   UNL A   1      32.068  18.894  22.873  1.00  0.00    -0.252 OA
BRANCH   4   6
ATOM      6  C   UNL A   1      32.147  21.042  24.020  1.00  0.00     0.160 C 
BRANCH   6   7
ATOM      7  C   UNL A   1      32.421  22.694  23.403  1.00  0.00    -0.013 A 
ATOM      8  C   UNL A   1      31.567  24.083  22.980  1.00  0.00     0.042 A 
ATOM      9  C   UNL A   1      32.308  25.161  22.487  1.00  0.00     0.026 A 
ATOM     10  C   UNL A   1      33.719  25.031  22.431  1.00  0.00     0.002 A 
ATOM     11  C   UNL A   1      33.816  22.716  23.215  1.00  0.00     0.006 A 
ATOM     12  C   UNL A   1      34.442  23.872  22.790  1.00  0.00     0.000 A 
BRANCH   8  13
ATOM     13  N   UNL A   1      30.007  24.677  23.665  1.00  0.00    -0.355 N 
ATOM     14  H   UNL A   1      29.186  24.262  23.316  1.00  0.00     0.167 HD
BRANCH  13  15
ATOM     15  C   UNL A   1      29.787  26.004  24.970  1.00  0.00     0.045 A 
ATOM     16  C   UNL A   1      30.932  25.748  26.299  1.00  0.00    -0.024 A 
ATOM     17  C   UNL A   1      32.001  27.037  26.785  1.00  0.00     0.006 A 
ATOM     18  C   UNL A   1      32.287  28.469  25.905  1.00  0.00     0.001 A 
ATOM     19  C   UNL A   1      29.796  27.777  24.056  1.00  0.00    -0.027 A 
ATOM     20  C   UNL A   1      31.331  28.837  24.507  1.00  0.00     0.005 A 
ATOM     21  C   UNL A   1      28.506  28.314  22.789  1.00  0.00     0.046 C 
BRANCH  16  22
ATOM     22  C   UNL A   1      31.786  24.487  26.521  1.00  0.00     0.034 C 
ATOM     23  C   UNL A   1      31.015  23.206  26.815  1.00  0.00     0.009 C 
ENDBRANCH  16  22
ENDBRANCH  13  15
ENDBRANCH   8  13
ENDBRANCH   6   7
ENDBRANCH   4   6
ENDBRANCH   3   4
ENDBRANCH   2   3
ENDBRANCH   1   2
BRANCH   1  24
ATOM     24  O   UNL A   1      35.290  21.634  26.176  1.00  0.00    -0.374 OA
BRANCH  24  25
ATOM     25  C   UNL A   1      35.708  23.361  26.182  1.00  0.00     0.202 C 
BRANCH  25  26
ATOM     26  C   UNL A   1      37.838  23.534  26.052  1.00  0.00     0.261 C 
BRANCH  26  27
ATOM     27  O   UNL A   1      38.813  24.780  27.078  1.00  0.00    -0.460 OA
BRANCH  27  28
ATOM     28  C   UNL A   1      39.651  25.824  27.710  1.00  0.00     0.338 C 
ATOM     29  O   UNL A   1      39.133  26.379  28.687  1.00  0.00    -0.246 OA
BRANCH  28  30
ATOM     30  C   UNL A   1      41.190  26.481  27.368  1.00  0.00     0.060 A 
ATOM     31  C   UNL A   1      42.358  26.273  28.105  1.00  0.00     0.016 A 
ATOM     32  C   UNL A   1      41.544  27.363  26.372  1.00  0.00     0.016 A 
ATOM     33  C   UNL A   1      43.271  27.338  28.457  1.00  0.00     0.010 A 
ATOM     34  C   UNL A   1      42.341  28.502  26.751  1.00  0.00     0.010 A 
ATOM     35  C   UNL A   1      43.031  28.596  27.982  1.00  0.00    -0.014 A 
BRANCH  35  36
ATOM     36  C   UNL A   1      43.065  29.905  28.823  1.00  0.00     0.031 A 
ATOM     37  C   UNL A   1      41.790  30.427  29.413  1.00  0.00     0.074 A 
ATOM     38  C   UNL A   1      44.207  30.435  29.419  1.00  0.00     0.049 A 
ATOM     39  N   UNL A   1      41.616  31.653  29.792  1.00  0.00    -0.248 NA
ATOM     40  C   UNL A   1      40.569  29.644  29.562  1.00  0.00     0.031 C 
ATOM     41  C   UNL A   1      44.263  31.196  30.703  1.00  0.00     0.029 A 
ATOM     42  N   UNL A   1      45.573  30.223  29.189  1.00  0.00    -0.354 N 
ATOM     43  C   UNL A   1      40.410  31.707  30.465  1.00  0.00     0.074 A 
ATOM     44  C   UNL A   1      39.711  30.549  30.022  1.00  0.00     0.031 C 
ATOM     45  C   UNL A   1      45.531  31.455  31.066  1.00  0.00     0.029 A 
ATOM     46  C   UNL A   1      46.401  31.023  30.005  1.00  0.00     0.049 A 
ATOM     47  H   UNL A   1      45.920  29.582  28.526  1.00  0.00     0.167 HD
ATOM     48  C   UNL A   1      40.197  32.589  31.483  1.00  0.00     0.034 A 
ATOM     49  C   UNL A   1      47.425  31.776  29.508  1.00  0.00     0.034 A 
ATOM     50  C   UNL A   1      41.424  33.402  31.725  1.00  0.00     0.049 A 
ATOM     51  C   UNL A   1      46.848  33.174  29.306  1.00  0.00     0.074 A 
ATOM     52  C   UNL A   1      42.341  33.551  32.753  1.00  0.00     0.029 A 
ATOM     53  N   UNL A   1      42.046  33.995  30.632  1.00  0.00    -0.354 N 
ATOM     54  N   UNL A   1      45.990  33.747  30.118  1.00  0.00    -0.248 NA
ATOM     55  C   UNL A   1      47.056  33.946  28.087  1.00  0.00     0.031 C 
ATOM     56  C   UNL A   1      43.517  34.210  32.225  1.00  0.00     0.029 A 
ATOM     57  C   UNL A   1      43.303  34.522  30.892  1.00  0.00     0.049 A 
ATOM     58  H   UNL A   1      41.628  34.036  29.742  1.00  0.00     0.167 HD
ATOM     59  C   UNL A   1      45.252  34.656  29.393  1.00  0.00     0.074 A 
ATOM     60  C   UNL A   1      46.023  34.799  28.154  1.00  0.00     0.031 C 
ATOM     61  C   UNL A   1      44.018  35.152  29.764  1.00  0.00     0.034 A 
BRANCH  48  62
ATOM     62  C   UNL A   1      38.925  32.633  32.366  1.00  0.00     0.023 A 
ATOM     63  C   UNL A   1      39.102  32.353  33.736  1.00  0.00     0.012 A 
ATOM     64  C   UNL A   1      37.574  32.937  31.998  1.00  0.00     0.148 A 
ATOM     65  C   UNL A   1      38.044  32.376  34.664  1.00  0.00     0.002 A 
ATOM     66  C   UNL A   1      36.525  33.007  32.926  1.00  0.00     0.091 A 
ATOM     67  F   UNL A   1      37.227  33.103  30.727  1.00  0.00    -0.205 F 
ATOM     68  C   UNL A   1      36.758  32.716  34.266  1.00  0.00     0.022 A 
BRANCH  66  69
ATOM     69  S   UNL A   1      34.827  33.465  32.473  1.00  0.00     0.127 S 
ATOM     70  O   UNL A   1      34.176  33.561  33.781  1.00  0.00    -0.237 OA
ATOM     71  O   UNL A   1      35.017  34.748  31.798  1.00  0.00    -0.237 OA
ATOM     72  O   UNL A   1      34.317  32.399  31.619  1.00  0.00    -0.744 OA
ENDBRANCH  66  69
ENDBRANCH  48  62
BRANCH  49  73
ATOM     73  C   UNL A   1      48.263  30.935  28.591  1.00  0.00     0.023 A 
ATOM     74  C   UNL A   1      49.214  30.096  29.240  1.00  0.00     0.012 A 
ATOM     75  C   UNL A   1      47.778  30.550  27.331  1.00  0.00     0.148 A 
ATOM     76  C   UNL A   1      49.514  28.825  28.744  1.00  0.00     0.002 A 
ATOM     77  C   UNL A   1      48.066  29.275  26.857  1.00  0.00     0.091 A 
ATOM     78  F   UNL A   1      46.914  31.351  26.698  1.00  0.00    -0.205 F 
ATOM     79  C   UNL A   1      48.897  28.400  27.580  1.00  0.00     0.022 A 
BRANCH  77  80
ATOM     80  S   UNL A   1      47.110  28.536  25.537  1.00  0.00     0.127 S 
ATOM     81  O   UNL A   1      48.111  27.880  24.712  1.00  0.00    -0.237 OA
ATOM     82  O   UNL A   1      46.291  27.608  26.305  1.00  0.00    -0.237 OA
ATOM     83  O   UNL A   1      46.394  29.638  24.913  1.00  0.00    -0.744 OA
ENDBRANCH  77  80
ENDBRANCH  49  73
BRANCH  61  84
ATOM     84  C   UNL A   1      43.344  36.291  28.981  1.00  0.00     0.023 A 
ATOM     85  C   UNL A   1      42.687  36.014  27.767  1.00  0.00     0.012 A 
ATOM     86  C   UNL A   1      43.447  37.670  29.313  1.00  0.00     0.148 A 
ATOM     87  C   UNL A   1      42.020  36.995  27.029  1.00  0.00     0.002 A 
ATOM     88  C   UNL A   1      42.858  38.660  28.536  1.00  0.00     0.091 A 
ATOM     89  F   UNL A   1      44.148  38.072  30.371  1.00  0.00    -0.205 F 
ATOM     90  C   UNL A   1      42.099  38.322  27.418  1.00  0.00     0.022 A 
BRANCH  88  91
ATOM     91  S   UNL A   1      43.129  40.413  28.847  1.00  0.00     0.127 S 
ATOM     92  O   UNL A   1      44.591  40.467  28.916  1.00  0.00    -0.237 OA
ATOM     93  O   UNL A   1      42.550  41.022  27.652  1.00  0.00    -0.237 OA
ATOM     94  O   UNL A   1      42.446  40.729  30.092  1.00  0.00    -0.744 OA
ENDBRANCH  88  91
ENDBRANCH  61  84
ENDBRANCH  35  36
ENDBRANCH  28  30
ENDBRANCH  27  28
ENDBRANCH  26  27
ENDBRANCH  25  26
ENDBRANCH  24  25
ENDBRANCH   1  24
TORSDOF 21
ENDMDL
MODEL 2
REMARK VINA RESULT:     -14.8      4.905      6.902
REMARK SMILES CCc1cccc(C)c1Nc1ccccc1CC(=O)OCCOCCOC(=O)c1ccc(-c2c3nc(c(-c4cccc(S(=O)(=O)[O-])c4F)c4ccc([nH]4)c(-c4cccc(S(=O)(=O)[O-])c4F)c4nc(c(-c5cccc(S(=O)(=O)[O-])c5F)c5ccc2[nH]5)C=C4)C=C3)cc1
REMARK SMILES IDX 22 1 21 2 20 3 18 4 19 5 17 6 16 7 11 8 12 9 13 10 15 11
REMARK SMILES IDX 14 12 10 13 9 15 3 16 4 17 5 18 7 19 6 20 8 21 2 22 1 23
REMARK SMILES IDX 23 24 24 25 25 26 26 27 27 28 28 29 29 30 30 31 91 32 31 33
REMARK SMILES IDX 90 34 32 35 33 36 34 37 84 38 35 39 89 40 83 41 85 42 36 43
REMARK SMILES IDX 88 44 82 45 81 46 37 48 69 49 49 50 68 51 50 52 53 53 67 54
REMARK SMILES IDX 86 55 51 56 52 57 66 59 87 60 54 61 38 62 39 63 47 64 40 65
REMARK SMILES IDX 42 66 48 67 41 68 43 69 44 70 45 71 46 72 70 73 71 74 79 75
REMARK SMILES IDX 72 76 74 77 80 78 73 79 75 80 76 81 77 82 78 83 55 84 56 85
REMARK SMILES IDX 64 86 57 87 59 88 65 89 58 90 60 91 61 92 62 93 63 94
REMARK H PARENT 10 14 85 47 53 58
REMARK Flexibility Score: inf
ROOT
ATOM      1  C   UNL A   1      35.597  18.747  24.731  1.00  0.00     0.202 C 
ENDROOT
BRANCH   1   2
ATOM      2  C   UNL A   1      33.692  18.356  24.331  1.00  0.00     0.261 C 
BRANCH   2   3
ATOM      3  O   UNL A   1      32.543  19.729  23.896  1.00  0.00    -0.463 OA
BRANCH   3   4
ATOM      4  C   UNL A   1      32.351  20.836  23.021  1.00  0.00     0.310 C 
ATOM      5  O   UNL A   1      31.821  20.557  21.927  1.00  0.00    -0.252 OA
BRANCH   4   6
ATOM      6  C   UNL A   1      32.796  22.450  23.110  1.00  0.00     0.160 C 
BRANCH   6   7
ATOM      7  C   UNL A   1      32.190  24.071  22.673  1.00  0.00    -0.013 A 
ATOM      8  C   UNL A   1      31.113  25.247  23.215  1.00  0.00     0.042 A 
ATOM      9  C   UNL A   1      30.979  26.398  22.433  1.00  0.00     0.026 A 
ATOM     10  C   UNL A   1      31.793  26.518  21.278  1.00  0.00     0.002 A 
ATOM     11  C   UNL A   1      32.865  24.327  21.463  1.00  0.00     0.006 A 
ATOM     12  C   UNL A   1      32.703  25.538  20.820  1.00  0.00     0.000 A 
BRANCH   8  13
ATOM     13  N   UNL A   1      30.627  25.606  24.916  1.00  0.00    -0.355 N 
ATOM     14  H   UNL A   1      29.713  25.945  25.051  1.00  0.00     0.167 HD
BRANCH  13  15
ATOM     15  C   UNL A   1      31.681  25.402  26.452  1.00  0.00     0.045 A 
ATOM     16  C   UNL A   1      31.580  23.734  27.044  1.00  0.00    -0.024 A 
ATOM     17  C   UNL A   1      33.038  22.811  27.293  1.00  0.00     0.006 A 
ATOM     18  C   UNL A   1      34.590  23.243  26.735  1.00  0.00     0.001 A 
ATOM     19  C   UNL A   1      33.489  26.149  26.063  1.00  0.00    -0.027 A 
ATOM     20  C   UNL A   1      34.856  24.803  26.025  1.00  0.00     0.005 A 
ATOM     21  C   UNL A   1      33.813  27.961  25.653  1.00  0.00     0.046 C 
BRANCH  16  22
ATOM     22  C   UNL A   1      30.574  22.670  26.570  1.00  0.00     0.034 C 
ATOM     23  C   UNL A   1      29.214  22.690  27.257  1.00  0.00     0.009 C 
ENDBRANCH  16  22
ENDBRANCH  13  15
ENDBRANCH   8  13
ENDBRANCH   6   7
ENDBRANCH   4   6
ENDBRANCH   3   4
ENDBRANCH   2   3
ENDBRANCH   1   2
BRANCH   1  24
ATOM     24  O   UNL A   1      35.827  20.714  25.018  1.00  0.00    -0.374 OA
BRANCH  24  25
ATOM     25  C   UNL A   1      37.291  21.435  24.315  1.00  0.00     0.202 C 
BRANCH  25  26
ATOM     26  C   UNL A   1      38.550  22.092  25.918  1.00  0.00     0.261 C 
BRANCH  26  27
ATOM     27  O   UNL A   1      40.359  21.579  26.056  1.00  0.00    -0.460 OA
BRANCH  27  28
ATOM     28  C   UNL A   1      41.820  21.347  26.070  1.00  0.00     0.338 C 
ATOM     29  O   UNL A   1      42.181  20.368  26.736  1.00  0.00    -0.246 OA
BRANCH  28  30
ATOM     30  C   UNL A   1      43.160  22.163  25.394  1.00  0.00     0.060 A 
ATOM     31  C   UNL A   1      44.476  21.694  25.352  1.00  0.00     0.016 A 
ATOM     32  C   UNL A   1      43.208  23.421  24.838  1.00  0.00     0.016 A 
ATOM     33  C   UNL A   1      45.619  22.518  25.676  1.00  0.00     0.010 A 
ATOM     34  C   UNL A   1      44.272  24.293  25.268  1.00  0.00     0.010 A 
ATOM     35  C   UNL A   1      45.420  23.839  25.958  1.00  0.00    -0.014 A 
BRANCH  35  36
ATOM     36  C   UNL A   1      46.027  24.611  27.166  1.00  0.00     0.031 A 
ATOM     37  C   UNL A   1      45.280  24.637  28.466  1.00  0.00     0.074 A 
ATOM     38  C   UNL A   1      47.372  24.949  27.295  1.00  0.00     0.049 A 
ATOM     39  N   UNL A   1      45.473  25.520  29.393  1.00  0.00    -0.248 NA
ATOM     40  C   UNL A   1      44.198  23.724  28.813  1.00  0.00     0.031 C 
ATOM     41  C   UNL A   1      48.144  25.038  28.571  1.00  0.00     0.029 A 
ATOM     42  N   UNL A   1      48.413  25.042  26.361  1.00  0.00    -0.354 N 
ATOM     43  C   UNL A   1      44.766  25.105  30.506  1.00  0.00     0.074 A 
ATOM     44  C   UNL A   1      43.798  24.200  29.987  1.00  0.00     0.031 C 
ATOM     45  C   UNL A   1      49.449  25.261  28.341  1.00  0.00     0.029 A 
ATOM     46  C   UNL A   1      49.629  25.478  26.930  1.00  0.00     0.049 A 
ATOM     47  H   UNL A   1      48.307  24.826  25.406  1.00  0.00     0.167 HD
ATOM     48  C   UNL A   1      45.191  25.388  31.770  1.00  0.00     0.034 A 
ATOM     49  C   UNL A   1      50.367  26.498  26.406  1.00  0.00     0.034 A 
ATOM     50  C   UNL A   1      46.474  26.149  31.724  1.00  0.00     0.049 A 
ATOM     51  C   UNL A   1      49.950  27.748  27.177  1.00  0.00     0.074 A 
ATOM     52  C   UNL A   1      47.785  25.927  32.109  1.00  0.00     0.029 A 
ATOM     53  N   UNL A   1      46.554  27.250  30.879  1.00  0.00    -0.354 N 
ATOM     54  N   UNL A   1      49.679  27.771  28.461  1.00  0.00    -0.248 NA
ATOM     55  C   UNL A   1      49.635  29.012  26.522  1.00  0.00     0.031 C 
ATOM     56  C   UNL A   1      48.628  26.898  31.446  1.00  0.00     0.029 A 
ATOM     57  C   UNL A   1      47.834  27.756  30.701  1.00  0.00     0.049 A 
ATOM     58  H   UNL A   1      45.765  27.641  30.440  1.00  0.00     0.167 HD
ATOM     59  C   UNL A   1      48.804  28.809  28.698  1.00  0.00     0.074 A 
ATOM     60  C   UNL A   1      48.885  29.600  27.466  1.00  0.00     0.031 C 
ATOM     61  C   UNL A   1      47.983  28.917  29.802  1.00  0.00     0.034 A 
BRANCH  48  62
ATOM     62  C   UNL A   1      44.528  24.860  33.067  1.00  0.00     0.023 A 
ATOM     63  C   UNL A   1      44.929  23.580  33.500  1.00  0.00     0.012 A 
ATOM     64  C   UNL A   1      43.565  25.494  33.918  1.00  0.00     0.148 A 
ATOM     65  C   UNL A   1      44.430  22.979  34.671  1.00  0.00     0.002 A 
ATOM     66  C   UNL A   1      43.101  24.919  35.110  1.00  0.00     0.091 A 
ATOM     67  F   UNL A   1      43.002  26.648  33.581  1.00  0.00    -0.205 F 
ATOM     68  C   UNL A   1      43.527  23.650  35.485  1.00  0.00     0.022 A 
BRANCH  66  69
ATOM     69  S   UNL A   1      41.937  25.752  36.227  1.00  0.00     0.127 S 
ATOM     70  O   UNL A   1      41.679  24.717  37.230  1.00  0.00    -0.237 OA
ATOM     71  O   UNL A   1      42.725  26.883  36.716  1.00  0.00    -0.237 OA
ATOM     72  O   UNL A   1      40.776  26.123  35.427  1.00  0.00    -0.744 OA
ENDBRANCH  66  69
ENDBRANCH  48  62
BRANCH  49  73
ATOM     73  C   UNL A   1      50.537  26.286  24.931  1.00  0.00     0.023 A 
ATOM     74  C   UNL A   1      49.385  26.569  24.143  1.00  0.00     0.012 A 
ATOM     75  C   UNL A   1      51.803  26.396  24.333  1.00  0.00     0.148 A 
ATOM     76  C   UNL A   1      49.501  27.136  22.871  1.00  0.00     0.002 A 
ATOM     77  C   UNL A   1      51.908  26.981  23.076  1.00  0.00     0.091 A 
ATOM     78  F   UNL A   1      52.888  26.095  25.055  1.00  0.00    -0.205 F 
ATOM     79  C   UNL A   1      50.764  27.387  22.365  1.00  0.00     0.022 A 
BRANCH  77  80
ATOM     80  S   UNL A   1      53.471  27.604  22.468  1.00  0.00     0.127 S 
ATOM     81  O   UNL A   1      54.295  26.411  22.351  1.00  0.00    -0.237 OA
ATOM     82  O   UNL A   1      53.048  28.146  21.184  1.00  0.00    -0.237 OA
ATOM     83  O   UNL A   1      53.907  28.583  23.452  1.00  0.00    -0.744 OA
ENDBRANCH  77  80
ENDBRANCH  49  73
BRANCH  61  84
ATOM     84  C   UNL A   1      47.166  30.192  30.070  1.00  0.00     0.023 A 
ATOM     85  C   UNL A   1      47.523  31.045  31.132  1.00  0.00     0.012 A 
ATOM     86  C   UNL A   1      45.954  30.528  29.405  1.00  0.00     0.148 A 
ATOM     87  C   UNL A   1      46.847  32.237  31.402  1.00  0.00     0.002 A 
ATOM     88  C   UNL A   1      45.230  31.669  29.727  1.00  0.00     0.091 A 
ATOM     89  F   UNL A   1      45.443  29.736  28.465  1.00  0.00    -0.205 F 
ATOM     90  C   UNL A   1      45.702  32.556  30.693  1.00  0.00     0.022 A 
BRANCH  88  91
ATOM     91  S   UNL A   1      43.611  32.011  29.017  1.00  0.00     0.127 S 
ATOM     92  O   UNL A   1      43.045  32.916  30.020  1.00  0.00    -0.237 OA
ATOM     93  O   UNL A   1      43.968  32.647  27.751  1.00  0.00    -0.237 OA
ATOM     94  O   UNL A   1      42.928  30.733  28.893  1.00  0.00    -0.744 OA
ENDBRANCH  88  91
ENDBRANCH  61  84
ENDBRANCH  35  36
ENDBRANCH  28  30
ENDBRANCH  27  28
ENDBRANCH  26  27
ENDBRANCH  25  26
ENDBRANCH  24  25
ENDBRANCH   1  24
TORSDOF 21
ENDMDL
MODEL 3
REMARK VINA RESULT:     -14.3      3.522      4.888
REMARK SMILES CCc1cccc(C)c1Nc1ccccc1CC(=O)OCCOCCOC(=O)c1ccc(-c2c3nc(c(-c4cccc(S(=O)(=O)[O-])c4F)c4ccc([nH]4)c(-c4cccc(S(=O)(=O)[O-])c4F)c4nc(c(-c5cccc(S(=O)(=O)[O-])c5F)c5ccc2[nH]5)C=C4)C=C3)cc1
REMARK SMILES IDX 22 1 21 2 20 3 18 4 19 5 17 6 16 7 11 8 12 9 13 10 15 11
REMARK SMILES IDX 14 12 10 13 9 15 3 16 4 17 5 18 7 19 6 20 8 21 2 22 1 23
REMARK SMILES IDX 23 24 24 25 25 26 26 27 27 28 28 29 29 30 30 31 91 32 31 33
REMARK SMILES IDX 90 34 32 35 33 36 34 37 84 38 35 39 89 40 83 41 85 42 36 43
REMARK SMILES IDX 88 44 82 45 81 46 37 48 69 49 49 50 68 51 50 52 53 53 67 54
REMARK SMILES IDX 86 55 51 56 52 57 66 59 87 60 54 61 38 62 39 63 47 64 40 65
REMARK SMILES IDX 42 66 48 67 41 68 43 69 44 70 45 71 46 72 70 73 71 74 79 75
REMARK SMILES IDX 72 76 74 77 80 78 73 79 75 80 76 81 77 82 78 83 55 84 56 85
REMARK SMILES IDX 64 86 57 87 59 88 65 89 58 90 60 91 61 92 62 93 63 94
REMARK H PARENT 10 14 85 47 53 58
REMARK Flexibility Score: inf
ROOT
ATOM      1  C   UNL A   1      33.406  20.775  26.516  1.00  0.00     0.202 C 
ENDROOT
BRANCH   1   2
ATOM      2  C   UNL A   1      32.775  19.515  25.116  1.00  0.00     0.261 C 
BRANCH   2   3
ATOM      3  O   UNL A   1      32.415  20.131  23.418  1.00  0.00    -0.463 OA
BRANCH   3   4
ATOM      4  C   UNL A   1      32.106  21.295  22.658  1.00  0.00     0.310 C 
ATOM      5  O   UNL A   1      31.853  21.085  21.454  1.00  0.00    -0.252 OA
BRANCH   4   6
ATOM      6  C   UNL A   1      32.116  22.932  23.022  1.00  0.00     0.160 C 
BRANCH   6   7
ATOM      7  C   UNL A   1      31.320  24.106  24.106  1.00  0.00    -0.013 A 
ATOM      8  C   UNL A   1      30.920  25.740  24.184  1.00  0.00     0.042 A 
ATOM      9  C   UNL A   1      30.290  26.186  25.349  1.00  0.00     0.026 A 
ATOM     10  C   UNL A   1      29.984  25.230  26.351  1.00  0.00     0.002 A 
ATOM     11  C   UNL A   1      31.004  23.312  25.225  1.00  0.00     0.006 A 
ATOM     12  C   UNL A   1      30.311  23.856  26.289  1.00  0.00     0.000 A 
BRANCH   8  13
ATOM     13  N   UNL A   1      30.536  26.854  22.818  1.00  0.00    -0.355 N 
ATOM     14  H   UNL A   1      30.014  26.476  22.074  1.00  0.00     0.167 HD
BRANCH  13  15
ATOM     15  C   UNL A   1      31.029  28.656  22.666  1.00  0.00     0.045 A 
ATOM     16  C   UNL A   1      29.584  29.675  22.534  1.00  0.00    -0.024 A 
ATOM     17  C   UNL A   1      29.352  31.001  23.641  1.00  0.00     0.006 A 
ATOM     18  C   UNL A   1      30.241  31.261  25.072  1.00  0.00     0.001 A 
ATOM     19  C   UNL A   1      32.331  29.064  24.120  1.00  0.00    -0.027 A 
ATOM     20  C   UNL A   1      31.631  30.285  25.423  1.00  0.00     0.005 A 
ATOM     21  C   UNL A   1      34.025  28.249  24.274  1.00  0.00     0.046 C 
BRANCH  16  22
ATOM     22  C   UNL A   1      28.149  29.174  22.289  1.00  0.00     0.034 C 
ATOM     23  C   UNL A   1      27.544  28.323  23.398  1.00  0.00     0.009 C 
ENDBRANCH  16  22
ENDBRANCH  13  15
ENDBRANCH   8  13
ENDBRANCH   6   7
ENDBRANCH   4   6
ENDBRANCH   3   4
ENDBRANCH   2   3
ENDBRANCH   1   2
BRANCH   1  24
ATOM     24  O   UNL A   1      35.197  21.501  26.000  1.00  0.00    -0.374 OA
BRANCH  24  25
ATOM     25  C   UNL A   1      35.217  23.182  25.423  1.00  0.00     0.202 C 
BRANCH  25  26
ATOM     26  C   UNL A   1      37.036  24.096  26.086  1.00  0.00     0.261 C 
BRANCH  26  27
ATOM     27  O   UNL A   1      38.654  23.138  26.227  1.00  0.00    -0.460 OA
BRANCH  27  28
ATOM     28  C   UNL A   1      39.820  22.253  26.444  1.00  0.00     0.338 C 
ATOM     29  O   UNL A   1      39.614  21.058  26.197  1.00  0.00    -0.246 OA
BRANCH  28  30
ATOM     30  C   UNL A   1      41.413  22.503  27.007  1.00  0.00     0.060 A 
ATOM     31  C   UNL A   1      41.879  22.251  28.300  1.00  0.00     0.016 A 
ATOM     32  C   UNL A   1      42.487  23.041  26.335  1.00  0.00     0.016 A 
ATOM     33  C   UNL A   1      42.723  23.172  29.029  1.00  0.00     0.010 A 
ATOM     34  C   UNL A   1      43.246  24.061  27.013  1.00  0.00     0.010 A 
ATOM     35  C   UNL A   1      43.157  24.305  28.403  1.00  0.00    -0.014 A 
BRANCH  35  36
ATOM     36  C   UNL A   1      43.114  25.743  28.997  1.00  0.00     0.031 A 
ATOM     37  C   UNL A   1      41.859  26.551  28.865  1.00  0.00     0.074 A 
ATOM     38  C   UNL A   1      43.977  26.220  29.981  1.00  0.00     0.049 A 
ATOM     39  N   UNL A   1      41.813  27.841  28.968  1.00  0.00    -0.248 NA
ATOM     40  C   UNL A   1      40.553  25.996  28.532  1.00  0.00     0.031 C 
ATOM     41  C   UNL A   1      43.645  27.216  31.042  1.00  0.00     0.029 A 
ATOM     42  N   UNL A   1      45.227  25.774  30.433  1.00  0.00    -0.354 N 
ATOM     43  C   UNL A   1      40.480  28.203  28.999  1.00  0.00     0.074 A 
ATOM     44  C   UNL A   1      39.803  27.088  28.431  1.00  0.00     0.031 C 
ATOM     45  C   UNL A   1      44.658  27.365  31.913  1.00  0.00     0.029 A 
ATOM     46  C   UNL A   1      45.780  26.602  31.433  1.00  0.00     0.049 A 
ATOM     47  H   UNL A   1      45.674  24.967  30.088  1.00  0.00     0.167 HD
ATOM     48  C   UNL A   1      40.052  29.299  29.688  1.00  0.00     0.034 A 
ATOM     49  C   UNL A   1      47.055  27.084  31.374  1.00  0.00     0.034 A 
ATOM     50  C   UNL A   1      41.203  29.964  30.365  1.00  0.00     0.049 A 
ATOM     51  C   UNL A   1      46.943  28.476  30.759  1.00  0.00     0.074 A 
ATOM     52  C   UNL A   1      41.600  30.194  31.672  1.00  0.00     0.029 A 
ATOM     53  N   UNL A   1      42.346  30.222  29.617  1.00  0.00    -0.354 N 
ATOM     54  N   UNL A   1      45.970  29.321  31.009  1.00  0.00    -0.248 NA
ATOM     55  C   UNL A   1      47.817  28.939  29.688  1.00  0.00     0.031 C 
ATOM     56  C   UNL A   1      43.001  30.556  31.667  1.00  0.00     0.029 A 
ATOM     57  C   UNL A   1      43.453  30.610  30.358  1.00  0.00     0.049 A 
ATOM     58  H   UNL A   1      42.369  30.134  28.637  1.00  0.00     0.167 HD
ATOM     59  C   UNL A   1      45.833  30.153  29.919  1.00  0.00     0.074 A 
ATOM     60  C   UNL A   1      47.070  29.923  29.167  1.00  0.00     0.031 C 
ATOM     61  C   UNL A   1      44.700  30.883  29.618  1.00  0.00     0.034 A 
BRANCH  48  62
ATOM     62  C   UNL A   1      38.568  29.705  29.874  1.00  0.00     0.023 A 
ATOM     63  C   UNL A   1      38.019  29.503  31.156  1.00  0.00     0.012 A 
ATOM     64  C   UNL A   1      37.659  30.281  28.928  1.00  0.00     0.148 A 
ATOM     65  C   UNL A   1      36.692  29.843  31.481  1.00  0.00     0.002 A 
ATOM     66  C   UNL A   1      36.351  30.665  29.261  1.00  0.00     0.091 A 
ATOM     67  F   UNL A   1      37.990  30.420  27.650  1.00  0.00    -0.205 F 
ATOM     68  C   UNL A   1      35.860  30.436  30.541  1.00  0.00     0.022 A 
BRANCH  66  69
ATOM     69  S   UNL A   1      35.221  31.462  28.084  1.00  0.00     0.127 S 
ATOM     70  O   UNL A   1      36.045  32.554  27.560  1.00  0.00    -0.237 OA
ATOM     71  O   UNL A   1      34.959  30.390  27.124  1.00  0.00    -0.237 OA
ATOM     72  O   UNL A   1      34.055  31.894  28.844  1.00  0.00    -0.744 OA
ENDBRANCH  66  69
ENDBRANCH  48  62
BRANCH  49  73
ATOM     73  C   UNL A   1      47.998  25.961  31.057  1.00  0.00     0.023 A 
ATOM     74  C   UNL A   1      48.500  25.952  29.724  1.00  0.00     0.012 A 
ATOM     75  C   UNL A   1      48.769  25.366  32.069  1.00  0.00     0.148 A 
ATOM     76  C   UNL A   1      49.809  25.547  29.448  1.00  0.00     0.002 A 
ATOM     77  C   UNL A   1      50.077  24.987  31.787  1.00  0.00     0.091 A 
ATOM     78  F   UNL A   1      48.288  25.337  33.317  1.00  0.00    -0.205 F 
ATOM     79  C   UNL A   1      50.609  25.116  30.491  1.00  0.00     0.022 A 
BRANCH  77  80
ATOM     80  S   UNL A   1      51.262  24.696  33.096  1.00  0.00     0.127 S 
ATOM     81  O   UNL A   1      50.755  23.507  33.762  1.00  0.00    -0.237 OA
ATOM     82  O   UNL A   1      52.461  24.452  32.305  1.00  0.00    -0.237 OA
ATOM     83  O   UNL A   1      51.270  25.915  33.890  1.00  0.00    -0.744 OA
ENDBRANCH  77  80
ENDBRANCH  49  73
BRANCH  61  84
ATOM     84  C   UNL A   1      44.694  31.917  28.479  1.00  0.00     0.023 A 
ATOM     85  C   UNL A   1      44.354  31.519  27.172  1.00  0.00     0.012 A 
ATOM     86  C   UNL A   1      45.153  33.258  28.604  1.00  0.00     0.148 A 
ATOM     87  C   UNL A   1      44.289  32.415  26.103  1.00  0.00     0.002 A 
ATOM     88  C   UNL A   1      45.172  34.131  27.523  1.00  0.00     0.091 A 
ATOM     89  F   UNL A   1      45.619  33.720  29.761  1.00  0.00    -0.205 F 
ATOM     90  C   UNL A   1      44.692  33.728  26.280  1.00  0.00     0.022 A 
BRANCH  88  91
ATOM     91  S   UNL A   1      45.912  35.770  27.628  1.00  0.00     0.127 S 
ATOM     92  O   UNL A   1      47.267  35.443  28.076  1.00  0.00    -0.237 OA
ATOM     93  O   UNL A   1      45.820  36.229  26.243  1.00  0.00    -0.237 OA
ATOM     94  O   UNL A   1      45.119  36.529  28.582  1.00  0.00    -0.744 OA
ENDBRANCH  88  91
ENDBRANCH  61  84
ENDBRANCH  35  36
ENDBRANCH  28  30
ENDBRANCH  27  28
ENDBRANCH  26  27
ENDBRANCH  25  26
ENDBRANCH  24  25
ENDBRANCH   1  24
TORSDOF 21
ENDMDL
