MODEL 1
REMARK VINA RESULT:     -12.4      0.000      0.000
REMARK SMILES O=C(OCCOCCOC(=O)c1ccc(-c2c3nc(c(-c4cccc(S(=O)(=O)[O-])c4F)c4ccc([nH]4)c(-c4cccc(S(=O)(=O)[O-])c4F)c4nc(c(-c5cccc(S(=O)(=O)[O-])c5F)c5ccc2[nH]5)C=C4)C=C3)cc1)C1=Cc2cc(Cl)ccc2O[C@@H]1C(F)(F)F
REMARK SMILES IDX 7 1 6 2 5 3 4 4 3 5 2 6 1 7 75 8 76 9 85 10 77 11 84 12
REMARK SMILES IDX 78 13 83 14 79 15 82 16 80 17 81 18 86 19 87 20 88 21 89 22
REMARK SMILES IDX 8 23 9 24 10 25 11 26 12 27 13 28 74 29 14 30 73 31 15 32
REMARK SMILES IDX 16 33 17 34 67 35 18 36 72 37 66 38 68 39 19 40 71 41 65 42
REMARK SMILES IDX 64 43 20 45 52 46 32 47 51 48 33 49 36 50 50 51 69 52 34 53
REMARK SMILES IDX 35 54 49 56 70 57 37 58 21 59 22 60 30 61 23 62 25 63 31 64
REMARK SMILES IDX 24 65 26 66 27 67 28 68 29 69 53 70 54 71 62 72 55 73 57 74
REMARK SMILES IDX 63 75 56 76 58 77 59 78 60 79 61 80 38 81 39 82 47 83 40 84
REMARK SMILES IDX 42 85 48 86 41 87 43 88 44 89 45 90 46 91
REMARK H PARENT 68 44 36 55
REMARK Flexibility Score: inf
ROOT
ATOM      1  C   UNL A   1      31.412  28.780  24.976  1.00  0.00     0.202 C 
ENDROOT
BRANCH   1   2
ATOM      2  O   UNL A   1      32.293  28.283  23.954  1.00  0.00    -0.374 OA
BRANCH   2   3
ATOM      3  C   UNL A   1      32.933  26.845  23.634  1.00  0.00     0.202 C 
BRANCH   3   4
ATOM      4  C   UNL A   1      32.039  24.907  23.173  1.00  0.00     0.261 C 
BRANCH   4   5
ATOM      5  O   UNL A   1      31.921  23.706  24.128  1.00  0.00    -0.460 OA
BRANCH   5   6
ATOM      6  C   UNL A   1      32.588  22.635  23.695  1.00  0.00     0.338 C 
ATOM      7  O   UNL A   1      32.558  22.085  22.623  1.00  0.00    -0.246 OA
BRANCH   6   8
ATOM      8  C   UNL A   1      33.019  22.189  25.002  1.00  0.00     0.087 C 
ATOM      9  C   UNL A   1      32.378  20.902  25.375  1.00  0.00     0.027 C 
ATOM     10  C   UNL A   1      34.916  22.426  24.684  1.00  0.00     0.316 C 
ATOM     11  C   UNL A   1      33.247  19.310  25.366  1.00  0.00     0.019 A 
ATOM     12  O   UNL A   1      35.849  20.736  24.623  1.00  0.00    -0.475 OA
ATOM     13  C   UNL A   1      32.532  18.153  25.509  1.00  0.00     0.032 A 
ATOM     14  C   UNL A   1      34.920  19.193  24.913  1.00  0.00     0.128 A 
ATOM     15  C   UNL A   1      33.242  16.975  25.207  1.00  0.00     0.041 A 
ATOM     16  C   UNL A   1      35.490  18.016  24.536  1.00  0.00     0.048 A 
ATOM     17  Cl  UNL A   1      32.382  15.479  25.389  1.00  0.00    -0.084 Cl
ATOM     18  C   UNL A   1      34.614  16.913  24.718  1.00  0.00     0.024 A 
BRANCH  10  19
ATOM     19  C   UNL A   1      35.134  23.710  25.592  1.00  0.00     0.430 C 
ATOM     20  F   UNL A   1      36.346  23.832  26.161  1.00  0.00    -0.167 F 
ATOM     21  F   UNL A   1      35.029  24.802  24.771  1.00  0.00    -0.167 F 
ATOM     22  F   UNL A   1      34.186  23.910  26.534  1.00  0.00    -0.167 F 
ENDBRANCH  10  19
ENDBRANCH   6   8
ENDBRANCH   5   6
ENDBRANCH   4   5
ENDBRANCH   3   4
ENDBRANCH   2   3
ENDBRANCH   1   2
BRANCH   1  23
ATOM     23  C   UNL A   1      31.741  30.114  25.627  1.00  0.00     0.261 C 
BRANCH  23  24
ATOM     24  O   UNL A   1      33.018  30.119  26.232  1.00  0.00    -0.460 OA
BRANCH  24  25
ATOM     25  C   UNL A   1      33.253  31.188  27.023  1.00  0.00     0.338 C 
ATOM     26  O   UNL A   1      32.546  32.163  27.200  1.00  0.00    -0.246 OA
BRANCH  25  27
ATOM     27  C   UNL A   1      34.553  30.961  27.671  1.00  0.00     0.060 A 
ATOM     28  C   UNL A   1      34.914  29.648  27.984  1.00  0.00     0.016 A 
ATOM     29  C   UNL A   1      35.427  32.032  27.905  1.00  0.00     0.016 A 
ATOM     30  C   UNL A   1      36.185  29.393  28.483  1.00  0.00     0.010 A 
ATOM     31  C   UNL A   1      36.685  31.780  28.428  1.00  0.00     0.010 A 
ATOM     32  C   UNL A   1      37.059  30.461  28.720  1.00  0.00    -0.014 A 
BRANCH  32  33
ATOM     33  C   UNL A   1      38.273  30.249  29.517  1.00  0.00     0.031 A 
ATOM     34  C   UNL A   1      39.266  29.272  28.979  1.00  0.00     0.074 A 
ATOM     35  C   UNL A   1      38.430  30.842  30.709  1.00  0.00     0.049 A 
ATOM     36  N   UNL A   1      40.355  28.816  29.527  1.00  0.00    -0.248 NA
ATOM     37  C   UNL A   1      38.977  28.720  27.642  1.00  0.00     0.031 C 
ATOM     38  C   UNL A   1      37.503  31.801  31.306  1.00  0.00     0.029 A 
ATOM     39  N   UNL A   1      39.411  30.678  31.650  1.00  0.00    -0.354 N 
ATOM     40  C   UNL A   1      40.865  27.898  28.621  1.00  0.00     0.074 A 
ATOM     41  C   UNL A   1      39.965  27.857  27.491  1.00  0.00     0.031 C 
ATOM     42  C   UNL A   1      37.939  32.109  32.540  1.00  0.00     0.029 A 
ATOM     43  C   UNL A   1      39.146  31.335  32.826  1.00  0.00     0.049 A 
ATOM     44  H   UNL A   1      40.224  30.144  31.499  1.00  0.00     0.167 HD
ATOM     45  C   UNL A   1      41.980  27.145  28.732  1.00  0.00     0.034 A 
ATOM     46  C   UNL A   1      39.783  31.270  34.012  1.00  0.00     0.034 A 
ATOM     47  C   UNL A   1      42.828  27.164  29.889  1.00  0.00     0.049 A 
ATOM     48  C   UNL A   1      41.001  30.393  34.134  1.00  0.00     0.074 A 
ATOM     49  C   UNL A   1      44.005  26.474  30.101  1.00  0.00     0.029 A 
ATOM     50  N   UNL A   1      42.559  27.877  31.048  1.00  0.00    -0.354 N 
ATOM     51  N   UNL A   1      41.544  29.608  33.233  1.00  0.00    -0.248 NA
ATOM     52  C   UNL A   1      41.709  30.409  35.421  1.00  0.00     0.031 C 
ATOM     53  C   UNL A   1      44.410  26.715  31.417  1.00  0.00     0.029 A 
ATOM     54  C   UNL A   1      43.532  27.621  31.994  1.00  0.00     0.049 A 
ATOM     55  H   UNL A   1      41.788  28.476  31.177  1.00  0.00     0.167 HD
ATOM     56  C   UNL A   1      42.680  29.070  33.827  1.00  0.00     0.074 A 
ATOM     57  C   UNL A   1      42.745  29.618  35.168  1.00  0.00     0.031 C 
ATOM     58  C   UNL A   1      43.591  28.208  33.311  1.00  0.00     0.034 A 
BRANCH  45  59
ATOM     59  C   UNL A   1      42.287  26.208  27.597  1.00  0.00     0.023 A 
ATOM     60  C   UNL A   1      43.008  26.660  26.471  1.00  0.00     0.012 A 
ATOM     61  C   UNL A   1      41.822  24.881  27.634  1.00  0.00     0.148 A 
ATOM     62  C   UNL A   1      43.207  25.822  25.375  1.00  0.00     0.002 A 
ATOM     63  C   UNL A   1      42.077  24.035  26.564  1.00  0.00     0.091 A 
ATOM     64  F   UNL A   1      41.112  24.480  28.697  1.00  0.00    -0.205 F 
ATOM     65  C   UNL A   1      42.749  24.508  25.425  1.00  0.00     0.022 A 
BRANCH  63  66
ATOM     66  S   UNL A   1      41.600  22.305  26.572  1.00  0.00     0.127 S 
ATOM     67  O   UNL A   1      40.147  22.400  26.460  1.00  0.00    -0.237 OA
ATOM     68  O   UNL A   1      42.274  21.800  25.376  1.00  0.00    -0.237 OA
ATOM     69  O   UNL A   1      42.096  21.756  27.827  1.00  0.00    -0.744 OA
ENDBRANCH  63  66
ENDBRANCH  45  59
BRANCH  46  70
ATOM     70  C   UNL A   1      39.264  32.049  35.167  1.00  0.00     0.023 A 
ATOM     71  C   UNL A   1      38.346  31.465  36.059  1.00  0.00     0.012 A 
ATOM     72  C   UNL A   1      39.730  33.356  35.415  1.00  0.00     0.148 A 
ATOM     73  C   UNL A   1      37.886  32.176  37.170  1.00  0.00     0.002 A 
ATOM     74  C   UNL A   1      39.312  34.036  36.551  1.00  0.00     0.091 A 
ATOM     75  F   UNL A   1      40.600  33.891  34.547  1.00  0.00    -0.205 F 
ATOM     76  C   UNL A   1      38.378  33.455  37.422  1.00  0.00     0.022 A 
BRANCH  74  77
ATOM     77  S   UNL A   1      39.987  35.632  37.022  1.00  0.00     0.127 S 
ATOM     78  O   UNL A   1      41.408  35.323  37.170  1.00  0.00    -0.237 OA
ATOM     79  O   UNL A   1      39.651  36.450  35.858  1.00  0.00    -0.237 OA
ATOM     80  O   UNL A   1      39.299  36.010  38.249  1.00  0.00    -0.744 OA
ENDBRANCH  74  77
ENDBRANCH  46  70
BRANCH  58  81
ATOM     81  C   UNL A   1      44.784  27.848  34.155  1.00  0.00     0.023 A 
ATOM     82  C   UNL A   1      45.931  28.662  34.165  1.00  0.00     0.012 A 
ATOM     83  C   UNL A   1      44.703  26.750  35.037  1.00  0.00     0.148 A 
ATOM     84  C   UNL A   1      46.990  28.376  35.028  1.00  0.00     0.002 A 
ATOM     85  C   UNL A   1      45.733  26.508  35.933  1.00  0.00     0.091 A 
ATOM     86  F   UNL A   1      43.604  25.981  34.998  1.00  0.00    -0.205 F 
ATOM     87  C   UNL A   1      46.884  27.312  35.922  1.00  0.00     0.022 A 
BRANCH  85  88
ATOM     88  S   UNL A   1      45.632  25.231  37.191  1.00  0.00     0.127 S 
ATOM     89  O   UNL A   1      45.250  24.063  36.398  1.00  0.00    -0.237 OA
ATOM     90  O   UNL A   1      47.002  25.198  37.705  1.00  0.00    -0.237 OA
ATOM     91  O   UNL A   1      44.633  25.681  38.150  1.00  0.00    -0.744 OA
ENDBRANCH  85  88
ENDBRANCH  58  81
ENDBRANCH  32  33
ENDBRANCH  25  27
ENDBRANCH  24  25
ENDBRANCH  23  24
ENDBRANCH   1  23
TORSDOF 18
ENDMDL
MODEL 2
REMARK VINA RESULT:     -12.3      5.194     10.223
REMARK SMILES O=C(OCCOCCOC(=O)c1ccc(-c2c3nc(c(-c4cccc(S(=O)(=O)[O-])c4F)c4ccc([nH]4)c(-c4cccc(S(=O)(=O)[O-])c4F)c4nc(c(-c5cccc(S(=O)(=O)[O-])c5F)c5ccc2[nH]5)C=C4)C=C3)cc1)C1=Cc2cc(Cl)ccc2O[C@@H]1C(F)(F)F
REMARK SMILES IDX 7 1 6 2 5 3 4 4 3 5 2 6 1 7 75 8 76 9 85 10 77 11 84 12
REMARK SMILES IDX 78 13 83 14 79 15 82 16 80 17 81 18 86 19 87 20 88 21 89 22
REMARK SMILES IDX 8 23 9 24 10 25 11 26 12 27 13 28 74 29 14 30 73 31 15 32
REMARK SMILES IDX 16 33 17 34 67 35 18 36 72 37 66 38 68 39 19 40 71 41 65 42
REMARK SMILES IDX 64 43 20 45 52 46 32 47 51 48 33 49 36 50 50 51 69 52 34 53
REMARK SMILES IDX 35 54 49 56 70 57 37 58 21 59 22 60 30 61 23 62 25 63 31 64
REMARK SMILES IDX 24 65 26 66 27 67 28 68 29 69 53 70 54 71 62 72 55 73 57 74
REMARK SMILES IDX 63 75 56 76 58 77 59 78 60 79 61 80 38 81 39 82 47 83 40 84
REMARK SMILES IDX 42 85 48 86 41 87 43 88 44 89 45 90 46 91
REMARK H PARENT 68 44 36 55
REMARK Flexibility Score: inf
ROOT
ATOM      1  C   UNL A   1      35.532  20.712  24.973  1.00  0.00     0.202 C 
ENDROOT
BRANCH   1   2
ATOM      2  O   UNL A   1      34.991  21.002  26.274  1.00  0.00    -0.374 OA
BRANCH   2   3
ATOM      3  C   UNL A   1      34.360  22.313  26.954  1.00  0.00     0.202 C 
BRANCH   3   4
ATOM      4  C   UNL A   1      32.297  22.973  27.240  1.00  0.00     0.261 C 
BRANCH   4   5
ATOM      5  O   UNL A   1      31.377  23.581  26.168  1.00  0.00    -0.460 OA
BRANCH   5   6
ATOM      6  C   UNL A   1      31.743  24.813  25.811  1.00  0.00     0.338 C 
ATOM      7  O   UNL A   1      32.023  25.766  26.493  1.00  0.00    -0.246 OA
BRANCH   6   8
ATOM      8  C   UNL A   1      31.330  24.697  24.430  1.00  0.00     0.087 C 
ATOM      9  C   UNL A   1      30.051  25.412  24.184  1.00  0.00     0.027 C 
ATOM     10  C   UNL A   1      33.038  25.196  23.662  1.00  0.00     0.316 C 
ATOM     11  C   UNL A   1      29.941  26.997  23.307  1.00  0.00     0.019 A 
ATOM     12  O   UNL A   1      32.950  26.904  22.766  1.00  0.00    -0.475 OA
ATOM     13  C   UNL A   1      28.762  27.689  23.316  1.00  0.00     0.032 A 
ATOM     14  C   UNL A   1      31.357  27.789  22.686  1.00  0.00     0.128 A 
ATOM     15  C   UNL A   1      28.851  29.019  22.862  1.00  0.00     0.041 A 
ATOM     16  C   UNL A   1      31.368  29.113  22.370  1.00  0.00     0.048 A 
ATOM     17  Cl  UNL A   1      27.378  29.935  22.840  1.00  0.00    -0.084 Cl
ATOM     18  C   UNL A   1      30.076  29.695  22.453  1.00  0.00     0.024 A 
BRANCH  10  19
ATOM     19  C   UNL A   1      33.473  23.761  23.139  1.00  0.00     0.430 C 
ATOM     20  F   UNL A   1      33.159  23.476  21.864  1.00  0.00    -0.167 F 
ATOM     21  F   UNL A   1      34.842  23.722  23.172  1.00  0.00    -0.167 F 
ATOM     22  F   UNL A   1      33.092  22.729  23.925  1.00  0.00    -0.167 F 
ENDBRANCH  10  19
ENDBRANCH   6   8
ENDBRANCH   5   6
ENDBRANCH   4   5
ENDBRANCH   3   4
ENDBRANCH   2   3
ENDBRANCH   1   2
BRANCH   1  23
ATOM     23  C   UNL A   1      37.009  20.977  24.730  1.00  0.00     0.261 C 
BRANCH  23  24
ATOM     24  O   UNL A   1      37.602  21.727  25.771  1.00  0.00    -0.460 OA
BRANCH  24  25
ATOM     25  C   UNL A   1      38.865  21.356  26.072  1.00  0.00     0.338 C 
ATOM     26  O   UNL A   1      39.372  20.255  25.963  1.00  0.00    -0.246 OA
BRANCH  25  27
ATOM     27  C   UNL A   1      39.556  22.558  26.562  1.00  0.00     0.060 A 
ATOM     28  C   UNL A   1      39.122  23.803  26.102  1.00  0.00     0.016 A 
ATOM     29  C   UNL A   1      40.580  22.450  27.514  1.00  0.00     0.016 A 
ATOM     30  C   UNL A   1      39.674  24.958  26.641  1.00  0.00     0.010 A 
ATOM     31  C   UNL A   1      41.150  23.602  28.032  1.00  0.00     0.010 A 
ATOM     32  C   UNL A   1      40.699  24.853  27.589  1.00  0.00    -0.014 A 
BRANCH  32  33
ATOM     33  C   UNL A   1      41.492  26.037  27.942  1.00  0.00     0.031 A 
ATOM     34  C   UNL A   1      40.791  27.112  28.705  1.00  0.00     0.074 A 
ATOM     35  C   UNL A   1      42.756  26.173  27.517  1.00  0.00     0.049 A 
ATOM     36  N   UNL A   1      41.216  28.295  29.042  1.00  0.00    -0.248 NA
ATOM     37  C   UNL A   1      39.412  26.812  29.131  1.00  0.00     0.031 C 
ATOM     38  C   UNL A   1      43.508  25.173  26.761  1.00  0.00     0.029 A 
ATOM     39  N   UNL A   1      43.611  27.237  27.624  1.00  0.00    -0.354 N 
ATOM     40  C   UNL A   1      40.147  28.898  29.688  1.00  0.00     0.074 A 
ATOM     41  C   UNL A   1      39.054  27.953  29.693  1.00  0.00     0.031 C 
ATOM     42  C   UNL A   1      44.703  25.691  26.431  1.00  0.00     0.029 A 
ATOM     43  C   UNL A   1      44.775  27.069  26.917  1.00  0.00     0.049 A 
ATOM     44  H   UNL A   1      43.410  28.042  28.155  1.00  0.00     0.167 HD
ATOM     45  C   UNL A   1      40.081  30.138  30.218  1.00  0.00     0.034 A 
ATOM     46  C   UNL A   1      45.758  27.952  26.652  1.00  0.00     0.034 A 
ATOM     47  C   UNL A   1      41.163  31.077  30.152  1.00  0.00     0.049 A 
ATOM     48  C   UNL A   1      45.652  29.345  27.214  1.00  0.00     0.074 A 
ATOM     49  C   UNL A   1      41.228  32.349  30.685  1.00  0.00     0.029 A 
ATOM     50  N   UNL A   1      42.350  30.861  29.468  1.00  0.00    -0.354 N 
ATOM     51  N   UNL A   1      44.683  29.876  27.922  1.00  0.00    -0.248 NA
ATOM     52  C   UNL A   1      46.781  30.253  26.965  1.00  0.00     0.031 C 
ATOM     53  C   UNL A   1      42.428  32.929  30.262  1.00  0.00     0.029 A 
ATOM     54  C   UNL A   1      43.146  31.988  29.539  1.00  0.00     0.049 A 
ATOM     55  H   UNL A   1      42.590  30.028  29.002  1.00  0.00     0.167 HD
ATOM     56  C   UNL A   1      45.101  31.163  28.241  1.00  0.00     0.074 A 
ATOM     57  C   UNL A   1      46.412  31.332  27.645  1.00  0.00     0.031 C 
ATOM     58  C   UNL A   1      44.463  32.117  28.965  1.00  0.00     0.034 A 
BRANCH  45  59
ATOM     59  C   UNL A   1      38.777  30.544  30.846  1.00  0.00     0.023 A 
ATOM     60  C   UNL A   1      38.511  30.243  32.199  1.00  0.00     0.012 A 
ATOM     61  C   UNL A   1      37.797  31.195  30.077  1.00  0.00     0.148 A 
ATOM     62  C   UNL A   1      37.265  30.528  32.756  1.00  0.00     0.002 A 
ATOM     63  C   UNL A   1      36.581  31.531  30.657  1.00  0.00     0.091 A 
ATOM     64  F   UNL A   1      38.056  31.444  28.786  1.00  0.00    -0.205 F 
ATOM     65  C   UNL A   1      36.304  31.180  31.988  1.00  0.00     0.022 A 
BRANCH  63  66
ATOM     66  S   UNL A   1      35.315  32.444  29.772  1.00  0.00     0.127 S 
ATOM     67  O   UNL A   1      34.900  31.470  28.764  1.00  0.00    -0.237 OA
ATOM     68  O   UNL A   1      34.329  32.691  30.824  1.00  0.00    -0.237 OA
ATOM     69  O   UNL A   1      35.966  33.640  29.255  1.00  0.00    -0.744 OA
ENDBRANCH  63  66
ENDBRANCH  45  59
BRANCH  46  70
ATOM     70  C   UNL A   1      46.909  27.537  25.807  1.00  0.00     0.023 A 
ATOM     71  C   UNL A   1      46.878  27.749  24.416  1.00  0.00     0.012 A 
ATOM     72  C   UNL A   1      48.065  26.984  26.394  1.00  0.00     0.148 A 
ATOM     73  C   UNL A   1      47.971  27.400  23.621  1.00  0.00     0.002 A 
ATOM     74  C   UNL A   1      49.169  26.692  25.606  1.00  0.00     0.091 A 
ATOM     75  F   UNL A   1      48.067  26.788  27.720  1.00  0.00    -0.205 F 
ATOM     76  C   UNL A   1      49.120  26.884  24.217  1.00  0.00     0.022 A 
BRANCH  74  77
ATOM     77  S   UNL A   1      50.733  26.145  26.301  1.00  0.00     0.127 S 
ATOM     78  O   UNL A   1      51.565  26.022  25.106  1.00  0.00    -0.237 OA
ATOM     79  O   UNL A   1      51.072  27.265  27.178  1.00  0.00    -0.237 OA
ATOM     80  O   UNL A   1      50.446  24.896  26.993  1.00  0.00    -0.744 OA
ENDBRANCH  74  77
ENDBRANCH  46  70
BRANCH  58  81
ATOM     81  C   UNL A   1      45.188  33.409  29.228  1.00  0.00     0.023 A 
ATOM     82  C   UNL A   1      46.044  33.542  30.337  1.00  0.00     0.012 A 
ATOM     83  C   UNL A   1      45.103  34.455  28.287  1.00  0.00     0.148 A 
ATOM     84  C   UNL A   1      46.791  34.708  30.515  1.00  0.00     0.002 A 
ATOM     85  C   UNL A   1      45.893  35.585  28.437  1.00  0.00     0.091 A 
ATOM     86  F   UNL A   1      44.269  34.310  27.246  1.00  0.00    -0.205 F 
ATOM     87  C   UNL A   1      46.728  35.720  29.558  1.00  0.00     0.022 A 
BRANCH  85  88
ATOM     88  S   UNL A   1      45.958  36.885  27.201  1.00  0.00     0.127 S 
ATOM     89  O   UNL A   1      46.419  36.151  26.023  1.00  0.00    -0.237 OA
ATOM     90  O   UNL A   1      44.563  37.322  27.141  1.00  0.00    -0.237 OA
ATOM     91  O   UNL A   1      46.887  37.885  27.709  1.00  0.00    -0.744 OA
ENDBRANCH  85  88
ENDBRANCH  58  81
ENDBRANCH  32  33
ENDBRANCH  25  27
ENDBRANCH  24  25
ENDBRANCH  23  24
ENDBRANCH   1  23
TORSDOF 18
ENDMDL
MODEL 3
REMARK VINA RESULT:     -12.1      4.985      7.957
REMARK SMILES O=C(OCCOCCOC(=O)c1ccc(-c2c3nc(c(-c4cccc(S(=O)(=O)[O-])c4F)c4ccc([nH]4)c(-c4cccc(S(=O)(=O)[O-])c4F)c4nc(c(-c5cccc(S(=O)(=O)[O-])c5F)c5ccc2[nH]5)C=C4)C=C3)cc1)C1=Cc2cc(Cl)ccc2O[C@@H]1C(F)(F)F
REMARK SMILES IDX 7 1 6 2 5 3 4 4 3 5 2 6 1 7 75 8 76 9 85 10 77 11 84 12
REMARK SMILES IDX 78 13 83 14 79 15 82 16 80 17 81 18 86 19 87 20 88 21 89 22
REMARK SMILES IDX 8 23 9 24 10 25 11 26 12 27 13 28 74 29 14 30 73 31 15 32
REMARK SMILES IDX 16 33 17 34 67 35 18 36 72 37 66 38 68 39 19 40 71 41 65 42
REMARK SMILES IDX 64 43 20 45 52 46 32 47 51 48 33 49 36 50 50 51 69 52 34 53
REMARK SMILES IDX 35 54 49 56 70 57 37 58 21 59 22 60 30 61 23 62 25 63 31 64
REMARK SMILES IDX 24 65 26 66 27 67 28 68 29 69 53 70 54 71 62 72 55 73 57 74
REMARK SMILES IDX 63 75 56 76 58 77 59 78 60 79 61 80 38 81 39 82 47 83 40 84
REMARK SMILES IDX 42 85 48 86 41 87 43 88 44 89 45 90 46 91
REMARK H PARENT 68 44 36 55
REMARK Flexibility Score: inf
ROOT
ATOM      1  C   UNL A   1      36.893  19.653  24.945  1.00  0.00     0.202 C 
ENDROOT
BRANCH   1   2
ATOM      2  O   UNL A   1      35.464  19.739  24.814  1.00  0.00    -0.374 OA
BRANCH   2   3
ATOM      3  C   UNL A   1      34.394  20.920  25.012  1.00  0.00     0.202 C 
BRANCH   3   4
ATOM      4  C   UNL A   1      33.468  22.317  23.610  1.00  0.00     0.261 C 
BRANCH   4   5
ATOM      5  O   UNL A   1      33.699  23.836  23.551  1.00  0.00    -0.460 OA
BRANCH   5   6
ATOM      6  C   UNL A   1      32.620  24.537  23.906  1.00  0.00     0.338 C 
ATOM      7  O   UNL A   1      31.864  25.187  23.230  1.00  0.00    -0.246 OA
BRANCH   6   8
ATOM      8  C   UNL A   1      32.908  24.546  25.323  1.00  0.00     0.087 C 
ATOM      9  C   UNL A   1      33.885  25.609  25.671  1.00  0.00     0.027 C 
ATOM     10  C   UNL A   1      31.060  24.513  25.907  1.00  0.00     0.316 C 
ATOM     11  C   UNL A   1      33.433  27.153  26.509  1.00  0.00     0.019 A 
ATOM     12  O   UNL A   1      30.547  26.169  26.758  1.00  0.00    -0.475 OA
ATOM     13  C   UNL A   1      34.349  28.164  26.595  1.00  0.00     0.032 A 
ATOM     14  C   UNL A   1      31.791  27.487  26.967  1.00  0.00     0.128 A 
ATOM     15  C   UNL A   1      33.825  29.406  27.001  1.00  0.00     0.041 A 
ATOM     16  C   UNL A   1      31.356  28.747  27.243  1.00  0.00     0.048 A 
ATOM     17  Cl  UNL A   1      34.951  30.719  27.140  1.00  0.00    -0.084 Cl
ATOM     18  C   UNL A   1      32.419  29.687  27.269  1.00  0.00     0.024 A 
BRANCH  10  19
ATOM     19  C   UNL A   1      31.018  23.013  26.425  1.00  0.00     0.430 C 
ATOM     20  F   UNL A   1      30.929  22.062  25.478  1.00  0.00    -0.167 F 
ATOM     21  F   UNL A   1      32.217  22.770  27.042  1.00  0.00    -0.167 F 
ATOM     22  F   UNL A   1      30.095  22.766  27.381  1.00  0.00    -0.167 F 
ENDBRANCH  10  19
ENDBRANCH   6   8
ENDBRANCH   5   6
ENDBRANCH   4   5
ENDBRANCH   3   4
ENDBRANCH   2   3
ENDBRANCH   1   2
BRANCH   1  23
ATOM     23  C   UNL A   1      37.710  20.926  24.794  1.00  0.00     0.261 C 
BRANCH  23  24
ATOM     24  O   UNL A   1      38.035  21.511  26.038  1.00  0.00    -0.460 OA
BRANCH  24  25
ATOM     25  C   UNL A   1      39.345  21.445  26.359  1.00  0.00     0.338 C 
ATOM     26  O   UNL A   1      40.072  20.469  26.350  1.00  0.00    -0.246 OA
BRANCH  25  27
ATOM     27  C   UNL A   1      39.764  22.805  26.724  1.00  0.00     0.060 A 
ATOM     28  C   UNL A   1      39.044  23.881  26.199  1.00  0.00     0.016 A 
ATOM     29  C   UNL A   1      40.818  23.006  27.626  1.00  0.00     0.016 A 
ATOM     30  C   UNL A   1      39.340  25.170  26.623  1.00  0.00     0.010 A 
ATOM     31  C   UNL A   1      41.131  24.294  28.029  1.00  0.00     0.010 A 
ATOM     32  C   UNL A   1      40.394  25.374  27.522  1.00  0.00    -0.014 A 
BRANCH  32  33
ATOM     33  C   UNL A   1      40.912  26.729  27.746  1.00  0.00     0.031 A 
ATOM     34  C   UNL A   1      42.295  27.008  27.254  1.00  0.00     0.074 A 
ATOM     35  C   UNL A   1      40.205  27.634  28.436  1.00  0.00     0.049 A 
ATOM     36  N   UNL A   1      43.029  28.070  27.419  1.00  0.00    -0.248 NA
ATOM     37  C   UNL A   1      42.941  25.929  26.485  1.00  0.00     0.031 C 
ATOM     38  C   UNL A   1      38.853  27.435  28.955  1.00  0.00     0.029 A 
ATOM     39  N   UNL A   1      40.556  28.888  28.859  1.00  0.00    -0.354 N 
ATOM     40  C   UNL A   1      44.239  27.777  26.807  1.00  0.00     0.074 A 
ATOM     41  C   UNL A   1      44.141  26.438  26.271  1.00  0.00     0.031 C 
ATOM     42  C   UNL A   1      38.503  28.518  29.671  1.00  0.00     0.029 A 
ATOM     43  C   UNL A   1      39.623  29.458  29.690  1.00  0.00     0.049 A 
ATOM     44  H   UNL A   1      41.391  29.336  28.595  1.00  0.00     0.167 HD
ATOM     45  C   UNL A   1      45.338  28.554  26.713  1.00  0.00     0.034 A 
ATOM     46  C   UNL A   1      39.697  30.587  30.423  1.00  0.00     0.034 A 
ATOM     47  C   UNL A   1      45.429  29.859  27.301  1.00  0.00     0.049 A 
ATOM     48  C   UNL A   1      40.947  31.423  30.343  1.00  0.00     0.074 A 
ATOM     49  C   UNL A   1      46.477  30.756  27.241  1.00  0.00     0.029 A 
ATOM     50  N   UNL A   1      44.449  30.431  28.098  1.00  0.00    -0.354 N 
ATOM     51  N   UNL A   1      42.050  31.193  29.669  1.00  0.00    -0.248 NA
ATOM     52  C   UNL A   1      40.957  32.683  31.097  1.00  0.00     0.031 C 
ATOM     53  C   UNL A   1      46.158  31.842  28.062  1.00  0.00     0.029 A 
ATOM     54  C   UNL A   1      44.878  31.658  28.564  1.00  0.00     0.049 A 
ATOM     55  H   UNL A   1      43.577  30.022  28.303  1.00  0.00     0.167 HD
ATOM     56  C   UNL A   1      42.868  32.296  29.883  1.00  0.00     0.074 A 
ATOM     57  C   UNL A   1      42.133  33.195  30.752  1.00  0.00     0.031 C 
ATOM     58  C   UNL A   1      44.110  32.549  29.401  1.00  0.00     0.034 A 
BRANCH  45  59
ATOM     59  C   UNL A   1      46.529  27.970  26.005  1.00  0.00     0.023 A 
ATOM     60  C   UNL A   1      46.671  28.113  24.608  1.00  0.00     0.012 A 
ATOM     61  C   UNL A   1      47.493  27.244  26.727  1.00  0.00     0.148 A 
ATOM     62  C   UNL A   1      47.720  27.487  23.935  1.00  0.00     0.002 A 
ATOM     63  C   UNL A   1      48.568  26.676  26.058  1.00  0.00     0.091 A 
ATOM     64  F   UNL A   1      47.324  27.093  28.048  1.00  0.00    -0.205 F 
ATOM     65  C   UNL A   1      48.673  26.777  24.661  1.00  0.00     0.022 A 
BRANCH  63  66
ATOM     66  S   UNL A   1      49.887  25.815  26.917  1.00  0.00     0.127 S 
ATOM     67  O   UNL A   1      49.216  24.582  27.325  1.00  0.00    -0.237 OA
ATOM     68  O   UNL A   1      50.880  25.648  25.856  1.00  0.00    -0.237 OA
ATOM     69  O   UNL A   1      50.300  26.691  28.005  1.00  0.00    -0.744 OA
ENDBRANCH  63  66
ENDBRANCH  45  59
BRANCH  46  70
ATOM     70  C   UNL A   1      38.557  30.970  31.297  1.00  0.00     0.023 A 
ATOM     71  C   UNL A   1      38.605  30.705  32.679  1.00  0.00     0.012 A 
ATOM     72  C   UNL A   1      37.446  31.654  30.765  1.00  0.00     0.148 A 
ATOM     73  C   UNL A   1      37.557  31.099  33.513  1.00  0.00     0.002 A 
ATOM     74  C   UNL A   1      36.435  32.093  31.608  1.00  0.00     0.091 A 
ATOM     75  F   UNL A   1      37.423  31.890  29.446  1.00  0.00    -0.205 F 
ATOM     76  C   UNL A   1      36.479  31.803  32.980  1.00  0.00     0.022 A 
BRANCH  74  77
ATOM     77  S   UNL A   1      35.075  33.115  31.032  1.00  0.00     0.127 S 
ATOM     78  O   UNL A   1      35.780  34.278  30.498  1.00  0.00    -0.237 OA
ATOM     79  O   UNL A   1      34.462  32.249  30.026  1.00  0.00    -0.237 OA
ATOM     80  O   UNL A   1      34.244  33.370  32.201  1.00  0.00    -0.744 OA
ENDBRANCH  74  77
ENDBRANCH  46  70
BRANCH  58  81
ATOM     81  C   UNL A   1      44.742  33.875  29.729  1.00  0.00     0.023 A 
ATOM     82  C   UNL A   1      45.532  34.031  30.883  1.00  0.00     0.012 A 
ATOM     83  C   UNL A   1      44.640  34.937  28.807  1.00  0.00     0.148 A 
ATOM     84  C   UNL A   1      46.197  35.235  31.123  1.00  0.00     0.002 A 
ATOM     85  C   UNL A   1      45.352  36.108  29.022  1.00  0.00     0.091 A 
ATOM     86  F   UNL A   1      43.869  34.768  27.722  1.00  0.00    -0.205 F 
ATOM     87  C   UNL A   1      46.120  36.264  30.187  1.00  0.00     0.022 A 
BRANCH  85  88
ATOM     88  S   UNL A   1      45.399  37.439  27.818  1.00  0.00     0.127 S 
ATOM     89  O   UNL A   1      46.257  38.415  28.490  1.00  0.00    -0.237 OA
ATOM     90  O   UNL A   1      46.009  36.785  26.661  1.00  0.00    -0.237 OA
ATOM     91  O   UNL A   1      44.019  37.861  27.622  1.00  0.00    -0.744 OA
ENDBRANCH  85  88
ENDBRANCH  58  81
ENDBRANCH  32  33
ENDBRANCH  25  27
ENDBRANCH  24  25
ENDBRANCH  23  24
ENDBRANCH   1  23
TORSDOF 18
ENDMDL
