MODEL 1
REMARK VINA RESULT:     -11.2      0.000      0.000
REMARK SMILES O=C(OCCOCCOC(=O)c1ccc(S(=O)(=O)N[C@@H]2CC[N@@H+]3CCC[C@H]23)cc1)c1ccc(-c2c3nc(c(-c4cccc(S(=O)(=O)[O-])c4F)c4ccc([nH]4)c(-c4cccc(S(=O)(=O)[O-])c4F)c4nc(c(-c5cccc(S(=O)(=O)[O-])c5F)c5ccc2[nH]5)C=C4)C=C3)cc1
REMARK SMILES IDX 6 1 5 2 4 3 3 4 2 5 1 6 30 7 31 8 92 9 32 10 91 11 33 12
REMARK SMILES IDX 34 13 35 14 85 15 36 16 90 17 84 18 86 19 37 20 89 21 83 22
REMARK SMILES IDX 82 23 38 25 70 26 50 27 69 28 51 29 54 30 68 31 87 32 52 33
REMARK SMILES IDX 53 34 67 36 88 37 55 38 39 39 40 40 48 41 41 42 43 43 49 44
REMARK SMILES IDX 42 45 44 46 45 47 46 48 47 49 71 50 72 51 80 52 73 53 75 54
REMARK SMILES IDX 81 55 74 56 76 57 77 58 78 59 79 60 56 61 57 62 65 63 58 64
REMARK SMILES IDX 60 65 66 66 59 67 61 68 62 69 63 70 64 71 7 72 8 73 9 74
REMARK SMILES IDX 10 75 11 76 12 77 13 78 29 79 14 80 28 81 15 82 16 83 17 84
REMARK SMILES IDX 18 85 19 86 20 88 21 89 27 90 22 91 23 92 26 93 24 94 25 96
REMARK H PARENT 86 24 54 35 19 87 23 95
REMARK Flexibility Score: inf
ROOT
ATOM      1  O   UNL A   1      37.817  21.509  25.024  1.00  0.00    -0.374 OA
ENDROOT
BRANCH   1   2
ATOM      2  C   UNL A   1      37.954  20.119  24.731  1.00  0.00     0.202 C 
BRANCH   2   3
ATOM      3  C   UNL A   1      38.796  19.327  25.734  1.00  0.00     0.261 C 
BRANCH   3   4
ATOM      4  O   UNL A   1      40.079  19.951  25.905  1.00  0.00    -0.460 OA
BRANCH   4   5
ATOM      5  C   UNL A   1      40.651  20.378  27.055  1.00  0.00     0.338 C 
ATOM      6  O   UNL A   1      40.890  19.551  27.932  1.00  0.00    -0.246 OA
BRANCH   5   7
ATOM      7  C   UNL A   1      40.992  21.809  27.318  1.00  0.00     0.060 A 
ATOM      8  C   UNL A   1      41.780  22.252  28.383  1.00  0.00     0.016 A 
ATOM      9  C   UNL A   1      40.582  22.754  26.364  1.00  0.00     0.016 A 
ATOM     10  C   UNL A   1      42.111  23.587  28.542  1.00  0.00     0.010 A 
ATOM     11  C   UNL A   1      40.952  24.096  26.488  1.00  0.00     0.010 A 
ATOM     12  C   UNL A   1      41.716  24.512  27.584  1.00  0.00    -0.014 A 
BRANCH  12  13
ATOM     13  C   UNL A   1      42.099  25.916  27.784  1.00  0.00     0.031 A 
ATOM     14  C   UNL A   1      43.436  26.369  27.297  1.00  0.00     0.074 A 
ATOM     15  C   UNL A   1      41.210  26.764  28.332  1.00  0.00     0.049 A 
ATOM     16  N   UNL A   1      44.004  27.535  27.424  1.00  0.00    -0.248 NA
ATOM     17  C   UNL A   1      44.239  25.380  26.556  1.00  0.00     0.031 C 
ATOM     18  C   UNL A   1      39.851  26.405  28.750  1.00  0.00     0.029 A 
ATOM     19  N   UNL A   1      41.310  28.095  28.635  1.00  0.00    -0.354 N 
ATOM     20  C   UNL A   1      45.256  27.403  26.841  1.00  0.00     0.074 A 
ATOM     21  C   UNL A   1      45.354  26.056  26.324  1.00  0.00     0.031 C 
ATOM     22  C   UNL A   1      39.251  27.486  29.272  1.00  0.00     0.029 A 
ATOM     23  C   UNL A   1      40.204  28.589  29.287  1.00  0.00     0.049 A 
ATOM     24  H   UNL A   1      42.096  28.644  28.409  1.00  0.00     0.167 HD
ATOM     25  C   UNL A   1      46.237  28.329  26.770  1.00  0.00     0.034 A 
ATOM     26  C   UNL A   1      40.015  29.783  29.878  1.00  0.00     0.034 A 
ATOM     27  C   UNL A   1      46.095  29.662  27.283  1.00  0.00     0.049 A 
ATOM     28  C   UNL A   1      41.143  30.777  29.817  1.00  0.00     0.074 A 
ATOM     29  C   UNL A   1      47.012  30.695  27.263  1.00  0.00     0.029 A 
ATOM     30  N   UNL A   1      44.962  30.137  27.929  1.00  0.00    -0.354 N 
ATOM     31  N   UNL A   1      42.303  30.670  29.211  1.00  0.00    -0.248 NA
ATOM     32  C   UNL A   1      40.943  32.054  30.513  1.00  0.00     0.031 C 
ATOM     33  C   UNL A   1      46.445  31.783  27.933  1.00  0.00     0.029 A 
ATOM     34  C   UNL A   1      45.163  31.440  28.340  1.00  0.00     0.049 A 
ATOM     35  H   UNL A   1      44.136  29.620  28.073  1.00  0.00     0.167 HD
ATOM     36  C   UNL A   1      42.965  31.867  29.438  1.00  0.00     0.074 A 
ATOM     37  C   UNL A   1      42.063  32.698  30.212  1.00  0.00     0.031 C 
ATOM     38  C   UNL A   1      44.214  32.244  29.067  1.00  0.00     0.034 A 
BRANCH  25  39
ATOM     39  C   UNL A   1      47.548  27.908  26.168  1.00  0.00     0.023 A 
ATOM     40  C   UNL A   1      48.632  27.555  26.994  1.00  0.00     0.012 A 
ATOM     41  C   UNL A   1      47.694  27.855  24.768  1.00  0.00     0.148 A 
ATOM     42  C   UNL A   1      49.855  27.182  26.433  1.00  0.00     0.002 A 
ATOM     43  C   UNL A   1      48.900  27.445  24.217  1.00  0.00     0.091 A 
ATOM     44  F   UNL A   1      46.656  28.223  24.004  1.00  0.00    -0.205 F 
ATOM     45  C   UNL A   1      49.986  27.119  25.047  1.00  0.00     0.022 A 
BRANCH  43  46
ATOM     46  S   UNL A   1      49.152  27.278  22.448  1.00  0.00     0.127 S 
ATOM     47  O   UNL A   1      48.465  26.017  22.169  1.00  0.00    -0.237 OA
ATOM     48  O   UNL A   1      48.477  28.468  21.931  1.00  0.00    -0.237 OA
ATOM     49  O   UNL A   1      50.594  27.255  22.244  1.00  0.00    -0.744 OA
ENDBRANCH  43  46
ENDBRANCH  25  39
BRANCH  26  50
ATOM     50  C   UNL A   1      38.742  30.081  30.598  1.00  0.00     0.023 A 
ATOM     51  C   UNL A   1      38.531  29.570  31.893  1.00  0.00     0.012 A 
ATOM     52  C   UNL A   1      37.741  30.882  30.010  1.00  0.00     0.148 A 
ATOM     53  C   UNL A   1      37.337  29.823  32.573  1.00  0.00     0.002 A 
ATOM     54  C   UNL A   1      36.581  31.179  30.715  1.00  0.00     0.091 A 
ATOM     55  F   UNL A   1      37.942  31.343  28.767  1.00  0.00    -0.205 F 
ATOM     56  C   UNL A   1      36.367  30.635  31.989  1.00  0.00     0.022 A 
BRANCH  54  57
ATOM     57  S   UNL A   1      35.347  32.324  30.085  1.00  0.00     0.127 S 
ATOM     58  O   UNL A   1      34.808  31.588  28.946  1.00  0.00    -0.237 OA
ATOM     59  O   UNL A   1      34.436  32.451  31.225  1.00  0.00    -0.237 OA
ATOM     60  O   UNL A   1      36.077  33.545  29.770  1.00  0.00    -0.744 OA
ENDBRANCH  54  57
ENDBRANCH  26  50
BRANCH  38  61
ATOM     61  C   UNL A   1      44.668  33.617  29.476  1.00  0.00     0.023 A 
ATOM     62  C   UNL A   1      45.365  33.787  30.687  1.00  0.00     0.012 A 
ATOM     63  C   UNL A   1      44.502  34.709  28.604  1.00  0.00     0.148 A 
ATOM     64  C   UNL A   1      45.875  35.035  31.035  1.00  0.00     0.002 A 
ATOM     65  C   UNL A   1      45.060  35.936  28.932  1.00  0.00     0.091 A 
ATOM     66  F   UNL A   1      43.819  34.520  27.466  1.00  0.00    -0.205 F 
ATOM     67  C   UNL A   1      45.738  36.104  30.151  1.00  0.00     0.022 A 
BRANCH  65  68
ATOM     68  S   UNL A   1      45.030  37.334  27.808  1.00  0.00     0.127 S 
ATOM     69  O   UNL A   1      45.708  36.787  26.634  1.00  0.00    -0.237 OA
ATOM     70  O   UNL A   1      43.595  37.561  27.635  1.00  0.00    -0.237 OA
ATOM     71  O   UNL A   1      45.737  38.413  28.486  1.00  0.00    -0.744 OA
ENDBRANCH  65  68
ENDBRANCH  38  61
ENDBRANCH  12  13
ENDBRANCH   5   7
ENDBRANCH   4   5
ENDBRANCH   3   4
ENDBRANCH   2   3
ENDBRANCH   1   2
BRANCH   1  72
ATOM     72  C   UNL A   1      36.498  22.061  24.898  1.00  0.00     0.202 C 
BRANCH  72  73
ATOM     73  C   UNL A   1      35.677  21.684  26.137  1.00  0.00     0.261 C 
BRANCH  73  74
ATOM     74  O   UNL A   1      34.302  21.606  25.733  1.00  0.00    -0.460 OA
BRANCH  74  75
ATOM     75  C   UNL A   1      33.498  22.489  26.378  1.00  0.00     0.338 C 
ATOM     76  O   UNL A   1      33.095  22.423  27.521  1.00  0.00    -0.246 OA
BRANCH  75  77
ATOM     77  C   UNL A   1      33.332  23.681  25.512  1.00  0.00     0.060 A 
ATOM     78  C   UNL A   1      32.848  23.484  24.210  1.00  0.00     0.017 A 
ATOM     79  C   UNL A   1      33.594  24.977  25.977  1.00  0.00     0.017 A 
ATOM     80  C   UNL A   1      32.722  24.567  23.344  1.00  0.00     0.022 A 
ATOM     81  C   UNL A   1      33.445  26.065  25.122  1.00  0.00     0.022 A 
ATOM     82  C   UNL A   1      33.086  25.840  23.791  1.00  0.00     0.082 A 
BRANCH  82  83
ATOM     83  S   UNL A   1      33.291  27.142  22.611  1.00  0.00     0.241 S 
ATOM     84  O   UNL A   1      33.966  28.247  23.252  1.00  0.00    -0.207 OA
ATOM     85  O   UNL A   1      33.807  26.549  21.397  1.00  0.00    -0.207 OA
BRANCH  83  86
ATOM     86  N   UNL A   1      31.728  27.650  22.236  1.00  0.00    -0.202 NA
ATOM     87  H   UNL A   1      31.273  26.842  21.811  1.00  0.00     0.141 HD
BRANCH  86  88
ATOM     88  C   UNL A   1      30.755  28.183  23.218  1.00  0.00     0.133 C 
ATOM     89  C   UNL A   1      29.639  27.152  23.426  1.00  0.00     0.087 C 
ATOM     90  C   UNL A   1      30.032  29.508  22.952  1.00  0.00     0.202 C 
ATOM     91  C   UNL A   1      28.338  27.909  23.236  1.00  0.00     0.264 C 
ATOM     92  N   UNL A   1      28.680  29.304  23.524  1.00  0.00    -0.331 N 
ATOM     93  C   UNL A   1      29.777  29.954  21.524  1.00  0.00     0.072 C 
ATOM     94  C   UNL A   1      27.772  30.240  22.847  1.00  0.00     0.262 C 
ATOM     95  H   UNL A   1      28.622  29.474  24.528  1.00  0.00     0.348 HD
ATOM     96  C   UNL A   1      28.508  30.780  21.630  1.00  0.00     0.068 C 
ENDBRANCH  86  88
ENDBRANCH  83  86
ENDBRANCH  82  83
ENDBRANCH  75  77
ENDBRANCH  74  75
ENDBRANCH  73  74
ENDBRANCH  72  73
ENDBRANCH   1  72
TORSDOF 20
ENDMDL
MODEL 2
REMARK VINA RESULT:     -11.2      5.469      8.761
REMARK SMILES O=C(OCCOCCOC(=O)c1ccc(S(=O)(=O)N[C@@H]2CC[N@@H+]3CCC[C@H]23)cc1)c1ccc(-c2c3nc(c(-c4cccc(S(=O)(=O)[O-])c4F)c4ccc([nH]4)c(-c4cccc(S(=O)(=O)[O-])c4F)c4nc(c(-c5cccc(S(=O)(=O)[O-])c5F)c5ccc2[nH]5)C=C4)C=C3)cc1
REMARK SMILES IDX 6 1 5 2 4 3 3 4 2 5 1 6 30 7 31 8 92 9 32 10 91 11 33 12
REMARK SMILES IDX 34 13 35 14 85 15 36 16 90 17 84 18 86 19 37 20 89 21 83 22
REMARK SMILES IDX 82 23 38 25 70 26 50 27 69 28 51 29 54 30 68 31 87 32 52 33
REMARK SMILES IDX 53 34 67 36 88 37 55 38 39 39 40 40 48 41 41 42 43 43 49 44
REMARK SMILES IDX 42 45 44 46 45 47 46 48 47 49 71 50 72 51 80 52 73 53 75 54
REMARK SMILES IDX 81 55 74 56 76 57 77 58 78 59 79 60 56 61 57 62 65 63 58 64
REMARK SMILES IDX 60 65 66 66 59 67 61 68 62 69 63 70 64 71 7 72 8 73 9 74
REMARK SMILES IDX 10 75 11 76 12 77 13 78 29 79 14 80 28 81 15 82 16 83 17 84
REMARK SMILES IDX 18 85 19 86 20 88 21 89 27 90 22 91 23 92 26 93 24 94 25 96
REMARK H PARENT 86 24 54 35 19 87 23 95
REMARK Flexibility Score: inf
ROOT
ATOM      1  O   UNL A   1      32.378  28.749  23.963  1.00  0.00    -0.374 OA
ENDROOT
BRANCH   1   2
ATOM      2  C   UNL A   1      31.213  29.383  24.492  1.00  0.00     0.202 C 
BRANCH   2   3
ATOM      3  C   UNL A   1      31.417  30.094  25.832  1.00  0.00     0.261 C 
BRANCH   3   4
ATOM      4  O   UNL A   1      32.809  30.392  26.028  1.00  0.00    -0.460 OA
BRANCH   4   5
ATOM      5  C   UNL A   1      33.361  31.239  26.927  1.00  0.00     0.338 C 
ATOM      6  O   UNL A   1      32.786  32.299  27.163  1.00  0.00    -0.246 OA
BRANCH   5   7
ATOM      7  C   UNL A   1      34.645  30.955  27.638  1.00  0.00     0.060 A 
ATOM      8  C   UNL A   1      35.556  31.932  28.045  1.00  0.00     0.016 A 
ATOM      9  C   UNL A   1      34.891  29.625  28.016  1.00  0.00     0.016 A 
ATOM     10  C   UNL A   1      36.703  31.613  28.753  1.00  0.00     0.010 A 
ATOM     11  C   UNL A   1      36.020  29.298  28.773  1.00  0.00     0.010 A 
ATOM     12  C   UNL A   1      36.930  30.298  29.137  1.00  0.00    -0.014 A 
BRANCH  12  13
ATOM     13  C   UNL A   1      38.152  30.004  29.899  1.00  0.00     0.031 A 
ATOM     14  C   UNL A   1      39.178  29.108  29.287  1.00  0.00     0.074 A 
ATOM     15  C   UNL A   1      38.341  30.606  31.086  1.00  0.00     0.049 A 
ATOM     16  N   UNL A   1      40.290  28.665  29.801  1.00  0.00    -0.248 NA
ATOM     17  C   UNL A   1      38.925  28.658  27.907  1.00  0.00     0.031 C 
ATOM     18  C   UNL A   1      37.416  31.564  31.702  1.00  0.00     0.029 A 
ATOM     19  N   UNL A   1      39.364  30.505  31.989  1.00  0.00    -0.354 N 
ATOM     20  C   UNL A   1      40.837  27.831  28.837  1.00  0.00     0.074 A 
ATOM     21  C   UNL A   1      39.957  27.858  27.690  1.00  0.00     0.031 C 
ATOM     22  C   UNL A   1      37.908  31.948  32.891  1.00  0.00     0.029 A 
ATOM     23  C   UNL A   1      39.140  31.214  33.147  1.00  0.00     0.049 A 
ATOM     24  H   UNL A   1      40.180  29.978  31.828  1.00  0.00     0.167 HD
ATOM     25  C   UNL A   1      41.968  27.095  28.923  1.00  0.00     0.034 A 
ATOM     26  C   UNL A   1      39.830  31.217  34.303  1.00  0.00     0.034 A 
ATOM     27  C   UNL A   1      42.824  27.107  30.075  1.00  0.00     0.049 A 
ATOM     28  C   UNL A   1      41.061  30.355  34.381  1.00  0.00     0.074 A 
ATOM     29  C   UNL A   1      44.001  26.414  30.280  1.00  0.00     0.029 A 
ATOM     30  N   UNL A   1      42.577  27.840  31.228  1.00  0.00    -0.354 N 
ATOM     31  N   UNL A   1      41.609  29.615  33.444  1.00  0.00    -0.248 NA
ATOM     32  C   UNL A   1      41.772  30.325  35.664  1.00  0.00     0.031 C 
ATOM     33  C   UNL A   1      44.445  26.701  31.575  1.00  0.00     0.029 A 
ATOM     34  C   UNL A   1      43.563  27.597  32.163  1.00  0.00     0.049 A 
ATOM     35  H   UNL A   1      41.811  28.445  31.359  1.00  0.00     0.167 HD
ATOM     36  C   UNL A   1      42.735  29.044  34.018  1.00  0.00     0.074 A 
ATOM     37  C   UNL A   1      42.809  29.550  35.376  1.00  0.00     0.031 C 
ATOM     38  C   UNL A   1      43.619  28.163  33.487  1.00  0.00     0.034 A 
BRANCH  25  39
ATOM     39  C   UNL A   1      42.299  26.191  27.770  1.00  0.00     0.023 A 
ATOM     40  C   UNL A   1      43.123  26.643  26.722  1.00  0.00     0.012 A 
ATOM     41  C   UNL A   1      41.791  24.878  27.738  1.00  0.00     0.148 A 
ATOM     42  C   UNL A   1      43.415  25.808  25.642  1.00  0.00     0.002 A 
ATOM     43  C   UNL A   1      42.117  24.039  26.681  1.00  0.00     0.091 A 
ATOM     44  F   UNL A   1      40.986  24.481  28.733  1.00  0.00    -0.205 F 
ATOM     45  C   UNL A   1      42.919  24.506  25.626  1.00  0.00     0.022 A 
BRANCH  43  46
ATOM     46  S   UNL A   1      41.575  22.330  26.595  1.00  0.00     0.127 S 
ATOM     47  O   UNL A   1      42.291  21.852  25.412  1.00  0.00    -0.237 OA
ATOM     48  O   UNL A   1      42.064  21.792  27.864  1.00  0.00    -0.237 OA
ATOM     49  O   UNL A   1      40.125  22.372  26.466  1.00  0.00    -0.744 OA
ENDBRANCH  43  46
ENDBRANCH  25  39
BRANCH  26  50
ATOM     50  C   UNL A   1      39.358  32.020  35.468  1.00  0.00     0.023 A 
ATOM     51  C   UNL A   1      39.646  33.396  35.538  1.00  0.00     0.012 A 
ATOM     52  C   UNL A   1      38.610  31.427  36.507  1.00  0.00     0.148 A 
ATOM     53  C   UNL A   1      39.229  34.158  36.632  1.00  0.00     0.002 A 
ATOM     54  C   UNL A   1      38.146  32.202  37.564  1.00  0.00     0.091 A 
ATOM     55  F   UNL A   1      38.361  30.111  36.443  1.00  0.00    -0.205 F 
ATOM     56  C   UNL A   1      38.470  33.564  37.638  1.00  0.00     0.022 A 
BRANCH  54  57
ATOM     57  S   UNL A   1      37.053  31.540  38.827  1.00  0.00     0.127 S 
ATOM     58  O   UNL A   1      35.909  32.442  38.738  1.00  0.00    -0.237 OA
ATOM     59  O   UNL A   1      36.807  30.182  38.339  1.00  0.00    -0.237 OA
ATOM     60  O   UNL A   1      37.816  31.596  40.067  1.00  0.00    -0.744 OA
ENDBRANCH  54  57
ENDBRANCH  26  50
BRANCH  38  61
ATOM     61  C   UNL A   1      44.747  27.706  34.368  1.00  0.00     0.023 A 
ATOM     62  C   UNL A   1      45.839  28.563  34.602  1.00  0.00     0.012 A 
ATOM     63  C   UNL A   1      44.665  26.476  35.047  1.00  0.00     0.148 A 
ATOM     64  C   UNL A   1      46.845  28.193  35.490  1.00  0.00     0.002 A 
ATOM     65  C   UNL A   1      45.643  26.138  35.970  1.00  0.00     0.091 A 
ATOM     66  F   UNL A   1      43.623  25.673  34.790  1.00  0.00    -0.205 F 
ATOM     67  C   UNL A   1      46.740  26.990  36.185  1.00  0.00     0.022 A 
BRANCH  65  68
ATOM     68  S   UNL A   1      45.533  24.666  36.991  1.00  0.00     0.127 S 
ATOM     69  O   UNL A   1      44.239  24.854  37.645  1.00  0.00    -0.237 OA
ATOM     70  O   UNL A   1      45.564  23.596  35.994  1.00  0.00    -0.237 OA
ATOM     71  O   UNL A   1      46.688  24.701  37.878  1.00  0.00    -0.744 OA
ENDBRANCH  65  68
ENDBRANCH  38  61
ENDBRANCH  12  13
ENDBRANCH   5   7
ENDBRANCH   4   5
ENDBRANCH   3   4
ENDBRANCH   2   3
ENDBRANCH   1   2
BRANCH   1  72
ATOM     72  C   UNL A   1      32.550  28.818  22.540  1.00  0.00     0.202 C 
BRANCH  72  73
ATOM     73  C   UNL A   1      33.274  27.555  22.061  1.00  0.00     0.261 C 
BRANCH  73  74
ATOM     74  O   UNL A   1      32.293  26.704  21.450  1.00  0.00    -0.460 OA
BRANCH  74  75
ATOM     75  C   UNL A   1      32.706  25.418  21.308  1.00  0.00     0.338 C 
ATOM     76  O   UNL A   1      33.270  24.925  20.353  1.00  0.00    -0.246 OA
BRANCH  75  77
ATOM     77  C   UNL A   1      32.528  24.729  22.608  1.00  0.00     0.060 A 
ATOM     78  C   UNL A   1      33.648  24.109  23.181  1.00  0.00     0.017 A 
ATOM     79  C   UNL A   1      31.301  24.731  23.285  1.00  0.00     0.017 A 
ATOM     80  C   UNL A   1      33.519  23.409  24.378  1.00  0.00     0.022 A 
ATOM     81  C   UNL A   1      31.173  24.053  24.494  1.00  0.00     0.022 A 
ATOM     82  C   UNL A   1      32.263  23.333  24.989  1.00  0.00     0.082 A 
BRANCH  82  83
ATOM     83  S   UNL A   1      32.003  22.153  26.280  1.00  0.00     0.241 S 
ATOM     84  O   UNL A   1      33.195  22.082  27.092  1.00  0.00    -0.207 OA
ATOM     85  O   UNL A   1      30.710  22.430  26.867  1.00  0.00    -0.207 OA
BRANCH  83  86
ATOM     86  N   UNL A   1      31.834  20.670  25.495  1.00  0.00    -0.202 NA
ATOM     87  H   UNL A   1      31.010  20.768  24.901  1.00  0.00     0.141 HD
BRANCH  86  88
ATOM     88  C   UNL A   1      32.868  20.044  24.640  1.00  0.00     0.133 C 
ATOM     89  C   UNL A   1      32.330  19.927  23.209  1.00  0.00     0.087 C 
ATOM     90  C   UNL A   1      33.417  18.653  24.977  1.00  0.00     0.202 C 
ATOM     91  C   UNL A   1      32.553  18.483  22.801  1.00  0.00     0.264 C 
ATOM     92  N   UNL A   1      33.653  18.026  23.654  1.00  0.00    -0.331 N 
ATOM     93  C   UNL A   1      32.542  17.658  25.717  1.00  0.00     0.072 C 
ATOM     94  C   UNL A   1      33.627  16.571  23.848  1.00  0.00     0.262 C 
ATOM     95  H   UNL A   1      34.546  18.275  23.229  1.00  0.00     0.348 HD
ATOM     96  C   UNL A   1      33.044  16.311  25.229  1.00  0.00     0.068 C 
ENDBRANCH  86  88
ENDBRANCH  83  86
ENDBRANCH  82  83
ENDBRANCH  75  77
ENDBRANCH  74  75
ENDBRANCH  73  74
ENDBRANCH  72  73
ENDBRANCH   1  72
TORSDOF 20
ENDMDL
MODEL 3
REMARK VINA RESULT:     -10.9      1.957      2.400
REMARK SMILES O=C(OCCOCCOC(=O)c1ccc(S(=O)(=O)N[C@@H]2CC[N@@H+]3CCC[C@H]23)cc1)c1ccc(-c2c3nc(c(-c4cccc(S(=O)(=O)[O-])c4F)c4ccc([nH]4)c(-c4cccc(S(=O)(=O)[O-])c4F)c4nc(c(-c5cccc(S(=O)(=O)[O-])c5F)c5ccc2[nH]5)C=C4)C=C3)cc1
REMARK SMILES IDX 6 1 5 2 4 3 3 4 2 5 1 6 30 7 31 8 92 9 32 10 91 11 33 12
REMARK SMILES IDX 34 13 35 14 85 15 36 16 90 17 84 18 86 19 37 20 89 21 83 22
REMARK SMILES IDX 82 23 38 25 70 26 50 27 69 28 51 29 54 30 68 31 87 32 52 33
REMARK SMILES IDX 53 34 67 36 88 37 55 38 39 39 40 40 48 41 41 42 43 43 49 44
REMARK SMILES IDX 42 45 44 46 45 47 46 48 47 49 71 50 72 51 80 52 73 53 75 54
REMARK SMILES IDX 81 55 74 56 76 57 77 58 78 59 79 60 56 61 57 62 65 63 58 64
REMARK SMILES IDX 60 65 66 66 59 67 61 68 62 69 63 70 64 71 7 72 8 73 9 74
REMARK SMILES IDX 10 75 11 76 12 77 13 78 29 79 14 80 28 81 15 82 16 83 17 84
REMARK SMILES IDX 18 85 19 86 20 88 21 89 27 90 22 91 23 92 26 93 24 94 25 96
REMARK H PARENT 86 24 54 35 19 87 23 95
REMARK Flexibility Score: inf
ROOT
ATOM      1  O   UNL A   1      38.304  21.455  25.652  1.00  0.00    -0.374 OA
ENDROOT
BRANCH   1   2
ATOM      2  C   UNL A   1      38.362  20.193  24.987  1.00  0.00     0.202 C 
BRANCH   2   3
ATOM      3  C   UNL A   1      39.113  19.096  25.745  1.00  0.00     0.261 C 
BRANCH   3   4
ATOM      4  O   UNL A   1      40.530  19.334  25.685  1.00  0.00    -0.460 OA
BRANCH   4   5
ATOM      5  C   UNL A   1      41.342  19.779  26.672  1.00  0.00     0.338 C 
ATOM      6  O   UNL A   1      41.863  18.953  27.418  1.00  0.00    -0.246 OA
BRANCH   5   7
ATOM      7  C   UNL A   1      41.624  21.227  26.909  1.00  0.00     0.060 A 
ATOM      8  C   UNL A   1      42.121  21.750  28.104  1.00  0.00     0.016 A 
ATOM      9  C   UNL A   1      41.483  22.097  25.816  1.00  0.00     0.016 A 
ATOM     10  C   UNL A   1      42.419  23.095  28.246  1.00  0.00     0.010 A 
ATOM     11  C   UNL A   1      41.827  23.447  25.933  1.00  0.00     0.010 A 
ATOM     12  C   UNL A   1      42.292  23.946  27.155  1.00  0.00    -0.014 A 
BRANCH  12  13
ATOM     13  C   UNL A   1      42.632  25.363  27.344  1.00  0.00     0.031 A 
ATOM     14  C   UNL A   1      43.906  25.878  26.762  1.00  0.00     0.074 A 
ATOM     15  C   UNL A   1      41.753  26.166  27.971  1.00  0.00     0.049 A 
ATOM     16  N   UNL A   1      44.433  27.065  26.861  1.00  0.00    -0.248 NA
ATOM     17  C   UNL A   1      44.691  24.931  25.947  1.00  0.00     0.031 C 
ATOM     18  C   UNL A   1      40.447  25.745  28.487  1.00  0.00     0.029 A 
ATOM     19  N   UNL A   1      41.821  27.497  28.284  1.00  0.00    -0.354 N 
ATOM     20  C   UNL A   1      45.641  26.993  26.182  1.00  0.00     0.074 A 
ATOM     21  C   UNL A   1      45.755  25.657  25.640  1.00  0.00     0.031 C 
ATOM     22  C   UNL A   1      39.845  26.794  29.069  1.00  0.00     0.029 A 
ATOM     23  C   UNL A   1      40.749  27.936  29.026  1.00  0.00     0.049 A 
ATOM     24  H   UNL A   1      42.563  28.082  28.006  1.00  0.00     0.167 HD
ATOM     25  C   UNL A   1      46.574  27.961  26.048  1.00  0.00     0.034 A 
ATOM     26  C   UNL A   1      40.556  29.115  29.646  1.00  0.00     0.034 A 
ATOM     27  C   UNL A   1      46.417  29.281  26.589  1.00  0.00     0.049 A 
ATOM     28  C   UNL A   1      41.634  30.156  29.513  1.00  0.00     0.074 A 
ATOM     29  C   UNL A   1      47.286  30.352  26.513  1.00  0.00     0.029 A 
ATOM     30  N   UNL A   1      45.318  29.700  27.327  1.00  0.00    -0.354 N 
ATOM     31  N   UNL A   1      42.747  30.105  28.817  1.00  0.00    -0.248 NA
ATOM     32  C   UNL A   1      41.436  31.416  30.240  1.00  0.00     0.031 C 
ATOM     33  C   UNL A   1      46.727  31.408  27.239  1.00  0.00     0.029 A 
ATOM     34  C   UNL A   1      45.497  31.006  27.739  1.00  0.00     0.049 A 
ATOM     35  H   UNL A   1      44.528  29.147  27.527  1.00  0.00     0.167 HD
ATOM     36  C   UNL A   1      43.375  31.327  29.010  1.00  0.00     0.074 A 
ATOM     37  C   UNL A   1      42.501  32.111  29.862  1.00  0.00     0.031 C 
ATOM     38  C   UNL A   1      44.574  31.761  28.549  1.00  0.00     0.034 A 
BRANCH  25  39
ATOM     39  C   UNL A   1      47.851  27.603  25.341  1.00  0.00     0.023 A 
ATOM     40  C   UNL A   1      48.939  27.069  26.058  1.00  0.00     0.012 A 
ATOM     41  C   UNL A   1      47.961  27.791  23.950  1.00  0.00     0.148 A 
ATOM     42  C   UNL A   1      50.130  26.753  25.403  1.00  0.00     0.002 A 
ATOM     43  C   UNL A   1      49.134  27.438  23.298  1.00  0.00     0.091 A 
ATOM     44  F   UNL A   1      46.921  28.327  23.294  1.00  0.00    -0.205 F 
ATOM     45  C   UNL A   1      50.225  26.930  24.024  1.00  0.00     0.022 A 
BRANCH  43  46
ATOM     46  S   UNL A   1      49.336  27.575  21.519  1.00  0.00     0.127 S 
ATOM     47  O   UNL A   1      50.489  26.707  21.285  1.00  0.00    -0.237 OA
ATOM     48  O   UNL A   1      48.063  27.047  21.028  1.00  0.00    -0.237 OA
ATOM     49  O   UNL A   1      49.559  28.988  21.245  1.00  0.00    -0.744 OA
ENDBRANCH  43  46
ENDBRANCH  25  39
BRANCH  26  50
ATOM     50  C   UNL A   1      39.333  29.351  30.466  1.00  0.00     0.023 A 
ATOM     51  C   UNL A   1      39.147  28.646  31.671  1.00  0.00     0.012 A 
ATOM     52  C   UNL A   1      38.353  30.283  30.065  1.00  0.00     0.148 A 
ATOM     53  C   UNL A   1      37.997  28.840  32.440  1.00  0.00     0.002 A 
ATOM     54  C   UNL A   1      37.240  30.515  30.864  1.00  0.00     0.091 A 
ATOM     55  F   UNL A   1      38.528  30.930  28.903  1.00  0.00    -0.205 F 
ATOM     56  C   UNL A   1      37.050  29.781  32.043  1.00  0.00     0.022 A 
BRANCH  54  57
ATOM     57  S   UNL A   1      36.045  31.803  30.488  1.00  0.00     0.127 S 
ATOM     58  O   UNL A   1      35.388  31.266  29.300  1.00  0.00    -0.237 OA
ATOM     59  O   UNL A   1      35.219  31.818  31.696  1.00  0.00    -0.237 OA
ATOM     60  O   UNL A   1      36.831  33.015  30.291  1.00  0.00    -0.744 OA
ENDBRANCH  54  57
ENDBRANCH  26  50
BRANCH  38  61
ATOM     61  C   UNL A   1      45.001  33.147  28.940  1.00  0.00     0.023 A 
ATOM     62  C   UNL A   1      45.710  33.344  30.140  1.00  0.00     0.012 A 
ATOM     63  C   UNL A   1      44.796  34.229  28.062  1.00  0.00     0.148 A 
ATOM     64  C   UNL A   1      46.195  34.606  30.471  1.00  0.00     0.002 A 
ATOM     65  C   UNL A   1      45.330  35.471  28.372  1.00  0.00     0.091 A 
ATOM     66  F   UNL A   1      44.103  34.014  26.936  1.00  0.00    -0.205 F 
ATOM     67  C   UNL A   1      46.020  35.665  29.581  1.00  0.00     0.022 A 
BRANCH  65  68
ATOM     68  S   UNL A   1      45.251  36.859  27.239  1.00  0.00     0.127 S 
ATOM     69  O   UNL A   1      45.831  37.933  28.043  1.00  0.00    -0.237 OA
ATOM     70  O   UNL A   1      46.092  36.402  26.132  1.00  0.00    -0.237 OA
ATOM     71  O   UNL A   1      43.844  37.027  26.901  1.00  0.00    -0.744 OA
ENDBRANCH  65  68
ENDBRANCH  38  61
ENDBRANCH  12  13
ENDBRANCH   5   7
ENDBRANCH   4   5
ENDBRANCH   3   4
ENDBRANCH   2   3
ENDBRANCH   1   2
BRANCH   1  72
ATOM     72  C   UNL A   1      37.090  22.204  25.493  1.00  0.00     0.202 C 
BRANCH  72  73
ATOM     73  C   UNL A   1      35.899  21.238  25.511  1.00  0.00     0.261 C 
BRANCH  73  74
ATOM     74  O   UNL A   1      35.035  21.603  24.424  1.00  0.00    -0.460 OA
BRANCH  74  75
ATOM     75  C   UNL A   1      33.832  20.975  24.456  1.00  0.00     0.338 C 
ATOM     76  O   UNL A   1      33.621  19.780  24.429  1.00  0.00    -0.246 OA
BRANCH  75  77
ATOM     77  C   UNL A   1      32.787  21.993  24.726  1.00  0.00     0.060 A 
ATOM     78  C   UNL A   1      32.674  23.069  23.834  1.00  0.00     0.017 A 
ATOM     79  C   UNL A   1      31.898  21.872  25.803  1.00  0.00     0.017 A 
ATOM     80  C   UNL A   1      31.740  24.074  24.074  1.00  0.00     0.022 A 
ATOM     81  C   UNL A   1      30.947  22.862  26.031  1.00  0.00     0.022 A 
ATOM     82  C   UNL A   1      30.930  23.992  25.210  1.00  0.00     0.082 A 
BRANCH  82  83
ATOM     83  S   UNL A   1      30.023  25.420  25.727  1.00  0.00     0.241 S 
ATOM     84  O   UNL A   1      29.496  26.083  24.557  1.00  0.00    -0.207 OA
ATOM     85  O   UNL A   1      29.159  25.016  26.814  1.00  0.00    -0.207 OA
BRANCH  83  86
ATOM     86  N   UNL A   1      31.170  26.445  26.419  1.00  0.00    -0.202 NA
ATOM     87  H   UNL A   1      31.749  25.847  27.010  1.00  0.00     0.141 HD
BRANCH  86  88
ATOM     88  C   UNL A   1      32.118  27.288  25.655  1.00  0.00     0.133 C 
ATOM     89  C   UNL A   1      33.550  26.834  25.964  1.00  0.00     0.087 C 
ATOM     90  C   UNL A   1      32.130  28.809  25.845  1.00  0.00     0.202 C 
ATOM     91  C   UNL A   1      34.307  28.091  26.350  1.00  0.00     0.264 C 
ATOM     92  N   UNL A   1      33.560  29.179  25.715  1.00  0.00    -0.331 N 
ATOM     93  C   UNL A   1      31.704  29.405  27.174  1.00  0.00     0.072 C 
ATOM     94  C   UNL A   1      33.748  30.455  26.417  1.00  0.00     0.262 C 
ATOM     95  H   UNL A   1      33.873  29.298  24.751  1.00  0.00     0.348 HD
ATOM     96  C   UNL A   1      32.503  30.693  27.259  1.00  0.00     0.068 C 
ENDBRANCH  86  88
ENDBRANCH  83  86
ENDBRANCH  82  83
ENDBRANCH  75  77
ENDBRANCH  74  75
ENDBRANCH  73  74
ENDBRANCH  72  73
ENDBRANCH   1  72
TORSDOF 20
ENDMDL
