MODEL 1
REMARK VINA RESULT:      -8.3      0.000      0.000
REMARK SMILES COc1ccc(S(=O)(=O)N(Cc2ccccc2)c2ccccc2C(=O)OCCOCCOC(=O)c2ccc(-c3c4nc(c(-c5cccc(S(=O)(=O)[O-])c5F)c5ccc([nH]5)c(-c5cccc(S(=O)(=O)[O-])c5F)c5nc(c(-c6cccc(S(=O)(=O)[O-])c6F)c6ccc3[nH]6)C=C5)C=C4)cc2)cc1
REMARK SMILES IDX 28 1 27 2 26 3 24 4 25 5 23 6 18 7 19 8 20 9 22 10 21 11
REMARK SMILES IDX 10 12 7 13 8 14 9 15 6 16 3 17 4 18 99 19 5 20 98 21 2 22
REMARK SMILES IDX 1 23 11 24 12 25 13 26 17 27 14 28 16 29 15 30 29 31 30 32
REMARK SMILES IDX 31 33 32 34 33 35 34 36 35 37 36 38 97 39 37 40 96 41 38 42
REMARK SMILES IDX 39 43 40 44 90 45 41 46 95 47 89 48 91 49 42 50 94 51 88 52
REMARK SMILES IDX 87 53 43 55 75 56 55 57 74 58 56 59 59 60 73 61 92 62 57 63
REMARK SMILES IDX 58 64 72 66 93 67 60 68 44 69 45 70 53 71 46 72 48 73 54 74
REMARK SMILES IDX 47 75 49 76 50 77 51 78 52 79 76 80 77 81 85 82 78 83 80 84
REMARK SMILES IDX 86 85 79 86 81 87 82 88 83 89 84 90 61 91 62 92 70 93 63 94
REMARK SMILES IDX 65 95 71 96 64 97 66 98 67 99 68 100 69 101
REMARK H PARENT 91 54 59 65
REMARK Flexibility Score: inf
ROOT
ATOM      1  C   UNL A   1      48.199  24.468  34.357  1.00  0.00     0.202 C 
ENDROOT
BRANCH   1   2
ATOM      2  C   UNL A   1      48.458  25.634  33.396  1.00  0.00     0.261 C 
BRANCH   2   3
ATOM      3  O   UNL A   1      48.216  25.315  32.018  1.00  0.00    -0.460 OA
BRANCH   3   4
ATOM      4  C   UNL A   1      47.284  26.108  31.434  1.00  0.00     0.340 C 
ATOM      5  O   UNL A   1      46.073  26.060  31.623  1.00  0.00    -0.246 OA
BRANCH   4   6
ATOM      6  C   UNL A   1      47.872  27.235  30.682  1.00  0.00     0.084 A 
ATOM      7  C   UNL A   1      48.386  27.223  29.374  1.00  0.00     0.067 A 
ATOM      8  C   UNL A   1      48.701  28.481  28.811  1.00  0.00     0.028 A 
ATOM      9  C   UNL A   1      48.669  29.672  29.543  1.00  0.00     0.002 A 
ATOM     10  C   UNL A   1      47.843  28.449  31.417  1.00  0.00     0.018 A 
ATOM     11  C   UNL A   1      48.269  29.651  30.865  1.00  0.00     0.001 A 
BRANCH   7  12
ATOM     12  N   UNL A   1      48.699  26.024  28.586  1.00  0.00    -0.261 N 
BRANCH  12  13
ATOM     13  S   UNL A   1      47.642  25.634  27.290  1.00  0.00     0.264 S 
ATOM     14  O   UNL A   1      46.408  26.377  27.446  1.00  0.00    -0.201 OA
ATOM     15  O   UNL A   1      47.558  24.194  27.227  1.00  0.00    -0.201 OA
BRANCH  13  16
ATOM     16  C   UNL A   1      48.400  26.155  25.744  1.00  0.00     0.088 A 
ATOM     17  C   UNL A   1      49.508  26.902  23.259  1.00  0.00     0.118 A 
ATOM     18  C   UNL A   1      48.425  26.024  23.338  1.00  0.00     0.048 A 
ATOM     19  C   UNL A   1      49.990  27.465  24.428  1.00  0.00     0.048 A 
ATOM     20  C   UNL A   1      47.901  25.612  24.564  1.00  0.00     0.026 A 
ATOM     21  C   UNL A   1      49.396  27.132  25.652  1.00  0.00     0.026 A 
BRANCH  17  22
ATOM     22  O   UNL A   1      49.967  27.161  22.004  1.00  0.00    -0.497 OA
ATOM     23  C   UNL A   1      49.866  28.486  21.504  1.00  0.00     0.278 C 
ENDBRANCH  17  22
ENDBRANCH  13  16
ENDBRANCH  12  13
BRANCH  12  24
ATOM     24  C   UNL A   1      50.142  25.624  28.584  1.00  0.00     0.171 C 
BRANCH  24  25
ATOM     25  C   UNL A   1      51.036  25.846  29.807  1.00  0.00    -0.027 A 
ATOM     26  C   UNL A   1      51.908  26.933  29.968  1.00  0.00     0.005 A 
ATOM     27  C   UNL A   1      51.029  24.889  30.837  1.00  0.00     0.005 A 
ATOM     28  C   UNL A   1      52.702  27.096  31.105  1.00  0.00     0.000 A 
ATOM     29  C   UNL A   1      51.825  25.045  31.982  1.00  0.00     0.000 A 
ATOM     30  C   UNL A   1      52.654  26.154  32.119  1.00  0.00     0.000 A 
ENDBRANCH  24  25
ENDBRANCH  12  24
ENDBRANCH   7  12
ENDBRANCH   4   6
ENDBRANCH   3   4
ENDBRANCH   2   3
ENDBRANCH   1   2
BRANCH   1  31
ATOM     31  O   UNL A   1      48.808  24.485  35.643  1.00  0.00    -0.374 OA
BRANCH  31  32
ATOM     32  C   UNL A   1      48.176  25.234  36.677  1.00  0.00     0.202 C 
BRANCH  32  33
ATOM     33  C   UNL A   1      48.683  26.650  36.999  1.00  0.00     0.261 C 
BRANCH  33  34
ATOM     34  O   UNL A   1      47.685  27.687  36.976  1.00  0.00    -0.460 OA
BRANCH  34  35
ATOM     35  C   UNL A   1      48.018  28.765  36.219  1.00  0.00     0.338 C 
ATOM     36  O   UNL A   1      49.018  29.458  36.329  1.00  0.00    -0.246 OA
BRANCH  35  37
ATOM     37  C   UNL A   1      47.056  28.977  35.123  1.00  0.00     0.060 A 
ATOM     38  C   UNL A   1      46.936  30.262  34.577  1.00  0.00     0.016 A 
ATOM     39  C   UNL A   1      46.140  27.983  34.787  1.00  0.00     0.016 A 
ATOM     40  C   UNL A   1      45.864  30.577  33.737  1.00  0.00     0.010 A 
ATOM     41  C   UNL A   1      45.068  28.303  33.944  1.00  0.00     0.010 A 
ATOM     42  C   UNL A   1      44.893  29.611  33.445  1.00  0.00    -0.014 A 
BRANCH  42  43
ATOM     43  C   UNL A   1      43.629  29.968  32.739  1.00  0.00     0.031 A 
ATOM     44  C   UNL A   1      42.445  30.445  33.539  1.00  0.00     0.074 A 
ATOM     45  C   UNL A   1      43.489  29.804  31.409  1.00  0.00     0.049 A 
ATOM     46  N   UNL A   1      41.210  30.639  33.153  1.00  0.00    -0.248 NA
ATOM     47  C   UNL A   1      42.688  30.765  34.956  1.00  0.00     0.031 C 
ATOM     48  C   UNL A   1      44.543  29.403  30.486  1.00  0.00     0.029 A 
ATOM     49  N   UNL A   1      42.356  29.836  30.624  1.00  0.00    -0.354 N 
ATOM     50  C   UNL A   1      40.538  31.134  34.264  1.00  0.00     0.074 A 
ATOM     51  C   UNL A   1      41.480  31.131  35.363  1.00  0.00     0.031 C 
ATOM     52  C   UNL A   1      43.985  29.035  29.319  1.00  0.00     0.029 A 
ATOM     53  C   UNL A   1      42.541  29.199  29.416  1.00  0.00     0.049 A 
ATOM     54  H   UNL A   1      41.513  30.265  30.895  1.00  0.00     0.167 HD
ATOM     55  C   UNL A   1      39.273  31.615  34.344  1.00  0.00     0.034 A 
ATOM     56  C   UNL A   1      41.648  28.735  28.521  1.00  0.00     0.034 A 
ATOM     57  C   UNL A   1      38.350  31.649  33.242  1.00  0.00     0.049 A 
ATOM     58  C   UNL A   1      40.204  29.112  28.671  1.00  0.00     0.074 A 
ATOM     59  C   UNL A   1      37.096  32.231  33.181  1.00  0.00     0.029 A 
ATOM     60  N   UNL A   1      38.572  31.055  32.010  1.00  0.00    -0.354 N 
ATOM     61  N   UNL A   1      39.620  29.748  29.655  1.00  0.00    -0.248 NA
ATOM     62  C   UNL A   1      39.317  28.810  27.539  1.00  0.00     0.031 C 
ATOM     63  C   UNL A   1      36.550  31.967  31.920  1.00  0.00     0.029 A 
ATOM     64  C   UNL A   1      37.471  31.235  31.190  1.00  0.00     0.049 A 
ATOM     65  H   UNL A   1      39.393  30.575  31.756  1.00  0.00     0.167 HD
ATOM     66  C   UNL A   1      38.330  30.015  29.220  1.00  0.00     0.074 A 
ATOM     67  C   UNL A   1      38.203  29.431  27.900  1.00  0.00     0.031 C 
ATOM     68  C   UNL A   1      37.354  30.713  29.853  1.00  0.00     0.034 A 
BRANCH  55  69
ATOM     69  C   UNL A   1      38.847  32.232  35.650  1.00  0.00     0.023 A 
ATOM     70  C   UNL A   1      39.039  33.615  35.849  1.00  0.00     0.012 A 
ATOM     71  C   UNL A   1      38.210  31.473  36.649  1.00  0.00     0.148 A 
ATOM     72  C   UNL A   1      38.638  34.228  37.035  1.00  0.00     0.002 A 
ATOM     73  C   UNL A   1      37.776  32.098  37.813  1.00  0.00     0.091 A 
ATOM     74  F   UNL A   1      38.055  30.156  36.452  1.00  0.00    -0.205 F 
ATOM     75  C   UNL A   1      37.998  33.471  38.012  1.00  0.00     0.022 A 
BRANCH  73  76
ATOM     76  S   UNL A   1      36.878  31.223  39.099  1.00  0.00     0.127 S 
ATOM     77  O   UNL A   1      35.656  32.019  39.199  1.00  0.00    -0.237 OA
ATOM     78  O   UNL A   1      36.696  29.898  38.506  1.00  0.00    -0.237 OA
ATOM     79  O   UNL A   1      37.740  31.247  40.273  1.00  0.00    -0.744 OA
ENDBRANCH  73  76
ENDBRANCH  55  69
BRANCH  56  80
ATOM     80  C   UNL A   1      42.100  27.904  27.373  1.00  0.00     0.023 A 
ATOM     81  C   UNL A   1      42.418  28.522  26.150  1.00  0.00     0.012 A 
ATOM     82  C   UNL A   1      42.210  26.502  27.492  1.00  0.00     0.148 A 
ATOM     83  C   UNL A   1      42.819  27.757  25.055  1.00  0.00     0.002 A 
ATOM     84  C   UNL A   1      42.644  25.750  26.406  1.00  0.00     0.091 A 
ATOM     85  F   UNL A   1      41.866  25.933  28.655  1.00  0.00    -0.205 F 
ATOM     86  C   UNL A   1      42.938  26.375  25.184  1.00  0.00     0.022 A 
BRANCH  84  87
ATOM     87  S   UNL A   1      42.884  23.970  26.478  1.00  0.00     0.127 S 
ATOM     88  O   UNL A   1      41.540  23.502  26.813  1.00  0.00    -0.237 OA
ATOM     89  O   UNL A   1      43.313  23.672  25.112  1.00  0.00    -0.237 OA
ATOM     90  O   UNL A   1      43.895  23.741  27.501  1.00  0.00    -0.744 OA
ENDBRANCH  84  87
ENDBRANCH  56  80
BRANCH  68  91
ATOM     91  C   UNL A   1      36.079  30.974  29.098  1.00  0.00     0.023 A 
ATOM     92  C   UNL A   1      35.372  29.909  28.508  1.00  0.00     0.012 A 
ATOM     93  C   UNL A   1      35.552  32.281  29.023  1.00  0.00     0.148 A 
ATOM     94  C   UNL A   1      34.178  30.145  27.828  1.00  0.00     0.002 A 
ATOM     95  C   UNL A   1      34.338  32.499  28.386  1.00  0.00     0.091 A 
ATOM     96  F   UNL A   1      36.253  33.286  29.568  1.00  0.00    -0.205 F 
ATOM     97  C   UNL A   1      33.654  31.435  27.778  1.00  0.00     0.022 A 
BRANCH  95  98
ATOM     98  S   UNL A   1      33.546  34.113  28.358  1.00  0.00     0.127 S 
ATOM     99  O   UNL A   1      34.548  34.926  27.671  1.00  0.00    -0.237 OA
ATOM    100  O   UNL A   1      32.335  33.853  27.580  1.00  0.00    -0.237 OA
ATOM    101  O   UNL A   1      33.302  34.462  29.751  1.00  0.00    -0.744 OA
ENDBRANCH  95  98
ENDBRANCH  68  91
ENDBRANCH  42  43
ENDBRANCH  35  37
ENDBRANCH  34  35
ENDBRANCH  33  34
ENDBRANCH  32  33
ENDBRANCH  31  32
ENDBRANCH   1  31
TORSDOF 23
ENDMDL
MODEL 2
REMARK VINA RESULT:      -8.3      4.937     11.135
REMARK SMILES COc1ccc(S(=O)(=O)N(Cc2ccccc2)c2ccccc2C(=O)OCCOCCOC(=O)c2ccc(-c3c4nc(c(-c5cccc(S(=O)(=O)[O-])c5F)c5ccc([nH]5)c(-c5cccc(S(=O)(=O)[O-])c5F)c5nc(c(-c6cccc(S(=O)(=O)[O-])c6F)c6ccc3[nH]6)C=C5)C=C4)cc2)cc1
REMARK SMILES IDX 28 1 27 2 26 3 24 4 25 5 23 6 18 7 19 8 20 9 22 10 21 11
REMARK SMILES IDX 10 12 7 13 8 14 9 15 6 16 3 17 4 18 99 19 5 20 98 21 2 22
REMARK SMILES IDX 1 23 11 24 12 25 13 26 17 27 14 28 16 29 15 30 29 31 30 32
REMARK SMILES IDX 31 33 32 34 33 35 34 36 35 37 36 38 97 39 37 40 96 41 38 42
REMARK SMILES IDX 39 43 40 44 90 45 41 46 95 47 89 48 91 49 42 50 94 51 88 52
REMARK SMILES IDX 87 53 43 55 75 56 55 57 74 58 56 59 59 60 73 61 92 62 57 63
REMARK SMILES IDX 58 64 72 66 93 67 60 68 44 69 45 70 53 71 46 72 48 73 54 74
REMARK SMILES IDX 47 75 49 76 50 77 51 78 52 79 76 80 77 81 85 82 78 83 80 84
REMARK SMILES IDX 86 85 79 86 81 87 82 88 83 89 84 90 61 91 62 92 70 93 63 94
REMARK SMILES IDX 65 95 71 96 64 97 66 98 67 99 68 100 69 101
REMARK H PARENT 91 54 59 65
REMARK Flexibility Score: inf
ROOT
ATOM      1  C   UNL A   1      37.681  32.417  37.814  1.00  0.00     0.202 C 
ENDROOT
BRANCH   1   2
ATOM      2  C   UNL A   1      38.579  31.950  36.662  1.00  0.00     0.261 C 
BRANCH   2   3
ATOM      3  O   UNL A   1      38.214  32.491  35.385  1.00  0.00    -0.460 OA
BRANCH   3   4
ATOM      4  C   UNL A   1      37.989  31.544  34.440  1.00  0.00     0.340 C 
ATOM      5  O   UNL A   1      38.124  30.333  34.583  1.00  0.00    -0.246 OA
BRANCH   4   6
ATOM      6  C   UNL A   1      37.329  32.079  33.232  1.00  0.00     0.084 A 
ATOM      7  C   UNL A   1      37.859  32.180  31.934  1.00  0.00     0.067 A 
ATOM      8  C   UNL A   1      36.951  32.535  30.910  1.00  0.00     0.028 A 
ATOM      9  C   UNL A   1      35.634  32.929  31.164  1.00  0.00     0.002 A 
ATOM     10  C   UNL A   1      35.990  32.480  33.479  1.00  0.00     0.018 A 
ATOM     11  C   UNL A   1      35.160  32.934  32.461  1.00  0.00     0.001 A 
BRANCH   7  12
ATOM     12  N   UNL A   1      39.274  32.033  31.570  1.00  0.00    -0.261 N 
BRANCH  12  13
ATOM     13  S   UNL A   1      40.354  33.266  32.083  1.00  0.00     0.264 S 
ATOM     14  O   UNL A   1      41.339  32.691  32.976  1.00  0.00    -0.201 OA
ATOM     15  O   UNL A   1      39.549  34.358  32.580  1.00  0.00    -0.201 OA
BRANCH  13  16
ATOM     16  C   UNL A   1      41.228  33.907  30.648  1.00  0.00     0.088 A 
ATOM     17  C   UNL A   1      42.692  34.836  28.422  1.00  0.00     0.118 A 
ATOM     18  C   UNL A   1      43.192  33.832  29.253  1.00  0.00     0.048 A 
ATOM     19  C   UNL A   1      41.420  35.325  28.666  1.00  0.00     0.048 A 
ATOM     20  C   UNL A   1      42.497  33.399  30.383  1.00  0.00     0.026 A 
ATOM     21  C   UNL A   1      40.679  34.817  29.740  1.00  0.00     0.026 A 
BRANCH  17  22
ATOM     22  O   UNL A   1      43.506  35.214  27.399  1.00  0.00    -0.497 OA
ATOM     23  C   UNL A   1      44.821  34.683  27.346  1.00  0.00     0.278 C 
ENDBRANCH  17  22
ENDBRANCH  13  16
ENDBRANCH  12  13
BRANCH  12  24
ATOM     24  C   UNL A   1      39.727  30.624  31.340  1.00  0.00     0.171 C 
BRANCH  24  25
ATOM     25  C   UNL A   1      39.887  30.055  29.928  1.00  0.00    -0.027 A 
ATOM     26  C   UNL A   1      41.119  29.774  29.319  1.00  0.00     0.005 A 
ATOM     27  C   UNL A   1      38.737  29.826  29.152  1.00  0.00     0.005 A 
ATOM     28  C   UNL A   1      41.216  29.250  28.028  1.00  0.00     0.000 A 
ATOM     29  C   UNL A   1      38.826  29.303  27.854  1.00  0.00     0.000 A 
ATOM     30  C   UNL A   1      40.066  29.006  27.296  1.00  0.00     0.000 A 
ENDBRANCH  24  25
ENDBRANCH  12  24
ENDBRANCH   7  12
ENDBRANCH   4   6
ENDBRANCH   3   4
ENDBRANCH   2   3
ENDBRANCH   1   2
BRANCH   1  31
ATOM     31  O   UNL A   1      37.756  31.745  39.065  1.00  0.00    -0.374 OA
BRANCH  31  32
ATOM     32  C   UNL A   1      37.437  32.477  40.244  1.00  0.00     0.202 C 
BRANCH  32  33
ATOM     33  C   UNL A   1      38.478  33.441  40.837  1.00  0.00     0.261 C 
BRANCH  33  34
ATOM     34  O   UNL A   1      38.125  34.836  40.802  1.00  0.00    -0.460 OA
BRANCH  34  35
ATOM     35  C   UNL A   1      39.184  35.683  40.876  1.00  0.00     0.338 C 
ATOM     36  O   UNL A   1      39.510  36.368  41.835  1.00  0.00    -0.246 OA
BRANCH  35  37
ATOM     37  C   UNL A   1      40.014  35.623  39.660  1.00  0.00     0.060 A 
ATOM     38  C   UNL A   1      39.375  35.633  38.413  1.00  0.00     0.016 A 
ATOM     39  C   UNL A   1      41.376  35.347  39.749  1.00  0.00     0.016 A 
ATOM     40  C   UNL A   1      40.084  35.307  37.252  1.00  0.00     0.010 A 
ATOM     41  C   UNL A   1      42.082  35.023  38.584  1.00  0.00     0.010 A 
ATOM     42  C   UNL A   1      41.437  34.957  37.331  1.00  0.00    -0.014 A 
BRANCH  42  43
ATOM     43  C   UNL A   1      42.165  34.395  36.156  1.00  0.00     0.031 A 
ATOM     44  C   UNL A   1      42.665  32.975  36.208  1.00  0.00     0.074 A 
ATOM     45  C   UNL A   1      42.454  35.146  35.075  1.00  0.00     0.049 A 
ATOM     46  N   UNL A   1      43.463  32.349  35.381  1.00  0.00    -0.248 NA
ATOM     47  C   UNL A   1      42.189  32.144  37.326  1.00  0.00     0.031 C 
ATOM     48  C   UNL A   1      42.005  36.514  34.845  1.00  0.00     0.029 A 
ATOM     49  N   UNL A   1      43.309  34.897  34.024  1.00  0.00    -0.354 N 
ATOM     50  C   UNL A   1      43.557  31.047  35.857  1.00  0.00     0.074 A 
ATOM     51  C   UNL A   1      42.805  30.993  37.092  1.00  0.00     0.031 C 
ATOM     52  C   UNL A   1      42.730  37.049  33.848  1.00  0.00     0.029 A 
ATOM     53  C   UNL A   1      43.674  36.051  33.364  1.00  0.00     0.049 A 
ATOM     54  H   UNL A   1      43.623  33.998  33.773  1.00  0.00     0.167 HD
ATOM     55  C   UNL A   1      44.156  29.976  35.281  1.00  0.00     0.034 A 
ATOM     56  C   UNL A   1      44.695  36.295  32.520  1.00  0.00     0.034 A 
ATOM     57  C   UNL A   1      44.874  30.025  34.036  1.00  0.00     0.049 A 
ATOM     58  C   UNL A   1      45.491  35.142  31.987  1.00  0.00     0.074 A 
ATOM     59  C   UNL A   1      45.405  28.978  33.301  1.00  0.00     0.029 A 
ATOM     60  N   UNL A   1      45.183  31.188  33.349  1.00  0.00    -0.354 N 
ATOM     61  N   UNL A   1      45.433  33.879  32.326  1.00  0.00    -0.248 NA
ATOM     62  C   UNL A   1      46.412  35.427  30.877  1.00  0.00     0.031 C 
ATOM     63  C   UNL A   1      46.057  29.512  32.184  1.00  0.00     0.029 A 
ATOM     64  C   UNL A   1      45.918  30.889  32.213  1.00  0.00     0.049 A 
ATOM     65  H   UNL A   1      44.920  32.094  33.629  1.00  0.00     0.167 HD
ATOM     66  C   UNL A   1      46.225  33.204  31.406  1.00  0.00     0.074 A 
ATOM     67  C   UNL A   1      46.789  34.205  30.524  1.00  0.00     0.031 C 
ATOM     68  C   UNL A   1      46.433  31.869  31.293  1.00  0.00     0.034 A 
BRANCH  55  69
ATOM     69  C   UNL A   1      43.977  28.638  35.948  1.00  0.00     0.023 A 
ATOM     70  C   UNL A   1      44.910  28.229  36.924  1.00  0.00     0.012 A 
ATOM     71  C   UNL A   1      42.870  27.818  35.664  1.00  0.00     0.148 A 
ATOM     72  C   UNL A   1      44.766  27.008  37.580  1.00  0.00     0.002 A 
ATOM     73  C   UNL A   1      42.711  26.619  36.351  1.00  0.00     0.091 A 
ATOM     74  F   UNL A   1      42.004  28.212  34.719  1.00  0.00    -0.205 F 
ATOM     75  C   UNL A   1      43.661  26.209  37.301  1.00  0.00     0.022 A 
BRANCH  73  76
ATOM     76  S   UNL A   1      41.284  25.554  36.114  1.00  0.00     0.127 S 
ATOM     77  O   UNL A   1      40.541  25.776  37.353  1.00  0.00    -0.237 OA
ATOM     78  O   UNL A   1      40.662  26.128  34.919  1.00  0.00    -0.237 OA
ATOM     79  O   UNL A   1      41.816  24.210  35.933  1.00  0.00    -0.744 OA
ENDBRANCH  73  76
ENDBRANCH  55  69
BRANCH  56  80
ATOM     80  C   UNL A   1      44.991  37.688  32.087  1.00  0.00     0.023 A 
ATOM     81  C   UNL A   1      45.880  38.476  32.839  1.00  0.00     0.012 A 
ATOM     82  C   UNL A   1      44.387  38.231  30.933  1.00  0.00     0.148 A 
ATOM     83  C   UNL A   1      46.149  39.792  32.463  1.00  0.00     0.002 A 
ATOM     84  C   UNL A   1      44.687  39.532  30.545  1.00  0.00     0.091 A 
ATOM     85  F   UNL A   1      43.515  37.473  30.254  1.00  0.00    -0.205 F 
ATOM     86  C   UNL A   1      45.560  40.317  31.315  1.00  0.00     0.022 A 
BRANCH  84  87
ATOM     87  S   UNL A   1      44.026  40.289  29.055  1.00  0.00     0.127 S 
ATOM     88  O   UNL A   1      42.593  40.309  29.342  1.00  0.00    -0.237 OA
ATOM     89  O   UNL A   1      44.674  41.600  29.075  1.00  0.00    -0.237 OA
ATOM     90  O   UNL A   1      44.427  39.426  27.952  1.00  0.00    -0.744 OA
ENDBRANCH  84  87
ENDBRANCH  56  80
BRANCH  68  91
ATOM     91  C   UNL A   1      47.236  31.384  30.116  1.00  0.00     0.023 A 
ATOM     92  C   UNL A   1      48.633  31.244  30.219  1.00  0.00     0.012 A 
ATOM     93  C   UNL A   1      46.589  31.012  28.919  1.00  0.00     0.148 A 
ATOM     94  C   UNL A   1      49.377  30.773  29.138  1.00  0.00     0.002 A 
ATOM     95  C   UNL A   1      47.332  30.498  27.864  1.00  0.00     0.091 A 
ATOM     96  F   UNL A   1      45.261  31.177  28.830  1.00  0.00    -0.205 F 
ATOM     97  C   UNL A   1      48.727  30.387  27.967  1.00  0.00     0.022 A 
BRANCH  95  98
ATOM     98  S   UNL A   1      46.565  29.889  26.357  1.00  0.00     0.127 S 
ATOM     99  O   UNL A   1      45.445  29.109  26.886  1.00  0.00    -0.237 OA
ATOM    100  O   UNL A   1      46.179  31.127  25.681  1.00  0.00    -0.237 OA
ATOM    101  O   UNL A   1      47.593  29.122  25.667  1.00  0.00    -0.744 OA
ENDBRANCH  95  98
ENDBRANCH  68  91
ENDBRANCH  42  43
ENDBRANCH  35  37
ENDBRANCH  34  35
ENDBRANCH  33  34
ENDBRANCH  32  33
ENDBRANCH  31  32
ENDBRANCH   1  31
TORSDOF 23
ENDMDL
MODEL 3
REMARK VINA RESULT:      -8.1      7.222     12.790
REMARK SMILES COc1ccc(S(=O)(=O)N(Cc2ccccc2)c2ccccc2C(=O)OCCOCCOC(=O)c2ccc(-c3c4nc(c(-c5cccc(S(=O)(=O)[O-])c5F)c5ccc([nH]5)c(-c5cccc(S(=O)(=O)[O-])c5F)c5nc(c(-c6cccc(S(=O)(=O)[O-])c6F)c6ccc3[nH]6)C=C5)C=C4)cc2)cc1
REMARK SMILES IDX 28 1 27 2 26 3 24 4 25 5 23 6 18 7 19 8 20 9 22 10 21 11
REMARK SMILES IDX 10 12 7 13 8 14 9 15 6 16 3 17 4 18 99 19 5 20 98 21 2 22
REMARK SMILES IDX 1 23 11 24 12 25 13 26 17 27 14 28 16 29 15 30 29 31 30 32
REMARK SMILES IDX 31 33 32 34 33 35 34 36 35 37 36 38 97 39 37 40 96 41 38 42
REMARK SMILES IDX 39 43 40 44 90 45 41 46 95 47 89 48 91 49 42 50 94 51 88 52
REMARK SMILES IDX 87 53 43 55 75 56 55 57 74 58 56 59 59 60 73 61 92 62 57 63
REMARK SMILES IDX 58 64 72 66 93 67 60 68 44 69 45 70 53 71 46 72 48 73 54 74
REMARK SMILES IDX 47 75 49 76 50 77 51 78 52 79 76 80 77 81 85 82 78 83 80 84
REMARK SMILES IDX 86 85 79 86 81 87 82 88 83 89 84 90 61 91 62 92 70 93 63 94
REMARK SMILES IDX 65 95 71 96 64 97 66 98 67 99 68 100 69 101
REMARK H PARENT 91 54 59 65
REMARK Flexibility Score: inf
ROOT
ATOM      1  C   UNL A   1      42.143  30.479  33.363  1.00  0.00     0.202 C 
ENDROOT
BRANCH   1   2
ATOM      2  C   UNL A   1      42.528  29.877  32.007  1.00  0.00     0.261 C 
BRANCH   2   3
ATOM      3  O   UNL A   1      41.555  30.099  30.976  1.00  0.00    -0.460 OA
BRANCH   3   4
ATOM      4  C   UNL A   1      40.791  29.011  30.709  1.00  0.00     0.340 C 
ATOM      5  O   UNL A   1      40.683  28.012  31.413  1.00  0.00    -0.246 OA
BRANCH   4   6
ATOM      6  C   UNL A   1      39.881  29.210  29.563  1.00  0.00     0.084 A 
ATOM      7  C   UNL A   1      39.678  28.355  28.465  1.00  0.00     0.067 A 
ATOM      8  C   UNL A   1      38.600  28.676  27.609  1.00  0.00     0.028 A 
ATOM      9  C   UNL A   1      37.864  29.859  27.725  1.00  0.00     0.002 A 
ATOM     10  C   UNL A   1      39.127  30.407  29.671  1.00  0.00     0.018 A 
ATOM     11  C   UNL A   1      38.151  30.747  28.743  1.00  0.00     0.001 A 
BRANCH   7  12
ATOM     12  N   UNL A   1      40.532  27.219  28.092  1.00  0.00    -0.261 N 
BRANCH  12  13
ATOM     13  S   UNL A   1      42.131  27.571  27.574  1.00  0.00     0.264 S 
ATOM     14  O   UNL A   1      42.961  27.819  28.735  1.00  0.00    -0.201 OA
ATOM     15  O   UNL A   1      42.038  28.612  26.577  1.00  0.00    -0.201 OA
BRANCH  13  16
ATOM     16  C   UNL A   1      42.798  26.131  26.727  1.00  0.00     0.088 A 
ATOM     17  C   UNL A   1      43.901  23.842  25.501  1.00  0.00     0.118 A 
ATOM     18  C   UNL A   1      44.160  24.146  26.839  1.00  0.00     0.048 A 
ATOM     19  C   UNL A   1      43.027  24.650  24.796  1.00  0.00     0.048 A 
ATOM     20  C   UNL A   1      43.656  25.300  27.441  1.00  0.00     0.026 A 
ATOM     21  C   UNL A   1      42.440  25.752  25.430  1.00  0.00     0.026 A 
BRANCH  17  22
ATOM     22  O   UNL A   1      44.514  22.725  25.022  1.00  0.00    -0.497 OA
ATOM     23  C   UNL A   1      44.268  21.485  25.666  1.00  0.00     0.278 C 
ENDBRANCH  17  22
ENDBRANCH  13  16
ENDBRANCH  12  13
BRANCH  12  24
ATOM     24  C   UNL A   1      40.172  25.916  28.736  1.00  0.00     0.171 C 
BRANCH  24  25
ATOM     25  C   UNL A   1      39.839  24.676  27.902  1.00  0.00    -0.027 A 
ATOM     26  C   UNL A   1      40.581  23.485  27.919  1.00  0.00     0.005 A 
ATOM     27  C   UNL A   1      38.744  24.721  27.023  1.00  0.00     0.005 A 
ATOM     28  C   UNL A   1      40.236  22.376  27.143  1.00  0.00     0.000 A 
ATOM     29  C   UNL A   1      38.393  23.612  26.239  1.00  0.00     0.000 A 
ATOM     30  C   UNL A   1      39.134  22.436  26.307  1.00  0.00     0.000 A 
ENDBRANCH  24  25
ENDBRANCH  12  24
ENDBRANCH   7  12
ENDBRANCH   4   6
ENDBRANCH   3   4
ENDBRANCH   2   3
ENDBRANCH   1   2
BRANCH   1  31
ATOM     31  O   UNL A   1      41.221  29.779  34.191  1.00  0.00    -0.374 OA
BRANCH  31  32
ATOM     32  C   UNL A   1      39.839  30.104  34.085  1.00  0.00     0.202 C 
BRANCH  32  33
ATOM     33  C   UNL A   1      39.424  31.566  33.846  1.00  0.00     0.261 C 
BRANCH  33  34
ATOM     34  O   UNL A   1      38.932  31.865  32.527  1.00  0.00    -0.460 OA
BRANCH  34  35
ATOM     35  C   UNL A   1      38.577  33.163  32.344  1.00  0.00     0.338 C 
ATOM     36  O   UNL A   1      37.591  33.724  32.797  1.00  0.00    -0.246 OA
BRANCH  35  37
ATOM     37  C   UNL A   1      39.601  33.906  31.588  1.00  0.00     0.060 A 
ATOM     38  C   UNL A   1      39.508  33.939  30.190  1.00  0.00     0.016 A 
ATOM     39  C   UNL A   1      40.745  34.377  32.227  1.00  0.00     0.016 A 
ATOM     40  C   UNL A   1      40.584  34.389  29.419  1.00  0.00     0.010 A 
ATOM     41  C   UNL A   1      41.820  34.828  31.451  1.00  0.00     0.010 A 
ATOM     42  C   UNL A   1      41.770  34.799  30.041  1.00  0.00    -0.014 A 
BRANCH  42  43
ATOM     43  C   UNL A   1      43.006  35.075  29.253  1.00  0.00     0.031 A 
ATOM     44  C   UNL A   1      44.011  33.972  29.047  1.00  0.00     0.074 A 
ATOM     45  C   UNL A   1      43.287  36.305  28.781  1.00  0.00     0.049 A 
ATOM     46  N   UNL A   1      45.221  34.038  28.552  1.00  0.00    -0.248 NA
ATOM     47  C   UNL A   1      43.594  32.613  29.432  1.00  0.00     0.031 C 
ATOM     48  C   UNL A   1      42.405  37.464  28.849  1.00  0.00     0.029 A 
ATOM     49  N   UNL A   1      44.459  36.811  28.262  1.00  0.00    -0.354 N 
ATOM     50  C   UNL A   1      45.695  32.732  28.532  1.00  0.00     0.074 A 
ATOM     51  C   UNL A   1      44.678  31.905  29.145  1.00  0.00     0.031 C 
ATOM     52  C   UNL A   1      43.118  38.571  28.581  1.00  0.00     0.029 A 
ATOM     53  C   UNL A   1      44.496  38.189  28.303  1.00  0.00     0.049 A 
ATOM     54  H   UNL A   1      45.185  36.253  27.902  1.00  0.00     0.167 HD
ATOM     55  C   UNL A   1      46.841  32.255  27.989  1.00  0.00     0.034 A 
ATOM     56  C   UNL A   1      45.532  39.043  28.202  1.00  0.00     0.034 A 
ATOM     57  C   UNL A   1      47.835  33.075  27.350  1.00  0.00     0.049 A 
ATOM     58  C   UNL A   1      46.866  38.521  27.759  1.00  0.00     0.074 A 
ATOM     59  C   UNL A   1      48.965  32.681  26.655  1.00  0.00     0.029 A 
ATOM     60  N   UNL A   1      47.830  34.461  27.347  1.00  0.00    -0.354 N 
ATOM     61  N   UNL A   1      47.239  37.281  27.569  1.00  0.00    -0.248 NA
ATOM     62  C   UNL A   1      47.887  39.519  27.409  1.00  0.00     0.031 C 
ATOM     63  C   UNL A   1      49.656  33.830  26.253  1.00  0.00     0.029 A 
ATOM     64  C   UNL A   1      48.948  34.939  26.684  1.00  0.00     0.049 A 
ATOM     65  H   UNL A   1      47.133  35.022  27.756  1.00  0.00     0.167 HD
ATOM     66  C   UNL A   1      48.494  37.350  26.980  1.00  0.00     0.074 A 
ATOM     67  C   UNL A   1      48.837  38.755  26.886  1.00  0.00     0.031 C 
ATOM     68  C   UNL A   1      49.270  36.334  26.529  1.00  0.00     0.034 A 
BRANCH  55  69
ATOM     69  C   UNL A   1      47.036  30.762  27.979  1.00  0.00     0.023 A 
ATOM     70  C   UNL A   1      47.420  30.113  29.172  1.00  0.00     0.012 A 
ATOM     71  C   UNL A   1      46.785  29.995  26.827  1.00  0.00     0.148 A 
ATOM     72  C   UNL A   1      47.589  28.730  29.209  1.00  0.00     0.002 A 
ATOM     73  C   UNL A   1      46.917  28.612  26.881  1.00  0.00     0.091 A 
ATOM     74  F   UNL A   1      46.442  30.630  25.696  1.00  0.00    -0.205 F 
ATOM     75  C   UNL A   1      47.327  27.979  28.067  1.00  0.00     0.022 A 
BRANCH  73  76
ATOM     76  S   UNL A   1      46.534  27.551  25.483  1.00  0.00     0.127 S 
ATOM     77  O   UNL A   1      46.729  26.222  26.059  1.00  0.00    -0.237 OA
ATOM     78  O   UNL A   1      45.139  27.896  25.203  1.00  0.00    -0.237 OA
ATOM     79  O   UNL A   1      47.472  27.924  24.432  1.00  0.00    -0.744 OA
ENDBRANCH  73  76
ENDBRANCH  55  69
BRANCH  56  80
ATOM     80  C   UNL A   1      45.336  40.493  28.474  1.00  0.00     0.023 A 
ATOM     81  C   UNL A   1      45.063  41.370  27.409  1.00  0.00     0.012 A 
ATOM     82  C   UNL A   1      45.426  41.002  29.788  1.00  0.00     0.148 A 
ATOM     83  C   UNL A   1      44.902  42.735  27.642  1.00  0.00     0.002 A 
ATOM     84  C   UNL A   1      45.230  42.359  30.016  1.00  0.00     0.091 A 
ATOM     85  F   UNL A   1      45.724  40.152  30.780  1.00  0.00    -0.205 F 
ATOM     86  C   UNL A   1      44.978  43.229  28.943  1.00  0.00     0.022 A 
BRANCH  84  87
ATOM     87  S   UNL A   1      45.254  43.092  31.657  1.00  0.00     0.127 S 
ATOM     88  O   UNL A   1      44.397  42.175  32.405  1.00  0.00    -0.237 OA
ATOM     89  O   UNL A   1      46.675  43.017  31.995  1.00  0.00    -0.237 OA
ATOM     90  O   UNL A   1      44.732  44.443  31.502  1.00  0.00    -0.744 OA
ENDBRANCH  84  87
ENDBRANCH  56  80
BRANCH  68  91
ATOM     91  C   UNL A   1      50.538  36.692  25.802  1.00  0.00     0.023 A 
ATOM     92  C   UNL A   1      50.620  36.550  24.404  1.00  0.00     0.012 A 
ATOM     93  C   UNL A   1      51.637  37.224  26.509  1.00  0.00     0.148 A 
ATOM     94  C   UNL A   1      51.786  36.903  23.725  1.00  0.00     0.002 A 
ATOM     95  C   UNL A   1      52.776  37.619  25.819  1.00  0.00     0.091 A 
ATOM     96  F   UNL A   1      51.551  37.327  27.844  1.00  0.00    -0.205 F 
ATOM     97  C   UNL A   1      52.857  37.449  24.429  1.00  0.00     0.022 A 
BRANCH  95  98
ATOM     98  S   UNL A   1      54.164  38.418  26.635  1.00  0.00     0.127 S 
ATOM     99  O   UNL A   1      53.569  39.684  27.064  1.00  0.00    -0.237 OA
ATOM    100  O   UNL A   1      54.464  37.488  27.723  1.00  0.00    -0.237 OA
ATOM    101  O   UNL A   1      55.211  38.525  25.629  1.00  0.00    -0.744 OA
ENDBRANCH  95  98
ENDBRANCH  68  91
ENDBRANCH  42  43
ENDBRANCH  35  37
ENDBRANCH  34  35
ENDBRANCH  33  34
ENDBRANCH  32  33
ENDBRANCH  31  32
ENDBRANCH   1  31
TORSDOF 23
ENDMDL
