MODEL 1
REMARK VINA RESULT:     -10.7      0.000      0.000
REMARK SMILES Cc1nc2nc(CNC(=O)OC(C)(C)C)nn2c(C)c1CCC(=O)OCCOCCOC(=O)c1ccc(-c2c3nc(c(-c4cccc(S(=O)(=O)[O-])c4F)c4ccc([nH]4)c(-c4cccc(S(=O)(=O)[O-])c4F)c4nc(c(-c5cccc(S(=O)(=O)[O-])c5F)c5ccc2[nH]5)C=C4)C=C3)cc1
REMARK SMILES IDX 26 1 25 2 23 3 24 4 22 5 21 6 20 7 1 8 2 9 3 10 4 11 18 12
REMARK SMILES IDX 5 13 17 14 19 15 6 16 16 17 7 18 8 19 9 20 10 22 11 23 12 24
REMARK SMILES IDX 13 25 14 26 15 27 27 28 28 29 29 30 30 31 31 32 32 33 33 34
REMARK SMILES IDX 34 35 35 36 96 37 36 38 95 39 37 40 38 41 39 42 89 43 40 44
REMARK SMILES IDX 94 45 88 46 90 47 41 48 93 49 87 50 86 51 42 53 74 54 54 55
REMARK SMILES IDX 73 56 55 57 58 58 72 59 91 60 56 61 57 62 71 64 92 65 59 66
REMARK SMILES IDX 43 67 44 68 52 69 45 70 47 71 53 72 46 73 48 74 49 75 50 76
REMARK SMILES IDX 51 77 75 78 76 79 84 80 77 81 79 82 85 83 78 84 80 85 81 86
REMARK SMILES IDX 82 87 83 88 60 89 61 90 69 91 62 92 64 93 70 94 63 95 65 96
REMARK SMILES IDX 66 97 67 98 68 99
REMARK H PARENT 8 21 90 52 58 63
REMARK Flexibility Score: inf
ROOT
ATOM      1  C   UNL A   1      32.264  25.703  22.164  1.00  0.00     0.261 C 
ENDROOT
BRANCH   1   2
ATOM      2  O   UNL A   1      31.974  24.382  22.714  1.00  0.00    -0.463 OA
BRANCH   2   3
ATOM      3  C   UNL A   1      32.744  23.311  22.423  1.00  0.00     0.306 C 
ATOM      4  O   UNL A   1      33.624  23.320  21.570  1.00  0.00    -0.252 OA
BRANCH   3   5
ATOM      5  C   UNL A   1      32.372  22.061  23.234  1.00  0.00     0.127 C 
BRANCH   5   6
ATOM      6  C   UNL A   1      32.845  21.890  24.707  1.00  0.00     0.051 C 
BRANCH   6   7
ATOM      7  C   UNL A   1      34.274  22.300  25.037  1.00  0.00    -0.005 A 
ATOM      8  C   UNL A   1      33.650  24.712  25.851  1.00  0.00     0.067 C 
ATOM      9  C   UNL A   1      34.718  23.682  25.543  1.00  0.00     0.046 A 
ATOM     10  N   UNL A   1      35.948  24.033  25.829  1.00  0.00    -0.216 NA
ATOM     11  C   UNL A   1      36.924  23.085  25.708  1.00  0.00     0.252 A 
ATOM     12  C   UNL A   1      35.295  21.428  25.046  1.00  0.00     0.048 A 
ATOM     13  N   UNL A   1      38.204  23.061  26.050  1.00  0.00    -0.192 NA
ATOM     14  N   UNL A   1      36.591  21.826  25.272  1.00  0.00    -0.201 N 
ATOM     15  C   UNL A   1      35.207  19.968  24.919  1.00  0.00     0.067 C 
ATOM     16  C   UNL A   1      38.596  21.772  25.761  1.00  0.00     0.172 A 
ATOM     17  N   UNL A   1      37.675  21.047  25.144  1.00  0.00    -0.148 NA
BRANCH  16  18
ATOM     18  C   UNL A   1      39.903  21.136  26.049  1.00  0.00     0.199 C 
BRANCH  18  19
ATOM     19  N   UNL A   1      40.397  21.618  27.319  1.00  0.00    -0.314 N 
ATOM     20  C   UNL A   1      41.492  22.404  27.448  1.00  0.00     0.408 C 
ATOM     21  H   UNL A   1      39.911  21.360  28.135  1.00  0.00     0.167 HD
ATOM     22  O   UNL A   1      41.943  22.708  28.543  1.00  0.00    -0.225 OA
BRANCH  20  23
ATOM     23  O   UNL A   1      41.988  22.756  26.244  1.00  0.00    -0.444 OA
BRANCH  23  24
ATOM     24  C   UNL A   1      43.283  22.301  25.803  1.00  0.00     0.106 C 
ATOM     25  C   UNL A   1      43.354  20.775  25.725  1.00  0.00     0.056 C 
ATOM     26  C   UNL A   1      43.635  22.976  24.474  1.00  0.00     0.056 C 
ATOM     27  C   UNL A   1      44.258  22.789  26.883  1.00  0.00     0.056 C 
ENDBRANCH  23  24
ENDBRANCH  20  23
ENDBRANCH  18  19
ENDBRANCH  16  18
ENDBRANCH   6   7
ENDBRANCH   5   6
ENDBRANCH   3   5
ENDBRANCH   2   3
ENDBRANCH   1   2
BRANCH   1  28
ATOM     28  C   UNL A   1      32.026  26.904  23.119  1.00  0.00     0.202 C 
BRANCH  28  29
ATOM     29  O   UNL A   1      32.903  28.014  22.932  1.00  0.00    -0.374 OA
BRANCH  29  30
ATOM     30  C   UNL A   1      32.970  28.970  23.984  1.00  0.00     0.202 C 
BRANCH  30  31
ATOM     31  C   UNL A   1      33.269  28.408  25.368  1.00  0.00     0.261 C 
BRANCH  31  32
ATOM     32  O   UNL A   1      34.153  29.260  26.083  1.00  0.00    -0.460 OA
BRANCH  32  33
ATOM     33  C   UNL A   1      33.614  30.210  26.884  1.00  0.00     0.338 C 
ATOM     34  O   UNL A   1      32.501  30.674  26.831  1.00  0.00    -0.246 OA
BRANCH  33  35
ATOM     35  C   UNL A   1      34.688  30.635  27.809  1.00  0.00     0.060 A 
ATOM     36  C   UNL A   1      35.100  31.968  27.792  1.00  0.00     0.016 A 
ATOM     37  C   UNL A   1      35.337  29.676  28.615  1.00  0.00     0.016 A 
ATOM     38  C   UNL A   1      36.301  32.280  28.398  1.00  0.00     0.010 A 
ATOM     39  C   UNL A   1      36.465  30.009  29.303  1.00  0.00     0.010 A 
ATOM     40  C   UNL A   1      37.004  31.255  29.042  1.00  0.00    -0.014 A 
BRANCH  40  41
ATOM     41  C   UNL A   1      38.406  31.416  29.322  1.00  0.00     0.031 A 
ATOM     42  C   UNL A   1      39.203  30.201  29.090  1.00  0.00     0.074 A 
ATOM     43  C   UNL A   1      38.894  32.629  29.652  1.00  0.00     0.049 A 
ATOM     44  N   UNL A   1      39.661  29.403  29.992  1.00  0.00    -0.248 NA
ATOM     45  C   UNL A   1      39.334  29.698  27.716  1.00  0.00     0.031 C 
ATOM     46  C   UNL A   1      38.244  33.946  29.597  1.00  0.00     0.029 A 
ATOM     47  N   UNL A   1      40.161  32.947  29.997  1.00  0.00    -0.354 N 
ATOM     48  C   UNL A   1      40.359  28.424  29.297  1.00  0.00     0.074 A 
ATOM     49  C   UNL A   1      39.930  28.523  27.928  1.00  0.00     0.031 C 
ATOM     50  C   UNL A   1      39.194  34.913  29.624  1.00  0.00     0.029 A 
ATOM     51  C   UNL A   1      40.485  34.289  29.854  1.00  0.00     0.049 A 
ATOM     52  H   UNL A   1      40.805  32.279  30.326  1.00  0.00     0.167 HD
ATOM     53  C   UNL A   1      41.419  27.788  29.865  1.00  0.00     0.034 A 
ATOM     54  C   UNL A   1      41.745  34.793  29.835  1.00  0.00     0.034 A 
ATOM     55  C   UNL A   1      41.496  28.066  31.280  1.00  0.00     0.049 A 
ATOM     56  C   UNL A   1      42.619  33.775  30.480  1.00  0.00     0.074 A 
ATOM     57  C   UNL A   1      40.663  27.847  32.359  1.00  0.00     0.029 A 
ATOM     58  N   UNL A   1      42.367  29.058  31.671  1.00  0.00    -0.354 N 
ATOM     59  N   UNL A   1      42.512  33.444  31.738  1.00  0.00    -0.248 NA
ATOM     60  C   UNL A   1      43.236  32.774  29.619  1.00  0.00     0.031 C 
ATOM     61  C   UNL A   1      40.753  29.039  33.139  1.00  0.00     0.029 A 
ATOM     62  C   UNL A   1      41.694  29.879  32.540  1.00  0.00     0.049 A 
ATOM     63  H   UNL A   1      43.302  29.160  31.379  1.00  0.00     0.167 HD
ATOM     64  C   UNL A   1      42.610  32.057  31.743  1.00  0.00     0.074 A 
ATOM     65  C   UNL A   1      43.139  31.708  30.422  1.00  0.00     0.031 C 
ATOM     66  C   UNL A   1      41.960  31.297  32.675  1.00  0.00     0.034 A 
BRANCH  53  67
ATOM     67  C   UNL A   1      42.585  27.201  29.115  1.00  0.00     0.023 A 
ATOM     68  C   UNL A   1      43.072  25.954  29.562  1.00  0.00     0.012 A 
ATOM     69  C   UNL A   1      43.374  27.902  28.177  1.00  0.00     0.148 A 
ATOM     70  C   UNL A   1      44.303  25.451  29.130  1.00  0.00     0.002 A 
ATOM     71  C   UNL A   1      44.558  27.361  27.689  1.00  0.00     0.091 A 
ATOM     72  F   UNL A   1      43.065  29.158  27.844  1.00  0.00    -0.205 F 
ATOM     73  C   UNL A   1      45.042  26.149  28.186  1.00  0.00     0.022 A 
BRANCH  71  74
ATOM     74  S   UNL A   1      45.533  28.195  26.430  1.00  0.00     0.127 S 
ATOM     75  O   UNL A   1      45.559  29.563  26.938  1.00  0.00    -0.237 OA
ATOM     76  O   UNL A   1      46.805  27.477  26.516  1.00  0.00    -0.237 OA
ATOM     77  O   UNL A   1      44.814  27.989  25.180  1.00  0.00    -0.744 OA
ENDBRANCH  71  74
ENDBRANCH  53  67
BRANCH  54  78
ATOM     78  C   UNL A   1      42.301  35.859  28.961  1.00  0.00     0.023 A 
ATOM     79  C   UNL A   1      41.837  35.995  27.637  1.00  0.00     0.012 A 
ATOM     80  C   UNL A   1      43.051  36.925  29.512  1.00  0.00     0.148 A 
ATOM     81  C   UNL A   1      42.076  37.166  26.902  1.00  0.00     0.002 A 
ATOM     82  C   UNL A   1      43.281  38.088  28.780  1.00  0.00     0.091 A 
ATOM     83  F   UNL A   1      43.456  36.837  30.785  1.00  0.00    -0.205 F 
ATOM     84  C   UNL A   1      42.786  38.216  27.478  1.00  0.00     0.022 A 
BRANCH  82  85
ATOM     85  S   UNL A   1      44.142  39.504  29.481  1.00  0.00     0.127 S 
ATOM     86  O   UNL A   1      43.367  39.758  30.695  1.00  0.00    -0.237 OA
ATOM     87  O   UNL A   1      45.478  38.962  29.708  1.00  0.00    -0.237 OA
ATOM     88  O   UNL A   1      44.053  40.562  28.481  1.00  0.00    -0.744 OA
ENDBRANCH  82  85
ENDBRANCH  54  78
BRANCH  66  89
ATOM     89  C   UNL A   1      41.257  32.005  33.812  1.00  0.00     0.023 A 
ATOM     90  C   UNL A   1      41.951  32.562  34.910  1.00  0.00     0.012 A 
ATOM     91  C   UNL A   1      39.886  32.278  33.679  1.00  0.00     0.148 A 
ATOM     92  C   UNL A   1      41.291  33.349  35.861  1.00  0.00     0.002 A 
ATOM     93  C   UNL A   1      39.242  33.097  34.599  1.00  0.00     0.091 A 
ATOM     94  F   UNL A   1      39.237  31.752  32.630  1.00  0.00    -0.205 F 
ATOM     95  C   UNL A   1      39.937  33.627  35.698  1.00  0.00     0.022 A 
BRANCH  93  96
ATOM     96  S   UNL A   1      37.535  33.595  34.368  1.00  0.00     0.127 S 
ATOM     97  O   UNL A   1      36.874  32.952  35.502  1.00  0.00    -0.237 OA
ATOM     98  O   UNL A   1      37.617  35.054  34.454  1.00  0.00    -0.237 OA
ATOM     99  O   UNL A   1      37.151  33.101  33.051  1.00  0.00    -0.744 OA
ENDBRANCH  93  96
ENDBRANCH  66  89
ENDBRANCH  40  41
ENDBRANCH  33  35
ENDBRANCH  32  33
ENDBRANCH  31  32
ENDBRANCH  30  31
ENDBRANCH  29  30
ENDBRANCH  28  29
ENDBRANCH   1  28
TORSDOF 23
ENDMDL
MODEL 2
REMARK VINA RESULT:     -10.3      3.232      7.889
REMARK SMILES Cc1nc2nc(CNC(=O)OC(C)(C)C)nn2c(C)c1CCC(=O)OCCOCCOC(=O)c1ccc(-c2c3nc(c(-c4cccc(S(=O)(=O)[O-])c4F)c4ccc([nH]4)c(-c4cccc(S(=O)(=O)[O-])c4F)c4nc(c(-c5cccc(S(=O)(=O)[O-])c5F)c5ccc2[nH]5)C=C4)C=C3)cc1
REMARK SMILES IDX 26 1 25 2 23 3 24 4 22 5 21 6 20 7 1 8 2 9 3 10 4 11 18 12
REMARK SMILES IDX 5 13 17 14 19 15 6 16 16 17 7 18 8 19 9 20 10 22 11 23 12 24
REMARK SMILES IDX 13 25 14 26 15 27 27 28 28 29 29 30 30 31 31 32 32 33 33 34
REMARK SMILES IDX 34 35 35 36 96 37 36 38 95 39 37 40 38 41 39 42 89 43 40 44
REMARK SMILES IDX 94 45 88 46 90 47 41 48 93 49 87 50 86 51 42 53 74 54 54 55
REMARK SMILES IDX 73 56 55 57 58 58 72 59 91 60 56 61 57 62 71 64 92 65 59 66
REMARK SMILES IDX 43 67 44 68 52 69 45 70 47 71 53 72 46 73 48 74 49 75 50 76
REMARK SMILES IDX 51 77 75 78 76 79 84 80 77 81 79 82 85 83 78 84 80 85 81 86
REMARK SMILES IDX 82 87 83 88 60 89 61 90 69 91 62 92 64 93 70 94 63 95 65 96
REMARK SMILES IDX 66 97 67 98 68 99
REMARK H PARENT 8 21 90 52 58 63
REMARK Flexibility Score: inf
ROOT
ATOM      1  C   UNL A   1      33.965  31.130  27.345  1.00  0.00     0.261 C 
ENDROOT
BRANCH   1   2
ATOM      2  O   UNL A   1      32.650  30.547  27.094  1.00  0.00    -0.463 OA
BRANCH   2   3
ATOM      3  C   UNL A   1      32.509  29.256  26.726  1.00  0.00     0.306 C 
ATOM      4  O   UNL A   1      32.692  28.310  27.483  1.00  0.00    -0.252 OA
BRANCH   3   5
ATOM      5  C   UNL A   1      32.146  29.087  25.243  1.00  0.00     0.127 C 
BRANCH   5   6
ATOM      6  C   UNL A   1      31.360  27.839  24.747  1.00  0.00     0.051 C 
BRANCH   6   7
ATOM      7  C   UNL A   1      32.161  26.715  24.104  1.00  0.00    -0.005 A 
ATOM      8  C   UNL A   1      33.425  28.263  22.407  1.00  0.00     0.067 C 
ATOM      9  C   UNL A   1      33.136  26.868  22.925  1.00  0.00     0.046 A 
ATOM     10  N   UNL A   1      33.828  25.901  22.373  1.00  0.00    -0.216 NA
ATOM     11  C   UNL A   1      33.711  24.650  22.909  1.00  0.00     0.252 A 
ATOM     12  C   UNL A   1      32.198  25.470  24.606  1.00  0.00     0.048 A 
ATOM     13  N   UNL A   1      34.362  23.516  22.699  1.00  0.00    -0.192 NA
ATOM     14  N   UNL A   1      32.866  24.449  23.973  1.00  0.00    -0.201 N 
ATOM     15  C   UNL A   1      31.646  25.022  25.890  1.00  0.00     0.067 C 
ATOM     16  C   UNL A   1      33.837  22.658  23.641  1.00  0.00     0.172 A 
ATOM     17  N   UNL A   1      32.818  23.156  24.325  1.00  0.00    -0.148 NA
BRANCH  16  18
ATOM     18  C   UNL A   1      34.274  21.276  23.952  1.00  0.00     0.199 C 
BRANCH  18  19
ATOM     19  N   UNL A   1      33.549  20.795  25.106  1.00  0.00    -0.314 N 
ATOM     20  C   UNL A   1      33.006  19.557  25.188  1.00  0.00     0.408 C 
ATOM     21  H   UNL A   1      33.445  21.400  25.875  1.00  0.00     0.167 HD
ATOM     22  O   UNL A   1      32.311  19.219  26.135  1.00  0.00    -0.225 OA
BRANCH  20  23
ATOM     23  O   UNL A   1      33.319  18.811  24.108  1.00  0.00    -0.444 OA
BRANCH  23  24
ATOM     24  C   UNL A   1      33.985  17.539  24.241  1.00  0.00     0.106 C 
ATOM     25  C   UNL A   1      35.420  17.698  24.747  1.00  0.00     0.056 C 
ATOM     26  C   UNL A   1      33.146  16.615  25.128  1.00  0.00     0.056 C 
ATOM     27  C   UNL A   1      34.022  16.966  22.818  1.00  0.00     0.056 C 
ENDBRANCH  23  24
ENDBRANCH  20  23
ENDBRANCH  18  19
ENDBRANCH  16  18
ENDBRANCH   6   7
ENDBRANCH   5   6
ENDBRANCH   3   5
ENDBRANCH   2   3
ENDBRANCH   1   2
BRANCH   1  28
ATOM     28  C   UNL A   1      33.995  32.355  28.300  1.00  0.00     0.202 C 
BRANCH  28  29
ATOM     29  O   UNL A   1      33.399  33.544  27.785  1.00  0.00    -0.374 OA
BRANCH  29  30
ATOM     30  C   UNL A   1      33.236  34.631  28.689  1.00  0.00     0.202 C 
BRANCH  30  31
ATOM     31  C   UNL A   1      34.297  34.750  29.776  1.00  0.00     0.261 C 
BRANCH  31  32
ATOM     32  O   UNL A   1      33.813  35.506  30.878  1.00  0.00    -0.460 OA
BRANCH  32  33
ATOM     33  C   UNL A   1      33.490  34.842  32.013  1.00  0.00     0.338 C 
ATOM     34  O   UNL A   1      32.407  34.767  32.541  1.00  0.00    -0.246 OA
BRANCH  33  35
ATOM     35  C   UNL A   1      34.752  34.276  32.539  1.00  0.00     0.060 A 
ATOM     36  C   UNL A   1      35.777  35.149  32.908  1.00  0.00     0.016 A 
ATOM     37  C   UNL A   1      34.933  32.877  32.568  1.00  0.00     0.016 A 
ATOM     38  C   UNL A   1      37.043  34.623  33.075  1.00  0.00     0.010 A 
ATOM     39  C   UNL A   1      36.160  32.350  32.839  1.00  0.00     0.010 A 
ATOM     40  C   UNL A   1      37.213  33.243  32.922  1.00  0.00    -0.014 A 
BRANCH  40  41
ATOM     41  C   UNL A   1      38.525  32.705  32.679  1.00  0.00     0.031 A 
ATOM     42  C   UNL A   1      39.345  32.565  33.893  1.00  0.00     0.074 A 
ATOM     43  C   UNL A   1      38.863  32.280  31.445  1.00  0.00     0.049 A 
ATOM     44  N   UNL A   1      40.312  33.336  34.255  1.00  0.00    -0.248 NA
ATOM     45  C   UNL A   1      38.924  31.602  34.919  1.00  0.00     0.031 C 
ATOM     46  C   UNL A   1      38.019  32.083  30.258  1.00  0.00     0.029 A 
ATOM     47  N   UNL A   1      40.058  31.803  31.031  1.00  0.00    -0.354 N 
ATOM     48  C   UNL A   1      40.788  32.796  35.443  1.00  0.00     0.074 A 
ATOM     49  C   UNL A   1      39.767  31.897  35.911  1.00  0.00     0.031 C 
ATOM     50  C   UNL A   1      38.666  31.279  29.379  1.00  0.00     0.029 A 
ATOM     51  C   UNL A   1      40.012  31.042  29.871  1.00  0.00     0.049 A 
ATOM     52  H   UNL A   1      40.897  31.983  31.513  1.00  0.00     0.167 HD
ATOM     53  C   UNL A   1      42.091  32.945  35.804  1.00  0.00     0.034 A 
ATOM     54  C   UNL A   1      40.997  30.214  29.437  1.00  0.00     0.034 A 
ATOM     55  C   UNL A   1      42.755  33.918  34.969  1.00  0.00     0.049 A 
ATOM     56  C   UNL A   1      42.249  30.655  30.111  1.00  0.00     0.074 A 
ATOM     57  C   UNL A   1      42.572  35.263  34.713  1.00  0.00     0.029 A 
ATOM     58  N   UNL A   1      43.497  33.431  33.916  1.00  0.00    -0.354 N 
ATOM     59  N   UNL A   1      42.799  31.819  29.894  1.00  0.00    -0.248 NA
ATOM     60  C   UNL A   1      42.582  30.034  31.387  1.00  0.00     0.031 C 
ATOM     61  C   UNL A   1      42.777  35.398  33.307  1.00  0.00     0.029 A 
ATOM     62  C   UNL A   1      43.153  34.152  32.800  1.00  0.00     0.049 A 
ATOM     63  H   UNL A   1      44.152  32.697  33.956  1.00  0.00     0.167 HD
ATOM     64  C   UNL A   1      43.156  32.277  31.157  1.00  0.00     0.074 A 
ATOM     65  C   UNL A   1      43.075  31.100  32.027  1.00  0.00     0.031 C 
ATOM     66  C   UNL A   1      43.170  33.611  31.457  1.00  0.00     0.034 A 
BRANCH  53  67
ATOM     67  C   UNL A   1      42.870  31.986  36.663  1.00  0.00     0.023 A 
ATOM     68  C   UNL A   1      43.623  32.539  37.721  1.00  0.00     0.012 A 
ATOM     69  C   UNL A   1      43.104  30.628  36.349  1.00  0.00     0.148 A 
ATOM     70  C   UNL A   1      44.590  31.793  38.402  1.00  0.00     0.002 A 
ATOM     71  C   UNL A   1      44.008  29.868  37.081  1.00  0.00     0.091 A 
ATOM     72  F   UNL A   1      42.559  30.090  35.255  1.00  0.00    -0.205 F 
ATOM     73  C   UNL A   1      44.776  30.454  38.088  1.00  0.00     0.022 A 
BRANCH  71  74
ATOM     74  S   UNL A   1      44.256  28.118  36.755  1.00  0.00     0.127 S 
ATOM     75  O   UNL A   1      45.283  27.780  37.735  1.00  0.00    -0.237 OA
ATOM     76  O   UNL A   1      42.927  27.573  37.037  1.00  0.00    -0.237 OA
ATOM     77  O   UNL A   1      44.652  28.033  35.356  1.00  0.00    -0.744 OA
ENDBRANCH  71  74
ENDBRANCH  53  67
BRANCH  54  78
ATOM     78  C   UNL A   1      40.869  28.862  28.833  1.00  0.00     0.023 A 
ATOM     79  C   UNL A   1      39.724  28.082  29.095  1.00  0.00     0.012 A 
ATOM     80  C   UNL A   1      41.710  28.467  27.767  1.00  0.00     0.148 A 
ATOM     81  C   UNL A   1      39.408  26.970  28.300  1.00  0.00     0.002 A 
ATOM     82  C   UNL A   1      41.388  27.366  26.976  1.00  0.00     0.091 A 
ATOM     83  F   UNL A   1      42.773  29.224  27.469  1.00  0.00    -0.205 F 
ATOM     84  C   UNL A   1      40.232  26.621  27.233  1.00  0.00     0.022 A 
BRANCH  82  85
ATOM     85  S   UNL A   1      42.377  26.891  25.549  1.00  0.00     0.127 S 
ATOM     86  O   UNL A   1      41.650  25.723  25.053  1.00  0.00    -0.237 OA
ATOM     87  O   UNL A   1      42.278  28.079  24.707  1.00  0.00    -0.237 OA
ATOM     88  O   UNL A   1      43.708  26.593  26.066  1.00  0.00    -0.744 OA
ENDBRANCH  82  85
ENDBRANCH  54  78
BRANCH  66  89
ATOM     89  C   UNL A   1      42.946  34.600  30.334  1.00  0.00     0.023 A 
ATOM     90  C   UNL A   1      41.665  34.886  29.813  1.00  0.00     0.012 A 
ATOM     91  C   UNL A   1      44.029  35.394  29.922  1.00  0.00     0.148 A 
ATOM     92  C   UNL A   1      41.473  35.919  28.888  1.00  0.00     0.002 A 
ATOM     93  C   UNL A   1      43.829  36.449  29.039  1.00  0.00     0.091 A 
ATOM     94  F   UNL A   1      45.240  35.120  30.429  1.00  0.00    -0.205 F 
ATOM     95  C   UNL A   1      42.554  36.710  28.511  1.00  0.00     0.022 A 
BRANCH  93  96
ATOM     96  S   UNL A   1      45.157  37.579  28.622  1.00  0.00     0.127 S 
ATOM     97  O   UNL A   1      45.519  38.120  29.931  1.00  0.00    -0.237 OA
ATOM     98  O   UNL A   1      46.156  36.687  28.031  1.00  0.00    -0.237 OA
ATOM     99  O   UNL A   1      44.586  38.535  27.681  1.00  0.00    -0.744 OA
ENDBRANCH  93  96
ENDBRANCH  66  89
ENDBRANCH  40  41
ENDBRANCH  33  35
ENDBRANCH  32  33
ENDBRANCH  31  32
ENDBRANCH  30  31
ENDBRANCH  29  30
ENDBRANCH  28  29
ENDBRANCH   1  28
TORSDOF 23
ENDMDL
MODEL 3
REMARK VINA RESULT:      -9.8      4.932      9.511
REMARK SMILES Cc1nc2nc(CNC(=O)OC(C)(C)C)nn2c(C)c1CCC(=O)OCCOCCOC(=O)c1ccc(-c2c3nc(c(-c4cccc(S(=O)(=O)[O-])c4F)c4ccc([nH]4)c(-c4cccc(S(=O)(=O)[O-])c4F)c4nc(c(-c5cccc(S(=O)(=O)[O-])c5F)c5ccc2[nH]5)C=C4)C=C3)cc1
REMARK SMILES IDX 26 1 25 2 23 3 24 4 22 5 21 6 20 7 1 8 2 9 3 10 4 11 18 12
REMARK SMILES IDX 5 13 17 14 19 15 6 16 16 17 7 18 8 19 9 20 10 22 11 23 12 24
REMARK SMILES IDX 13 25 14 26 15 27 27 28 28 29 29 30 30 31 31 32 32 33 33 34
REMARK SMILES IDX 34 35 35 36 96 37 36 38 95 39 37 40 38 41 39 42 89 43 40 44
REMARK SMILES IDX 94 45 88 46 90 47 41 48 93 49 87 50 86 51 42 53 74 54 54 55
REMARK SMILES IDX 73 56 55 57 58 58 72 59 91 60 56 61 57 62 71 64 92 65 59 66
REMARK SMILES IDX 43 67 44 68 52 69 45 70 47 71 53 72 46 73 48 74 49 75 50 76
REMARK SMILES IDX 51 77 75 78 76 79 84 80 77 81 79 82 85 83 78 84 80 85 81 86
REMARK SMILES IDX 82 87 83 88 60 89 61 90 69 91 62 92 64 93 70 94 63 95 65 96
REMARK SMILES IDX 66 97 67 98 68 99
REMARK H PARENT 8 21 90 52 58 63
REMARK Flexibility Score: inf
ROOT
ATOM      1  C   UNL A   1      44.686  23.262  25.289  1.00  0.00     0.261 C 
ENDROOT
BRANCH   1   2
ATOM      2  O   UNL A   1      45.197  23.228  26.656  1.00  0.00    -0.463 OA
BRANCH   2   3
ATOM      3  C   UNL A   1      46.056  24.165  27.111  1.00  0.00     0.306 C 
ATOM      4  O   UNL A   1      47.267  23.993  27.195  1.00  0.00    -0.252 OA
BRANCH   3   5
ATOM      5  C   UNL A   1      45.357  25.456  27.565  1.00  0.00     0.127 C 
BRANCH   5   6
ATOM      6  C   UNL A   1      46.152  26.784  27.726  1.00  0.00     0.051 C 
BRANCH   6   7
ATOM      7  C   UNL A   1      47.313  27.027  26.771  1.00  0.00    -0.005 A 
ATOM      8  C   UNL A   1      49.183  26.450  28.514  1.00  0.00     0.067 C 
ATOM      9  C   UNL A   1      48.804  26.931  27.128  1.00  0.00     0.046 A 
ATOM     10  N   UNL A   1      49.804  27.137  26.304  1.00  0.00    -0.216 NA
ATOM     11  C   UNL A   1      49.506  27.426  25.003  1.00  0.00     0.252 A 
ATOM     12  C   UNL A   1      47.140  27.222  25.453  1.00  0.00     0.048 A 
ATOM     13  N   UNL A   1      50.248  27.536  23.912  1.00  0.00    -0.192 NA
ATOM     14  N   UNL A   1      48.191  27.514  24.616  1.00  0.00    -0.201 N 
ATOM     15  C   UNL A   1      45.890  27.074  24.698  1.00  0.00     0.067 C 
ATOM     16  C   UNL A   1      49.327  27.729  22.906  1.00  0.00     0.172 A 
ATOM     17  N   UNL A   1      48.080  27.873  23.329  1.00  0.00    -0.148 NA
BRANCH  16  18
ATOM     18  C   UNL A   1      49.578  27.800  21.447  1.00  0.00     0.199 C 
BRANCH  18  19
ATOM     19  N   UNL A   1      49.173  26.556  20.833  1.00  0.00    -0.314 N 
ATOM     20  C   UNL A   1      49.997  25.788  20.081  1.00  0.00     0.408 C 
ATOM     21  H   UNL A   1      48.248  26.250  20.969  1.00  0.00     0.167 HD
ATOM     22  O   UNL A   1      49.594  24.796  19.491  1.00  0.00    -0.225 OA
BRANCH  20  23
ATOM     23  O   UNL A   1      51.253  26.279  20.071  1.00  0.00    -0.444 OA
BRANCH  23  24
ATOM     24  C   UNL A   1      51.927  26.592  18.835  1.00  0.00     0.106 C 
ATOM     25  C   UNL A   1      51.321  27.818  18.150  1.00  0.00     0.056 C 
ATOM     26  C   UNL A   1      53.428  26.745  19.098  1.00  0.00     0.056 C 
ATOM     27  C   UNL A   1      51.700  25.362  17.944  1.00  0.00     0.056 C 
ENDBRANCH  23  24
ENDBRANCH  20  23
ENDBRANCH  18  19
ENDBRANCH  16  18
ENDBRANCH   6   7
ENDBRANCH   5   6
ENDBRANCH   3   5
ENDBRANCH   2   3
ENDBRANCH   1   2
BRANCH   1  28
ATOM     28  C   UNL A   1      43.277  22.644  25.075  1.00  0.00     0.202 C 
BRANCH  28  29
ATOM     29  O   UNL A   1      43.174  21.250  25.357  1.00  0.00    -0.374 OA
BRANCH  29  30
ATOM     30  C   UNL A   1      42.045  20.824  26.113  1.00  0.00     0.202 C 
BRANCH  30  31
ATOM     31  C   UNL A   1      42.050  21.219  27.585  1.00  0.00     0.261 C 
BRANCH  31  32
ATOM     32  O   UNL A   1      40.750  21.604  28.012  1.00  0.00    -0.460 OA
BRANCH  32  33
ATOM     33  C   UNL A   1      40.039  22.437  27.216  1.00  0.00     0.338 C 
ATOM     34  O   UNL A   1      39.148  22.147  26.455  1.00  0.00    -0.246 OA
BRANCH  33  35
ATOM     35  C   UNL A   1      40.618  23.786  27.399  1.00  0.00     0.060 A 
ATOM     36  C   UNL A   1      41.627  23.960  28.348  1.00  0.00     0.016 A 
ATOM     37  C   UNL A   1      40.081  24.880  26.689  1.00  0.00     0.016 A 
ATOM     38  C   UNL A   1      41.921  25.249  28.745  1.00  0.00     0.010 A 
ATOM     39  C   UNL A   1      40.451  26.153  27.006  1.00  0.00     0.010 A 
ATOM     40  C   UNL A   1      41.235  26.305  28.135  1.00  0.00    -0.014 A 
BRANCH  40  41
ATOM     41  C   UNL A   1      41.194  27.596  28.770  1.00  0.00     0.031 A 
ATOM     42  C   UNL A   1      42.172  28.555  28.234  1.00  0.00     0.074 A 
ATOM     43  C   UNL A   1      40.241  27.867  29.685  1.00  0.00     0.049 A 
ATOM     44  N   UNL A   1      43.278  28.911  28.791  1.00  0.00    -0.248 NA
ATOM     45  C   UNL A   1      42.019  29.014  26.847  1.00  0.00     0.031 C 
ATOM     46  C   UNL A   1      39.043  27.096  30.047  1.00  0.00     0.029 A 
ATOM     47  N   UNL A   1      40.089  28.995  30.413  1.00  0.00    -0.354 N 
ATOM     48  C   UNL A   1      43.843  29.840  27.927  1.00  0.00     0.074 A 
ATOM     49  C   UNL A   1      43.160  29.685  26.671  1.00  0.00     0.031 C 
ATOM     50  C   UNL A   1      38.173  27.906  30.698  1.00  0.00     0.029 A 
ATOM     51  C   UNL A   1      38.815  29.187  30.931  1.00  0.00     0.049 A 
ATOM     52  H   UNL A   1      40.823  29.632  30.565  1.00  0.00     0.167 HD
ATOM     53  C   UNL A   1      44.648  30.830  28.398  1.00  0.00     0.034 A 
ATOM     54  C   UNL A   1      38.336  30.361  31.417  1.00  0.00     0.034 A 
ATOM     55  C   UNL A   1      45.018  30.591  29.773  1.00  0.00     0.049 A 
ATOM     56  C   UNL A   1      39.521  31.198  31.751  1.00  0.00     0.074 A 
ATOM     57  C   UNL A   1      45.701  29.589  30.434  1.00  0.00     0.029 A 
ATOM     58  N   UNL A   1      44.286  31.248  30.736  1.00  0.00    -0.354 N 
ATOM     59  N   UNL A   1      40.372  30.879  32.688  1.00  0.00    -0.248 NA
ATOM     60  C   UNL A   1      40.034  32.083  30.713  1.00  0.00     0.031 C 
ATOM     61  C   UNL A   1      44.970  29.387  31.644  1.00  0.00     0.029 A 
ATOM     62  C   UNL A   1      43.939  30.326  31.692  1.00  0.00     0.049 A 
ATOM     63  H   UNL A   1      44.053  32.205  30.738  1.00  0.00     0.167 HD
ATOM     64  C   UNL A   1      41.619  31.130  32.127  1.00  0.00     0.074 A 
ATOM     65  C   UNL A   1      41.346  31.949  30.942  1.00  0.00     0.031 C 
ATOM     66  C   UNL A   1      42.721  30.398  32.472  1.00  0.00     0.034 A 
BRANCH  53  67
ATOM     67  C   UNL A   1      44.830  32.181  27.759  1.00  0.00     0.023 A 
ATOM     68  C   UNL A   1      46.041  32.408  27.071  1.00  0.00     0.012 A 
ATOM     69  C   UNL A   1      44.008  33.304  28.002  1.00  0.00     0.148 A 
ATOM     70  C   UNL A   1      46.435  33.692  26.684  1.00  0.00     0.002 A 
ATOM     71  C   UNL A   1      44.365  34.567  27.544  1.00  0.00     0.091 A 
ATOM     72  F   UNL A   1      42.938  33.194  28.794  1.00  0.00    -0.205 F 
ATOM     73  C   UNL A   1      45.592  34.771  26.911  1.00  0.00     0.022 A 
BRANCH  71  74
ATOM     74  S   UNL A   1      43.292  35.992  27.763  1.00  0.00     0.127 S 
ATOM     75  O   UNL A   1      42.163  35.644  26.907  1.00  0.00    -0.237 OA
ATOM     76  O   UNL A   1      43.020  35.940  29.201  1.00  0.00    -0.237 OA
ATOM     77  O   UNL A   1      44.081  37.143  27.346  1.00  0.00    -0.744 OA
ENDBRANCH  71  74
ENDBRANCH  53  67
BRANCH  54  78
ATOM     78  C   UNL A   1      36.987  30.955  31.231  1.00  0.00     0.023 A 
ATOM     79  C   UNL A   1      36.326  31.552  32.324  1.00  0.00     0.012 A 
ATOM     80  C   UNL A   1      36.484  31.213  29.933  1.00  0.00     0.148 A 
ATOM     81  C   UNL A   1      35.228  32.404  32.130  1.00  0.00     0.002 A 
ATOM     82  C   UNL A   1      35.399  32.065  29.745  1.00  0.00     0.091 A 
ATOM     83  F   UNL A   1      37.129  30.698  28.879  1.00  0.00    -0.205 F 
ATOM     84  C   UNL A   1      34.774  32.671  30.841  1.00  0.00     0.022 A 
BRANCH  82  85
ATOM     85  S   UNL A   1      34.794  32.496  28.106  1.00  0.00     0.127 S 
ATOM     86  O   UNL A   1      33.612  33.298  28.422  1.00  0.00    -0.237 OA
ATOM     87  O   UNL A   1      35.919  33.250  27.560  1.00  0.00    -0.237 OA
ATOM     88  O   UNL A   1      34.500  31.232  27.442  1.00  0.00    -0.744 OA
ENDBRANCH  82  85
ENDBRANCH  54  78
BRANCH  66  89
ATOM     89  C   UNL A   1      42.593  29.406  33.607  1.00  0.00     0.023 A 
ATOM     90  C   UNL A   1      41.894  28.185  33.480  1.00  0.00     0.012 A 
ATOM     91  C   UNL A   1      43.353  29.625  34.768  1.00  0.00     0.148 A 
ATOM     92  C   UNL A   1      41.931  27.220  34.493  1.00  0.00     0.002 A 
ATOM     93  C   UNL A   1      43.425  28.646  35.753  1.00  0.00     0.091 A 
ATOM     94  F   UNL A   1      44.020  30.783  34.877  1.00  0.00    -0.205 F 
ATOM     95  C   UNL A   1      42.708  27.446  35.625  1.00  0.00     0.022 A 
BRANCH  93  96
ATOM     96  S   UNL A   1      44.512  28.826  37.167  1.00  0.00     0.127 S 
ATOM     97  O   UNL A   1      44.017  30.060  37.776  1.00  0.00    -0.237 OA
ATOM     98  O   UNL A   1      44.235  27.612  37.936  1.00  0.00    -0.237 OA
ATOM     99  O   UNL A   1      45.864  28.888  36.626  1.00  0.00    -0.744 OA
ENDBRANCH  93  96
ENDBRANCH  66  89
ENDBRANCH  40  41
ENDBRANCH  33  35
ENDBRANCH  32  33
ENDBRANCH  31  32
ENDBRANCH  30  31
ENDBRANCH  29  30
ENDBRANCH  28  29
ENDBRANCH   1  28
TORSDOF 23
ENDMDL
