MODEL 1
REMARK VINA RESULT:     -11.2      0.000      0.000
REMARK SMILES O=C(OCCOCCOC(=O)[C@H]1CCCN(C(=O)C2CCN(S(=O)(=O)c3ccccc3)CC2)C1)c1ccc(-c2c3nc(c(-c4cccc(S(=O)(=O)[O-])c4F)c4ccc([nH]4)c(-c4cccc(S(=O)(=O)[O-])c4F)c4nc(c(-c5cccc(S(=O)(=O)[O-])c5F)c5ccc2[nH]5)C=C4)C=C3)cc1
REMARK SMILES IDX 7 1 6 2 5 3 4 4 3 5 2 6 1 7 35 8 36 9 97 10 37 11 96 12
REMARK SMILES IDX 38 13 39 14 40 15 90 16 41 17 95 18 89 19 91 20 42 21 94 22
REMARK SMILES IDX 88 23 87 24 43 26 75 27 55 28 74 29 56 30 59 31 73 32 92 33
REMARK SMILES IDX 57 34 58 35 72 37 93 38 60 39 44 40 45 41 53 42 46 43 48 44
REMARK SMILES IDX 54 45 47 46 49 47 50 48 51 49 52 50 76 51 77 52 85 53 78 54
REMARK SMILES IDX 80 55 86 56 79 57 81 58 82 59 83 60 84 61 61 62 62 63 70 64
REMARK SMILES IDX 63 65 65 66 71 67 64 68 66 69 67 70 68 71 69 72 8 73 9 74
REMARK SMILES IDX 10 75 11 76 12 77 13 78 34 79 14 80 16 81 15 82 17 83 18 84
REMARK SMILES IDX 19 85 20 86 33 87 21 88 32 89 22 90 23 91 24 92 25 93 26 94
REMARK SMILES IDX 27 95 31 96 28 97 30 98 29 99
REMARK H PARENT 91 25 59 36
REMARK Flexibility Score: inf
ROOT
ATOM      1  C   UNL A   1      35.084  32.346  28.874  1.00  0.00     0.202 C 
ENDROOT
BRANCH   1   2
ATOM      2  O   UNL A   1      34.692  32.536  30.240  1.00  0.00    -0.374 OA
BRANCH   2   3
ATOM      3  C   UNL A   1      35.157  33.691  30.950  1.00  0.00     0.202 C 
BRANCH   3   4
ATOM      4  C   UNL A   1      35.483  33.605  32.452  1.00  0.00     0.261 C 
BRANCH   4   5
ATOM      5  O   UNL A   1      35.721  32.261  32.897  1.00  0.00    -0.460 OA
BRANCH   5   6
ATOM      6  C   UNL A   1      36.858  31.809  33.490  1.00  0.00     0.338 C 
ATOM      7  O   UNL A   1      37.013  31.981  34.695  1.00  0.00    -0.246 OA
BRANCH   6   8
ATOM      8  C   UNL A   1      37.951  31.160  32.701  1.00  0.00     0.060 A 
ATOM      9  C   UNL A   1      39.165  30.758  33.256  1.00  0.00     0.016 A 
ATOM     10  C   UNL A   1      37.728  30.882  31.346  1.00  0.00     0.016 A 
ATOM     11  C   UNL A   1      40.183  30.231  32.494  1.00  0.00     0.010 A 
ATOM     12  C   UNL A   1      38.728  30.280  30.572  1.00  0.00     0.010 A 
ATOM     13  C   UNL A   1      39.973  29.993  31.144  1.00  0.00    -0.014 A 
BRANCH  13  14
ATOM     14  C   UNL A   1      41.155  29.579  30.375  1.00  0.00     0.031 A 
ATOM     15  C   UNL A   1      41.103  28.267  29.657  1.00  0.00     0.074 A 
ATOM     16  C   UNL A   1      42.138  30.473  30.159  1.00  0.00     0.049 A 
ATOM     17  N   UNL A   1      41.980  27.734  28.856  1.00  0.00    -0.248 NA
ATOM     18  C   UNL A   1      39.885  27.456  29.846  1.00  0.00     0.031 C 
ATOM     19  C   UNL A   1      42.181  31.828  30.720  1.00  0.00     0.029 A 
ATOM     20  N   UNL A   1      43.254  30.404  29.372  1.00  0.00    -0.354 N 
ATOM     21  C   UNL A   1      41.456  26.499  28.499  1.00  0.00     0.074 A 
ATOM     22  C   UNL A   1      40.169  26.372  29.142  1.00  0.00     0.031 C 
ATOM     23  C   UNL A   1      43.244  32.476  30.222  1.00  0.00     0.029 A 
ATOM     24  C   UNL A   1      43.993  31.565  29.368  1.00  0.00     0.049 A 
ATOM     25  H   UNL A   1      43.504  29.603  28.859  1.00  0.00     0.167 HD
ATOM     26  C   UNL A   1      42.013  25.554  27.711  1.00  0.00     0.034 A 
ATOM     27  C   UNL A   1      45.156  31.842  28.748  1.00  0.00     0.034 A 
ATOM     28  C   UNL A   1      43.279  25.724  27.060  1.00  0.00     0.049 A 
ATOM     29  C   UNL A   1      45.771  30.757  27.907  1.00  0.00     0.074 A 
ATOM     30  C   UNL A   1      43.982  24.823  26.286  1.00  0.00     0.029 A 
ATOM     31  N   UNL A   1      44.032  26.891  27.113  1.00  0.00    -0.354 N 
ATOM     32  N   UNL A   1      45.276  29.582  27.590  1.00  0.00    -0.248 NA
ATOM     33  C   UNL A   1      47.095  31.029  27.338  1.00  0.00     0.031 C 
ATOM     34  C   UNL A   1      45.171  25.443  25.881  1.00  0.00     0.029 A 
ATOM     35  C   UNL A   1      45.198  26.734  26.388  1.00  0.00     0.049 A 
ATOM     36  H   UNL A   1      43.772  27.709  27.594  1.00  0.00     0.167 HD
ATOM     37  C   UNL A   1      46.223  28.976  26.776  1.00  0.00     0.074 A 
ATOM     38  C   UNL A   1      47.305  29.932  26.622  1.00  0.00     0.031 C 
ATOM     39  C   UNL A   1      46.221  27.737  26.226  1.00  0.00     0.034 A 
BRANCH  26  40
ATOM     40  C   UNL A   1      41.263  24.260  27.569  1.00  0.00     0.023 A 
ATOM     41  C   UNL A   1      41.742  23.092  28.194  1.00  0.00     0.012 A 
ATOM     42  C   UNL A   1      40.106  24.196  26.771  1.00  0.00     0.148 A 
ATOM     43  C   UNL A   1      41.096  21.871  27.999  1.00  0.00     0.002 A 
ATOM     44  C   UNL A   1      39.450  22.983  26.607  1.00  0.00     0.091 A 
ATOM     45  F   UNL A   1      39.694  25.312  26.152  1.00  0.00    -0.205 F 
ATOM     46  C   UNL A   1      39.948  21.817  27.211  1.00  0.00     0.022 A 
BRANCH  44  47
ATOM     47  S   UNL A   1      37.946  22.829  25.638  1.00  0.00     0.127 S 
ATOM     48  O   UNL A   1      38.120  21.511  25.030  1.00  0.00    -0.237 OA
ATOM     49  O   UNL A   1      36.907  22.895  26.667  1.00  0.00    -0.237 OA
ATOM     50  O   UNL A   1      37.951  23.954  24.713  1.00  0.00    -0.744 OA
ENDBRANCH  44  47
ENDBRANCH  26  40
BRANCH  27  51
ATOM     51  C   UNL A   1      45.793  33.183  28.896  1.00  0.00     0.023 A 
ATOM     52  C   UNL A   1      46.742  33.398  29.913  1.00  0.00     0.012 A 
ATOM     53  C   UNL A   1      45.492  34.239  28.012  1.00  0.00     0.148 A 
ATOM     54  C   UNL A   1      47.363  34.642  30.058  1.00  0.00     0.002 A 
ATOM     55  C   UNL A   1      46.156  35.456  28.125  1.00  0.00     0.091 A 
ATOM     56  F   UNL A   1      44.562  34.034  27.067  1.00  0.00    -0.205 F 
ATOM     57  C   UNL A   1      47.081  35.665  29.156  1.00  0.00     0.022 A 
BRANCH  55  58
ATOM     58  S   UNL A   1      45.940  36.768  26.916  1.00  0.00     0.127 S 
ATOM     59  O   UNL A   1      46.381  36.120  25.685  1.00  0.00    -0.237 OA
ATOM     60  O   UNL A   1      44.501  37.029  26.995  1.00  0.00    -0.237 OA
ATOM     61  O   UNL A   1      46.768  37.868  27.394  1.00  0.00    -0.744 OA
ENDBRANCH  55  58
ENDBRANCH  27  51
BRANCH  39  62
ATOM     62  C   UNL A   1      47.415  27.356  25.399  1.00  0.00     0.023 A 
ATOM     63  C   UNL A   1      48.428  26.563  25.972  1.00  0.00     0.012 A 
ATOM     64  C   UNL A   1      47.482  27.702  24.037  1.00  0.00     0.148 A 
ATOM     65  C   UNL A   1      49.508  26.138  25.202  1.00  0.00     0.002 A 
ATOM     66  C   UNL A   1      48.538  27.236  23.266  1.00  0.00     0.091 A 
ATOM     67  F   UNL A   1      46.517  28.480  23.523  1.00  0.00    -0.205 F 
ATOM     68  C   UNL A   1      49.555  26.462  23.847  1.00  0.00     0.022 A 
BRANCH  66  69
ATOM     69  S   UNL A   1      48.610  27.525  21.495  1.00  0.00     0.127 S 
ATOM     70  O   UNL A   1      49.589  28.606  21.408  1.00  0.00    -0.237 OA
ATOM     71  O   UNL A   1      49.076  26.236  20.983  1.00  0.00    -0.237 OA
ATOM     72  O   UNL A   1      47.250  27.869  21.099  1.00  0.00    -0.744 OA
ENDBRANCH  66  69
ENDBRANCH  39  62
ENDBRANCH  13  14
ENDBRANCH   6   8
ENDBRANCH   5   6
ENDBRANCH   4   5
ENDBRANCH   3   4
ENDBRANCH   2   3
ENDBRANCH   1   2
BRANCH   1  73
ATOM     73  C   UNL A   1      33.843  32.223  27.975  1.00  0.00     0.261 C 
BRANCH  73  74
ATOM     74  O   UNL A   1      33.649  30.850  27.615  1.00  0.00    -0.463 OA
BRANCH  74  75
ATOM     75  C   UNL A   1      32.628  30.654  26.739  1.00  0.00     0.310 C 
ATOM     76  O   UNL A   1      31.628  31.354  26.673  1.00  0.00    -0.252 OA
BRANCH  75  77
ATOM     77  C   UNL A   1      32.903  29.468  25.837  1.00  0.00     0.119 C 
ATOM     78  C   UNL A   1      33.643  28.342  26.581  1.00  0.00     0.019 C 
ATOM     79  C   UNL A   1      31.595  28.969  25.210  1.00  0.00     0.134 C 
ATOM     80  C   UNL A   1      33.831  27.153  25.682  1.00  0.00     0.022 C 
ATOM     81  N   UNL A   1      31.761  27.665  24.531  1.00  0.00    -0.342 N 
ATOM     82  C   UNL A   1      32.439  26.677  25.334  1.00  0.00     0.119 C 
BRANCH  81  83
ATOM     83  C   UNL A   1      31.298  27.472  23.245  1.00  0.00     0.225 C 
ATOM     84  O   UNL A   1      31.086  28.447  22.514  1.00  0.00    -0.275 OA
BRANCH  83  85
ATOM     85  C   UNL A   1      31.020  26.064  22.643  1.00  0.00     0.081 C 
ATOM     86  C   UNL A   1      30.212  25.069  23.462  1.00  0.00     0.030 C 
ATOM     87  C   UNL A   1      32.153  25.376  21.900  1.00  0.00     0.030 C 
ATOM     88  C   UNL A   1      30.966  23.969  24.199  1.00  0.00     0.103 C 
ATOM     89  C   UNL A   1      33.018  24.455  22.738  1.00  0.00     0.103 C 
ATOM     90  N   UNL A   1      32.283  23.508  23.619  1.00  0.00    -0.198 NA
BRANCH  90  91
ATOM     91  S   UNL A   1      33.231  22.792  24.911  1.00  0.00     0.243 S 
ATOM     92  O   UNL A   1      34.591  23.268  24.775  1.00  0.00    -0.207 OA
ATOM     93  O   UNL A   1      32.502  23.052  26.137  1.00  0.00    -0.207 OA
BRANCH  91  94
ATOM     94  C   UNL A   1      33.306  21.033  24.670  1.00  0.00     0.082 A 
ATOM     95  C   UNL A   1      34.470  20.348  25.031  1.00  0.00     0.022 A 
ATOM     96  C   UNL A   1      32.323  20.381  23.912  1.00  0.00     0.022 A 
ATOM     97  C   UNL A   1      34.625  19.007  24.675  1.00  0.00     0.001 A 
ATOM     98  C   UNL A   1      32.464  19.028  23.596  1.00  0.00     0.001 A 
ATOM     99  C   UNL A   1      33.617  18.344  23.975  1.00  0.00     0.000 A 
ENDBRANCH  91  94
ENDBRANCH  90  91
ENDBRANCH  83  85
ENDBRANCH  81  83
ENDBRANCH  75  77
ENDBRANCH  74  75
ENDBRANCH  73  74
ENDBRANCH   1  73
TORSDOF 21
ENDMDL
MODEL 2
REMARK VINA RESULT:     -11.2      2.899      9.510
REMARK SMILES O=C(OCCOCCOC(=O)[C@H]1CCCN(C(=O)C2CCN(S(=O)(=O)c3ccccc3)CC2)C1)c1ccc(-c2c3nc(c(-c4cccc(S(=O)(=O)[O-])c4F)c4ccc([nH]4)c(-c4cccc(S(=O)(=O)[O-])c4F)c4nc(c(-c5cccc(S(=O)(=O)[O-])c5F)c5ccc2[nH]5)C=C4)C=C3)cc1
REMARK SMILES IDX 7 1 6 2 5 3 4 4 3 5 2 6 1 7 35 8 36 9 97 10 37 11 96 12
REMARK SMILES IDX 38 13 39 14 40 15 90 16 41 17 95 18 89 19 91 20 42 21 94 22
REMARK SMILES IDX 88 23 87 24 43 26 75 27 55 28 74 29 56 30 59 31 73 32 92 33
REMARK SMILES IDX 57 34 58 35 72 37 93 38 60 39 44 40 45 41 53 42 46 43 48 44
REMARK SMILES IDX 54 45 47 46 49 47 50 48 51 49 52 50 76 51 77 52 85 53 78 54
REMARK SMILES IDX 80 55 86 56 79 57 81 58 82 59 83 60 84 61 61 62 62 63 70 64
REMARK SMILES IDX 63 65 65 66 71 67 64 68 66 69 67 70 68 71 69 72 8 73 9 74
REMARK SMILES IDX 10 75 11 76 12 77 13 78 34 79 14 80 16 81 15 82 17 83 18 84
REMARK SMILES IDX 19 85 20 86 33 87 21 88 32 89 22 90 23 91 24 92 25 93 26 94
REMARK SMILES IDX 27 95 31 96 28 97 30 98 29 99
REMARK H PARENT 91 25 59 36
REMARK Flexibility Score: inf
ROOT
ATOM      1  C   UNL A   1      38.517  22.350  25.485  1.00  0.00     0.202 C 
ENDROOT
BRANCH   1   2
ATOM      2  O   UNL A   1      38.672  20.942  25.266  1.00  0.00    -0.374 OA
BRANCH   2   3
ATOM      3  C   UNL A   1      39.469  20.173  26.175  1.00  0.00     0.202 C 
BRANCH   3   4
ATOM      4  C   UNL A   1      40.276  18.962  25.674  1.00  0.00     0.261 C 
BRANCH   4   5
ATOM      5  O   UNL A   1      41.651  18.996  26.088  1.00  0.00    -0.460 OA
BRANCH   5   6
ATOM      6  C   UNL A   1      42.589  19.880  25.655  1.00  0.00     0.338 C 
ATOM      7  O   UNL A   1      43.435  19.506  24.847  1.00  0.00    -0.246 OA
BRANCH   6   8
ATOM      8  C   UNL A   1      42.654  21.279  26.180  1.00  0.00     0.060 A 
ATOM      9  C   UNL A   1      42.599  22.409  25.366  1.00  0.00     0.016 A 
ATOM     10  C   UNL A   1      42.709  21.474  27.567  1.00  0.00     0.016 A 
ATOM     11  C   UNL A   1      42.735  23.684  25.869  1.00  0.00     0.010 A 
ATOM     12  C   UNL A   1      42.775  22.767  28.099  1.00  0.00     0.010 A 
ATOM     13  C   UNL A   1      42.829  23.872  27.240  1.00  0.00    -0.014 A 
BRANCH  13  14
ATOM     14  C   UNL A   1      43.129  25.242  27.679  1.00  0.00     0.031 A 
ATOM     15  C   UNL A   1      44.464  25.818  27.325  1.00  0.00     0.074 A 
ATOM     16  C   UNL A   1      42.133  25.998  28.178  1.00  0.00     0.049 A 
ATOM     17  N   UNL A   1      44.919  27.021  27.528  1.00  0.00    -0.248 NA
ATOM     18  C   UNL A   1      45.406  24.926  26.624  1.00  0.00     0.031 C 
ATOM     19  C   UNL A   1      40.763  25.533  28.417  1.00  0.00     0.029 A 
ATOM     20  N   UNL A   1      42.098  27.323  28.516  1.00  0.00    -0.354 N 
ATOM     21  C   UNL A   1      46.219  27.014  27.045  1.00  0.00     0.074 A 
ATOM     22  C   UNL A   1      46.474  25.698  26.505  1.00  0.00     0.031 C 
ATOM     23  C   UNL A   1      40.011  26.568  28.822  1.00  0.00     0.029 A 
ATOM     24  C   UNL A   1      40.859  27.747  28.937  1.00  0.00     0.049 A 
ATOM     25  H   UNL A   1      42.883  27.914  28.464  1.00  0.00     0.167 HD
ATOM     26  C   UNL A   1      47.120  28.020  27.061  1.00  0.00     0.034 A 
ATOM     27  C   UNL A   1      40.469  28.957  29.380  1.00  0.00     0.034 A 
ATOM     28  C   UNL A   1      46.825  29.326  27.574  1.00  0.00     0.049 A 
ATOM     29  C   UNL A   1      41.504  30.049  29.422  1.00  0.00     0.074 A 
ATOM     30  C   UNL A   1      47.665  30.413  27.706  1.00  0.00     0.029 A 
ATOM     31  N   UNL A   1      45.577  29.716  28.042  1.00  0.00    -0.354 N 
ATOM     32  N   UNL A   1      42.741  30.027  28.980  1.00  0.00    -0.248 NA
ATOM     33  C   UNL A   1      41.098  31.325  30.020  1.00  0.00     0.031 C 
ATOM     34  C   UNL A   1      46.925  31.460  28.268  1.00  0.00     0.029 A 
ATOM     35  C   UNL A   1      45.621  31.029  28.469  1.00  0.00     0.049 A 
ATOM     36  H   UNL A   1      44.777  29.142  28.064  1.00  0.00     0.167 HD
ATOM     37  C   UNL A   1      43.260  31.288  29.235  1.00  0.00     0.074 A 
ATOM     38  C   UNL A   1      42.188  32.059  29.841  1.00  0.00     0.031 C 
ATOM     39  C   UNL A   1      44.510  31.766  29.019  1.00  0.00     0.034 A 
BRANCH  26  40
ATOM     40  C   UNL A   1      48.498  27.705  26.553  1.00  0.00     0.023 A 
ATOM     41  C   UNL A   1      48.772  27.752  25.172  1.00  0.00     0.012 A 
ATOM     42  C   UNL A   1      49.510  27.314  27.449  1.00  0.00     0.148 A 
ATOM     43  C   UNL A   1      50.028  27.380  24.688  1.00  0.00     0.002 A 
ATOM     44  C   UNL A   1      50.767  26.976  26.963  1.00  0.00     0.091 A 
ATOM     45  F   UNL A   1      49.214  27.236  28.754  1.00  0.00    -0.205 F 
ATOM     46  C   UNL A   1      51.025  26.999  25.582  1.00  0.00     0.022 A 
BRANCH  44  47
ATOM     47  S   UNL A   1      52.121  26.507  28.045  1.00  0.00     0.127 S 
ATOM     48  O   UNL A   1      52.599  27.811  28.502  1.00  0.00    -0.237 OA
ATOM     49  O   UNL A   1      51.438  25.713  29.068  1.00  0.00    -0.237 OA
ATOM     50  O   UNL A   1      53.050  25.752  27.216  1.00  0.00    -0.744 OA
ENDBRANCH  44  47
ENDBRANCH  26  40
BRANCH  27  51
ATOM     51  C   UNL A   1      39.058  29.192  29.802  1.00  0.00     0.023 A 
ATOM     52  C   UNL A   1      38.658  28.877  31.115  1.00  0.00     0.012 A 
ATOM     53  C   UNL A   1      38.114  29.759  28.921  1.00  0.00     0.148 A 
ATOM     54  C   UNL A   1      37.345  29.105  31.534  1.00  0.00     0.002 A 
ATOM     55  C   UNL A   1      36.825  30.038  29.363  1.00  0.00     0.091 A 
ATOM     56  F   UNL A   1      38.495  30.025  27.663  1.00  0.00    -0.205 F 
ATOM     57  C   UNL A   1      36.433  29.698  30.665  1.00  0.00     0.022 A 
BRANCH  55  58
ATOM     58  S   UNL A   1      35.643  30.923  28.338  1.00  0.00     0.127 S 
ATOM     59  O   UNL A   1      36.486  31.937  27.713  1.00  0.00    -0.237 OA
ATOM     60  O   UNL A   1      35.168  29.874  27.436  1.00  0.00    -0.237 OA
ATOM     61  O   UNL A   1      34.629  31.415  29.262  1.00  0.00    -0.744 OA
ENDBRANCH  55  58
ENDBRANCH  27  51
BRANCH  39  62
ATOM     62  C   UNL A   1      44.777  33.186  29.427  1.00  0.00     0.023 A 
ATOM     63  C   UNL A   1      45.231  33.457  30.732  1.00  0.00     0.012 A 
ATOM     64  C   UNL A   1      44.671  34.231  28.491  1.00  0.00     0.148 A 
ATOM     65  C   UNL A   1      45.553  34.758  31.108  1.00  0.00     0.002 A 
ATOM     66  C   UNL A   1      45.039  35.517  28.860  1.00  0.00     0.091 A 
ATOM     67  F   UNL A   1      44.213  33.949  27.262  1.00  0.00    -0.205 F 
ATOM     68  C   UNL A   1      45.472  35.785  30.169  1.00  0.00     0.022 A 
BRANCH  66  69
ATOM     69  S   UNL A   1      45.059  36.868  27.676  1.00  0.00     0.127 S 
ATOM     70  O   UNL A   1      45.909  37.845  28.352  1.00  0.00    -0.237 OA
ATOM     71  O   UNL A   1      45.662  36.245  26.497  1.00  0.00    -0.237 OA
ATOM     72  O   UNL A   1      43.665  37.255  27.501  1.00  0.00    -0.744 OA
ENDBRANCH  66  69
ENDBRANCH  39  62
ENDBRANCH  13  14
ENDBRANCH   6   8
ENDBRANCH   5   6
ENDBRANCH   4   5
ENDBRANCH   3   4
ENDBRANCH   2   3
ENDBRANCH   1   2
BRANCH   1  73
ATOM     73  C   UNL A   1      37.040  22.691  25.742  1.00  0.00     0.261 C 
BRANCH  73  74
ATOM     74  O   UNL A   1      36.654  23.792  24.909  1.00  0.00    -0.463 OA
BRANCH  74  75
ATOM     75  C   UNL A   1      36.051  23.415  23.751  1.00  0.00     0.310 C 
ATOM     76  O   UNL A   1      36.603  22.795  22.853  1.00  0.00    -0.252 OA
BRANCH  75  77
ATOM     77  C   UNL A   1      34.598  23.841  23.727  1.00  0.00     0.119 C 
ATOM     78  C   UNL A   1      34.056  23.949  22.290  1.00  0.00     0.019 C 
ATOM     79  C   UNL A   1      33.755  22.886  24.581  1.00  0.00     0.134 C 
ATOM     80  C   UNL A   1      32.595  24.298  22.304  1.00  0.00     0.022 C 
ATOM     81  N   UNL A   1      32.303  23.097  24.388  1.00  0.00    -0.342 N 
ATOM     82  C   UNL A   1      31.904  23.148  23.003  1.00  0.00     0.119 C 
BRANCH  81  83
ATOM     83  C   UNL A   1      31.457  23.233  25.471  1.00  0.00     0.225 C 
ATOM     84  O   UNL A   1      30.872  22.241  25.924  1.00  0.00    -0.275 OA
BRANCH  83  85
ATOM     85  C   UNL A   1      31.189  24.594  26.176  1.00  0.00     0.081 C 
ATOM     86  C   UNL A   1      29.865  25.298  25.918  1.00  0.00     0.030 C 
ATOM     87  C   UNL A   1      32.336  25.587  26.257  1.00  0.00     0.030 C 
ATOM     88  C   UNL A   1      29.854  26.462  24.935  1.00  0.00     0.103 C 
ATOM     89  C   UNL A   1      32.409  26.593  25.124  1.00  0.00     0.103 C 
ATOM     90  N   UNL A   1      31.126  27.261  24.774  1.00  0.00    -0.198 NA
BRANCH  90  91
ATOM     91  S   UNL A   1      31.089  28.042  23.203  1.00  0.00     0.243 S 
ATOM     92  O   UNL A   1      32.322  28.785  23.051  1.00  0.00    -0.207 OA
ATOM     93  O   UNL A   1      30.757  27.005  22.245  1.00  0.00    -0.207 OA
BRANCH  91  94
ATOM     94  C   UNL A   1      29.787  29.252  23.186  1.00  0.00     0.082 A 
ATOM     95  C   UNL A   1      30.022  30.507  23.755  1.00  0.00     0.022 A 
ATOM     96  C   UNL A   1      28.481  28.881  22.837  1.00  0.00     0.022 A 
ATOM     97  C   UNL A   1      28.962  31.401  23.928  1.00  0.00     0.001 A 
ATOM     98  C   UNL A   1      27.433  29.793  22.971  1.00  0.00     0.001 A 
ATOM     99  C   UNL A   1      27.675  31.051  23.520  1.00  0.00     0.000 A 
ENDBRANCH  91  94
ENDBRANCH  90  91
ENDBRANCH  83  85
ENDBRANCH  81  83
ENDBRANCH  75  77
ENDBRANCH  74  75
ENDBRANCH  73  74
ENDBRANCH   1  73
TORSDOF 21
ENDMDL
MODEL 3
REMARK VINA RESULT:     -11.1      1.548      7.425
REMARK SMILES O=C(OCCOCCOC(=O)[C@H]1CCCN(C(=O)C2CCN(S(=O)(=O)c3ccccc3)CC2)C1)c1ccc(-c2c3nc(c(-c4cccc(S(=O)(=O)[O-])c4F)c4ccc([nH]4)c(-c4cccc(S(=O)(=O)[O-])c4F)c4nc(c(-c5cccc(S(=O)(=O)[O-])c5F)c5ccc2[nH]5)C=C4)C=C3)cc1
REMARK SMILES IDX 7 1 6 2 5 3 4 4 3 5 2 6 1 7 35 8 36 9 97 10 37 11 96 12
REMARK SMILES IDX 38 13 39 14 40 15 90 16 41 17 95 18 89 19 91 20 42 21 94 22
REMARK SMILES IDX 88 23 87 24 43 26 75 27 55 28 74 29 56 30 59 31 73 32 92 33
REMARK SMILES IDX 57 34 58 35 72 37 93 38 60 39 44 40 45 41 53 42 46 43 48 44
REMARK SMILES IDX 54 45 47 46 49 47 50 48 51 49 52 50 76 51 77 52 85 53 78 54
REMARK SMILES IDX 80 55 86 56 79 57 81 58 82 59 83 60 84 61 61 62 62 63 70 64
REMARK SMILES IDX 63 65 65 66 71 67 64 68 66 69 67 70 68 71 69 72 8 73 9 74
REMARK SMILES IDX 10 75 11 76 12 77 13 78 34 79 14 80 16 81 15 82 17 83 18 84
REMARK SMILES IDX 19 85 20 86 33 87 21 88 32 89 22 90 23 91 24 92 25 93 26 94
REMARK SMILES IDX 27 95 31 96 28 97 30 98 29 99
REMARK H PARENT 91 25 59 36
REMARK Flexibility Score: inf
ROOT
ATOM      1  C   UNL A   1      33.386  33.214  27.736  1.00  0.00     0.202 C 
ENDROOT
BRANCH   1   2
ATOM      2  O   UNL A   1      33.018  33.867  28.958  1.00  0.00    -0.374 OA
BRANCH   2   3
ATOM      3  C   UNL A   1      34.038  34.449  29.779  1.00  0.00     0.202 C 
BRANCH   3   4
ATOM      4  C   UNL A   1      34.072  34.177  31.293  1.00  0.00     0.261 C 
BRANCH   4   5
ATOM      5  O   UNL A   1      34.335  32.801  31.609  1.00  0.00    -0.460 OA
BRANCH   5   6
ATOM      6  C   UNL A   1      35.447  32.327  32.231  1.00  0.00     0.338 C 
ATOM      7  O   UNL A   1      35.575  32.500  33.440  1.00  0.00    -0.246 OA
BRANCH   6   8
ATOM      8  C   UNL A   1      36.545  31.652  31.472  1.00  0.00     0.060 A 
ATOM      9  C   UNL A   1      37.557  30.910  32.080  1.00  0.00     0.016 A 
ATOM     10  C   UNL A   1      36.529  31.712  30.072  1.00  0.00     0.016 A 
ATOM     11  C   UNL A   1      38.597  30.362  31.364  1.00  0.00     0.010 A 
ATOM     12  C   UNL A   1      37.542  31.098  29.325  1.00  0.00     0.010 A 
ATOM     13  C   UNL A   1      38.600  30.456  29.980  1.00  0.00    -0.014 A 
BRANCH  13  14
ATOM     14  C   UNL A   1      39.819  29.985  29.308  1.00  0.00     0.031 A 
ATOM     15  C   UNL A   1      41.071  30.787  29.479  1.00  0.00     0.074 A 
ATOM     16  C   UNL A   1      39.827  28.756  28.760  1.00  0.00     0.049 A 
ATOM     17  N   UNL A   1      42.275  30.529  29.056  1.00  0.00    -0.248 NA
ATOM     18  C   UNL A   1      40.957  32.038  30.252  1.00  0.00     0.031 C 
ATOM     19  C   UNL A   1      38.667  27.860  28.687  1.00  0.00     0.029 A 
ATOM     20  N   UNL A   1      40.846  28.024  28.217  1.00  0.00    -0.354 N 
ATOM     21  C   UNL A   1      43.048  31.612  29.450  1.00  0.00     0.074 A 
ATOM     22  C   UNL A   1      42.188  32.518  30.176  1.00  0.00     0.031 C 
ATOM     23  C   UNL A   1      39.053  26.683  28.171  1.00  0.00     0.029 A 
ATOM     24  C   UNL A   1      40.463  26.765  27.814  1.00  0.00     0.049 A 
ATOM     25  H   UNL A   1      41.764  28.365  28.123  1.00  0.00     0.167 HD
ATOM     26  C   UNL A   1      44.360  31.830  29.214  1.00  0.00     0.034 A 
ATOM     27  C   UNL A   1      41.179  25.800  27.209  1.00  0.00     0.034 A 
ATOM     28  C   UNL A   1      45.195  30.895  28.518  1.00  0.00     0.049 A 
ATOM     29  C   UNL A   1      42.629  26.086  26.925  1.00  0.00     0.074 A 
ATOM     30  C   UNL A   1      46.522  31.021  28.160  1.00  0.00     0.029 A 
ATOM     31  N   UNL A   1      44.770  29.649  28.075  1.00  0.00    -0.354 N 
ATOM     32  N   UNL A   1      43.349  27.124  27.285  1.00  0.00    -0.248 NA
ATOM     33  C   UNL A   1      43.366  25.076  26.158  1.00  0.00     0.031 C 
ATOM     34  C   UNL A   1      46.896  29.852  27.486  1.00  0.00     0.029 A 
ATOM     35  C   UNL A   1      45.807  28.993  27.442  1.00  0.00     0.049 A 
ATOM     36  H   UNL A   1      43.863  29.286  28.197  1.00  0.00     0.167 HD
ATOM     37  C   UNL A   1      44.627  26.890  26.798  1.00  0.00     0.074 A 
ATOM     38  C   UNL A   1      44.588  25.593  26.147  1.00  0.00     0.031 C 
ATOM     39  C   UNL A   1      45.728  27.679  26.853  1.00  0.00     0.034 A 
BRANCH  26  40
ATOM     40  C   UNL A   1      44.924  33.143  29.676  1.00  0.00     0.023 A 
ATOM     41  C   UNL A   1      45.502  33.255  30.956  1.00  0.00     0.012 A 
ATOM     42  C   UNL A   1      44.834  34.281  28.853  1.00  0.00     0.148 A 
ATOM     43  C   UNL A   1      45.952  34.491  31.422  1.00  0.00     0.002 A 
ATOM     44  C   UNL A   1      45.314  35.501  29.311  1.00  0.00     0.091 A 
ATOM     45  F   UNL A   1      44.241  34.159  27.656  1.00  0.00    -0.205 F 
ATOM     46  C   UNL A   1      45.864  35.611  30.598  1.00  0.00     0.022 A 
BRANCH  44  47
ATOM     47  S   UNL A   1      45.272  36.988  28.305  1.00  0.00     0.127 S 
ATOM     48  O   UNL A   1      46.199  36.642  27.229  1.00  0.00    -0.237 OA
ATOM     49  O   UNL A   1      43.866  37.050  27.903  1.00  0.00    -0.237 OA
ATOM     50  O   UNL A   1      45.697  38.073  29.178  1.00  0.00    -0.744 OA
ENDBRANCH  44  47
ENDBRANCH  26  40
BRANCH  27  51
ATOM     51  C   UNL A   1      40.546  24.499  26.846  1.00  0.00     0.023 A 
ATOM     52  C   UNL A   1      39.254  24.481  26.288  1.00  0.00     0.012 A 
ATOM     53  C   UNL A   1      41.229  23.278  27.020  1.00  0.00     0.148 A 
ATOM     54  C   UNL A   1      38.650  23.274  25.927  1.00  0.00     0.002 A 
ATOM     55  C   UNL A   1      40.646  22.085  26.604  1.00  0.00     0.091 A 
ATOM     56  F   UNL A   1      42.446  23.302  27.583  1.00  0.00    -0.205 F 
ATOM     57  C   UNL A   1      39.350  22.079  26.070  1.00  0.00     0.022 A 
BRANCH  55  58
ATOM     58  S   UNL A   1      41.545  20.530  26.636  1.00  0.00     0.127 S 
ATOM     59  O   UNL A   1      42.043  20.497  28.007  1.00  0.00    -0.237 OA
ATOM     60  O   UNL A   1      40.493  19.557  26.338  1.00  0.00    -0.237 OA
ATOM     61  O   UNL A   1      42.554  20.649  25.591  1.00  0.00    -0.744 OA
ENDBRANCH  55  58
ENDBRANCH  27  51
BRANCH  39  62
ATOM     62  C   UNL A   1      46.977  27.152  26.207  1.00  0.00     0.023 A 
ATOM     63  C   UNL A   1      47.757  26.196  26.886  1.00  0.00     0.012 A 
ATOM     64  C   UNL A   1      47.320  27.533  24.897  1.00  0.00     0.148 A 
ATOM     65  C   UNL A   1      48.878  25.641  26.274  1.00  0.00     0.002 A 
ATOM     66  C   UNL A   1      48.412  26.941  24.278  1.00  0.00     0.091 A 
ATOM     67  F   UNL A   1      46.575  28.464  24.282  1.00  0.00    -0.205 F 
ATOM     68  C   UNL A   1      49.197  26.002  24.967  1.00  0.00     0.022 A 
BRANCH  66  69
ATOM     69  S   UNL A   1      48.820  27.279  22.562  1.00  0.00     0.127 S 
ATOM     70  O   UNL A   1      50.248  27.573  22.646  1.00  0.00    -0.237 OA
ATOM     71  O   UNL A   1      48.495  26.012  21.904  1.00  0.00    -0.237 OA
ATOM     72  O   UNL A   1      47.966  28.392  22.169  1.00  0.00    -0.744 OA
ENDBRANCH  66  69
ENDBRANCH  39  62
ENDBRANCH  13  14
ENDBRANCH   6   8
ENDBRANCH   5   6
ENDBRANCH   4   5
ENDBRANCH   3   4
ENDBRANCH   2   3
ENDBRANCH   1   2
BRANCH   1  73
ATOM     73  C   UNL A   1      33.821  31.766  28.014  1.00  0.00     0.261 C 
BRANCH  73  74
ATOM     74  O   UNL A   1      32.918  30.864  27.364  1.00  0.00    -0.463 OA
BRANCH  74  75
ATOM     75  C   UNL A   1      33.525  29.766  26.840  1.00  0.00     0.310 C 
ATOM     76  O   UNL A   1      34.604  29.329  27.211  1.00  0.00    -0.252 OA
BRANCH  75  77
ATOM     77  C   UNL A   1      32.678  29.141  25.751  1.00  0.00     0.119 C 
ATOM     78  C   UNL A   1      31.433  29.990  25.436  1.00  0.00     0.019 C 
ATOM     79  C   UNL A   1      33.528  28.894  24.498  1.00  0.00     0.134 C 
ATOM     80  C   UNL A   1      30.657  29.384  24.301  1.00  0.00     0.022 C 
ATOM     81  N   UNL A   1      32.703  28.529  23.325  1.00  0.00    -0.342 N 
ATOM     82  C   UNL A   1      31.584  29.412  23.107  1.00  0.00     0.119 C 
BRANCH  81  83
ATOM     83  C   UNL A   1      33.019  27.430  22.552  1.00  0.00     0.225 C 
ATOM     84  O   UNL A   1      34.111  27.378  21.972  1.00  0.00    -0.275 OA
BRANCH  83  85
ATOM     85  C   UNL A   1      32.060  26.219  22.362  1.00  0.00     0.081 C 
ATOM     86  C   UNL A   1      31.196  25.785  23.537  1.00  0.00     0.030 C 
ATOM     87  C   UNL A   1      32.578  25.021  21.586  1.00  0.00     0.030 C 
ATOM     88  C   UNL A   1      31.640  24.568  24.340  1.00  0.00     0.103 C 
ATOM     89  C   UNL A   1      33.218  23.928  22.421  1.00  0.00     0.103 C 
ATOM     90  N   UNL A   1      32.453  23.513  23.628  1.00  0.00    -0.198 NA
BRANCH  90  91
ATOM     91  S   UNL A   1      33.373  22.624  24.831  1.00  0.00     0.243 S 
ATOM     92  O   UNL A   1      34.777  22.868  24.580  1.00  0.00    -0.207 OA
ATOM     93  O   UNL A   1      32.804  22.981  26.117  1.00  0.00    -0.207 OA
BRANCH  91  94
ATOM     94  C   UNL A   1      33.129  20.882  24.579  1.00  0.00     0.082 A 
ATOM     95  C   UNL A   1      32.604  20.441  23.360  1.00  0.00     0.022 A 
ATOM     96  C   UNL A   1      33.225  19.991  25.656  1.00  0.00     0.022 A 
ATOM     97  C   UNL A   1      32.224  19.106  23.210  1.00  0.00     0.001 A 
ATOM     98  C   UNL A   1      32.885  18.648  25.489  1.00  0.00     0.001 A 
ATOM     99  C   UNL A   1      32.381  18.208  24.266  1.00  0.00     0.000 A 
ENDBRANCH  91  94
ENDBRANCH  90  91
ENDBRANCH  83  85
ENDBRANCH  81  83
ENDBRANCH  75  77
ENDBRANCH  74  75
ENDBRANCH  73  74
ENDBRANCH   1  73
TORSDOF 21
ENDMDL
