MODEL 1
REMARK VINA RESULT:     -12.3      0.000      0.000
REMARK SMILES CC(C)[C@@H]1C(=O)Nc2ccccc2N1C(=O)N[C@H](Cc1ccccc1)C(=O)OCCOCCOC(=O)c1ccc(-c2c3nc(c(-c4cccc(S(=O)(=O)[O-])c4F)c4ccc([nH]4)c(-c4cccc(S(=O)(=O)[O-])c4F)c4nc(c(-c5cccc(S(=O)(=O)[O-])c5F)c5ccc2[nH]5)C=C4)C=C3)cc1
REMARK SMILES IDX 31 1 30 2 29 3 28 4 26 5 27 6 18 7 17 8 15 9 16 10 14 12
REMARK SMILES IDX 4 13 5 14 6 15 7 16 13 17 8 18 12 20 9 21 11 22 10 23 2 24
REMARK SMILES IDX 1 25 3 26 19 27 20 28 21 29 25 30 22 31 24 32 23 33 32 34
REMARK SMILES IDX 33 35 34 36 35 37 36 38 37 39 38 40 99 41 39 42 98 43 40 44
REMARK SMILES IDX 41 45 42 46 92 47 43 48 97 49 91 50 93 51 44 52 96 53 90 54
REMARK SMILES IDX 89 55 45 57 77 58 57 59 76 60 58 61 61 62 75 63 94 64 59 65
REMARK SMILES IDX 60 66 74 68 95 69 62 70 46 71 47 72 55 73 48 74 50 75 56 76
REMARK SMILES IDX 49 77 51 78 52 79 53 80 54 81 78 82 79 83 87 84 80 85 82 86
REMARK SMILES IDX 88 87 81 88 83 89 84 90 85 91 86 92 63 93 64 94 72 95 65 96
REMARK SMILES IDX 67 97 73 98 66 99 68 100 69 101 70 102 71 103
REMARK H PARENT 17 11 7 19 93 56 61 67
REMARK Flexibility Score: inf
ROOT
ATOM      1  O   UNL A   1      31.152  31.276  25.847  1.00  0.00    -0.374 OA
ENDROOT
BRANCH   1   2
ATOM      2  C   UNL A   1      31.811  30.143  26.451  1.00  0.00     0.202 C 
BRANCH   2   3
ATOM      3  C   UNL A   1      32.600  29.199  25.464  1.00  0.00     0.261 C 
BRANCH   3   4
ATOM      4  O   UNL A   1      32.732  27.806  25.930  1.00  0.00    -0.462 OA
BRANCH   4   5
ATOM      5  C   UNL A   1      31.664  27.060  26.360  1.00  0.00     0.329 C 
ATOM      6  O   UNL A   1      31.630  26.580  27.493  1.00  0.00    -0.250 OA
BRANCH   5   7
ATOM      7  C   UNL A   1      30.524  26.691  25.257  1.00  0.00     0.198 C 
BRANCH   7   8
ATOM      8  N   UNL A   1      30.416  25.251  25.351  1.00  0.00    -0.324 N 
ATOM      9  C   UNL A   1      31.169  24.360  24.659  1.00  0.00     0.323 C 
ATOM     10  O   UNL A   1      30.565  23.331  24.350  1.00  0.00    -0.248 OA
ATOM     11  H   UNL A   1      29.739  24.889  25.968  1.00  0.00     0.166 HD
BRANCH   9  12
ATOM     12  N   UNL A   1      32.547  24.518  24.601  1.00  0.00    -0.280 N 
ATOM     13  C   UNL A   1      33.488  24.790  23.391  1.00  0.00     0.184 C 
ATOM     14  C   UNL A   1      33.919  23.400  22.826  1.00  0.00     0.247 C 
ATOM     15  O   UNL A   1      34.154  23.166  21.642  1.00  0.00    -0.272 OA
ATOM     16  N   UNL A   1      34.261  22.451  23.742  1.00  0.00    -0.322 N 
ATOM     17  C   UNL A   1      33.161  23.601  25.564  1.00  0.00     0.070 A 
ATOM     18  C   UNL A   1      33.939  22.540  25.092  1.00  0.00     0.065 A 
ATOM     19  H   UNL A   1      34.762  21.661  23.432  1.00  0.00     0.170 HD
ATOM     20  C   UNL A   1      32.747  23.583  26.910  1.00  0.00     0.028 A 
ATOM     21  C   UNL A   1      34.249  21.460  25.915  1.00  0.00     0.028 A 
ATOM     22  C   UNL A   1      33.076  22.508  27.742  1.00  0.00     0.002 A 
ATOM     23  C   UNL A   1      33.806  21.438  27.236  1.00  0.00     0.002 A 
BRANCH  13  24
ATOM     24  C   UNL A   1      33.276  25.828  22.151  1.00  0.00     0.015 C 
ATOM     25  C   UNL A   1      32.048  25.964  21.201  1.00  0.00     0.010 C 
ATOM     26  C   UNL A   1      33.536  27.302  22.571  1.00  0.00     0.010 C 
ENDBRANCH  13  24
ENDBRANCH   9  12
ENDBRANCH   7   8
BRANCH   7  27
ATOM     27  C   UNL A   1      30.167  26.961  23.714  1.00  0.00     0.072 C 
BRANCH  27  28
ATOM     28  C   UNL A   1      29.482  28.139  23.029  1.00  0.00    -0.045 A 
ATOM     29  C   UNL A   1      28.090  28.364  23.195  1.00  0.00     0.004 A 
ATOM     30  C   UNL A   1      30.202  29.103  22.329  1.00  0.00     0.004 A 
ATOM     31  C   UNL A   1      27.427  29.433  22.589  1.00  0.00     0.000 A 
ATOM     32  C   UNL A   1      29.548  30.217  21.780  1.00  0.00     0.000 A 
ATOM     33  C   UNL A   1      28.163  30.369  21.886  1.00  0.00     0.000 A 
ENDBRANCH  27  28
ENDBRANCH   7  27
ENDBRANCH   5   7
ENDBRANCH   4   5
ENDBRANCH   3   4
ENDBRANCH   2   3
ENDBRANCH   1   2
BRANCH   1  34
ATOM     34  C   UNL A   1      31.326  32.554  26.468  1.00  0.00     0.202 C 
BRANCH  34  35
ATOM     35  C   UNL A   1      32.582  32.842  27.293  1.00  0.00     0.261 C 
BRANCH  35  36
ATOM     36  O   UNL A   1      32.571  34.198  27.768  1.00  0.00    -0.460 OA
BRANCH  36  37
ATOM     37  C   UNL A   1      33.218  34.367  28.933  1.00  0.00     0.338 C 
ATOM     38  O   UNL A   1      32.799  35.001  29.898  1.00  0.00    -0.246 OA
BRANCH  37  39
ATOM     39  C   UNL A   1      34.471  33.587  28.994  1.00  0.00     0.060 A 
ATOM     40  C   UNL A   1      34.373  32.365  29.665  1.00  0.00     0.016 A 
ATOM     41  C   UNL A   1      35.716  34.025  28.525  1.00  0.00     0.016 A 
ATOM     42  C   UNL A   1      35.515  31.652  30.000  1.00  0.00     0.010 A 
ATOM     43  C   UNL A   1      36.866  33.274  28.824  1.00  0.00     0.010 A 
ATOM     44  C   UNL A   1      36.780  32.123  29.633  1.00  0.00    -0.014 A 
BRANCH  44  45
ATOM     45  C   UNL A   1      37.981  31.502  30.260  1.00  0.00     0.031 A 
ATOM     46  C   UNL A   1      38.356  31.873  31.674  1.00  0.00     0.074 A 
ATOM     47  C   UNL A   1      38.678  30.526  29.643  1.00  0.00     0.049 A 
ATOM     48  N   UNL A   1      39.331  31.413  32.416  1.00  0.00    -0.248 NA
ATOM     49  C   UNL A   1      37.505  32.863  32.355  1.00  0.00     0.031 C 
ATOM     50  C   UNL A   1      38.367  29.962  28.333  1.00  0.00     0.029 A 
ATOM     51  N   UNL A   1      39.805  29.845  30.034  1.00  0.00    -0.354 N 
ATOM     52  C   UNL A   1      39.208  32.049  33.645  1.00  0.00     0.074 A 
ATOM     53  C   UNL A   1      38.101  32.971  33.532  1.00  0.00     0.031 C 
ATOM     54  C   UNL A   1      39.321  29.081  27.992  1.00  0.00     0.029 A 
ATOM     55  C   UNL A   1      40.316  29.025  29.055  1.00  0.00     0.049 A 
ATOM     56  H   UNL A   1      40.208  29.934  30.928  1.00  0.00     0.167 HD
ATOM     57  C   UNL A   1      39.916  31.852  34.782  1.00  0.00     0.034 A 
ATOM     58  C   UNL A   1      41.463  28.321  28.998  1.00  0.00     0.034 A 
ATOM     59  C   UNL A   1      40.999  30.917  34.913  1.00  0.00     0.049 A 
ATOM     60  C   UNL A   1      42.328  28.231  30.222  1.00  0.00     0.074 A 
ATOM     61  C   UNL A   1      41.742  30.618  36.042  1.00  0.00     0.029 A 
ATOM     62  N   UNL A   1      41.509  30.143  33.883  1.00  0.00    -0.354 N 
ATOM     63  N   UNL A   1      42.135  28.765  31.402  1.00  0.00    -0.248 NA
ATOM     64  C   UNL A   1      43.523  27.381  30.134  1.00  0.00     0.031 C 
ATOM     65  C   UNL A   1      42.733  29.699  35.682  1.00  0.00     0.029 A 
ATOM     66  C   UNL A   1      42.575  29.388  34.342  1.00  0.00     0.049 A 
ATOM     67  H   UNL A   1      41.165  30.133  32.961  1.00  0.00     0.167 HD
ATOM     68  C   UNL A   1      43.135  28.253  32.218  1.00  0.00     0.074 A 
ATOM     69  C   UNL A   1      43.942  27.378  31.393  1.00  0.00     0.031 C 
ATOM     70  C   UNL A   1      43.347  28.477  33.537  1.00  0.00     0.034 A 
BRANCH  57  71
ATOM     71  C   UNL A   1      39.520  32.654  35.993  1.00  0.00     0.023 A 
ATOM     72  C   UNL A   1      40.028  33.958  36.170  1.00  0.00     0.012 A 
ATOM     73  C   UNL A   1      38.607  32.133  36.930  1.00  0.00     0.148 A 
ATOM     74  C   UNL A   1      39.665  34.716  37.283  1.00  0.00     0.002 A 
ATOM     75  C   UNL A   1      38.212  32.913  38.010  1.00  0.00     0.091 A 
ATOM     76  F   UNL A   1      38.152  30.886  36.753  1.00  0.00    -0.205 F 
ATOM     77  C   UNL A   1      38.750  34.198  38.196  1.00  0.00     0.022 A 
BRANCH  75  78
ATOM     78  S   UNL A   1      36.979  32.367  39.194  1.00  0.00     0.127 S 
ATOM     79  O   UNL A   1      37.290  33.207  40.350  1.00  0.00    -0.237 OA
ATOM     80  O   UNL A   1      35.729  32.707  38.513  1.00  0.00    -0.237 OA
ATOM     81  O   UNL A   1      37.201  30.941  39.381  1.00  0.00    -0.744 OA
ENDBRANCH  75  78
ENDBRANCH  57  71
BRANCH  58  82
ATOM     82  C   UNL A   1      41.846  27.617  27.744  1.00  0.00     0.023 A 
ATOM     83  C   UNL A   1      42.284  28.350  26.626  1.00  0.00     0.012 A 
ATOM     84  C   UNL A   1      41.766  26.211  27.659  1.00  0.00     0.148 A 
ATOM     85  C   UNL A   1      42.596  27.701  25.431  1.00  0.00     0.002 A 
ATOM     86  C   UNL A   1      42.116  25.569  26.478  1.00  0.00     0.091 A 
ATOM     87  F   UNL A   1      41.355  25.534  28.741  1.00  0.00    -0.205 F 
ATOM     88  C   UNL A   1      42.515  26.313  25.357  1.00  0.00     0.022 A 
BRANCH  86  89
ATOM     89  S   UNL A   1      42.137  23.781  26.316  1.00  0.00     0.127 S 
ATOM     90  O   UNL A   1      42.739  23.607  24.997  1.00  0.00    -0.237 OA
ATOM     91  O   UNL A   1      42.988  23.396  27.441  1.00  0.00    -0.237 OA
ATOM     92  O   UNL A   1      40.748  23.361  26.433  1.00  0.00    -0.744 OA
ENDBRANCH  86  89
ENDBRANCH  58  82
BRANCH  70  93
ATOM     93  C   UNL A   1      44.455  27.710  34.213  1.00  0.00     0.023 A 
ATOM     94  C   UNL A   1      45.743  28.268  34.324  1.00  0.00     0.012 A 
ATOM     95  C   UNL A   1      44.188  26.460  34.807  1.00  0.00     0.148 A 
ATOM     96  C   UNL A   1      46.757  27.578  34.988  1.00  0.00     0.002 A 
ATOM     97  C   UNL A   1      45.187  25.804  35.514  1.00  0.00     0.091 A 
ATOM     98  F   UNL A   1      42.960  25.937  34.673  1.00  0.00    -0.205 F 
ATOM     99  C   UNL A   1      46.476  26.355  35.594  1.00  0.00     0.022 A 
BRANCH  97 100
ATOM    100  S   UNL A   1      44.892  24.277  36.413  1.00  0.00     0.127 S 
ATOM    101  O   UNL A   1      43.945  23.593  35.533  1.00  0.00    -0.237 OA
ATOM    102  O   UNL A   1      46.226  23.681  36.454  1.00  0.00    -0.237 OA
ATOM    103  O   UNL A   1      44.361  24.669  37.712  1.00  0.00    -0.744 OA
ENDBRANCH  97 100
ENDBRANCH  70  93
ENDBRANCH  44  45
ENDBRANCH  37  39
ENDBRANCH  36  37
ENDBRANCH  35  36
ENDBRANCH  34  35
ENDBRANCH   1  34
TORSDOF 22
ENDMDL
MODEL 2
REMARK VINA RESULT:     -12.1      1.351      7.935
REMARK SMILES CC(C)[C@@H]1C(=O)Nc2ccccc2N1C(=O)N[C@H](Cc1ccccc1)C(=O)OCCOCCOC(=O)c1ccc(-c2c3nc(c(-c4cccc(S(=O)(=O)[O-])c4F)c4ccc([nH]4)c(-c4cccc(S(=O)(=O)[O-])c4F)c4nc(c(-c5cccc(S(=O)(=O)[O-])c5F)c5ccc2[nH]5)C=C4)C=C3)cc1
REMARK SMILES IDX 31 1 30 2 29 3 28 4 26 5 27 6 18 7 17 8 15 9 16 10 14 12
REMARK SMILES IDX 4 13 5 14 6 15 7 16 13 17 8 18 12 20 9 21 11 22 10 23 2 24
REMARK SMILES IDX 1 25 3 26 19 27 20 28 21 29 25 30 22 31 24 32 23 33 32 34
REMARK SMILES IDX 33 35 34 36 35 37 36 38 37 39 38 40 99 41 39 42 98 43 40 44
REMARK SMILES IDX 41 45 42 46 92 47 43 48 97 49 91 50 93 51 44 52 96 53 90 54
REMARK SMILES IDX 89 55 45 57 77 58 57 59 76 60 58 61 61 62 75 63 94 64 59 65
REMARK SMILES IDX 60 66 74 68 95 69 62 70 46 71 47 72 55 73 48 74 50 75 56 76
REMARK SMILES IDX 49 77 51 78 52 79 53 80 54 81 78 82 79 83 87 84 80 85 82 86
REMARK SMILES IDX 88 87 81 88 83 89 84 90 85 91 86 92 63 93 64 94 72 95 65 96
REMARK SMILES IDX 67 97 73 98 66 99 68 100 69 101 70 102 71 103
REMARK H PARENT 17 11 7 19 93 56 61 67
REMARK Flexibility Score: inf
ROOT
ATOM      1  O   UNL A   1      32.345  29.735  24.443  1.00  0.00    -0.374 OA
ENDROOT
BRANCH   1   2
ATOM      2  C   UNL A   1      33.743  29.380  24.495  1.00  0.00     0.202 C 
BRANCH   2   3
ATOM      3  C   UNL A   1      34.062  27.836  24.452  1.00  0.00     0.261 C 
BRANCH   3   4
ATOM      4  O   UNL A   1      34.053  27.176  25.770  1.00  0.00    -0.462 OA
BRANCH   4   5
ATOM      5  C   UNL A   1      33.005  26.411  26.213  1.00  0.00     0.329 C 
ATOM      6  O   UNL A   1      32.054  26.909  26.814  1.00  0.00    -0.250 OA
BRANCH   5   7
ATOM      7  C   UNL A   1      33.150  24.795  26.064  1.00  0.00     0.198 C 
BRANCH   7   8
ATOM      8  N   UNL A   1      31.848  24.301  26.455  1.00  0.00    -0.324 N 
ATOM      9  C   UNL A   1      30.702  24.463  25.748  1.00  0.00     0.323 C 
ATOM     10  O   UNL A   1      29.697  24.595  26.450  1.00  0.00    -0.248 OA
ATOM     11  H   UNL A   1      31.789  23.807  27.305  1.00  0.00     0.166 HD
BRANCH   9  12
ATOM     12  N   UNL A   1      30.687  24.196  24.385  1.00  0.00    -0.280 N 
ATOM     13  C   UNL A   1      31.637  23.330  23.508  1.00  0.00     0.184 C 
ATOM     14  C   UNL A   1      32.783  24.268  23.013  1.00  0.00     0.247 C 
ATOM     15  O   UNL A   1      33.942  23.913  22.808  1.00  0.00    -0.272 OA
ATOM     16  N   UNL A   1      32.410  25.505  22.579  1.00  0.00    -0.322 N 
ATOM     17  C   UNL A   1      30.258  25.407  23.681  1.00  0.00     0.070 A 
ATOM     18  C   UNL A   1      31.171  26.071  22.855  1.00  0.00     0.065 A 
ATOM     19  H   UNL A   1      33.051  26.024  22.041  1.00  0.00     0.170 HD
ATOM     20  C   UNL A   1      29.071  26.072  24.042  1.00  0.00     0.028 A 
ATOM     21  C   UNL A   1      30.940  27.384  22.448  1.00  0.00     0.028 A 
ATOM     22  C   UNL A   1      28.832  27.383  23.616  1.00  0.00     0.002 A 
ATOM     23  C   UNL A   1      29.778  28.043  22.840  1.00  0.00     0.002 A 
BRANCH  13  24
ATOM     24  C   UNL A   1      32.256  21.856  23.831  1.00  0.00     0.015 C 
ATOM     25  C   UNL A   1      31.952  20.921  25.040  1.00  0.00     0.010 C 
ATOM     26  C   UNL A   1      32.123  20.888  22.621  1.00  0.00     0.010 C 
ENDBRANCH  13  24
ENDBRANCH   9  12
ENDBRANCH   7   8
BRANCH   7  27
ATOM     27  C   UNL A   1      34.121  23.597  26.515  1.00  0.00     0.072 C 
BRANCH  27  28
ATOM     28  C   UNL A   1      35.292  22.926  25.805  1.00  0.00    -0.045 A 
ATOM     29  C   UNL A   1      35.401  21.511  25.767  1.00  0.00     0.004 A 
ATOM     30  C   UNL A   1      36.218  23.655  25.065  1.00  0.00     0.004 A 
ATOM     31  C   UNL A   1      36.454  20.859  25.123  1.00  0.00     0.000 A 
ATOM     32  C   UNL A   1      37.237  22.996  24.357  1.00  0.00     0.000 A 
ATOM     33  C   UNL A   1      37.370  21.606  24.406  1.00  0.00     0.000 A 
ENDBRANCH  27  28
ENDBRANCH   7  27
ENDBRANCH   5   7
ENDBRANCH   4   5
ENDBRANCH   3   4
ENDBRANCH   2   3
ENDBRANCH   1   2
BRANCH   1  34
ATOM     34  C   UNL A   1      31.686  30.017  25.682  1.00  0.00     0.202 C 
BRANCH  34  35
ATOM     35  C   UNL A   1      31.563  31.460  26.176  1.00  0.00     0.261 C 
BRANCH  35  36
ATOM     36  O   UNL A   1      32.144  31.594  27.484  1.00  0.00    -0.460 OA
BRANCH  36  37
ATOM     37  C   UNL A   1      32.989  32.633  27.595  1.00  0.00     0.338 C 
ATOM     38  O   UNL A   1      32.671  33.819  27.558  1.00  0.00    -0.246 OA
BRANCH  37  39
ATOM     39  C   UNL A   1      34.368  32.201  27.903  1.00  0.00     0.060 A 
ATOM     40  C   UNL A   1      34.518  30.832  28.136  1.00  0.00     0.016 A 
ATOM     41  C   UNL A   1      35.463  33.059  28.061  1.00  0.00     0.016 A 
ATOM     42  C   UNL A   1      35.701  30.334  28.664  1.00  0.00     0.010 A 
ATOM     43  C   UNL A   1      36.675  32.543  28.550  1.00  0.00     0.010 A 
ATOM     44  C   UNL A   1      36.775  31.188  28.930  1.00  0.00    -0.014 A 
BRANCH  44  45
ATOM     45  C   UNL A   1      37.901  30.680  29.765  1.00  0.00     0.031 A 
ATOM     46  C   UNL A   1      38.840  29.645  29.195  1.00  0.00     0.074 A 
ATOM     47  C   UNL A   1      38.177  31.204  30.977  1.00  0.00     0.049 A 
ATOM     48  N   UNL A   1      39.904  29.111  29.737  1.00  0.00    -0.248 NA
ATOM     49  C   UNL A   1      38.568  29.176  27.826  1.00  0.00     0.031 C 
ATOM     50  C   UNL A   1      37.449  32.298  31.612  1.00  0.00     0.029 A 
ATOM     51  N   UNL A   1      39.142  30.874  31.897  1.00  0.00    -0.354 N 
ATOM     52  C   UNL A   1      40.430  28.253  28.779  1.00  0.00     0.074 A 
ATOM     53  C   UNL A   1      39.536  28.291  27.644  1.00  0.00     0.031 C 
ATOM     54  C   UNL A   1      37.937  32.496  32.846  1.00  0.00     0.029 A 
ATOM     55  C   UNL A   1      39.006  31.539  33.094  1.00  0.00     0.049 A 
ATOM     56  H   UNL A   1      39.861  30.226  31.718  1.00  0.00     0.167 HD
ATOM     57  C   UNL A   1      41.577  27.534  28.815  1.00  0.00     0.034 A 
ATOM     58  C   UNL A   1      39.648  31.387  34.268  1.00  0.00     0.034 A 
ATOM     59  C   UNL A   1      42.487  27.511  29.927  1.00  0.00     0.049 A 
ATOM     60  C   UNL A   1      40.831  30.467  34.343  1.00  0.00     0.074 A 
ATOM     61  C   UNL A   1      43.697  26.848  30.031  1.00  0.00     0.029 A 
ATOM     62  N   UNL A   1      42.284  28.162  31.132  1.00  0.00    -0.354 N 
ATOM     63  N   UNL A   1      41.365  29.741  33.393  1.00  0.00    -0.248 NA
ATOM     64  C   UNL A   1      41.549  30.404  35.625  1.00  0.00     0.031 C 
ATOM     65  C   UNL A   1      44.202  27.058  31.318  1.00  0.00     0.029 A 
ATOM     66  C   UNL A   1      43.332  27.895  31.997  1.00  0.00     0.049 A 
ATOM     67  H   UNL A   1      41.509  28.732  31.343  1.00  0.00     0.167 HD
ATOM     68  C   UNL A   1      42.524  29.200  33.935  1.00  0.00     0.074 A 
ATOM     69  C   UNL A   1      42.605  29.669  35.303  1.00  0.00     0.031 C 
ATOM     70  C   UNL A   1      43.443  28.403  33.340  1.00  0.00     0.034 A 
BRANCH  57  71
ATOM     71  C   UNL A   1      41.926  26.725  27.595  1.00  0.00     0.023 A 
ATOM     72  C   UNL A   1      42.553  27.346  26.494  1.00  0.00     0.012 A 
ATOM     73  C   UNL A   1      41.676  25.340  27.557  1.00  0.00     0.148 A 
ATOM     74  C   UNL A   1      42.889  26.608  25.360  1.00  0.00     0.002 A 
ATOM     75  C   UNL A   1      42.058  24.602  26.443  1.00  0.00     0.091 A 
ATOM     76  F   UNL A   1      41.062  24.773  28.605  1.00  0.00    -0.205 F 
ATOM     77  C   UNL A   1      42.652  25.236  25.339  1.00  0.00     0.022 A 
BRANCH  75  78
ATOM     78  S   UNL A   1      41.870  22.819  26.355  1.00  0.00     0.127 S 
ATOM     79  O   UNL A   1      42.517  22.519  25.079  1.00  0.00    -0.237 OA
ATOM     80  O   UNL A   1      42.613  22.374  27.535  1.00  0.00    -0.237 OA
ATOM     81  O   UNL A   1      40.438  22.562  26.405  1.00  0.00    -0.744 OA
ENDBRANCH  75  78
ENDBRANCH  57  71
BRANCH  58  82
ATOM     82  C   UNL A   1      39.203  32.152  35.466  1.00  0.00     0.023 A 
ATOM     83  C   UNL A   1      39.539  33.511  35.602  1.00  0.00     0.012 A 
ATOM     84  C   UNL A   1      38.449  31.523  36.478  1.00  0.00     0.148 A 
ATOM     85  C   UNL A   1      39.170  34.221  36.745  1.00  0.00     0.002 A 
ATOM     86  C   UNL A   1      38.051  32.247  37.594  1.00  0.00     0.091 A 
ATOM     87  F   UNL A   1      38.132  30.230  36.320  1.00  0.00    -0.205 F 
ATOM     88  C   UNL A   1      38.424  33.592  37.739  1.00  0.00     0.022 A 
BRANCH  86  89
ATOM     89  S   UNL A   1      37.008  31.551  38.880  1.00  0.00     0.127 S 
ATOM     90  O   UNL A   1      35.844  32.432  38.831  1.00  0.00    -0.237 OA
ATOM     91  O   UNL A   1      36.784  30.198  38.373  1.00  0.00    -0.237 OA
ATOM     92  O   UNL A   1      37.797  31.619  40.103  1.00  0.00    -0.744 OA
ENDBRANCH  86  89
ENDBRANCH  58  82
BRANCH  70  93
ATOM     93  C   UNL A   1      44.672  28.033  34.130  1.00  0.00     0.023 A 
ATOM     94  C   UNL A   1      45.799  28.878  34.132  1.00  0.00     0.012 A 
ATOM     95  C   UNL A   1      44.673  26.875  34.935  1.00  0.00     0.148 A 
ATOM     96  C   UNL A   1      46.920  28.558  34.898  1.00  0.00     0.002 A 
ATOM     97  C   UNL A   1      45.771  26.593  35.737  1.00  0.00     0.091 A 
ATOM     98  F   UNL A   1      43.598  26.075  34.903  1.00  0.00    -0.205 F 
ATOM     99  C   UNL A   1      46.901  27.426  35.710  1.00  0.00     0.022 A 
BRANCH  97 100
ATOM    100  S   UNL A   1      45.795  25.217  36.890  1.00  0.00     0.127 S 
ATOM    101  O   UNL A   1      46.189  24.108  36.021  1.00  0.00    -0.237 OA
ATOM    102  O   UNL A   1      46.820  25.635  37.847  1.00  0.00    -0.237 OA
ATOM    103  O   UNL A   1      44.450  25.126  37.442  1.00  0.00    -0.744 OA
ENDBRANCH  97 100
ENDBRANCH  70  93
ENDBRANCH  44  45
ENDBRANCH  37  39
ENDBRANCH  36  37
ENDBRANCH  35  36
ENDBRANCH  34  35
ENDBRANCH   1  34
TORSDOF 22
ENDMDL
MODEL 3
REMARK VINA RESULT:     -11.9      1.583      7.405
REMARK SMILES CC(C)[C@@H]1C(=O)Nc2ccccc2N1C(=O)N[C@H](Cc1ccccc1)C(=O)OCCOCCOC(=O)c1ccc(-c2c3nc(c(-c4cccc(S(=O)(=O)[O-])c4F)c4ccc([nH]4)c(-c4cccc(S(=O)(=O)[O-])c4F)c4nc(c(-c5cccc(S(=O)(=O)[O-])c5F)c5ccc2[nH]5)C=C4)C=C3)cc1
REMARK SMILES IDX 31 1 30 2 29 3 28 4 26 5 27 6 18 7 17 8 15 9 16 10 14 12
REMARK SMILES IDX 4 13 5 14 6 15 7 16 13 17 8 18 12 20 9 21 11 22 10 23 2 24
REMARK SMILES IDX 1 25 3 26 19 27 20 28 21 29 25 30 22 31 24 32 23 33 32 34
REMARK SMILES IDX 33 35 34 36 35 37 36 38 37 39 38 40 99 41 39 42 98 43 40 44
REMARK SMILES IDX 41 45 42 46 92 47 43 48 97 49 91 50 93 51 44 52 96 53 90 54
REMARK SMILES IDX 89 55 45 57 77 58 57 59 76 60 58 61 61 62 75 63 94 64 59 65
REMARK SMILES IDX 60 66 74 68 95 69 62 70 46 71 47 72 55 73 48 74 50 75 56 76
REMARK SMILES IDX 49 77 51 78 52 79 53 80 54 81 78 82 79 83 87 84 80 85 82 86
REMARK SMILES IDX 88 87 81 88 83 89 84 90 85 91 86 92 63 93 64 94 72 95 65 96
REMARK SMILES IDX 67 97 73 98 66 99 68 100 69 101 70 102 71 103
REMARK H PARENT 17 11 7 19 93 56 61 67
REMARK Flexibility Score: inf
ROOT
ATOM      1  O   UNL A   1      32.362  30.755  26.626  1.00  0.00    -0.374 OA
ENDROOT
BRANCH   1   2
ATOM      2  C   UNL A   1      32.317  29.797  25.547  1.00  0.00     0.202 C 
BRANCH   2   3
ATOM      3  C   UNL A   1      33.452  28.703  25.552  1.00  0.00     0.261 C 
BRANCH   3   4
ATOM      4  O   UNL A   1      32.997  27.356  25.946  1.00  0.00    -0.462 OA
BRANCH   4   5
ATOM      5  C   UNL A   1      31.739  27.108  26.432  1.00  0.00     0.329 C 
ATOM      6  O   UNL A   1      31.521  27.027  27.640  1.00  0.00    -0.250 OA
BRANCH   5   7
ATOM      7  C   UNL A   1      30.579  26.754  25.344  1.00  0.00     0.198 C 
BRANCH   7   8
ATOM      8  N   UNL A   1      30.480  25.313  25.412  1.00  0.00    -0.324 N 
ATOM      9  C   UNL A   1      31.201  24.440  24.666  1.00  0.00     0.323 C 
ATOM     10  O   UNL A   1      30.586  23.415  24.363  1.00  0.00    -0.248 OA
ATOM     11  H   UNL A   1      29.834  24.935  26.052  1.00  0.00     0.166 HD
BRANCH   9  12
ATOM     12  N   UNL A   1      32.575  24.604  24.545  1.00  0.00    -0.280 N 
ATOM     13  C   UNL A   1      33.462  24.850  23.290  1.00  0.00     0.184 C 
ATOM     14  C   UNL A   1      33.878  23.449  22.742  1.00  0.00     0.247 C 
ATOM     15  O   UNL A   1      34.064  23.186  21.556  1.00  0.00    -0.272 OA
ATOM     16  N   UNL A   1      34.265  22.525  23.667  1.00  0.00    -0.322 N 
ATOM     17  C   UNL A   1      33.235  23.715  25.505  1.00  0.00     0.070 A 
ATOM     18  C   UNL A   1      34.000  22.647  25.026  1.00  0.00     0.065 A 
ATOM     19  H   UNL A   1      34.758  21.731  23.357  1.00  0.00     0.170 HD
ATOM     20  C   UNL A   1      32.878  23.730  26.867  1.00  0.00     0.028 A 
ATOM     21  C   UNL A   1      34.352  21.590  25.864  1.00  0.00     0.028 A 
ATOM     22  C   UNL A   1      33.250  22.678  27.711  1.00  0.00     0.002 A 
ATOM     23  C   UNL A   1      33.965  21.600  27.202  1.00  0.00     0.002 A 
BRANCH  13  24
ATOM     24  C   UNL A   1      33.191  25.855  22.034  1.00  0.00     0.015 C 
ATOM     25  C   UNL A   1      31.918  25.966  21.141  1.00  0.00     0.010 C 
ATOM     26  C   UNL A   1      33.469  27.339  22.401  1.00  0.00     0.010 C 
ENDBRANCH  13  24
ENDBRANCH   9  12
ENDBRANCH   7   8
BRANCH   7  27
ATOM     27  C   UNL A   1      30.191  27.053  23.814  1.00  0.00     0.072 C 
BRANCH  27  28
ATOM     28  C   UNL A   1      29.450  28.221  23.171  1.00  0.00    -0.045 A 
ATOM     29  C   UNL A   1      30.140  29.155  22.354  1.00  0.00     0.004 A 
ATOM     30  C   UNL A   1      28.065  28.344  23.248  1.00  0.00     0.004 A 
ATOM     31  C   UNL A   1      29.497  30.233  21.744  1.00  0.00     0.000 A 
ATOM     32  C   UNL A   1      27.408  29.387  22.574  1.00  0.00     0.000 A 
ATOM     33  C   UNL A   1      28.122  30.342  21.847  1.00  0.00     0.000 A 
ENDBRANCH  27  28
ENDBRANCH   7  27
ENDBRANCH   5   7
ENDBRANCH   4   5
ENDBRANCH   3   4
ENDBRANCH   2   3
ENDBRANCH   1   2
BRANCH   1  34
ATOM     34  C   UNL A   1      33.626  30.984  27.258  1.00  0.00     0.202 C 
BRANCH  34  35
ATOM     35  C   UNL A   1      33.794  32.145  28.241  1.00  0.00     0.261 C 
BRANCH  35  36
ATOM     36  O   UNL A   1      33.153  33.327  27.735  1.00  0.00    -0.460 OA
BRANCH  36  37
ATOM     37  C   UNL A   1      33.355  34.417  28.495  1.00  0.00     0.338 C 
ATOM     38  O   UNL A   1      32.686  35.447  28.459  1.00  0.00    -0.246 OA
BRANCH  37  39
ATOM     39  C   UNL A   1      34.415  34.207  29.502  1.00  0.00     0.060 A 
ATOM     40  C   UNL A   1      35.718  34.216  28.997  1.00  0.00     0.016 A 
ATOM     41  C   UNL A   1      34.195  33.918  30.854  1.00  0.00     0.016 A 
ATOM     42  C   UNL A   1      36.781  33.799  29.785  1.00  0.00     0.010 A 
ATOM     43  C   UNL A   1      35.281  33.543  31.663  1.00  0.00     0.010 A 
ATOM     44  C   UNL A   1      36.571  33.404  31.110  1.00  0.00    -0.014 A 
BRANCH  44  45
ATOM     45  C   UNL A   1      37.667  32.685  31.822  1.00  0.00     0.031 A 
ATOM     46  C   UNL A   1      38.299  31.474  31.181  1.00  0.00     0.074 A 
ATOM     47  C   UNL A   1      38.192  33.155  32.971  1.00  0.00     0.049 A 
ATOM     48  N   UNL A   1      39.293  30.739  31.609  1.00  0.00    -0.248 NA
ATOM     49  C   UNL A   1      37.769  31.055  29.872  1.00  0.00     0.031 C 
ATOM     50  C   UNL A   1      37.785  34.382  33.650  1.00  0.00     0.029 A 
ATOM     51  N   UNL A   1      39.179  32.645  33.781  1.00  0.00    -0.354 N 
ATOM     52  C   UNL A   1      39.510  29.781  30.628  1.00  0.00     0.074 A 
ATOM     53  C   UNL A   1      38.508  29.989  29.607  1.00  0.00     0.031 C 
ATOM     54  C   UNL A   1      38.454  34.490  34.808  1.00  0.00     0.029 A 
ATOM     55  C   UNL A   1      39.330  33.336  34.960  1.00  0.00     0.049 A 
ATOM     56  H   UNL A   1      39.724  31.862  33.539  1.00  0.00     0.167 HD
ATOM     57  C   UNL A   1      40.483  28.843  30.551  1.00  0.00     0.034 A 
ATOM     58  C   UNL A   1      40.070  33.069  36.053  1.00  0.00     0.034 A 
ATOM     59  C   UNL A   1      41.502  28.647  31.546  1.00  0.00     0.049 A 
ATOM     60  C   UNL A   1      41.043  31.927  36.019  1.00  0.00     0.074 A 
ATOM     61  C   UNL A   1      42.557  27.751  31.527  1.00  0.00     0.029 A 
ATOM     62  N   UNL A   1      41.587  29.339  32.742  1.00  0.00    -0.354 N 
ATOM     63  N   UNL A   1      41.296  31.097  35.038  1.00  0.00    -0.248 NA
ATOM     64  C   UNL A   1      41.887  31.733  37.206  1.00  0.00     0.031 C 
ATOM     65  C   UNL A   1      43.251  27.868  32.736  1.00  0.00     0.029 A 
ATOM     66  C   UNL A   1      42.660  28.872  33.484  1.00  0.00     0.049 A 
ATOM     67  H   UNL A   1      40.976  30.057  33.024  1.00  0.00     0.167 HD
ATOM     68  C   UNL A   1      42.381  30.337  35.456  1.00  0.00     0.074 A 
ATOM     69  C   UNL A   1      42.725  30.794  36.787  1.00  0.00     0.031 C 
ATOM     70  C   UNL A   1      43.038  29.361  34.784  1.00  0.00     0.034 A 
BRANCH  57  71
ATOM     71  C   UNL A   1      40.507  27.966  29.328  1.00  0.00     0.023 A 
ATOM     72  C   UNL A   1      39.608  26.884  29.221  1.00  0.00     0.012 A 
ATOM     73  C   UNL A   1      41.387  28.243  28.264  1.00  0.00     0.148 A 
ATOM     74  C   UNL A   1      39.613  26.067  28.091  1.00  0.00     0.002 A 
ATOM     75  C   UNL A   1      41.352  27.454  27.121  1.00  0.00     0.091 A 
ATOM     76  F   UNL A   1      42.245  29.264  28.395  1.00  0.00    -0.205 F 
ATOM     77  C   UNL A   1      40.477  26.358  27.037  1.00  0.00     0.022 A 
BRANCH  75  78
ATOM     78  S   UNL A   1      42.366  27.799  25.680  1.00  0.00     0.127 S 
ATOM     79  O   UNL A   1      43.706  27.827  26.264  1.00  0.00    -0.237 OA
ATOM     80  O   UNL A   1      42.096  26.638  24.831  1.00  0.00    -0.237 OA
ATOM     81  O   UNL A   1      41.890  29.067  25.145  1.00  0.00    -0.744 OA
ENDBRANCH  75  78
ENDBRANCH  57  71
BRANCH  58  82
ATOM     82  C   UNL A   1      39.942  33.923  37.267  1.00  0.00     0.023 A 
ATOM     83  C   UNL A   1      40.582  35.173  37.324  1.00  0.00     0.012 A 
ATOM     84  C   UNL A   1      39.186  33.484  38.374  1.00  0.00     0.148 A 
ATOM     85  C   UNL A   1      40.509  35.956  38.476  1.00  0.00     0.002 A 
ATOM     86  C   UNL A   1      39.085  34.286  39.503  1.00  0.00     0.091 A 
ATOM     87  F   UNL A   1      38.576  32.292  38.292  1.00  0.00    -0.205 F 
ATOM     88  C   UNL A   1      39.760  35.515  39.564  1.00  0.00     0.022 A 
BRANCH  86  89
ATOM     89  S   UNL A   1      38.066  33.849  40.916  1.00  0.00     0.127 S 
ATOM     90  O   UNL A   1      38.908  32.872  41.601  1.00  0.00    -0.237 OA
ATOM     91  O   UNL A   1      37.936  35.139  41.593  1.00  0.00    -0.237 OA
ATOM     92  O   UNL A   1      36.826  33.328  40.357  1.00  0.00    -0.744 OA
ENDBRANCH  86  89
ENDBRANCH  58  82
BRANCH  70  93
ATOM     93  C   UNL A   1      44.256  28.757  35.433  1.00  0.00     0.023 A 
ATOM     94  C   UNL A   1      45.537  29.284  35.178  1.00  0.00     0.012 A 
ATOM     95  C   UNL A   1      44.113  27.706  36.363  1.00  0.00     0.148 A 
ATOM     96  C   UNL A   1      46.660  28.753  35.813  1.00  0.00     0.002 A 
ATOM     97  C   UNL A   1      45.229  27.219  37.032  1.00  0.00     0.091 A 
ATOM     98  F   UNL A   1      42.888  27.205  36.577  1.00  0.00    -0.205 F 
ATOM     99  C   UNL A   1      46.504  27.733  36.749  1.00  0.00     0.022 A 
BRANCH  97 100
ATOM    100  S   UNL A   1      45.114  25.980  38.327  1.00  0.00     0.127 S 
ATOM    101  O   UNL A   1      46.511  25.853  38.741  1.00  0.00    -0.237 OA
ATOM    102  O   UNL A   1      44.245  26.634  39.304  1.00  0.00    -0.237 OA
ATOM    103  O   UNL A   1      44.541  24.795  37.702  1.00  0.00    -0.744 OA
ENDBRANCH  97 100
ENDBRANCH  70  93
ENDBRANCH  44  45
ENDBRANCH  37  39
ENDBRANCH  36  37
ENDBRANCH  35  36
ENDBRANCH  34  35
ENDBRANCH   1  34
TORSDOF 22
ENDMDL
