MODEL 1
REMARK VINA RESULT:     -11.7      0.000      0.000
REMARK SMILES O=Cc1ccc2c(c1)C=C(C(=O)OCCOCCOC(=O)c1ccc(-c3c4nc(c(-c5cccc(S(=O)(=O)[O-])c5F)c5ccc([nH]5)c(-c5cccc(S(=O)(=O)[O-])c5F)c5nc(c(-c6cccc(S(=O)(=O)[O-])c6F)c6ccc3[nH]6)C=C5)C=C4)cc1)[C@H](C(F)(F)F)O2
REMARK SMILES IDX 17 1 16 2 15 3 14 4 13 5 11 6 12 7 10 8 3 9 4 10 8 11 5 12
REMARK SMILES IDX 7 13 6 14 9 15 90 16 85 17 2 18 1 19 86 20 87 21 88 22 89 23
REMARK SMILES IDX 18 24 19 25 20 26 21 27 22 28 23 29 84 30 24 31 83 32 25 33
REMARK SMILES IDX 26 34 27 35 77 36 28 37 82 38 76 39 78 40 29 41 81 42 75 43
REMARK SMILES IDX 74 44 30 46 62 47 42 48 61 49 43 50 46 51 60 52 79 53 44 54
REMARK SMILES IDX 45 55 59 57 80 58 47 59 31 60 32 61 40 62 33 63 35 64 41 65
REMARK SMILES IDX 34 66 36 67 37 68 38 69 39 70 63 71 64 72 72 73 65 74 67 75
REMARK SMILES IDX 73 76 66 77 68 78 69 79 70 80 71 81 48 82 49 83 57 84 50 85
REMARK SMILES IDX 52 86 58 87 51 88 53 89 54 90 55 91 56 92
REMARK H PARENT 78 45 46 56
REMARK Flexibility Score: inf
ROOT
ATOM      1  C   UNL A   1      36.005  20.935  25.100  1.00  0.00     0.202 C 
ENDROOT
BRANCH   1   2
ATOM      2  O   UNL A   1      35.646  21.494  26.359  1.00  0.00    -0.374 OA
BRANCH   2   3
ATOM      3  C   UNL A   1      35.220  22.852  26.415  1.00  0.00     0.202 C 
BRANCH   3   4
ATOM      4  C   UNL A   1      33.833  23.160  26.987  1.00  0.00     0.261 C 
BRANCH   4   5
ATOM      5  O   UNL A   1      32.900  23.557  25.971  1.00  0.00    -0.460 OA
BRANCH   5   6
ATOM      6  C   UNL A   1      31.874  22.696  25.778  1.00  0.00     0.338 C 
ATOM      7  O   UNL A   1      30.695  22.902  26.018  1.00  0.00    -0.246 OA
BRANCH   6   8
ATOM      8  C   UNL A   1      32.339  21.476  25.095  1.00  0.00     0.087 C 
ATOM      9  C   UNL A   1      32.992  16.721  24.774  1.00  0.00     0.015 A 
ATOM     10  C   UNL A   1      32.929  16.812  23.379  1.00  0.00     0.015 A 
ATOM     11  C   UNL A   1      32.870  17.865  25.573  1.00  0.00     0.023 A 
ATOM     12  C   UNL A   1      32.747  18.053  22.774  1.00  0.00     0.048 A 
ATOM     13  C   UNL A   1      32.674  19.110  24.967  1.00  0.00     0.018 A 
ATOM     14  C   UNL A   1      32.631  19.192  23.566  1.00  0.00     0.128 A 
ATOM     15  C   UNL A   1      32.374  20.306  25.754  1.00  0.00     0.027 C 
ATOM     16  O   UNL A   1      32.397  20.370  22.905  1.00  0.00    -0.475 OA
ATOM     17  C   UNL A   1      32.773  21.560  23.647  1.00  0.00     0.316 C 
BRANCH   9  18
ATOM     18  C   UNL A   1      33.147  15.397  25.410  1.00  0.00     0.260 C 
ATOM     19  O   UNL A   1      34.183  14.752  25.309  1.00  0.00    -0.298 OA
ENDBRANCH   9  18
BRANCH  17  20
ATOM     20  C   UNL A   1      32.374  22.794  22.818  1.00  0.00     0.430 C 
ATOM     21  F   UNL A   1      32.670  22.627  21.508  1.00  0.00    -0.167 F 
ATOM     22  F   UNL A   1      31.023  22.965  22.868  1.00  0.00    -0.167 F 
ATOM     23  F   UNL A   1      32.927  23.940  23.258  1.00  0.00    -0.167 F 
ENDBRANCH  17  20
ENDBRANCH   6   8
ENDBRANCH   5   6
ENDBRANCH   4   5
ENDBRANCH   3   4
ENDBRANCH   2   3
ENDBRANCH   1   2
BRANCH   1  24
ATOM     24  C   UNL A   1      37.431  20.409  24.884  1.00  0.00     0.261 C 
BRANCH  24  25
ATOM     25  O   UNL A   1      38.444  21.412  25.038  1.00  0.00    -0.460 OA
BRANCH  25  26
ATOM     26  C   UNL A   1      39.370  21.109  25.981  1.00  0.00     0.338 C 
ATOM     27  O   UNL A   1      39.970  20.053  26.109  1.00  0.00    -0.246 OA
BRANCH  26  28
ATOM     28  C   UNL A   1      39.728  22.308  26.758  1.00  0.00     0.060 A 
ATOM     29  C   UNL A   1      39.017  23.481  26.478  1.00  0.00     0.016 A 
ATOM     30  C   UNL A   1      40.810  22.316  27.640  1.00  0.00     0.016 A 
ATOM     31  C   UNL A   1      39.441  24.691  27.013  1.00  0.00     0.010 A 
ATOM     32  C   UNL A   1      41.234  23.537  28.177  1.00  0.00     0.010 A 
ATOM     33  C   UNL A   1      40.588  24.733  27.814  1.00  0.00    -0.014 A 
BRANCH  33  34
ATOM     34  C   UNL A   1      41.199  26.053  28.097  1.00  0.00     0.031 A 
ATOM     35  C   UNL A   1      42.570  26.356  27.554  1.00  0.00     0.074 A 
ATOM     36  C   UNL A   1      40.519  26.991  28.777  1.00  0.00     0.049 A 
ATOM     37  N   UNL A   1      43.262  27.463  27.623  1.00  0.00    -0.248 NA
ATOM     38  C   UNL A   1      43.253  25.265  26.839  1.00  0.00     0.031 C 
ATOM     39  C   UNL A   1      39.188  26.814  29.354  1.00  0.00     0.029 A 
ATOM     40  N   UNL A   1      40.864  28.278  29.104  1.00  0.00    -0.354 N 
ATOM     41  C   UNL A   1      44.474  27.193  26.998  1.00  0.00     0.074 A 
ATOM     42  C   UNL A   1      44.429  25.812  26.571  1.00  0.00     0.031 C 
ATOM     43  C   UNL A   1      38.834  27.947  29.984  1.00  0.00     0.029 A 
ATOM     44  C   UNL A   1      39.921  28.919  29.869  1.00  0.00     0.049 A 
ATOM     45  H   UNL A   1      41.705  28.701  28.817  1.00  0.00     0.167 HD
ATOM     46  C   UNL A   1      45.523  28.022  26.786  1.00  0.00     0.034 A 
ATOM     47  C   UNL A   1      39.939  30.144  30.427  1.00  0.00     0.034 A 
ATOM     48  C   UNL A   1      45.555  29.400  27.196  1.00  0.00     0.049 A 
ATOM     49  C   UNL A   1      41.110  31.052  30.169  1.00  0.00     0.074 A 
ATOM     50  C   UNL A   1      46.544  30.341  26.974  1.00  0.00     0.029 A 
ATOM     51  N   UNL A   1      44.564  30.029  27.933  1.00  0.00    -0.354 N 
ATOM     52  N   UNL A   1      42.196  30.822  29.472  1.00  0.00    -0.248 NA
ATOM     53  C   UNL A   1      41.035  32.406  30.736  1.00  0.00     0.031 C 
ATOM     54  C   UNL A   1      46.171  31.527  27.617  1.00  0.00     0.029 A 
ATOM     55  C   UNL A   1      44.923  31.341  28.191  1.00  0.00     0.049 A 
ATOM     56  H   UNL A   1      43.727  29.605  28.230  1.00  0.00     0.167 HD
ATOM     57  C   UNL A   1      42.916  32.013  29.483  1.00  0.00     0.074 A 
ATOM     58  C   UNL A   1      42.130  32.966  30.241  1.00  0.00     0.031 C 
ATOM     59  C   UNL A   1      44.118  32.291  28.918  1.00  0.00     0.034 A 
BRANCH  46  60
ATOM     60  C   UNL A   1      46.728  27.450  26.081  1.00  0.00     0.023 A 
ATOM     61  C   UNL A   1      46.860  27.577  24.682  1.00  0.00     0.012 A 
ATOM     62  C   UNL A   1      47.743  26.805  26.813  1.00  0.00     0.148 A 
ATOM     63  C   UNL A   1      47.957  27.026  24.019  1.00  0.00     0.002 A 
ATOM     64  C   UNL A   1      48.859  26.305  26.151  1.00  0.00     0.091 A 
ATOM     65  F   UNL A   1      47.591  26.671  28.138  1.00  0.00    -0.205 F 
ATOM     66  C   UNL A   1      48.961  26.400  24.755  1.00  0.00     0.022 A 
BRANCH  64  67
ATOM     67  S   UNL A   1      50.241  25.559  27.022  1.00  0.00     0.127 S 
ATOM     68  O   UNL A   1      51.180  25.313  25.928  1.00  0.00    -0.237 OA
ATOM     69  O   UNL A   1      50.640  26.627  27.939  1.00  0.00    -0.237 OA
ATOM     70  O   UNL A   1      49.711  24.369  27.673  1.00  0.00    -0.744 OA
ENDBRANCH  64  67
ENDBRANCH  46  60
BRANCH  47  71
ATOM     71  C   UNL A   1      38.786  30.585  31.258  1.00  0.00     0.023 A 
ATOM     72  C   UNL A   1      38.814  30.410  32.655  1.00  0.00     0.012 A 
ATOM     73  C   UNL A   1      37.679  31.222  30.665  1.00  0.00     0.148 A 
ATOM     74  C   UNL A   1      37.746  30.842  33.443  1.00  0.00     0.002 A 
ATOM     75  C   UNL A   1      36.649  31.703  31.461  1.00  0.00     0.091 A 
ATOM     76  F   UNL A   1      37.673  31.369  29.332  1.00  0.00    -0.205 F 
ATOM     77  C   UNL A   1      36.671  31.497  32.849  1.00  0.00     0.022 A 
BRANCH  75  78
ATOM     78  S   UNL A   1      35.296  32.681  30.799  1.00  0.00     0.127 S 
ATOM     79  O   UNL A   1      35.962  33.944  30.491  1.00  0.00    -0.237 OA
ATOM     80  O   UNL A   1      34.901  31.889  29.634  1.00  0.00    -0.237 OA
ATOM     81  O   UNL A   1      34.294  32.739  31.855  1.00  0.00    -0.744 OA
ENDBRANCH  75  78
ENDBRANCH  47  71
BRANCH  59  82
ATOM     82  C   UNL A   1      44.640  33.700  29.049  1.00  0.00     0.023 A 
ATOM     83  C   UNL A   1      44.323  34.673  28.080  1.00  0.00     0.012 A 
ATOM     84  C   UNL A   1      45.417  34.070  30.166  1.00  0.00     0.148 A 
ATOM     85  C   UNL A   1      44.814  35.975  28.193  1.00  0.00     0.002 A 
ATOM     86  C   UNL A   1      45.854  35.382  30.301  1.00  0.00     0.091 A 
ATOM     87  F   UNL A   1      45.726  33.130  31.071  1.00  0.00    -0.205 F 
ATOM     88  C   UNL A   1      45.570  36.331  29.307  1.00  0.00     0.022 A 
BRANCH  86  89
ATOM     89  S   UNL A   1      46.745  35.949  31.755  1.00  0.00     0.127 S 
ATOM     90  O   UNL A   1      45.668  36.069  32.736  1.00  0.00    -0.237 OA
ATOM     91  O   UNL A   1      47.673  34.845  32.002  1.00  0.00    -0.237 OA
ATOM     92  O   UNL A   1      47.385  37.199  31.369  1.00  0.00    -0.744 OA
ENDBRANCH  86  89
ENDBRANCH  59  82
ENDBRANCH  33  34
ENDBRANCH  26  28
ENDBRANCH  25  26
ENDBRANCH  24  25
ENDBRANCH   1  24
TORSDOF 19
ENDMDL
MODEL 2
REMARK VINA RESULT:     -11.3      4.711      9.625
REMARK SMILES O=Cc1ccc2c(c1)C=C(C(=O)OCCOCCOC(=O)c1ccc(-c3c4nc(c(-c5cccc(S(=O)(=O)[O-])c5F)c5ccc([nH]5)c(-c5cccc(S(=O)(=O)[O-])c5F)c5nc(c(-c6cccc(S(=O)(=O)[O-])c6F)c6ccc3[nH]6)C=C5)C=C4)cc1)[C@H](C(F)(F)F)O2
REMARK SMILES IDX 17 1 16 2 15 3 14 4 13 5 11 6 12 7 10 8 3 9 4 10 8 11 5 12
REMARK SMILES IDX 7 13 6 14 9 15 90 16 85 17 2 18 1 19 86 20 87 21 88 22 89 23
REMARK SMILES IDX 18 24 19 25 20 26 21 27 22 28 23 29 84 30 24 31 83 32 25 33
REMARK SMILES IDX 26 34 27 35 77 36 28 37 82 38 76 39 78 40 29 41 81 42 75 43
REMARK SMILES IDX 74 44 30 46 62 47 42 48 61 49 43 50 46 51 60 52 79 53 44 54
REMARK SMILES IDX 45 55 59 57 80 58 47 59 31 60 32 61 40 62 33 63 35 64 41 65
REMARK SMILES IDX 34 66 36 67 37 68 38 69 39 70 63 71 64 72 72 73 65 74 67 75
REMARK SMILES IDX 73 76 66 77 68 78 69 79 70 80 71 81 48 82 49 83 57 84 50 85
REMARK SMILES IDX 52 86 58 87 51 88 53 89 54 90 55 91 56 92
REMARK H PARENT 78 45 46 56
REMARK Flexibility Score: inf
ROOT
ATOM      1  C   UNL A   1      31.274  30.021  25.087  1.00  0.00     0.202 C 
ENDROOT
BRANCH   1   2
ATOM      2  O   UNL A   1      31.006  29.075  24.057  1.00  0.00    -0.374 OA
BRANCH   2   3
ATOM      3  C   UNL A   1      30.290  27.887  24.381  1.00  0.00     0.202 C 
BRANCH   3   4
ATOM      4  C   UNL A   1      30.445  26.668  23.467  1.00  0.00     0.261 C 
BRANCH   4   5
ATOM      5  O   UNL A   1      30.083  25.444  24.124  1.00  0.00    -0.460 OA
BRANCH   5   6
ATOM      6  C   UNL A   1      30.529  25.332  25.397  1.00  0.00     0.338 C 
ATOM      7  O   UNL A   1      30.073  25.894  26.381  1.00  0.00    -0.246 OA
BRANCH   6   8
ATOM      8  C   UNL A   1      31.589  24.313  25.490  1.00  0.00     0.087 C 
ATOM      9  C   UNL A   1      33.371  19.899  24.799  1.00  0.00     0.015 A 
ATOM     10  C   UNL A   1      34.660  20.436  24.725  1.00  0.00     0.015 A 
ATOM     11  C   UNL A   1      32.261  20.724  25.019  1.00  0.00     0.023 A 
ATOM     12  C   UNL A   1      34.847  21.808  24.875  1.00  0.00     0.048 A 
ATOM     13  C   UNL A   1      32.446  22.104  25.156  1.00  0.00     0.018 A 
ATOM     14  C   UNL A   1      33.746  22.631  25.099  1.00  0.00     0.128 A 
ATOM     15  C   UNL A   1      31.313  23.027  25.219  1.00  0.00     0.027 C 
ATOM     16  O   UNL A   1      34.000  23.976  25.180  1.00  0.00    -0.475 OA
ATOM     17  C   UNL A   1      32.987  24.735  25.889  1.00  0.00     0.316 C 
BRANCH   9  18
ATOM     18  C   UNL A   1      33.175  18.448  24.602  1.00  0.00     0.260 C 
ATOM     19  O   UNL A   1      32.274  18.010  23.898  1.00  0.00    -0.298 OA
ENDBRANCH   9  18
BRANCH  17  20
ATOM     20  C   UNL A   1      33.364  26.226  25.822  1.00  0.00     0.430 C 
ATOM     21  F   UNL A   1      32.645  26.959  26.705  1.00  0.00    -0.167 F 
ATOM     22  F   UNL A   1      34.666  26.389  26.188  1.00  0.00    -0.167 F 
ATOM     23  F   UNL A   1      33.237  26.760  24.593  1.00  0.00    -0.167 F 
ENDBRANCH  17  20
ENDBRANCH   6   8
ENDBRANCH   5   6
ENDBRANCH   4   5
ENDBRANCH   3   4
ENDBRANCH   2   3
ENDBRANCH   1   2
BRANCH   1  24
ATOM     24  C   UNL A   1      32.671  30.072  25.721  1.00  0.00     0.261 C 
BRANCH  24  25
ATOM     25  O   UNL A   1      32.658  30.402  27.117  1.00  0.00    -0.460 OA
BRANCH  25  26
ATOM     26  C   UNL A   1      33.382  31.508  27.421  1.00  0.00     0.338 C 
ATOM     27  O   UNL A   1      32.954  32.633  27.626  1.00  0.00    -0.246 OA
BRANCH  26  28
ATOM     28  C   UNL A   1      34.789  31.152  27.670  1.00  0.00     0.060 A 
ATOM     29  C   UNL A   1      35.093  29.788  27.755  1.00  0.00     0.016 A 
ATOM     30  C   UNL A   1      35.756  32.121  27.939  1.00  0.00     0.016 A 
ATOM     31  C   UNL A   1      36.347  29.384  28.196  1.00  0.00     0.010 A 
ATOM     32  C   UNL A   1      37.018  31.711  28.384  1.00  0.00     0.010 A 
ATOM     33  C   UNL A   1      37.293  30.345  28.573  1.00  0.00    -0.014 A 
BRANCH  33  34
ATOM     34  C   UNL A   1      38.481  29.899  29.338  1.00  0.00     0.031 A 
ATOM     35  C   UNL A   1      38.634  30.334  30.771  1.00  0.00     0.074 A 
ATOM     36  C   UNL A   1      39.380  29.067  28.784  1.00  0.00     0.049 A 
ATOM     37  N   UNL A   1      39.554  30.009  31.641  1.00  0.00    -0.248 NA
ATOM     38  C   UNL A   1      37.616  31.262  31.291  1.00  0.00     0.031 C 
ATOM     39  C   UNL A   1      39.339  28.580  27.407  1.00  0.00     0.029 A 
ATOM     40  N   UNL A   1      40.507  28.496  29.315  1.00  0.00    -0.354 N 
ATOM     41  C   UNL A   1      39.251  30.719  32.797  1.00  0.00     0.074 A 
ATOM     42  C   UNL A   1      38.071  31.505  32.511  1.00  0.00     0.031 C 
ATOM     43  C   UNL A   1      40.409  27.795  27.194  1.00  0.00     0.029 A 
ATOM     44  C   UNL A   1      41.216  27.742  28.413  1.00  0.00     0.049 A 
ATOM     45  H   UNL A   1      40.782  28.614  30.254  1.00  0.00     0.167 HD
ATOM     46  C   UNL A   1      39.887  30.709  33.992  1.00  0.00     0.034 A 
ATOM     47  C   UNL A   1      42.389  27.096  28.548  1.00  0.00     0.034 A 
ATOM     48  C   UNL A   1      41.049  29.911  34.277  1.00  0.00     0.049 A 
ATOM     49  C   UNL A   1      43.073  27.087  29.888  1.00  0.00     0.074 A 
ATOM     50  C   UNL A   1      41.732  29.780  35.473  1.00  0.00     0.029 A 
ATOM     51  N   UNL A   1      41.716  29.125  33.350  1.00  0.00    -0.354 N 
ATOM     52  N   UNL A   1      42.708  27.666  31.006  1.00  0.00    -0.248 NA
ATOM     53  C   UNL A   1      44.307  26.297  29.996  1.00  0.00     0.031 C 
ATOM     54  C   UNL A   1      42.839  28.951  35.256  1.00  0.00     0.029 A 
ATOM     55  C   UNL A   1      42.813  28.519  33.940  1.00  0.00     0.049 A 
ATOM     56  H   UNL A   1      41.449  29.014  32.408  1.00  0.00     0.167 HD
ATOM     57  C   UNL A   1      43.643  27.279  31.960  1.00  0.00     0.074 A 
ATOM     58  C   UNL A   1      44.581  26.401  31.289  1.00  0.00     0.031 C 
ATOM     59  C   UNL A   1      43.720  27.620  33.271  1.00  0.00     0.034 A 
BRANCH  46  60
ATOM     60  C   UNL A   1      39.337  31.597  35.079  1.00  0.00     0.023 A 
ATOM     61  C   UNL A   1      38.338  31.116  35.953  1.00  0.00     0.012 A 
ATOM     62  C   UNL A   1      39.829  32.906  35.249  1.00  0.00     0.148 A 
ATOM     63  C   UNL A   1      37.805  31.941  36.944  1.00  0.00     0.002 A 
ATOM     64  C   UNL A   1      39.329  33.703  36.272  1.00  0.00     0.091 A 
ATOM     65  F   UNL A   1      40.760  33.355  34.395  1.00  0.00    -0.205 F 
ATOM     66  C   UNL A   1      38.307  33.230  37.109  1.00  0.00     0.022 A 
BRANCH  64  67
ATOM     67  S   UNL A   1      39.972  35.344  36.617  1.00  0.00     0.127 S 
ATOM     68  O   UNL A   1      39.449  35.590  37.959  1.00  0.00    -0.237 OA
ATOM     69  O   UNL A   1      41.418  35.126  36.556  1.00  0.00    -0.237 OA
ATOM     70  O   UNL A   1      39.446  36.209  35.570  1.00  0.00    -0.744 OA
ENDBRANCH  64  67
ENDBRANCH  46  60
BRANCH  47  71
ATOM     71  C   UNL A   1      42.966  26.376  27.380  1.00  0.00     0.023 A 
ATOM     72  C   UNL A   1      43.931  27.004  26.570  1.00  0.00     0.012 A 
ATOM     73  C   UNL A   1      42.590  25.048  27.102  1.00  0.00     0.148 A 
ATOM     74  C   UNL A   1      44.493  26.328  25.486  1.00  0.00     0.002 A 
ATOM     75  C   UNL A   1      43.198  24.361  26.060  1.00  0.00     0.091 A 
ATOM     76  F   UNL A   1      41.664  24.475  27.883  1.00  0.00    -0.205 F 
ATOM     77  C   UNL A   1      44.136  25.005  25.238  1.00  0.00     0.022 A 
BRANCH  75  78
ATOM     78  S   UNL A   1      42.904  22.616  25.756  1.00  0.00     0.127 S 
ATOM     79  O   UNL A   1      43.423  22.456  24.399  1.00  0.00    -0.237 OA
ATOM     80  O   UNL A   1      43.712  21.993  26.804  1.00  0.00    -0.237 OA
ATOM     81  O   UNL A   1      41.468  22.422  25.906  1.00  0.00    -0.744 OA
ENDBRANCH  75  78
ENDBRANCH  47  71
BRANCH  59  82
ATOM     82  C   UNL A   1      44.827  27.002  34.089  1.00  0.00     0.023 A 
ATOM     83  C   UNL A   1      46.109  27.588  34.114  1.00  0.00     0.012 A 
ATOM     84  C   UNL A   1      44.580  25.855  34.870  1.00  0.00     0.148 A 
ATOM     85  C   UNL A   1      47.139  27.012  34.860  1.00  0.00     0.002 A 
ATOM     86  C   UNL A   1      45.594  25.321  35.655  1.00  0.00     0.091 A 
ATOM     87  F   UNL A   1      43.361  25.298  34.822  1.00  0.00    -0.205 F 
ATOM     88  C   UNL A   1      46.878  25.886  35.637  1.00  0.00     0.022 A 
BRANCH  86  89
ATOM     89  S   UNL A   1      45.316  23.935  36.764  1.00  0.00     0.127 S 
ATOM     90  O   UNL A   1      46.676  23.624  37.199  1.00  0.00    -0.237 OA
ATOM     91  O   UNL A   1      44.467  24.529  37.798  1.00  0.00    -0.237 OA
ATOM     92  O   UNL A   1      44.661  22.909  35.965  1.00  0.00    -0.744 OA
ENDBRANCH  86  89
ENDBRANCH  59  82
ENDBRANCH  33  34
ENDBRANCH  26  28
ENDBRANCH  25  26
ENDBRANCH  24  25
ENDBRANCH   1  24
TORSDOF 19
ENDMDL
MODEL 3
REMARK VINA RESULT:     -11.3      4.803      9.607
REMARK SMILES O=Cc1ccc2c(c1)C=C(C(=O)OCCOCCOC(=O)c1ccc(-c3c4nc(c(-c5cccc(S(=O)(=O)[O-])c5F)c5ccc([nH]5)c(-c5cccc(S(=O)(=O)[O-])c5F)c5nc(c(-c6cccc(S(=O)(=O)[O-])c6F)c6ccc3[nH]6)C=C5)C=C4)cc1)[C@H](C(F)(F)F)O2
REMARK SMILES IDX 17 1 16 2 15 3 14 4 13 5 11 6 12 7 10 8 3 9 4 10 8 11 5 12
REMARK SMILES IDX 7 13 6 14 9 15 90 16 85 17 2 18 1 19 86 20 87 21 88 22 89 23
REMARK SMILES IDX 18 24 19 25 20 26 21 27 22 28 23 29 84 30 24 31 83 32 25 33
REMARK SMILES IDX 26 34 27 35 77 36 28 37 82 38 76 39 78 40 29 41 81 42 75 43
REMARK SMILES IDX 74 44 30 46 62 47 42 48 61 49 43 50 46 51 60 52 79 53 44 54
REMARK SMILES IDX 45 55 59 57 80 58 47 59 31 60 32 61 40 62 33 63 35 64 41 65
REMARK SMILES IDX 34 66 36 67 37 68 38 69 39 70 63 71 64 72 72 73 65 74 67 75
REMARK SMILES IDX 73 76 66 77 68 78 69 79 70 80 71 81 48 82 49 83 57 84 50 85
REMARK SMILES IDX 52 86 58 87 51 88 53 89 54 90 55 91 56 92
REMARK H PARENT 78 45 46 56
REMARK Flexibility Score: inf
ROOT
ATOM      1  C   UNL A   1      31.853  29.721  25.268  1.00  0.00     0.202 C 
ENDROOT
BRANCH   1   2
ATOM      2  O   UNL A   1      31.635  28.412  25.784  1.00  0.00    -0.374 OA
BRANCH   2   3
ATOM      3  C   UNL A   1      31.165  27.394  24.905  1.00  0.00     0.202 C 
BRANCH   3   4
ATOM      4  C   UNL A   1      30.872  26.007  25.484  1.00  0.00     0.261 C 
BRANCH   4   5
ATOM      5  O   UNL A   1      32.033  25.409  26.080  1.00  0.00    -0.460 OA
BRANCH   5   6
ATOM      6  C   UNL A   1      33.103  25.308  25.257  1.00  0.00     0.338 C 
ATOM      7  O   UNL A   1      34.038  26.089  25.179  1.00  0.00    -0.246 OA
BRANCH   6   8
ATOM      8  C   UNL A   1      33.080  24.029  24.526  1.00  0.00     0.087 C 
ATOM      9  C   UNL A   1      32.518  19.260  24.237  1.00  0.00     0.015 A 
ATOM     10  C   UNL A   1      32.111  19.394  22.905  1.00  0.00     0.015 A 
ATOM     11  C   UNL A   1      32.877  20.383  24.994  1.00  0.00     0.023 A 
ATOM     12  C   UNL A   1      32.064  20.657  22.319  1.00  0.00     0.048 A 
ATOM     13  C   UNL A   1      32.817  21.653  24.410  1.00  0.00     0.018 A 
ATOM     14  C   UNL A   1      32.426  21.774  23.067  1.00  0.00     0.128 A 
ATOM     15  C   UNL A   1      33.018  22.869  25.199  1.00  0.00     0.027 C 
ATOM     16  O   UNL A   1      32.302  22.989  22.443  1.00  0.00    -0.475 OA
ATOM     17  C   UNL A   1      33.122  24.042  23.013  1.00  0.00     0.316 C 
BRANCH   9  18
ATOM     18  C   UNL A   1      32.529  17.923  24.863  1.00  0.00     0.260 C 
ATOM     19  O   UNL A   1      32.723  17.776  26.064  1.00  0.00    -0.298 OA
ENDBRANCH   9  18
BRANCH  17  20
ATOM     20  C   UNL A   1      32.812  25.353  22.268  1.00  0.00     0.430 C 
ATOM     21  F   UNL A   1      33.620  26.359  22.680  1.00  0.00    -0.167 F 
ATOM     22  F   UNL A   1      33.067  25.200  20.939  1.00  0.00    -0.167 F 
ATOM     23  F   UNL A   1      31.527  25.742  22.375  1.00  0.00    -0.167 F 
ENDBRANCH  17  20
ENDBRANCH   6   8
ENDBRANCH   5   6
ENDBRANCH   4   5
ENDBRANCH   3   4
ENDBRANCH   2   3
ENDBRANCH   1   2
BRANCH   1  24
ATOM     24  C   UNL A   1      31.854  30.921  26.225  1.00  0.00     0.261 C 
BRANCH  24  25
ATOM     25  O   UNL A   1      32.707  30.748  27.365  1.00  0.00    -0.460 OA
BRANCH  25  26
ATOM     26  C   UNL A   1      33.504  31.817  27.614  1.00  0.00     0.338 C 
ATOM     27  O   UNL A   1      33.149  32.969  27.809  1.00  0.00    -0.246 OA
BRANCH  26  28
ATOM     28  C   UNL A   1      34.897  31.385  27.818  1.00  0.00     0.060 A 
ATOM     29  C   UNL A   1      35.123  30.009  27.948  1.00  0.00     0.016 A 
ATOM     30  C   UNL A   1      35.931  32.303  28.005  1.00  0.00     0.016 A 
ATOM     31  C   UNL A   1      36.369  29.547  28.352  1.00  0.00     0.010 A 
ATOM     32  C   UNL A   1      37.185  31.835  28.413  1.00  0.00     0.010 A 
ATOM     33  C   UNL A   1      37.386  30.462  28.648  1.00  0.00    -0.014 A 
BRANCH  33  34
ATOM     34  C   UNL A   1      38.579  29.975  29.380  1.00  0.00     0.031 A 
ATOM     35  C   UNL A   1      38.824  30.459  30.784  1.00  0.00     0.074 A 
ATOM     36  C   UNL A   1      39.399  29.066  28.825  1.00  0.00     0.049 A 
ATOM     37  N   UNL A   1      39.761  30.114  31.627  1.00  0.00    -0.248 NA
ATOM     38  C   UNL A   1      37.889  31.470  31.306  1.00  0.00     0.031 C 
ATOM     39  C   UNL A   1      39.266  28.525  27.474  1.00  0.00     0.029 A 
ATOM     40  N   UNL A   1      40.513  28.448  29.332  1.00  0.00    -0.354 N 
ATOM     41  C   UNL A   1      39.555  30.889  32.762  1.00  0.00     0.074 A 
ATOM     42  C   UNL A   1      38.414  31.735  32.493  1.00  0.00     0.031 C 
ATOM     43  C   UNL A   1      40.275  27.667  27.250  1.00  0.00     0.029 A 
ATOM     44  C   UNL A   1      41.132  27.614  28.434  1.00  0.00     0.049 A 
ATOM     45  H   UNL A   1      40.837  28.587  30.252  1.00  0.00     0.167 HD
ATOM     46  C   UNL A   1      40.244  30.888  33.928  1.00  0.00     0.034 A 
ATOM     47  C   UNL A   1      42.269  26.902  28.547  1.00  0.00     0.034 A 
ATOM     48  C   UNL A   1      41.367  30.032  34.198  1.00  0.00     0.049 A 
ATOM     49  C   UNL A   1      43.012  26.906  29.855  1.00  0.00     0.074 A 
ATOM     50  C   UNL A   1      42.094  29.908  35.368  1.00  0.00     0.029 A 
ATOM     51  N   UNL A   1      41.941  29.167  33.279  1.00  0.00    -0.354 N 
ATOM     52  N   UNL A   1      42.734  27.553  30.962  1.00  0.00    -0.248 NA
ATOM     53  C   UNL A   1      44.199  26.045  29.945  1.00  0.00     0.031 C 
ATOM     54  C   UNL A   1      43.137  29.003  35.141  1.00  0.00     0.029 A 
ATOM     55  C   UNL A   1      43.025  28.519  33.847  1.00  0.00     0.049 A 
ATOM     56  H   UNL A   1      41.626  29.034  32.356  1.00  0.00     0.167 HD
ATOM     57  C   UNL A   1      43.687  27.148  31.891  1.00  0.00     0.074 A 
ATOM     58  C   UNL A   1      44.537  26.185  31.220  1.00  0.00     0.031 C 
ATOM     59  C   UNL A   1      43.844  27.538  33.181  1.00  0.00     0.034 A 
BRANCH  46  60
ATOM     60  C   UNL A   1      39.799  31.854  34.998  1.00  0.00     0.023 A 
ATOM     61  C   UNL A   1      40.175  33.213  34.931  1.00  0.00     0.012 A 
ATOM     62  C   UNL A   1      38.986  31.416  36.061  1.00  0.00     0.148 A 
ATOM     63  C   UNL A   1      39.791  34.106  35.932  1.00  0.00     0.002 A 
ATOM     64  C   UNL A   1      38.564  32.324  37.026  1.00  0.00     0.091 A 
ATOM     65  F   UNL A   1      38.659  30.117  36.123  1.00  0.00    -0.205 F 
ATOM     66  C   UNL A   1      38.978  33.664  36.973  1.00  0.00     0.022 A 
BRANCH  64  67
ATOM     67  S   UNL A   1      37.448  31.866  38.356  1.00  0.00     0.127 S 
ATOM     68  O   UNL A   1      36.317  32.761  38.113  1.00  0.00    -0.237 OA
ATOM     69  O   UNL A   1      37.184  30.457  38.065  1.00  0.00    -0.237 OA
ATOM     70  O   UNL A   1      38.179  32.102  39.593  1.00  0.00    -0.744 OA
ENDBRANCH  64  67
ENDBRANCH  46  60
BRANCH  47  71
ATOM     71  C   UNL A   1      42.747  26.099  27.389  1.00  0.00     0.023 A 
ATOM     72  C   UNL A   1      43.645  26.662  26.462  1.00  0.00     0.012 A 
ATOM     73  C   UNL A   1      42.345  24.759  27.234  1.00  0.00     0.148 A 
ATOM     74  C   UNL A   1      44.115  25.909  25.386  1.00  0.00     0.002 A 
ATOM     75  C   UNL A   1      42.864  23.997  26.195  1.00  0.00     0.091 A 
ATOM     76  F   UNL A   1      41.483  24.248  28.124  1.00  0.00    -0.205 F 
ATOM     77  C   UNL A   1      43.735  24.575  25.259  1.00  0.00     0.022 A 
BRANCH  75  78
ATOM     78  S   UNL A   1      42.541  22.238  26.036  1.00  0.00     0.127 S 
ATOM     79  O   UNL A   1      41.093  22.215  25.845  1.00  0.00    -0.237 OA
ATOM     80  O   UNL A   1      43.326  21.899  24.849  1.00  0.00    -0.237 OA
ATOM     81  O   UNL A   1      43.022  21.632  27.270  1.00  0.00    -0.744 OA
ENDBRANCH  75  78
ENDBRANCH  47  71
BRANCH  59  82
ATOM     82  C   UNL A   1      44.948  26.886  33.976  1.00  0.00     0.023 A 
ATOM     83  C   UNL A   1      46.252  27.419  33.957  1.00  0.00     0.012 A 
ATOM     84  C   UNL A   1      44.677  25.761  34.781  1.00  0.00     0.148 A 
ATOM     85  C   UNL A   1      47.279  26.812  34.683  1.00  0.00     0.002 A 
ATOM     86  C   UNL A   1      45.689  25.197  35.546  1.00  0.00     0.091 A 
ATOM     87  F   UNL A   1      43.435  25.254  34.775  1.00  0.00    -0.205 F 
ATOM     88  C   UNL A   1      46.995  25.708  35.484  1.00  0.00     0.022 A 
BRANCH  86  89
ATOM     89  S   UNL A   1      45.387  23.839  36.683  1.00  0.00     0.127 S 
ATOM     90  O   UNL A   1      44.433  24.437  37.615  1.00  0.00    -0.237 OA
ATOM     91  O   UNL A   1      44.818  22.816  35.803  1.00  0.00    -0.237 OA
ATOM     92  O   UNL A   1      46.685  23.493  37.246  1.00  0.00    -0.744 OA
ENDBRANCH  86  89
ENDBRANCH  59  82
ENDBRANCH  33  34
ENDBRANCH  26  28
ENDBRANCH  25  26
ENDBRANCH  24  25
ENDBRANCH   1  24
TORSDOF 19
ENDMDL
